@<TRIPOS>MOLECULE
NONAME
32 33 1 0 0 
SMALL
USER_CHARGES


@<TRIPOS>ATOM
  1 O       -0.4130     1.1990    -0.3790 O.2   1 <1>  -0.5700 
  2 C       -0.6680     0.0160    -0.4470 C.2   1 <1>   0.6160 
  3 N       -1.9820    -0.3040    -0.5750 N.am  1 <1>  -0.7300 
  4 C        0.3740    -0.9740    -0.3980 C.2   1 <1>  -0.1360 
  5 C       -2.6440    -1.6140    -0.4220 C.3   1 <1>   0.1400 
  6 C        1.6900    -0.7550    -0.1620 C.2   1 <1>  -0.1780 
  7 C       -4.0220    -1.4030     0.2060 C.3   1 <1>  -0.1600 
  8 C        2.7760    -1.7020    -0.1060 C.ar  1 <1>   0.0280 
  9 C       -4.7570    -2.7340     0.3980 C.3   1 <1>  -0.2400 
 10 C        4.0490    -1.2620     0.2710 C.ar  1 <1>  -0.1500 
 11 C        2.6140    -3.0620    -0.4160 C.ar  1 <1>  -0.1500 
 12 C        5.0880    -2.1660     0.3270 C.ar  1 <1>   0.0830 
 13 C        3.6690    -3.9620    -0.3550 C.ar  1 <1>  -0.1500 
 14 O        6.3650    -1.9460     0.6620 O.3   1 <1>  -0.3630 
 15 C        4.9060    -3.4830     0.0230 C.ar  1 <1>   0.0830 
 16 C        7.0360    -3.2010     0.5640 C.3   1 <1>   0.4000 
 17 O        6.0550    -4.1500     0.1520 O.3   1 <1>  -0.3630 
 18 H       -2.6040     0.5040    -0.6340 H     1 <1>   0.3700 
 19 H        0.0260    -1.9680    -0.5770 H     1 <1>   0.1500 
 20 H       -2.7470    -2.0750    -1.3900 H     1 <1>   0.0800 
 21 H       -2.0540    -2.2550     0.2110 H     1 <1>   0.0800 
 22 H        1.9960     0.2630     0.0130 H     1 <1>   0.1500 
 23 H       -3.9070    -0.9240     1.1640 H     1 <1>   0.0800 
 24 H       -4.6120    -0.7660    -0.4300 H     1 <1>   0.0800 
 25 H       -4.1980    -3.3840     1.0480 H     1 <1>   0.0800 
 26 H       -4.9000    -3.2270    -0.5480 H     1 <1>   0.0800 
 27 H       -5.7220    -2.5600     0.8400 H     1 <1>   0.0800 
 28 H        4.2300    -0.2320     0.5180 H     1 <1>   0.1500 
 29 H        1.6510    -3.4300    -0.7140 H     1 <1>   0.1500 
 30 H        3.5420    -5.0020    -0.5930 H     1 <1>   0.1500 
 31 H        7.8130    -3.1390    -0.1780 H     1 <1>   0.0800 
 32 H        7.4250    -3.4790     1.5270 H     1 <1>   0.0800 
@<TRIPOS>BOND
  1   1   2  2   
  2   2   3  am  
  3   2   4  1   
  4   3   5  1   
  5   3  18  1   
  6   4   6  2   
  7   4  19  1   
  8   5   7  1   
  9   5  20  1   
 10   5  21  1   
 11   6   8  1   
 12   6  22  1   
 13   7   9  1   
 14   7  23  1   
 15   7  24  1   
 16   8  10  ar  
 17   8  11  ar  
 18   9  25  1   
 19   9  26  1   
 20   9  27  1   
 21  10  12  ar  
 22  10  28  1   
 23  11  13  ar  
 24  11  29  1   
 25  12  14  1   
 26  12  15  ar  
 27  13  15  ar  
 28  13  30  1   
 29  14  16  1   
 30  15  17  1   
 31  16  17  1   
 32  16  31  1   
 33  16  32  1   
@<TRIPOS>SUBSTRUCTURE
  1 ****   8 GROUP 4 **** **** 0

# MOE 2024.06 (io_trps.svl 2023.06)
