@<TRIPOS>MOLECULE
NONAME
44 46 1 0 0 
SMALL
USER_CHARGES


@<TRIPOS>ATOM
  1 O        0.3950    -0.0410    -1.6460 O.2   1 <1>  -0.5700 
  2 C        0.7370    -0.8530    -0.8230 C.2   1 <1>   0.5690 
  3 N       -0.1440    -1.6800    -0.2100 N.am  1 <1>  -0.7300 
  4 C        2.2010    -0.9470    -0.4540 C.3   1 <1>  -0.0990 
  5 C       -1.5950    -1.7110    -0.4620 C.3   1 <1>   0.2200 
  6 C        2.7380     0.4090     0.0250 C.3   1 <1>   0.0200 
  7 C       -2.3270    -1.5320     0.8620 C.3   1 <1>  -0.1600 
  8 C       -1.9900    -3.1170    -0.8940 C.3   1 <1>  -0.1600 
  9 C        4.1830     0.3040     0.4680 C.2   1 <1>   0.2980 
 10 C       -2.3430    -2.9150     1.5240 C.3   1 <1>  -0.1600 
 11 C       -2.1190    -3.9320     0.3980 C.3   1 <1>  -0.1600 
 12 O        4.4560    -0.3490     1.5670 O.3   1 <1>  -0.0190 
 13 N        5.1810     0.7990    -0.1350 N.2   1 <1>  -0.5650 
 14 N        5.7440    -0.2600     1.6750 N.2   1 <1>  -0.4100 
 15 C        6.1800     0.4100     0.6660 C.2   1 <1>   0.4620 
 16 C        7.5570     0.7730     0.3900 C.ar  1 <1>   0.0540 
 17 C        8.6230    -0.1310     0.5060 C.ar  1 <1>   0.0820 
 18 C        7.8520     2.0770    -0.0110 C.ar  1 <1>  -0.1500 
 19 O        8.3390    -1.4110     0.8630 O.3   1 <1>  -0.3630 
 20 C        9.9280     0.2850     0.2460 C.ar  1 <1>  -0.1500 
 21 C        9.1460     2.4840    -0.2720 C.ar  1 <1>  -0.1500 
 22 C        9.3420    -2.3670     1.1280 C.3   1 <1>   0.0400 
 23 C       10.1880     1.5860    -0.1400 C.ar  1 <1>  -0.1500 
 24 H        0.1720    -2.3690     0.4710 H     1 <1>   0.3700 
 25 H        2.7510    -1.2620    -1.3220 H     1 <1>   0.0800 
 26 H        2.3350    -1.6840     0.3150 H     1 <1>   0.0800 
 27 H       -1.8740    -0.9650    -1.1890 H     1 <1>   0.0800 
 28 H        2.1460     0.7700     0.8470 H     1 <1>   0.0800 
 29 H        2.6680     1.1260    -0.7750 H     1 <1>   0.0800 
 30 H       -3.3400    -1.2360     0.6500 H     1 <1>   0.0800 
 31 H       -1.8740    -0.7770     1.4800 H     1 <1>   0.0800 
 32 H       -1.2870    -3.5420    -1.5890 H     1 <1>   0.0800 
 33 H       -2.9530    -3.0660    -1.3710 H     1 <1>   0.0800 
 34 H       -3.2800    -3.0860     2.0270 H     1 <1>   0.0800 
 35 H       -1.5460    -2.9870     2.2440 H     1 <1>   0.0800 
 36 H       -1.2090    -4.4790     0.5780 H     1 <1>   0.0800 
 37 H       -2.9350    -4.6310     0.3300 H     1 <1>   0.0800 
 38 H        7.0460     2.7830    -0.1170 H     1 <1>   0.1500 
 39 H       10.7560    -0.3910     0.3330 H     1 <1>   0.1500 
 40 H        9.3430     3.4980    -0.5770 H     1 <1>   0.1500 
 41 H        8.8600    -3.2750     1.4430 H     1 <1>   0.0800 
 42 H        9.9760    -1.9980     1.9140 H     1 <1>   0.0800 
 43 H        9.9020    -2.5450     0.2270 H     1 <1>   0.0800 
 44 H       11.1980     1.9000    -0.3400 H     1 <1>   0.1500 
@<TRIPOS>BOND
  1   1   2  2   
  2   2   3  am  
  3   2   4  1   
  4   3   5  1   
  5   3  24  1   
  6   4   6  1   
  7   4  25  1   
  8   4  26  1   
  9   5   7  1   
 10   5   8  1   
 11   5  27  1   
 12   6   9  1   
 13   6  28  1   
 14   6  29  1   
 15   7  10  1   
 16   7  30  1   
 17   7  31  1   
 18   8  11  1   
 19   8  32  1   
 20   8  33  1   
 21   9  12  1   
 22   9  13  2   
 23  10  11  1   
 24  10  34  1   
 25  10  35  1   
 26  11  36  1   
 27  11  37  1   
 28  12  14  1   
 29  13  15  1   
 30  14  15  2   
 31  15  16  1   
 32  16  17  ar  
 33  16  18  ar  
 34  17  19  1   
 35  17  20  ar  
 36  18  21  ar  
 37  18  38  1   
 38  19  22  1   
 39  20  23  ar  
 40  20  39  1   
 41  21  23  ar  
 42  21  40  1   
 43  22  41  1   
 44  22  42  1   
 45  22  43  1   
 46  23  44  1   
@<TRIPOS>SUBSTRUCTURE
  1 ****   9 GROUP 4 **** **** 0

# MOE 2024.06 (io_trps.svl 2023.06)
