@<TRIPOS>MOLECULE
NONAME
37 38 1 0 0 
SMALL
USER_CHARGES


@<TRIPOS>ATOM
  1 CL      -3.7490     3.2120     3.8390 Cl    1 <1>  -0.1770 
  2 C       -3.7190     2.4270     2.2750 C.ar  1 <1>   0.1770 
  3 C       -2.5360     2.2950     1.5660 C.ar  1 <1>   0.1900 
  4 C       -4.8950     1.9340     1.7440 C.ar  1 <1>  -0.1500 
  5 F       -1.4190     2.7610     2.0640 F     1 <1>  -0.1900 
  6 C       -2.5020     1.6770     0.3290 C.ar  1 <1>  -0.1500 
  7 C       -4.8810     1.3100     0.5040 C.ar  1 <1>   0.0830 
  8 C       -3.6830     1.1820    -0.2030 C.ar  1 <1>  -0.1500 
  9 O       -6.0730     0.8520     0.0500 O.3   1 <1>  -0.3630 
 10 C       -6.1920     0.2140    -1.2170 C.3   1 <1>   0.1810 
 11 C       -7.6320    -0.1930    -1.5100 C.2   1 <1>   0.5690 
 12 O       -7.9070    -0.5720    -2.6240 O.2   1 <1>  -0.5700 
 13 N       -8.5650    -0.1230    -0.5270 N.am  1 <1>  -0.7300 
 14 C      -10.0040    -0.4070    -0.6540 C.3   1 <1>   0.2200 
 15 C      -10.7920     0.8470    -0.2030 C.3   1 <1>   0.2000 
 16 C      -10.2830    -1.6660     0.1730 C.3   1 <1>  -0.2400 
 17 O      -10.4740     1.1980     1.1120 O.3   1 <1>  -0.5600 
 18 C      -12.3130     0.7480    -0.2170 C.3   1 <1>  -0.1600 
 19 C      -11.5020     1.9380     1.6960 C.3   1 <1>   0.1200 
 20 C      -12.7090     1.8340     0.7650 C.3   1 <1>  -0.1600 
 21 H       -5.8160     2.0320     2.2870 H     1 <1>   0.1500 
 22 H       -1.5700     1.5880    -0.2010 H     1 <1>   0.1500 
 23 H       -3.6470     0.7030    -1.1640 H     1 <1>   0.1500 
 24 H       -5.5730    -0.6630    -1.2160 H     1 <1>   0.0800 
 25 H       -5.8610     0.9000    -1.9750 H     1 <1>   0.0800 
 26 H       -8.3100     0.2890     0.3770 H     1 <1>   0.3700 
 27 H      -10.2360    -0.6090    -1.6870 H     1 <1>   0.0800 
 28 H      -10.4990     1.6750    -0.8260 H     1 <1>   0.0800 
 29 H      -10.1310    -1.4700     1.2190 H     1 <1>   0.0800 
 30 H       -9.6290    -2.4600    -0.1390 H     1 <1>   0.0800 
 31 H      -11.2940    -1.9980     0.0280 H     1 <1>   0.0800 
 32 H      -12.6390    -0.2070     0.1510 H     1 <1>   0.0800 
 33 H      -12.7180     0.9090    -1.2000 H     1 <1>   0.0800 
 34 H      -11.1730     2.9560     1.8090 H     1 <1>   0.0800 
 35 H      -11.7090     1.5080     2.6610 H     1 <1>   0.0800 
 36 H      -13.6090     1.5930     1.3030 H     1 <1>   0.0800 
 37 H      -12.8440     2.7720     0.2550 H     1 <1>   0.0800 
@<TRIPOS>BOND
  1   1   2  1   
  2   2   3  ar  
  3   2   4  ar  
  4   3   5  1   
  5   3   6  ar  
  6   4   7  ar  
  7   4  21  1   
  8   6   8  ar  
  9   6  22  1   
 10   7   8  ar  
 11   7   9  1   
 12   8  23  1   
 13   9  10  1   
 14  10  11  1   
 15  10  24  1   
 16  10  25  1   
 17  11  12  2   
 18  11  13  am  
 19  13  14  1   
 20  13  26  1   
 21  14  15  1   
 22  14  16  1   
 23  14  27  1   
 24  15  17  1   
 25  15  18  1   
 26  15  28  1   
 27  16  29  1   
 28  16  30  1   
 29  16  31  1   
 30  17  19  1   
 31  18  20  1   
 32  18  32  1   
 33  18  33  1   
 34  19  20  1   
 35  19  34  1   
 36  19  35  1   
 37  20  36  1   
 38  20  37  1   
@<TRIPOS>SUBSTRUCTURE
  1 ****   9 GROUP 4 **** **** 0

# MOE 2024.06 (io_trps.svl 2023.06)
