@<TRIPOS>MOLECULE
NONAME
51 54 1 0 0 
SMALL
USER_CHARGES


@<TRIPOS>ATOM
  1 S        0.3950    -0.1260     2.7250 S.o2  1 <1>   1.4470 
  2 O        1.0040    -1.4130     2.9740 O.2   1 <1>  -0.6500 
  3 O       -0.0400     0.6950     3.8320 O.2   1 <1>  -0.6500 
  4 N        1.6380     0.7500     1.8840 N.am  1 <1>  -0.5780 
  5 C       -0.9080    -0.2840     1.4710 C.ar  1 <1>  -0.0090 
  6 N        1.5330     1.9990     1.2870 N.2   1 <1>  -0.4300 
  7 C       -1.5150     0.8410     0.9240 C.ar  1 <1>  -0.1500 
  8 C       -1.3330    -1.5290     1.0210 C.ar  1 <1>  -0.1500 
  9 C        2.5260     2.6310     0.8080 C.2   1 <1>   0.3280 
 10 C       -2.5050     0.7300    -0.0370 C.ar  1 <1>  -0.1500 
 11 C       -2.3230    -1.6480     0.0610 C.ar  1 <1>  -0.1500 
 12 C        2.4050     4.0140     0.1200 C.3   1 <1>   0.2040 
 13 C        3.9600     2.1000     0.8610 C.3   1 <1>  -0.0990 
 14 C       -2.9140    -0.5170    -0.4750 C.ar  1 <1>  -0.1430 
 15 C        0.9660     4.5880     0.1320 C.ar  1 <1>  -0.1430 
 16 C        2.9830     3.8370    -1.3130 C.3   1 <1>  -0.1600 
 17 C        3.3540     4.9880     0.8680 C.3   1 <1>  -0.1600 
 18 C        4.8850     3.1080     0.1710 C.3   1 <1>   0.2800 
 19 C       -4.0010    -0.6430    -1.5270 C.3   1 <1>  -0.0970 
 20 C        0.3150     4.7670     1.3500 C.ar  1 <1>  -0.1500 
 21 C        0.2770     4.9410    -1.0260 C.ar  1 <1>  -0.1500 
 22 C        4.4310     3.2900    -1.2820 C.3   1 <1>  -0.1600 
 23 C        4.8100     4.4610     0.8930 C.3   1 <1>  -0.1600 
 24 O        6.1760     2.6440     0.1860 O.3   1 <1>  -0.6800 
 25 C       -0.9690     5.2770     1.4140 C.ar  1 <1>  -0.1500 
 26 C       -1.0080     5.4540    -0.9660 C.ar  1 <1>  -0.1500 
 27 C       -1.6340     5.6240     0.2540 C.ar  1 <1>  -0.1500 
 28 H        2.4600     0.1630     1.7580 H     1 <1>   0.4200 
 29 H       -1.2070     1.8210     1.2520 H     1 <1>   0.1500 
 30 H       -0.8840    -2.4200     1.4270 H     1 <1>   0.1500 
 31 H       -2.9510     1.6230    -0.4390 H     1 <1>   0.1500 
 32 H       -2.6330    -2.6260    -0.2660 H     1 <1>   0.1500 
 33 H        4.0090     1.1560     0.3510 H     1 <1>   0.0800 
 34 H        4.2490     1.9710     1.8880 H     1 <1>   0.0800 
 35 H        2.9820     4.7830    -1.8240 H     1 <1>   0.0800 
 36 H        2.3610     3.1540    -1.8660 H     1 <1>   0.0800 
 37 H        3.3230     5.9520     0.3910 H     1 <1>   0.0800 
 38 H        3.0140     5.1200     1.8800 H     1 <1>   0.0800 
 39 H       -4.0020     0.2180    -2.1710 H     1 <1>   0.0800 
 40 H       -4.9610    -0.7220    -1.0500 H     1 <1>   0.0800 
 41 H       -3.8390    -1.5170    -2.1320 H     1 <1>   0.0800 
 42 H        0.8010     4.4950     2.2710 H     1 <1>   0.1500 
 43 H        0.7140     4.8290    -2.0000 H     1 <1>   0.1500 
 44 H        4.4750     2.3460    -1.7990 H     1 <1>   0.0800 
 45 H        5.0880     3.9790    -1.7820 H     1 <1>   0.0800 
 46 H        5.1360     4.3570     1.9130 H     1 <1>   0.0800 
 47 H        5.4540     5.1690     0.3990 H     1 <1>   0.0800 
 48 H        6.5250     2.6450     1.0970 H     1 <1>   0.4000 
 49 H       -1.4500     5.4010     2.3690 H     1 <1>   0.1500 
 50 H       -1.5210     5.7210    -1.8730 H     1 <1>   0.1500 
 51 H       -2.6330     6.0210     0.3010 H     1 <1>   0.1500 
@<TRIPOS>BOND
  1   1   2  2   
  2   1   3  2   
  3   1   4  am  
  4   1   5  1   
  5   4   6  1   
  6   4  28  1   
  7   5   7  ar  
  8   5   8  ar  
  9   6   9  2   
 10   7  10  ar  
 11   7  29  1   
 12   8  11  ar  
 13   8  30  1   
 14   9  12  1   
 15   9  13  1   
 16  10  14  ar  
 17  10  31  1   
 18  11  14  ar  
 19  11  32  1   
 20  12  15  1   
 21  12  16  1   
 22  12  17  1   
 23  13  18  1   
 24  13  33  1   
 25  13  34  1   
 26  14  19  1   
 27  15  20  ar  
 28  15  21  ar  
 29  16  22  1   
 30  16  35  1   
 31  16  36  1   
 32  17  23  1   
 33  17  37  1   
 34  17  38  1   
 35  18  22  1   
 36  18  23  1   
 37  18  24  1   
 38  19  39  1   
 39  19  40  1   
 40  19  41  1   
 41  20  25  ar  
 42  20  42  1   
 43  21  26  ar  
 44  21  43  1   
 45  22  44  1   
 46  22  45  1   
 47  23  46  1   
 48  23  47  1   
 49  24  48  1   
 50  25  27  ar  
 51  25  49  1   
 52  26  27  ar  
 53  26  50  1   
 54  27  51  1   
@<TRIPOS>SUBSTRUCTURE
  1 ****   6 GROUP 4 **** **** 0

# MOE 2024.06 (io_trps.svl 2023.06)
