@<TRIPOS>MOLECULE
NONAME
49 51 1 0 0 
SMALL
USER_CHARGES


@<TRIPOS>ATOM
  1 N        0.5720     1.1760    -0.0490 N.pl3 1 <1>  -0.8380 
  2 C       -0.7070     0.6740     0.1830 C.ar  1 <1>   0.1000 
  3 C        1.6530     0.8040     0.9100 C.3   1 <1>   0.2090 
  4 C        0.9720     1.4240    -1.4640 C.3   1 <1>   0.2090 
  5 C       -1.7300     1.5060     0.6400 C.ar  1 <1>  -0.1440 
  6 C       -0.9830    -0.6710    -0.0420 C.ar  1 <1>  -0.1500 
  7 C        2.5880    -0.2760     0.3290 C.3   1 <1>   0.3430 
  8 C        1.9180     0.3250    -1.9920 C.3   1 <1>   0.3430 
  9 C       -2.9950     0.9870     0.8590 C.ar  1 <1>  -0.1500 
 10 C       -1.4730     2.9840     0.9020 C.3   1 <1>  -0.0970 
 11 C       -2.2470    -1.1840     0.1790 C.ar  1 <1>  -0.1500 
 12 N        3.0730     0.0600    -1.0620 N.4   1 <1>  -0.9590 
 13 C       -3.2560    -0.3530     0.6310 C.ar  1 <1>  -0.1500 
 14 C        3.9970    -0.9810    -1.5890 C.3   1 <1>   0.4860 
 15 C        5.1890    -1.0790    -0.6560 C.ar  1 <1>  -0.1430 
 16 C        5.3890    -2.1890     0.1600 C.ar  1 <1>  -0.1430 
 17 C        6.0890    -0.0210    -0.6140 C.ar  1 <1>  -0.1500 
 18 C        6.4760    -2.2070     1.0190 C.ar  1 <1>  -0.1500 
 19 C        4.4630    -3.4000     0.1370 C.3   1 <1>  -0.0970 
 20 C        7.1730    -0.0470     0.2450 C.ar  1 <1>  -0.1430 
 21 C        7.3580    -1.1440     1.0650 C.ar  1 <1>  -0.1500 
 22 C        8.1560     1.1100     0.2920 C.3   1 <1>  -0.0970 
 23 H        1.2120     0.4400     1.8230 H     1 <1>   0.0800 
 24 H        2.2230     1.6830     1.1560 H     1 <1>   0.0800 
 25 H        1.4540     2.3830    -1.5290 H     1 <1>   0.0800 
 26 H        0.0900     1.4620    -2.0820 H     1 <1>   0.0800 
 27 H       -0.2100    -1.3230    -0.3920 H     1 <1>   0.1500 
 28 H        2.0480    -1.2070     0.3070 H     1 <1>   0.0800 
 29 H        3.4280    -0.4010     0.9930 H     1 <1>   0.0800 
 30 H        2.2850     0.6180    -2.9620 H     1 <1>   0.0800 
 31 H        1.3420    -0.5770    -2.1150 H     1 <1>   0.0800 
 32 H       -3.7900     1.6220     1.2110 H     1 <1>   0.1500 
 33 H       -0.6920     3.0920     1.6330 H     1 <1>   0.0800 
 34 H       -2.3560     3.4740     1.2680 H     1 <1>   0.0800 
 35 H       -1.1640     3.4660    -0.0080 H     1 <1>   0.0800 
 36 H       -2.4530    -2.2250     0.0030 H     1 <1>   0.1500 
 37 H        3.6230     0.9220    -0.9690 H     1 <1>   0.4500 
 38 H       -4.2430    -0.7460     0.8050 H     1 <1>   0.1500 
 39 H        4.3410    -0.7100    -2.5740 H     1 <1>   0.0800 
 40 H        3.4920    -1.9300    -1.6540 H     1 <1>   0.0800 
 41 H        5.9610     0.8350    -1.2530 H     1 <1>   0.1500 
 42 H        6.6530    -3.0530     1.6620 H     1 <1>   0.1500 
 43 H        4.4390    -3.8320    -0.8470 H     1 <1>   0.0800 
 44 H        3.4670    -3.1270     0.4320 H     1 <1>   0.0800 
 45 H        4.8110    -4.1590     0.8170 H     1 <1>   0.0800 
 46 H        8.1960    -1.1790     1.7410 H     1 <1>   0.1500 
 47 H        7.8790     1.7950     1.0730 H     1 <1>   0.0800 
 48 H        8.1720     1.6380    -0.6450 H     1 <1>   0.0800 
 49 H        9.1490     0.7470     0.4880 H     1 <1>   0.0800 
@<TRIPOS>BOND
  1   1   2  1   
  2   1   3  1   
  3   1   4  1   
  4   2   5  ar  
  5   2   6  ar  
  6   3   7  1   
  7   3  23  1   
  8   3  24  1   
  9   4   8  1   
 10   4  25  1   
 11   4  26  1   
 12   5   9  ar  
 13   5  10  1   
 14   6  11  ar  
 15   6  27  1   
 16   7  12  1   
 17   7  28  1   
 18   7  29  1   
 19   8  12  1   
 20   8  30  1   
 21   8  31  1   
 22   9  13  ar  
 23   9  32  1   
 24  10  33  1   
 25  10  34  1   
 26  10  35  1   
 27  11  13  ar  
 28  11  36  1   
 29  12  14  1   
 30  12  37  1   
 31  13  38  1   
 32  14  15  1   
 33  14  39  1   
 34  14  40  1   
 35  15  16  ar  
 36  15  17  ar  
 37  16  18  ar  
 38  16  19  1   
 39  17  20  ar  
 40  17  41  1   
 41  18  21  ar  
 42  18  42  1   
 43  19  43  1   
 44  19  44  1   
 45  19  45  1   
 46  20  21  ar  
 47  20  22  1   
 48  21  46  1   
 49  22  47  1   
 50  22  48  1   
 51  22  49  1   
@<TRIPOS>SUBSTRUCTURE
  1 ****   7 GROUP 4 **** **** 0

# MOE 2024.06 (io_trps.svl 2023.06)
