@<TRIPOS>MOLECULE
NONAME
51 54 1 0 0 
SMALL
USER_CHARGES


@<TRIPOS>ATOM
  1 S        0.1550    -0.6000    -2.0660 S.3   1 <1>  -0.3710 
  2 C       -1.3340    -1.2870    -1.3230 C.2   1 <1>   0.6510 
  3 C        1.6130    -1.1030    -1.0540 C.3   1 <1>   0.0700 
  4 N       -2.3840    -0.5870    -1.5180 N.2   1 <1>  -0.6290 
  5 N       -1.2640    -2.4690    -0.5980 N.am  1 <1>  -0.2370 
  6 C        2.7040    -0.0560    -1.2800 C.3   1 <1>   0.3430 
  7 C       -3.5640    -0.9880    -0.9360 C.ar  1 <1>   0.1790 
  8 C       -2.3820    -2.8000     0.1530 C.2   1 <1>   0.5440 
  9 C       -0.2420    -3.4270    -0.7950 C.ar  1 <1>   0.1170 
 10 N        4.0080    -0.4650    -0.6660 N.4   1 <1>  -0.9590 
 11 C       -3.6080    -2.0890    -0.0760 C.ar  1 <1>   0.0860 
 12 C       -4.7270    -0.2720    -1.1970 C.ar  1 <1>  -0.1500 
 13 O       -2.3130    -3.6730     1.0020 O.2   1 <1>  -0.5700 
 14 C        0.5360    -3.8750     0.2680 C.ar  1 <1>  -0.1500 
 15 C        0.0230    -3.9290    -2.0650 C.ar  1 <1>  -0.1500 
 16 C        3.9370    -0.5770     0.8360 C.3   1 <1>   0.3430 
 17 C        5.1010     0.4950    -1.0600 C.3   1 <1>   0.3430 
 18 C       -4.8300    -2.4390     0.5080 C.ar  1 <1>  -0.1500 
 19 C       -5.9260    -0.6310    -0.6160 C.ar  1 <1>  -0.1500 
 20 C        1.5680    -4.7730     0.0650 C.ar  1 <1>  -0.1500 
 21 C        1.0570    -4.8250    -2.2700 C.ar  1 <1>  -0.1500 
 22 C        5.3200    -0.8700     1.4480 C.3   1 <1>   0.1200 
 23 C        6.4320     0.1560    -0.3620 C.3   1 <1>   0.1200 
 24 C       -5.9770    -1.7200     0.2420 C.ar  1 <1>  -0.1500 
 25 C        1.8400    -5.2470    -1.2080 C.ar  1 <1>  -0.1430 
 26 O        6.2480     0.0840     1.0220 O.3   1 <1>  -0.5600 
 27 C        2.9600    -6.2460    -1.4360 C.3   1 <1>  -0.0970 
 28 H        1.9270    -2.0680    -1.4080 H     1 <1>   0.0800 
 29 H        1.2930    -1.1400    -0.0290 H     1 <1>   0.0800 
 30 H        2.3820     0.8870    -0.8680 H     1 <1>   0.0800 
 31 H        2.8340     0.0720    -2.3430 H     1 <1>   0.0800 
 32 H        4.2700    -1.3890    -1.0370 H     1 <1>   0.4500 
 33 H       -4.6740     0.5730    -1.8610 H     1 <1>   0.1500 
 34 H        0.3190    -3.5300     1.2650 H     1 <1>   0.1500 
 35 H       -0.5800    -3.6200    -2.9020 H     1 <1>   0.1500 
 36 H        3.2550    -1.3620     1.1190 H     1 <1>   0.0800 
 37 H        3.5730     0.3470     1.2550 H     1 <1>   0.0800 
 38 H        4.8220     1.4990    -0.7830 H     1 <1>   0.0800 
 39 H        5.2450     0.4740    -2.1280 H     1 <1>   0.0800 
 40 H       -4.8680    -3.2850     1.1740 H     1 <1>   0.1500 
 41 H       -6.8200    -0.0690    -0.8250 H     1 <1>   0.1500 
 42 H        2.1480    -5.1170     0.9050 H     1 <1>   0.1500 
 43 H        1.2450    -5.2020    -3.2610 H     1 <1>   0.1500 
 44 H        5.6740    -1.8480     1.1680 H     1 <1>   0.0800 
 45 H        5.2700    -0.8190     2.5220 H     1 <1>   0.0800 
 46 H        7.1590     0.9260    -0.5540 H     1 <1>   0.0800 
 47 H        6.8300    -0.7830    -0.7090 H     1 <1>   0.0800 
 48 H       -6.9120    -1.9990     0.6970 H     1 <1>   0.1500 
 49 H        3.4200    -6.0860    -2.3950 H     1 <1>   0.0800 
 50 H        2.5640    -7.2450    -1.4070 H     1 <1>   0.0800 
 51 H        3.7150    -6.1550    -0.6760 H     1 <1>   0.0800 
@<TRIPOS>BOND
  1   1   2  1   
  2   1   3  1   
  3   2   4  2   
  4   2   5  1   
  5   3   6  1   
  6   3  28  1   
  7   3  29  1   
  8   4   7  1   
  9   5   8  am  
 10   5   9  1   
 11   6  10  1   
 12   6  30  1   
 13   6  31  1   
 14   7  11  ar  
 15   7  12  ar  
 16   8  11  1   
 17   8  13  2   
 18   9  14  ar  
 19   9  15  ar  
 20  10  16  1   
 21  10  17  1   
 22  10  32  1   
 23  11  18  ar  
 24  12  19  ar  
 25  12  33  1   
 26  14  20  ar  
 27  14  34  1   
 28  15  21  ar  
 29  15  35  1   
 30  16  22  1   
 31  16  36  1   
 32  16  37  1   
 33  17  23  1   
 34  17  38  1   
 35  17  39  1   
 36  18  24  ar  
 37  18  40  1   
 38  19  24  ar  
 39  19  41  1   
 40  20  25  ar  
 41  20  42  1   
 42  21  25  ar  
 43  21  43  1   
 44  22  26  1   
 45  22  44  1   
 46  22  45  1   
 47  23  26  1   
 48  23  46  1   
 49  23  47  1   
 50  24  48  1   
 51  25  27  1   
 52  27  49  1   
 53  27  50  1   
 54  27  51  1   
@<TRIPOS>SUBSTRUCTURE
  1 ****   9 GROUP 4 **** **** 0

# MOE 2024.06 (io_trps.svl 2023.06)
