@<TRIPOS>MOLECULE
NONAME
34 36 1 0 0 
SMALL
USER_CHARGES


@<TRIPOS>ATOM
  1 O       -2.0810     0.1300     2.2440 O.co2 1 <1>  -0.9000 
  2 C       -2.2260     0.7850     1.2130 C.2   1 <1>   0.9060 
  3 O       -2.8180     0.3270     0.2260 O.co2 1 <1>  -0.9000 
  4 C       -1.7010     2.2050     1.1700 C.3   1 <1>  -0.1860 
  5 C       -2.7410     3.3800     1.2740 C.3   1 <1>  -0.0190 
  6 C       -0.9540     2.5210    -0.1440 C.3   1 <1>   0.0580 
  7 C       -4.2530     3.1290     1.3660 C.2   1 <1>   0.5690 
  8 C       -2.4220     4.2240     0.0200 C.3   1 <1>   0.0580 
  9 C       -0.1630     3.7900     0.1220 C.2   1 <1>  -0.2880 
 10 C       -2.0680     3.1360    -0.9880 C.3   1 <1>  -0.1600 
 11 O       -4.8980     3.9460     1.9830 O.2   1 <1>  -0.5700 
 12 N       -4.8420     2.0740     0.7280 N.am  1 <1>  -0.5470 
 13 C       -1.0280     4.7950     0.2200 C.2   1 <1>  -0.2880 
 14 C       -6.1790     1.6720     0.6060 C.ar  1 <1>   0.1170 
 15 C       -6.4340     0.3350     0.3240 C.ar  1 <1>  -0.1500 
 16 C       -7.2560     2.5450     0.7330 C.ar  1 <1>  -0.1500 
 17 C       -7.7300    -0.1240     0.1740 C.ar  1 <1>  -0.1500 
 18 C       -8.5560     2.0950     0.5870 C.ar  1 <1>  -0.1500 
 19 C       -8.7890     0.7580     0.3060 C.ar  1 <1>   0.0820 
 20 O      -10.0470     0.3080     0.1600 O.3   1 <1>  -0.5330 
 21 H       -1.0040     2.2830     1.9840 H     1 <1>   0.0800 
 22 H       -2.4870     3.9620     2.1420 H     1 <1>   0.0800 
 23 H       -0.4150     1.7110    -0.6060 H     1 <1>   0.0800 
 24 H       -3.1720     4.9260    -0.3010 H     1 <1>   0.0800 
 25 H        0.9080     3.7560     0.2200 H     1 <1>   0.1500 
 26 H       -2.8750     2.4550    -1.1910 H     1 <1>   0.0800 
 27 H       -1.6950     3.5420    -1.9130 H     1 <1>   0.0800 
 28 H       -4.1680     1.3570     0.3940 H     1 <1>   0.3700 
 29 H       -0.8850     5.8420     0.4240 H     1 <1>   0.1500 
 30 H       -5.6010    -0.3430     0.2280 H     1 <1>   0.1500 
 31 H       -7.0740     3.5820     0.9470 H     1 <1>   0.1500 
 32 H       -7.9220    -1.1590    -0.0410 H     1 <1>   0.1500 
 33 H       -9.3720     2.7840     0.6920 H     1 <1>   0.1500 
 34 H      -10.7090     1.0080     0.2880 H     1 <1>   0.4500 
@<TRIPOS>BOND
  1   1   2  ar  
  2   2   3  ar  
  3   2   4  1   
  4   4   5  1   
  5   4   6  1   
  6   4  21  1   
  7   5   7  1   
  8   5   8  1   
  9   5  22  1   
 10   6   9  1   
 11   6  10  1   
 12   6  23  1   
 13   7  11  2   
 14   7  12  am  
 15   8  10  1   
 16   8  13  1   
 17   8  24  1   
 18   9  13  2   
 19   9  25  1   
 20  10  26  1   
 21  10  27  1   
 22  12  14  1   
 23  12  28  1   
 24  13  29  1   
 25  14  15  ar  
 26  14  16  ar  
 27  15  17  ar  
 28  15  30  1   
 29  16  18  ar  
 30  16  31  1   
 31  17  19  ar  
 32  17  32  1   
 33  18  19  ar  
 34  18  33  1   
 35  19  20  1   
 36  20  34  1   
@<TRIPOS>SUBSTRUCTURE
  1 ****  12 GROUP 4 **** **** 0

# MOE 2024.06 (io_trps.svl 2023.06)
