@<TRIPOS>MOLECULE
NONAME
47 49 1 0 0 
SMALL
USER_CHARGES


@<TRIPOS>ATOM
  1 F        1.2250     0.3890     2.4780 F     1 <1>  -0.1900 
  2 C        2.3050     0.4140     1.7410 C.ar  1 <1>   0.1900 
  3 C        2.1780     0.3370     0.3680 C.ar  1 <1>  -0.1500 
  4 C        3.5350     0.5170     2.3610 C.ar  1 <1>  -0.1500 
  5 C        3.3260     0.3640    -0.4050 C.ar  1 <1>  -0.1500 
  6 C        4.6730     0.5440     1.5740 C.ar  1 <1>  -0.1500 
  7 C        4.5850     0.4650     0.1830 C.ar  1 <1>   0.1170 
  8 N        5.7110     0.5010    -0.6530 N.am  1 <1>  -0.5470 
  9 C        7.0200     0.2180    -0.4170 C.2   1 <1>   0.6900 
 10 O        7.4340    -0.1970     0.6480 O.2   1 <1>  -0.5700 
 11 N        7.9140     0.4530    -1.4180 N.am  1 <1>  -0.6600 
 12 C        8.3790     1.8550    -1.5790 C.3   1 <1>   0.1400 
 13 C        9.0120    -0.5380    -1.6000 C.3   1 <1>   0.1400 
 14 C        9.5350     2.1470    -0.5990 C.3   1 <1>   0.3430 
 15 C       10.1740    -0.2460    -0.6280 C.3   1 <1>   0.3430 
 16 N       10.6880     1.1750    -0.7340 N.4   1 <1>  -0.9590 
 17 C       11.7790     1.4490     0.2560 C.3   1 <1>   0.4230 
 18 C       12.2840     2.8990     0.1100 C.3   1 <1>  -0.1600 
 19 C       12.9460     0.4610     0.0530 C.3   1 <1>  -0.1600 
 20 C       13.4740     3.1960     1.0340 C.3   1 <1>  -0.1600 
 21 C       14.1340     0.7650     0.9760 C.3   1 <1>  -0.1600 
 22 C       14.6180     2.2070     0.8030 C.3   1 <1>  -0.1600 
 23 H        1.2020     0.2570    -0.0780 H     1 <1>   0.1500 
 24 H        3.5950     0.5740     3.4330 H     1 <1>   0.1500 
 25 H        3.2380     0.3030    -1.4750 H     1 <1>   0.1500 
 26 H        5.6310     0.6270     2.0530 H     1 <1>   0.1500 
 27 H        5.5150     0.6470    -1.6400 H     1 <1>   0.3700 
 28 H        7.5650     2.5320    -1.3770 H     1 <1>   0.0800 
 29 H        8.6990     2.0190    -2.5940 H     1 <1>   0.0800 
 30 H        9.3610    -0.5130    -2.6170 H     1 <1>   0.0800 
 31 H        8.6340    -1.5290    -1.4060 H     1 <1>   0.0800 
 32 H        9.1450     2.0990     0.4050 H     1 <1>   0.0800 
 33 H        9.8780     3.1530    -0.7720 H     1 <1>   0.0800 
 34 H       10.9670    -0.9440    -0.8310 H     1 <1>   0.0800 
 35 H        9.8250    -0.4270     0.3760 H     1 <1>   0.0800 
 36 H       11.0960     1.2940    -1.6680 H     1 <1>   0.4500 
 37 H       11.3950     1.3210     1.2570 H     1 <1>   0.0800 
 38 H       11.5110     3.6000     0.3660 H     1 <1>   0.0800 
 39 H       12.5900     3.0760    -0.9060 H     1 <1>   0.0800 
 40 H       13.2870     0.5070    -0.9670 H     1 <1>   0.0800 
 41 H       12.6350    -0.5450     0.2680 H     1 <1>   0.0800 
 42 H       13.1590     3.1420     2.0630 H     1 <1>   0.0800 
 43 H       13.8300     4.1980     0.8570 H     1 <1>   0.0800 
 44 H       14.9440     0.0890     0.7600 H     1 <1>   0.0800 
 45 H       13.8460     0.6080     2.0030 H     1 <1>   0.0800 
 46 H       15.4130     2.4060     1.5030 H     1 <1>   0.0800 
 47 H       15.0190     2.3390    -0.1880 H     1 <1>   0.0800 
@<TRIPOS>BOND
  1   1   2  1   
  2   2   3  ar  
  3   2   4  ar  
  4   3   5  ar  
  5   3  23  1   
  6   4   6  ar  
  7   4  24  1   
  8   5   7  ar  
  9   5  25  1   
 10   6   7  ar  
 11   6  26  1   
 12   7   8  1   
 13   8   9  am  
 14   8  27  1   
 15   9  10  2   
 16   9  11  am  
 17  11  12  1   
 18  11  13  1   
 19  12  14  1   
 20  12  28  1   
 21  12  29  1   
 22  13  15  1   
 23  13  30  1   
 24  13  31  1   
 25  14  16  1   
 26  14  32  1   
 27  14  33  1   
 28  15  16  1   
 29  15  34  1   
 30  15  35  1   
 31  16  17  1   
 32  16  36  1   
 33  17  18  1   
 34  17  19  1   
 35  17  37  1   
 36  18  20  1   
 37  18  38  1   
 38  18  39  1   
 39  19  21  1   
 40  19  40  1   
 41  19  41  1   
 42  20  22  1   
 43  20  42  1   
 44  20  43  1   
 45  21  22  1   
 46  21  44  1   
 47  21  45  1   
 48  22  46  1   
 49  22  47  1   
@<TRIPOS>SUBSTRUCTURE
  1 ****  10 GROUP 4 **** **** 0

# MOE 2024.06 (io_trps.svl 2023.06)
