@<TRIPOS>MOLECULE
NONAME
52 54 1 0 0 
SMALL
USER_CHARGES


@<TRIPOS>ATOM
  1 S       -0.1510     0.3410    -1.1870 S.o2  1 <1>   1.4470 
  2 O        0.0620     0.6640    -2.5820 O.2   1 <1>  -0.6500 
  3 O       -0.0790    -1.0440    -0.7650 O.2   1 <1>  -0.6500 
  4 N       -1.7490     0.8030    -0.8410 N.am  1 <1>  -0.8490 
  5 C        0.8330     1.4580    -0.1480 C.ar  1 <1>  -0.0090 
  6 C       -2.6620     0.4340    -1.9310 C.3   1 <1>   0.1960 
  7 C       -2.2050     0.3130     0.4570 C.3   1 <1>   0.1960 
  8 C        2.1160     1.1070     0.2610 C.ar  1 <1>   0.0830 
  9 C        0.3390     2.7000     0.2400 C.ar  1 <1>  -0.1500 
 10 C       -4.1430     0.4930    -1.5210 C.3   1 <1>  -0.1600 
 11 C       -3.4540     1.0950     0.8780 C.3   1 <1>  -0.1600 
 12 O        2.6010    -0.0870    -0.1590 O.3   1 <1>  -0.3620 
 13 C        2.8600     1.9690     1.0640 C.ar  1 <1>  -0.1500 
 14 C        1.0730     3.5640     1.0350 C.ar  1 <1>  -0.1430 
 15 C       -4.3870     1.4180    -0.3120 C.3   1 <1>  -0.0190 
 16 C        3.8840    -0.5530     0.1950 C.3   1 <1>   0.0400 
 17 C        2.3370     3.1880     1.4500 C.ar  1 <1>  -0.1500 
 18 C        0.4970     4.9070     1.4450 C.3   1 <1>  -0.0970 
 19 C       -5.8660     1.5500     0.0700 C.2   1 <1>   0.5690 
 20 O       -6.3660     2.6350    -0.1180 O.2   1 <1>  -0.5700 
 21 N       -6.6140     0.5130     0.5840 N.am  1 <1>  -0.6600 
 22 C       -6.1620    -0.8770     0.8950 C.3   1 <1>   0.1400 
 23 C       -8.0780     0.6820     0.8460 C.3   1 <1>   0.1400 
 24 C       -7.0530    -1.9020     0.1740 C.3   1 <1>   0.1200 
 25 C       -8.8820    -0.4260     0.1450 C.3   1 <1>   0.1200 
 26 O       -8.3970    -1.6930     0.4990 O.3   1 <1>  -0.5600 
 27 H       -2.4340    -0.5610    -2.2810 H     1 <1>   0.0800 
 28 H       -2.4940     1.1120    -2.7520 H     1 <1>   0.0800 
 29 H       -1.4370     0.4460     1.2020 H     1 <1>   0.0800 
 30 H       -2.4230    -0.7410     0.3890 H     1 <1>   0.0800 
 31 H       -0.6420     3.0010    -0.0880 H     1 <1>   0.1500 
 32 H       -4.4710    -0.5060    -1.3120 H     1 <1>   0.0800 
 33 H       -4.7220     0.8380    -2.3600 H     1 <1>   0.0800 
 34 H       -3.1440     2.0220     1.3270 H     1 <1>   0.0800 
 35 H       -3.9630     0.5430     1.6450 H     1 <1>   0.0800 
 36 H        3.8470     1.7110     1.3970 H     1 <1>   0.1500 
 37 H       -4.0860     2.3960    -0.6510 H     1 <1>   0.0800 
 38 H        4.0230    -1.5180    -0.2580 H     1 <1>   0.0800 
 39 H        3.9410    -0.6420     1.2650 H     1 <1>   0.0800 
 40 H        4.6220     0.1350    -0.1780 H     1 <1>   0.0800 
 41 H        2.9200     3.8460     2.0720 H     1 <1>   0.1500 
 42 H       -0.0230     4.8100     2.3810 H     1 <1>   0.0800 
 43 H       -0.1920     5.2660     0.7010 H     1 <1>   0.0800 
 44 H        1.2810     5.6340     1.5570 H     1 <1>   0.0800 
 45 H       -6.2370    -1.0400     1.9560 H     1 <1>   0.0800 
 46 H       -5.1410    -1.0370     0.6140 H     1 <1>   0.0800 
 47 H       -8.4260     1.6390     0.4980 H     1 <1>   0.0800 
 48 H       -8.2570     0.6340     1.9060 H     1 <1>   0.0800 
 49 H       -6.7960    -2.9010     0.4800 H     1 <1>   0.0800 
 50 H       -6.9390    -1.8240    -0.8930 H     1 <1>   0.0800 
 51 H       -8.8190    -0.3180    -0.9240 H     1 <1>   0.0800 
 52 H       -9.9150    -0.3760     0.4380 H     1 <1>   0.0800 
@<TRIPOS>BOND
  1   1   2  2   
  2   1   3  2   
  3   1   4  am  
  4   1   5  1   
  5   4   6  1   
  6   4   7  1   
  7   5   8  ar  
  8   5   9  ar  
  9   6  10  1   
 10   6  27  1   
 11   6  28  1   
 12   7  11  1   
 13   7  29  1   
 14   7  30  1   
 15   8  12  1   
 16   8  13  ar  
 17   9  14  ar  
 18   9  31  1   
 19  10  15  1   
 20  10  32  1   
 21  10  33  1   
 22  11  15  1   
 23  11  34  1   
 24  11  35  1   
 25  12  16  1   
 26  13  17  ar  
 27  13  36  1   
 28  14  17  ar  
 29  14  18  1   
 30  15  19  1   
 31  15  37  1   
 32  16  38  1   
 33  16  39  1   
 34  16  40  1   
 35  17  41  1   
 36  18  42  1   
 37  18  43  1   
 38  18  44  1   
 39  19  20  2   
 40  19  21  am  
 41  21  22  1   
 42  21  23  1   
 43  22  24  1   
 44  22  45  1   
 45  22  46  1   
 46  23  25  1   
 47  23  47  1   
 48  23  48  1   
 49  24  26  1   
 50  24  49  1   
 51  24  50  1   
 52  25  26  1   
 53  25  51  1   
 54  25  52  1   
@<TRIPOS>SUBSTRUCTURE
  1 ****   7 GROUP 4 **** **** 0

# MOE 2024.06 (io_trps.svl 2023.06)
