@<TRIPOS>MOLECULE
NONAME
46 48 1 0 0 
SMALL
USER_CHARGES


@<TRIPOS>ATOM
  1 O        0.6960    -0.3870     0.0360 O.3   1 <1>  -0.5600 
  2 C        1.5470    -1.4950    -0.0760 C.3   1 <1>   0.1200 
  3 C        1.3080     0.8270    -0.3060 C.3   1 <1>   0.1200 
  4 C        2.7690    -1.3490     0.8470 C.3   1 <1>   0.2090 
  5 C        2.5190     1.1140     0.6000 C.3   1 <1>   0.2090 
  6 N        3.4660    -0.0470     0.5960 N.pl3 1 <1>  -0.8380 
  7 C        4.7970     0.0610     0.2590 C.ar  1 <1>   0.7200 
  8 N        5.4740    -1.0520     0.1210 N.ar  1 <1>  -0.6200 
  9 N        5.2890     1.2610     0.1050 N.ar  1 <1>  -0.6200 
 10 C        6.7230    -0.8800    -0.2000 C.ar  1 <1>   0.7030 
 11 C        6.5540     1.3060    -0.2210 C.ar  1 <1>   0.7200 
 12 O        7.4270    -2.0140    -0.3390 O.3   1 <1>  -0.1650 
 13 N        7.3270     0.2630    -0.3850 N.ar  1 <1>  -0.6200 
 14 N        7.1270     2.5460    -0.4020 N.pl3 1 <1>  -0.8380 
 15 C        8.7750    -2.0560    -0.2860 C.ar  1 <1>   0.3930 
 16 C        8.4000     2.7340    -1.1560 C.3   1 <1>   0.1290 
 17 C        6.4780     3.7990     0.0750 C.3   1 <1>   0.1290 
 18 N        9.3730    -2.7390    -1.2600 N.ar  1 <1>  -0.3100 
 19 C        9.4680    -1.4500     0.7470 C.ar  1 <1>  -0.1500 
 20 N       10.6850    -2.8370    -1.2740 N.ar  1 <1>  -0.3100 
 21 C       10.8390    -1.5540     0.7320 C.ar  1 <1>  -0.1500 
 22 C       11.4100    -2.2630    -0.3140 C.ar  1 <1>   0.3930 
 23 O       12.7470    -2.4270    -0.4370 O.3   1 <1>  -0.3630 
 24 C       13.6670    -1.8680     0.4700 C.3   1 <1>   0.1200 
 25 C       15.0710    -2.2450     0.0090 C.3   1 <1>  -0.2400 
 26 H        1.8630    -1.5860    -1.1010 H     1 <1>   0.0800 
 27 H        0.9830    -2.3700     0.1920 H     1 <1>   0.0800 
 28 H        0.5740     1.6060    -0.1990 H     1 <1>   0.0800 
 29 H        1.6160     0.7800    -1.3360 H     1 <1>   0.0800 
 30 H        3.4230    -2.1880     0.6930 H     1 <1>   0.0800 
 31 H        2.4410    -1.3790     1.8710 H     1 <1>   0.0800 
 32 H        2.1770     1.2850     1.6050 H     1 <1>   0.0800 
 33 H        2.9960     2.0150     0.2590 H     1 <1>   0.0800 
 34 H        8.5800     1.9040    -1.8180 H     1 <1>   0.0800 
 35 H        9.2210     2.8130    -0.4640 H     1 <1>   0.0800 
 36 H        8.3490     3.6310    -1.7480 H     1 <1>   0.0800 
 37 H        5.9010     4.2330    -0.7230 H     1 <1>   0.0800 
 38 H        7.2260     4.5030     0.3950 H     1 <1>   0.0800 
 39 H        5.8270     3.5970     0.9080 H     1 <1>   0.0800 
 40 H        8.9540    -0.9180     1.5260 H     1 <1>   0.1500 
 41 H       11.4200    -1.0950     1.5070 H     1 <1>   0.1500 
 42 H       13.4700    -2.2700     1.4500 H     1 <1>   0.0800 
 43 H       13.5430    -0.7990     0.4690 H     1 <1>   0.0800 
 44 H       15.1810    -3.3150    -0.0040 H     1 <1>   0.0800 
 45 H       15.8000    -1.8330     0.6820 H     1 <1>   0.0800 
 46 H       15.2540    -1.8550    -0.9760 H     1 <1>   0.0800 
@<TRIPOS>BOND
  1   1   2  1   
  2   1   3  1   
  3   2   4  1   
  4   2  26  1   
  5   2  27  1   
  6   3   5  1   
  7   3  28  1   
  8   3  29  1   
  9   4   6  1   
 10   4  30  1   
 11   4  31  1   
 12   5   6  1   
 13   5  32  1   
 14   5  33  1   
 15   6   7  1   
 16   7   8  ar  
 17   7   9  ar  
 18   8  10  ar  
 19   9  11  ar  
 20  10  12  1   
 21  10  13  ar  
 22  11  13  ar  
 23  11  14  1   
 24  12  15  1   
 25  14  16  1   
 26  14  17  1   
 27  15  18  ar  
 28  15  19  ar  
 29  16  34  1   
 30  16  35  1   
 31  16  36  1   
 32  17  37  1   
 33  17  38  1   
 34  17  39  1   
 35  18  20  ar  
 36  19  21  ar  
 37  19  40  1   
 38  20  22  ar  
 39  21  22  ar  
 40  21  41  1   
 41  22  23  1   
 42  23  24  1   
 43  24  25  1   
 44  24  42  1   
 45  24  43  1   
 46  25  44  1   
 47  25  45  1   
 48  25  46  1   
@<TRIPOS>SUBSTRUCTURE
  1 ****  10 GROUP 4 **** **** 0

# MOE 2024.06 (io_trps.svl 2023.06)
