@<TRIPOS>MOLECULE
NONAME
46 49 1 0 0 
SMALL
USER_CHARGES


@<TRIPOS>ATOM
  1 BR      -0.3700     2.0130     1.1260 Br    1 <1>  -0.1110 
  2 C       -0.9630     2.9220    -0.4680 C.ar  1 <1>   0.1110 
  3 C       -2.1970     2.6250    -1.0330 C.ar  1 <1>  -0.1440 
  4 C       -0.1140     3.8760    -0.9980 C.ar  1 <1>  -0.1500 
  5 C       -2.5720     3.3290    -2.1690 C.ar  1 <1>  -0.1500 
  6 C       -3.1370     1.5720    -0.4630 C.3   1 <1>   0.2540 
  7 C       -0.5070     4.5640    -2.1320 C.ar  1 <1>  -0.1500 
  8 C       -1.7340     4.2900    -2.7140 C.ar  1 <1>  -0.1500 
  9 N       -4.2890     2.2120     0.2040 N.3   1 <1>  -0.8100 
 10 C       -5.3010     1.2100     0.6150 C.3   1 <1>   0.1100 
 11 C       -3.8760     3.0400     1.3660 C.3   1 <1>   0.1100 
 12 C       -6.5250     1.8580     1.3080 C.3   1 <1>   0.3430 
 13 C       -5.0790     3.7120     2.0720 C.3   1 <1>   0.3430 
 14 N       -6.3660     3.3490     1.4000 N.4   1 <1>  -0.9590 
 15 C       -7.5560     4.0620     1.9280 C.3   1 <1>   0.4860 
 16 C       -8.7550     3.7180     1.0650 C.ar  1 <1>  -0.1430 
 17 C       -8.8320     4.1990    -0.2400 C.ar  1 <1>  -0.1500 
 18 C       -9.7750     2.9110     1.5730 C.ar  1 <1>  -0.1500 
 19 C       -9.9270     3.8440    -1.0010 C.ar  1 <1>   0.0830 
 20 C      -10.8700     2.5690     0.7900 C.ar  1 <1>  -0.1500 
 21 O      -10.1980     4.1820    -2.2640 O.3   1 <1>  -0.3620 
 22 C      -10.9170     3.0510    -0.5020 C.ar  1 <1>   0.0830 
 23 C      -11.4510     3.5790    -2.5890 C.3   1 <1>   0.4000 
 24 O      -11.8590     2.8540    -1.4290 O.3   1 <1>  -0.3620 
 25 H        0.8350     4.0750    -0.5330 H     1 <1>   0.1500 
 26 H       -3.5220     3.1300    -2.6330 H     1 <1>   0.1500 
 27 H       -2.6270     0.9180     0.2220 H     1 <1>   0.0800 
 28 H       -3.4940     0.9650    -1.2780 H     1 <1>   0.0800 
 29 H        0.1400     5.3100    -2.5620 H     1 <1>   0.1500 
 30 H       -2.0390     4.8260    -3.5960 H     1 <1>   0.1500 
 31 H       -4.8560     0.4920     1.2850 H     1 <1>   0.0800 
 32 H       -5.6430     0.6710    -0.2530 H     1 <1>   0.0800 
 33 H       -3.2050     3.8170     1.0380 H     1 <1>   0.0800 
 34 H       -3.3400     2.4340     2.0780 H     1 <1>   0.0800 
 35 H       -6.6430     1.4360     2.2920 H     1 <1>   0.0800 
 36 H       -7.4100     1.6170     0.7410 H     1 <1>   0.0800 
 37 H       -4.9390     4.7810     2.0490 H     1 <1>   0.0800 
 38 H       -5.0990     3.4050     3.1040 H     1 <1>   0.0800 
 39 H       -6.2240     3.6250     0.4160 H     1 <1>   0.4500 
 40 H       -7.3920     5.1270     1.9010 H     1 <1>   0.0800 
 41 H       -7.7420     3.7690     2.9480 H     1 <1>   0.0800 
 42 H       -8.0780     4.8320    -0.6740 H     1 <1>   0.1500 
 43 H       -9.7340     2.5410     2.5840 H     1 <1>   0.1500 
 44 H      -11.6680     1.9500     1.1620 H     1 <1>   0.1500 
 45 H      -11.3250     2.9020    -3.4140 H     1 <1>   0.0800 
 46 H      -12.1750     4.3440    -2.8080 H     1 <1>   0.0800 
@<TRIPOS>BOND
  1   1   2  1   
  2   2   3  ar  
  3   2   4  ar  
  4   3   5  ar  
  5   3   6  1   
  6   4   7  ar  
  7   4  25  1   
  8   5   8  ar  
  9   5  26  1   
 10   6   9  1   
 11   6  27  1   
 12   6  28  1   
 13   7   8  ar  
 14   7  29  1   
 15   8  30  1   
 16   9  10  1   
 17   9  11  1   
 18  10  12  1   
 19  10  31  1   
 20  10  32  1   
 21  11  13  1   
 22  11  33  1   
 23  11  34  1   
 24  12  14  1   
 25  12  35  1   
 26  12  36  1   
 27  13  14  1   
 28  13  37  1   
 29  13  38  1   
 30  14  15  1   
 31  14  39  1   
 32  15  16  1   
 33  15  40  1   
 34  15  41  1   
 35  16  17  ar  
 36  16  18  ar  
 37  17  19  ar  
 38  17  42  1   
 39  18  20  ar  
 40  18  43  1   
 41  19  21  1   
 42  19  22  ar  
 43  20  22  ar  
 44  20  44  1   
 45  21  23  1   
 46  22  24  1   
 47  23  24  1   
 48  23  45  1   
 49  23  46  1   
@<TRIPOS>SUBSTRUCTURE
  1 ****  14 GROUP 4 **** **** 0

# MOE 2024.06 (io_trps.svl 2023.06)
