@<TRIPOS>MOLECULE
NONAME
48 48 1 0 0 
SMALL
USER_CHARGES


@<TRIPOS>ATOM
  1 N       -0.1670     0.0040     0.1460 N.4   1 <1>  -0.9590 
  2 C        1.1260    -0.7440    -0.0850 C.3   1 <1>   0.3430 
  3 C       -1.3000    -0.9670     0.2330 C.3   1 <1>   0.3430 
  4 C       -0.4620     1.0400    -0.8910 C.3   1 <1>   0.3430 
  5 C        2.4160     0.1190     0.0170 C.3   1 <1>   0.3430 
  6 C       -2.4580    -0.3260     0.9890 C.3   1 <1>  -0.2400 
  7 C       -0.0730     2.4100    -0.3500 C.3   1 <1>  -0.2400 
  8 N        3.7090    -0.6550    -0.0870 N.4   1 <1>  -0.9590 
  9 C        4.8700     0.2230     0.2860 C.3   1 <1>   0.4230 
 10 C        3.8960    -1.3240    -1.4260 C.3   1 <1>   0.2630 
 11 C        5.1770     1.2980    -0.7710 C.3   1 <1>  -0.1600 
 12 C        6.1110    -0.6310     0.5760 C.3   1 <1>  -0.1600 
 13 C        6.3400     2.1870    -0.3080 C.3   1 <1>  -0.1600 
 14 C        7.2770     0.2550     1.0410 C.3   1 <1>  -0.1600 
 15 C        7.5920     1.3550     0.0140 C.3   1 <1>  -0.0800 
 16 C        8.7130     2.2600     0.5330 C.3   1 <1>  -0.2400 
 17 H       -0.1530     0.4820     1.0610 H     1 <1>   0.4500 
 18 H        1.0910    -1.2020    -1.0600 H     1 <1>   0.0800 
 19 H        1.1960    -1.5320     0.6470 H     1 <1>   0.0800 
 20 H       -0.9900    -1.8500     0.7700 H     1 <1>   0.0800 
 21 H       -1.6190    -1.2670    -0.7530 H     1 <1>   0.0800 
 22 H       -1.5180     1.0510    -1.1160 H     1 <1>   0.0800 
 23 H        0.0660     0.8290    -1.8070 H     1 <1>   0.0800 
 24 H        2.4010     0.6330     0.9650 H     1 <1>   0.0800 
 25 H        2.3960     0.8630    -0.7630 H     1 <1>   0.0800 
 26 H       -2.1600    -0.0390     1.9820 H     1 <1>   0.0800 
 27 H       -3.2540    -1.0440     1.0830 H     1 <1>   0.0800 
 28 H       -2.8540     0.5270     0.4690 H     1 <1>   0.0800 
 29 H       -0.6300     2.6390     0.5420 H     1 <1>   0.0800 
 30 H       -0.3210     3.1570    -1.0840 H     1 <1>   0.0800 
 31 H        0.9780     2.4880    -0.1510 H     1 <1>   0.0800 
 32 H        3.7230    -1.3970     0.6300 H     1 <1>   0.4500 
 33 H        4.6280     0.7360     1.2040 H     1 <1>   0.0800 
 34 H        3.9030    -0.5920    -2.2170 H     1 <1>   0.0800 
 35 H        3.1040    -2.0300    -1.6150 H     1 <1>   0.0800 
 36 H        4.8320    -1.8590    -1.4530 H     1 <1>   0.0800 
 37 H        4.3210     1.9260    -0.9390 H     1 <1>   0.0800 
 38 H        5.4630     0.8450    -1.7040 H     1 <1>   0.0800 
 39 H        6.4270    -1.1580    -0.3070 H     1 <1>   0.0800 
 40 H        5.8980    -1.3470     1.3490 H     1 <1>   0.0800 
 41 H        6.0450     2.7440     0.5660 H     1 <1>   0.0800 
 42 H        6.5760     2.9000    -1.0810 H     1 <1>   0.0800 
 43 H        8.1520    -0.3570     1.1890 H     1 <1>   0.0800 
 44 H        7.0330     0.7060     1.9880 H     1 <1>   0.0800 
 45 H        7.9380     0.8880    -0.8950 H     1 <1>   0.0800 
 46 H        8.4210     2.7530     1.4430 H     1 <1>   0.0800 
 47 H        8.9580     3.0100    -0.1990 H     1 <1>   0.0800 
 48 H        9.6000     1.6830     0.7280 H     1 <1>   0.0800 
@<TRIPOS>BOND
  1   1   2  1   
  2   1   3  1   
  3   1   4  1   
  4   1  17  1   
  5   2   5  1   
  6   2  18  1   
  7   2  19  1   
  8   3   6  1   
  9   3  20  1   
 10   3  21  1   
 11   4   7  1   
 12   4  22  1   
 13   4  23  1   
 14   5   8  1   
 15   5  24  1   
 16   5  25  1   
 17   6  26  1   
 18   6  27  1   
 19   6  28  1   
 20   7  29  1   
 21   7  30  1   
 22   7  31  1   
 23   8   9  1   
 24   8  10  1   
 25   8  32  1   
 26   9  11  1   
 27   9  12  1   
 28   9  33  1   
 29  10  34  1   
 30  10  35  1   
 31  10  36  1   
 32  11  13  1   
 33  11  37  1   
 34  11  38  1   
 35  12  14  1   
 36  12  39  1   
 37  12  40  1   
 38  13  15  1   
 39  13  41  1   
 40  13  42  1   
 41  14  15  1   
 42  14  43  1   
 43  14  44  1   
 44  15  16  1   
 45  15  45  1   
 46  16  46  1   
 47  16  47  1   
 48  16  48  1   
@<TRIPOS>SUBSTRUCTURE
  1 ****   5 GROUP 4 **** **** 0

# MOE 2024.06 (io_trps.svl 2023.06)
