@<TRIPOS>MOLECULE
NONAME
35 36 1 0 0 
SMALL
USER_CHARGES


@<TRIPOS>ATOM
  1 F       -0.3540     0.9110    -0.5140 F     1 <1>  -0.1900 
  2 C       -1.5980     1.2960    -0.5460 C.ar  1 <1>   0.1900 
  3 C       -2.3150     1.1490    -1.7170 C.ar  1 <1>  -0.1500 
  4 C       -2.1600     1.8400     0.5920 C.ar  1 <1>  -0.1500 
  5 C       -3.6380     1.5570    -1.7400 C.ar  1 <1>  -0.1500 
  6 C       -3.4840     2.2430     0.5510 C.ar  1 <1>  -0.1500 
  7 C       -4.2550     2.1010    -0.6090 C.ar  1 <1>   0.0860 
  8 C       -5.6490     2.5100    -0.6490 C.2   1 <1>   0.5440 
  9 O       -6.1000     3.0410    -1.6460 O.2   1 <1>  -0.5700 
 10 N       -6.5210     2.2890     0.3980 N.am  1 <1>  -0.6600 
 11 C       -7.7460     3.1320     0.5240 C.3   1 <1>   0.1400 
 12 C       -6.4300     1.0940     1.2760 C.3   1 <1>   0.1400 
 13 C       -8.8230     2.7080    -0.4930 C.3   1 <1>   0.3430 
 14 C       -7.7050     0.2450     1.2040 C.3   1 <1>  -0.1600 
 15 N       -9.4040     1.3340    -0.2630 N.4   1 <1>  -0.9590 
 16 C       -8.3770     0.2490    -0.1750 C.3   1 <1>   0.3430 
 17 C      -10.3690     1.0260    -1.3610 C.3   1 <1>   0.2630 
 18 H       -1.8430     0.7290    -2.5880 H     1 <1>   0.1500 
 19 H       -1.5670     1.9470     1.4830 H     1 <1>   0.1500 
 20 H       -4.2070     1.4590    -2.6490 H     1 <1>   0.1500 
 21 H       -3.9270     2.6810     1.4280 H     1 <1>   0.1500 
 22 H       -7.4740     4.1540     0.3210 H     1 <1>   0.0800 
 23 H       -8.1320     3.0930     1.5270 H     1 <1>   0.0800 
 24 H       -6.2470     1.4050     2.2920 H     1 <1>   0.0800 
 25 H       -5.5960     0.4860     0.9660 H     1 <1>   0.0800 
 26 H       -8.3850     2.7530    -1.4780 H     1 <1>   0.0800 
 27 H       -9.6170     3.4340    -0.4640 H     1 <1>   0.0800 
 28 H       -8.4000     0.5510     1.9650 H     1 <1>   0.0800 
 29 H       -7.4240    -0.7660     1.4380 H     1 <1>   0.0800 
 30 H       -9.9180     1.3480     0.6280 H     1 <1>   0.4500 
 31 H       -8.8620    -0.7040    -0.3150 H     1 <1>   0.0800 
 32 H       -7.6380     0.3650    -0.9520 H     1 <1>   0.0800 
 33 H       -9.8590     1.0040    -2.3110 H     1 <1>   0.0800 
 34 H      -11.1420     1.7760    -1.4030 H     1 <1>   0.0800 
 35 H      -10.8320     0.0660    -1.1960 H     1 <1>   0.0800 
@<TRIPOS>BOND
  1   1   2  1   
  2   2   3  ar  
  3   2   4  ar  
  4   3   5  ar  
  5   3  18  1   
  6   4   6  ar  
  7   4  19  1   
  8   5   7  ar  
  9   5  20  1   
 10   6   7  ar  
 11   6  21  1   
 12   7   8  1   
 13   8   9  2   
 14   8  10  am  
 15  10  11  1   
 16  10  12  1   
 17  11  13  1   
 18  11  22  1   
 19  11  23  1   
 20  12  14  1   
 21  12  24  1   
 22  12  25  1   
 23  13  15  1   
 24  13  26  1   
 25  13  27  1   
 26  14  16  1   
 27  14  28  1   
 28  14  29  1   
 29  15  16  1   
 30  15  17  1   
 31  15  30  1   
 32  16  31  1   
 33  16  32  1   
 34  17  33  1   
 35  17  34  1   
 36  17  35  1   
@<TRIPOS>SUBSTRUCTURE
  1 ****   8 GROUP 4 **** **** 0

# MOE 2024.06 (io_trps.svl 2023.06)
