@<TRIPOS>MOLECULE
NONAME
25 26 1 0 0 
SMALL
USER_CHARGES


@<TRIPOS>ATOM
  1 S        0.0580    -0.0210    -0.2020 S.o   1 <1>   0.1270 
  2 O        0.4550    -0.8870     1.1230 O.co2 1 <1>  -0.6000 
  3 O        0.4010     1.5740    -0.1280 O.co2 1 <1>  -0.6000 
  4 C       -1.7930    -0.0540    -0.1830 C.ar  1 <1>   0.0730 
  5 C       -2.4490    -1.1700     0.3030 C.ar  1 <1>  -0.1500 
  6 C       -2.4990     1.0260    -0.6790 C.ar  1 <1>  -0.1500 
  7 C       -3.8340    -1.1980     0.2980 C.ar  1 <1>  -0.1500 
  8 C       -3.8830     0.9890    -0.6800 C.ar  1 <1>  -0.1500 
  9 C       -4.5710    -0.1180    -0.1850 C.ar  1 <1>   0.1170 
 10 N       -5.9790    -0.1340    -0.1530 N.am  1 <1>  -0.4770 
 11 C       -6.8130    -1.1860    -0.4030 C.2   1 <1>   0.5690 
 12 C       -6.7290     1.0250     0.3710 C.3   1 <1>   0.1400 
 13 O       -6.5050    -2.2820    -0.8020 O.2   1 <1>  -0.5700 
 14 C       -8.2450    -0.8330    -0.1040 C.3   1 <1>  -0.0990 
 15 C       -8.2070     0.6800     0.1470 C.3   1 <1>  -0.1600 
 16 H       -1.8680    -1.9920     0.6810 H     1 <1>   0.1500 
 17 H       -1.9550     1.8760    -1.0510 H     1 <1>   0.1500 
 18 H       -4.3450    -2.0650     0.6740 H     1 <1>   0.1500 
 19 H       -4.4220     1.8280    -1.0750 H     1 <1>   0.1500 
 20 H       -6.4610     1.9270    -0.1500 H     1 <1>   0.0800 
 21 H       -6.5140     1.1330     1.4200 H     1 <1>   0.0800 
 22 H       -8.5580    -1.3660     0.7750 H     1 <1>   0.0800 
 23 H       -8.8790    -1.0870    -0.9340 H     1 <1>   0.0800 
 24 H       -8.5580     1.2010    -0.7260 H     1 <1>   0.0800 
 25 H       -8.8120     0.9670     0.9890 H     1 <1>   0.0800 
@<TRIPOS>BOND
  1   1   2  ar  
  2   1   3  ar  
  3   1   4  1   
  4   4   5  ar  
  5   4   6  ar  
  6   5   7  ar  
  7   5  16  1   
  8   6   8  ar  
  9   6  17  1   
 10   7   9  ar  
 11   7  18  1   
 12   8   9  ar  
 13   8  19  1   
 14   9  10  1   
 15  10  11  am  
 16  10  12  1   
 17  11  13  2   
 18  11  14  1   
 19  12  15  1   
 20  12  20  1   
 21  12  21  1   
 22  14  15  1   
 23  14  22  1   
 24  14  23  1   
 25  15  24  1   
 26  15  25  1   
@<TRIPOS>SUBSTRUCTURE
  1 ****   9 GROUP 4 **** **** 0

# MOE 2024.06 (io_trps.svl 2023.06)
