@<TRIPOS>MOLECULE
NONAME
47 49 1 0 0 
SMALL
USER_CHARGES


@<TRIPOS>ATOM
  1 CL      -0.1120     0.0610    -1.8700 Cl    1 <1>  -0.1770 
  2 C       -1.1310    -0.0200    -0.4540 C.ar  1 <1>   0.1770 
  3 C       -1.5400     1.1500     0.1840 C.ar  1 <1>   0.0860 
  4 C       -1.5000    -1.2710     0.0030 C.ar  1 <1>  -0.1500 
  5 C       -1.1410     2.4560    -0.2860 C.2   1 <1>   0.5440 
  6 C       -2.3570     1.0140     1.3050 C.ar  1 <1>  -0.1500 
  7 C       -2.3030    -1.3790     1.1250 C.ar  1 <1>  -0.1500 
  8 O       -1.9690     3.1650    -0.8240 O.2   1 <1>  -0.5700 
  9 N        0.1400     2.9360    -0.1100 N.am  1 <1>  -0.6600 
 10 C       -2.7320    -0.2330     1.7740 C.ar  1 <1>  -0.1500 
 11 C        1.2250     2.2190     0.6260 C.3   1 <1>   0.1400 
 12 C        0.5910     4.2300    -0.7080 C.3   1 <1>   0.1400 
 13 C        2.4850     2.0890    -0.2470 C.3   1 <1>   0.1960 
 14 C        1.8800     4.0420    -1.5260 C.3   1 <1>   0.1960 
 15 N        2.9450     3.4020    -0.7320 N.am  1 <1>  -0.8490 
 16 S        4.3830     3.2890    -1.6210 S.o2  1 <1>   1.4470 
 17 O        4.6710     4.6180    -2.1140 O.2   1 <1>  -0.6500 
 18 O        4.2000     2.2050    -2.5630 O.2   1 <1>  -0.6500 
 19 C        5.6020     2.8320    -0.3580 C.ar  1 <1>  -0.0090 
 20 C        6.2460     1.6010    -0.3860 C.ar  1 <1>  -0.1500 
 21 C        5.9030     3.6960     0.6850 C.ar  1 <1>  -0.1500 
 22 C        7.1590     1.2310     0.5900 C.ar  1 <1>  -0.1430 
 23 C        6.8120     3.3430     1.6650 C.ar  1 <1>  -0.1500 
 24 C        7.4440     2.1110     1.6270 C.ar  1 <1>  -0.1430 
 25 C        7.8290    -0.1330     0.4970 C.3   1 <1>  -0.0970 
 26 C        8.4390     1.7550     2.7230 C.3   1 <1>  -0.0970 
 27 H       -1.1640    -2.1510    -0.5160 H     1 <1>   0.1500 
 28 H       -2.7000     1.9030     1.8080 H     1 <1>   0.1500 
 29 H       -2.5970    -2.3490     1.4900 H     1 <1>   0.1500 
 30 H       -3.3630    -0.3140     2.6440 H     1 <1>   0.1500 
 31 H        0.9050     1.2400     0.9320 H     1 <1>   0.0800 
 32 H        1.4720     2.7770     1.5130 H     1 <1>   0.0800 
 33 H        0.7720     4.9390     0.0800 H     1 <1>   0.0800 
 34 H       -0.1710     4.6390    -1.3500 H     1 <1>   0.0800 
 35 H        2.2710     1.4400    -1.0800 H     1 <1>   0.0800 
 36 H        3.2610     1.6280     0.3400 H     1 <1>   0.0800 
 37 H        2.2110     5.0100    -1.8630 H     1 <1>   0.0800 
 38 H        1.6620     3.4460    -2.3980 H     1 <1>   0.0800 
 39 H        6.0240     0.9220    -1.1920 H     1 <1>   0.1500 
 40 H        5.4190     4.6570     0.7270 H     1 <1>   0.1500 
 41 H        7.0240     4.0380     2.4590 H     1 <1>   0.1500 
 42 H        7.5010    -0.6670    -0.3760 H     1 <1>   0.0800 
 43 H        7.5880    -0.7210     1.3640 H     1 <1>   0.0800 
 44 H        8.8960    -0.0160     0.4380 H     1 <1>   0.0800 
 45 H        8.1210     0.8670     3.2380 H     1 <1>   0.0800 
 46 H        8.5220     2.5500     3.4430 H     1 <1>   0.0800 
 47 H        9.4110     1.5850     2.2970 H     1 <1>   0.0800 
@<TRIPOS>BOND
  1   1   2  1   
  2   2   3  ar  
  3   2   4  ar  
  4   3   5  1   
  5   3   6  ar  
  6   4   7  ar  
  7   4  27  1   
  8   5   8  2   
  9   5   9  am  
 10   6  10  ar  
 11   6  28  1   
 12   7  10  ar  
 13   7  29  1   
 14   9  11  1   
 15   9  12  1   
 16  10  30  1   
 17  11  13  1   
 18  11  31  1   
 19  11  32  1   
 20  12  14  1   
 21  12  33  1   
 22  12  34  1   
 23  13  15  1   
 24  13  35  1   
 25  13  36  1   
 26  14  15  1   
 27  14  37  1   
 28  14  38  1   
 29  15  16  am  
 30  16  17  2   
 31  16  18  2   
 32  16  19  1   
 33  19  20  ar  
 34  19  21  ar  
 35  20  22  ar  
 36  20  39  1   
 37  21  23  ar  
 38  21  40  1   
 39  22  24  ar  
 40  22  25  1   
 41  23  24  ar  
 42  23  41  1   
 43  24  26  1   
 44  25  42  1   
 45  25  43  1   
 46  25  44  1   
 47  26  45  1   
 48  26  46  1   
 49  26  47  1   
@<TRIPOS>SUBSTRUCTURE
  1 ****  13 GROUP 4 **** **** 0

# MOE 2024.06 (io_trps.svl 2023.06)
