@<TRIPOS>MOLECULE
NONAME
44 45 1 0 0 
SMALL
USER_CHARGES


@<TRIPOS>ATOM
  1 O       -0.5450    -0.8560     0.6700 O.3   1 <1>  -0.3630 
  2 C       -1.6860    -1.2990     0.0800 C.ar  1 <1>   0.0830 
  3 C        0.3900    -0.0540    -0.0170 C.3   1 <1>   0.0400 
  4 C       -2.5080    -2.1440     0.8190 C.ar  1 <1>  -0.1440 
  5 C       -2.0520    -0.9450    -1.2150 C.ar  1 <1>  -0.1500 
  6 C       -3.6840    -2.6180     0.2620 C.ar  1 <1>  -0.1500 
  7 C       -2.1190    -2.5520     2.2340 C.3   1 <1>  -0.0960 
  8 C       -3.2300    -1.4200    -1.7630 C.ar  1 <1>  -0.1500 
  9 C       -4.0560    -2.2530    -1.0240 C.ar  1 <1>  -0.1440 
 10 C       -5.3650    -2.7490    -1.6020 C.3   1 <1>   0.4860 
 11 N       -6.4640    -2.0440    -0.8930 N.4   1 <1>  -0.9590 
 12 C       -7.7840    -2.6850    -1.0530 C.3   1 <1>   0.3430 
 13 C       -6.5020    -0.5910    -1.1580 C.3   1 <1>   0.3430 
 14 C       -8.0810    -3.4700     0.2220 C.3   1 <1>  -0.1600 
 15 C       -6.4650     0.1420     0.1830 C.3   1 <1>  -0.1600 
 16 C       -8.5110    -2.6050     1.4240 C.3   1 <1>  -0.1600 
 17 C       -7.6260    -0.1760     1.1460 C.3   1 <1>  -0.1600 
 18 C       -7.5260    -1.5190     1.9040 C.3   1 <1>  -0.1600 
 19 H        1.2130     0.1400     0.6470 H     1 <1>   0.0800 
 20 H       -0.0800     0.8720    -0.2950 H     1 <1>   0.0800 
 21 H        0.7390    -0.5890    -0.8830 H     1 <1>   0.0800 
 22 H       -1.4320    -0.3000    -1.8090 H     1 <1>   0.1500 
 23 H       -4.3050    -3.2780     0.8430 H     1 <1>   0.1500 
 24 H       -2.0280    -1.6770     2.8530 H     1 <1>   0.0800 
 25 H       -1.1690    -3.0570     2.2170 H     1 <1>   0.0800 
 26 H       -2.8470    -3.2090     2.6720 H     1 <1>   0.0800 
 27 H       -3.4880    -1.1320    -2.7680 H     1 <1>   0.1500 
 28 H       -5.4410    -3.8130    -1.4430 H     1 <1>   0.0800 
 29 H       -5.4100    -2.5530    -2.6600 H     1 <1>   0.0800 
 30 H       -6.2410    -2.1060     0.1090 H     1 <1>   0.4500 
 31 H       -7.7780    -3.3460    -1.9050 H     1 <1>   0.0800 
 32 H       -8.5530    -1.9430    -1.2000 H     1 <1>   0.0800 
 33 H       -7.3960    -0.3280    -1.7010 H     1 <1>   0.0800 
 34 H       -5.6470    -0.2930    -1.7440 H     1 <1>   0.0800 
 35 H       -7.2390    -4.0840     0.4870 H     1 <1>   0.0800 
 36 H       -8.8950    -4.1410     0.0050 H     1 <1>   0.0800 
 37 H       -6.5000     1.1950    -0.0360 H     1 <1>   0.0800 
 38 H       -5.5190    -0.0340     0.6680 H     1 <1>   0.0800 
 39 H       -8.6740    -3.2780     2.2500 H     1 <1>   0.0800 
 40 H       -9.4670    -2.1530     1.2180 H     1 <1>   0.0800 
 41 H       -8.5700    -0.0910     0.6330 H     1 <1>   0.0800 
 42 H       -7.6250     0.6020     1.8920 H     1 <1>   0.0800 
 43 H       -6.5160    -1.8890     1.9410 H     1 <1>   0.0800 
 44 H       -7.7920    -1.3090     2.9270 H     1 <1>   0.0800 
@<TRIPOS>BOND
  1   1   2  1   
  2   1   3  1   
  3   2   4  ar  
  4   2   5  ar  
  5   3  19  1   
  6   3  20  1   
  7   3  21  1   
  8   4   6  ar  
  9   4   7  1   
 10   5   8  ar  
 11   5  22  1   
 12   6   9  ar  
 13   6  23  1   
 14   7  24  1   
 15   7  25  1   
 16   7  26  1   
 17   8   9  ar  
 18   8  27  1   
 19   9  10  1   
 20  10  11  1   
 21  10  28  1   
 22  10  29  1   
 23  11  12  1   
 24  11  13  1   
 25  11  30  1   
 26  12  14  1   
 27  12  31  1   
 28  12  32  1   
 29  13  15  1   
 30  13  33  1   
 31  13  34  1   
 32  14  16  1   
 33  14  35  1   
 34  14  36  1   
 35  15  17  1   
 36  15  37  1   
 37  15  38  1   
 38  16  18  1   
 39  16  39  1   
 40  16  40  1   
 41  17  18  1   
 42  17  41  1   
 43  17  42  1   
 44  18  43  1   
 45  18  44  1   
@<TRIPOS>SUBSTRUCTURE
  1 ****   9 GROUP 4 **** **** 0

# MOE 2024.06 (io_trps.svl 2023.06)
