@<TRIPOS>MOLECULE
NONAME
46 48 1 0 0 
SMALL
USER_CHARGES


@<TRIPOS>ATOM
  1 CL      -1.2540     0.6380     0.3870 Cl    1 <1>  -0.1770 
  2 C        0.3210    -0.1020     0.1840 C.ar  1 <1>   0.1770 
  3 C        0.4050    -1.4070    -0.3050 C.ar  1 <1>   0.1170 
  4 C        1.4420     0.6350     0.5220 C.ar  1 <1>  -0.1500 
  5 N       -0.7710    -2.1020    -0.6370 N.am  1 <1>  -0.5470 
  6 C        1.6730    -1.9630    -0.4510 C.ar  1 <1>  -0.1500 
  7 C        2.6960     0.0660     0.3730 C.ar  1 <1>  -0.1500 
  8 C       -1.0560    -3.4260    -0.8010 C.2   1 <1>   0.5690 
  9 C        2.7930    -1.2270    -0.1120 C.ar  1 <1>   0.1770 
 10 O       -0.2390    -4.3100    -0.7160 O.2   1 <1>  -0.5700 
 11 C       -2.5160    -3.7740    -1.0970 C.3   1 <1>   0.1710 
 12 CL       4.3740    -1.9400    -0.3030 Cl    1 <1>  -0.1770 
 13 N       -3.4750    -2.6950    -0.7110 N.3   1 <1>  -0.8100 
 14 C       -4.7770    -2.8760    -1.3840 C.3   1 <1>   0.1100 
 15 C       -3.6720    -2.6520     0.7600 C.3   1 <1>   0.1100 
 16 C       -5.7680    -1.7540    -1.0280 C.3   1 <1>   0.1400 
 17 C       -4.6200    -1.5150     1.1720 C.3   1 <1>   0.1400 
 18 N       -5.9250    -1.6260     0.4540 N.am  1 <1>  -0.6600 
 19 C       -7.1280    -1.5410     1.1190 C.2   1 <1>   0.5690 
 20 O       -7.1520    -1.4270     2.3270 O.2   1 <1>  -0.5700 
 21 C       -8.4760    -1.6130     0.3520 C.3   1 <1>   0.2610 
 22 O       -8.5740    -0.5980    -0.6130 O.3   1 <1>  -0.5600 
 23 C       -9.7340    -1.3960     1.1950 C.3   1 <1>  -0.1600 
 24 C       -9.0660     0.5640    -0.0250 C.3   1 <1>   0.1200 
 25 C       -9.9270     0.1120     1.1520 C.3   1 <1>  -0.1600 
 26 H        1.3330     1.6370     0.8970 H     1 <1>   0.1500 
 27 H       -1.6310    -1.5370    -0.6670 H     1 <1>   0.3700 
 28 H        1.7980    -2.9620    -0.8270 H     1 <1>   0.1500 
 29 H        3.5880     0.6110     0.6260 H     1 <1>   0.1500 
 30 H       -2.7670    -4.6910    -0.5940 H     1 <1>   0.0800 
 31 H       -2.5850    -3.9500    -2.1560 H     1 <1>   0.0800 
 32 H       -5.2060    -3.8240    -1.1050 H     1 <1>   0.0800 
 33 H       -4.6310    -2.8770    -2.4510 H     1 <1>   0.0800 
 34 H       -2.7270    -2.5040     1.2540 H     1 <1>   0.0800 
 35 H       -4.0820    -3.5870     1.1050 H     1 <1>   0.0800 
 36 H       -6.7080    -1.9630    -1.5020 H     1 <1>   0.0800 
 37 H       -5.4030    -0.8210    -1.4210 H     1 <1>   0.0800 
 38 H       -4.1660    -0.5690     0.9330 H     1 <1>   0.0800 
 39 H       -4.7680    -1.5500     2.2370 H     1 <1>   0.0800 
 40 H       -8.5280    -2.5600    -0.1530 H     1 <1>   0.0800 
 41 H       -9.6420    -1.7790     2.1960 H     1 <1>   0.0800 
 42 H      -10.5610    -1.8860     0.7120 H     1 <1>   0.0800 
 43 H       -9.6330     1.1090    -0.7610 H     1 <1>   0.0800 
 44 H       -8.2280     1.1530     0.3090 H     1 <1>   0.0800 
 45 H       -9.5680     0.5700     2.0580 H     1 <1>   0.0800 
 46 H      -10.9600     0.3780     1.0090 H     1 <1>   0.0800 
@<TRIPOS>BOND
  1   1   2  1   
  2   2   3  ar  
  3   2   4  ar  
  4   3   5  1   
  5   3   6  ar  
  6   4   7  ar  
  7   4  26  1   
  8   5   8  am  
  9   5  27  1   
 10   6   9  ar  
 11   6  28  1   
 12   7   9  ar  
 13   7  29  1   
 14   8  10  2   
 15   8  11  1   
 16   9  12  1   
 17  11  13  1   
 18  11  30  1   
 19  11  31  1   
 20  13  14  1   
 21  13  15  1   
 22  14  16  1   
 23  14  32  1   
 24  14  33  1   
 25  15  17  1   
 26  15  34  1   
 27  15  35  1   
 28  16  18  1   
 29  16  36  1   
 30  16  37  1   
 31  17  18  1   
 32  17  38  1   
 33  17  39  1   
 34  18  19  am  
 35  19  20  2   
 36  19  21  1   
 37  21  22  1   
 38  21  23  1   
 39  21  40  1   
 40  22  24  1   
 41  23  25  1   
 42  23  41  1   
 43  23  42  1   
 44  24  25  1   
 45  24  43  1   
 46  24  44  1   
 47  25  45  1   
 48  25  46  1   
@<TRIPOS>SUBSTRUCTURE
  1 ****  15 GROUP 4 **** **** 0

# MOE 2024.06 (io_trps.svl 2023.06)
