@<TRIPOS>MOLECULE
NONAME
34 34 1 0 0 
SMALL
USER_CHARGES


@<TRIPOS>ATOM
  1 S        0.1450     0.5250    -0.6210 S.3   1 <1>  -0.3320 
  2 C       -1.5200     1.0610    -0.2030 C.ar  1 <1>   0.1020 
  3 C        0.3750    -1.1440     0.1380 C.3   1 <1>  -0.0100 
  4 C       -1.9190     2.2960    -0.6660 C.ar  1 <1>  -0.1500 
  5 C       -2.3790     0.2830     0.5500 C.ar  1 <1>  -0.1500 
  6 C       -3.1950     2.7810    -0.3820 C.ar  1 <1>   0.0830 
  7 C       -3.6440     0.7610     0.8300 C.ar  1 <1>  -0.1500 
  8 O       -3.5810     4.0030    -0.8360 O.3   1 <1>  -0.3630 
  9 C       -4.0970     2.0080     0.3810 C.ar  1 <1>   0.0860 
 10 C       -2.7220     4.8720    -1.5460 C.3   1 <1>   0.0400 
 11 C       -5.4550     2.4180     0.7260 C.2   1 <1>   0.5440 
 12 O       -6.1120     1.7750     1.5250 O.2   1 <1>  -0.5700 
 13 N       -6.0550     3.5100     0.1680 N.am  1 <1>  -0.7300 
 14 C       -7.3990     4.0410     0.5060 C.3   1 <1>   0.1400 
 15 C       -8.4880     3.1850    -0.1400 C.3   1 <1>   0.1200 
 16 O       -9.7140     3.8290     0.0170 O.3   1 <1>  -0.5600 
 17 C      -10.7940     3.0970    -0.4630 C.3   1 <1>   0.0400 
 18 H        1.3690    -1.4750    -0.1040 H     1 <1>   0.0800 
 19 H       -0.3600    -1.8050    -0.2840 H     1 <1>   0.0800 
 20 H        0.2550    -1.0450     1.2010 H     1 <1>   0.0800 
 21 H       -1.2110     2.8560    -1.2450 H     1 <1>   0.1500 
 22 H       -2.0840    -0.6800     0.9200 H     1 <1>   0.1500 
 23 H       -4.3050     0.1460     1.4170 H     1 <1>   0.1500 
 24 H       -3.2600     5.7780    -1.7570 H     1 <1>   0.0800 
 25 H       -2.4290     4.4000    -2.4670 H     1 <1>   0.0800 
 26 H       -1.8640     5.0920    -0.9360 H     1 <1>   0.0800 
 27 H       -5.4740     4.0850    -0.4510 H     1 <1>   0.3700 
 28 H       -7.4780     5.0530     0.1520 H     1 <1>   0.0800 
 29 H       -7.5280     4.0300     1.5750 H     1 <1>   0.0800 
 30 H       -8.5310     2.2230     0.3420 H     1 <1>   0.0800 
 31 H       -8.2960     3.0690    -1.1930 H     1 <1>   0.0800 
 32 H      -11.6870     3.6740    -0.3040 H     1 <1>   0.0800 
 33 H      -10.8610     2.1680     0.0780 H     1 <1>   0.0800 
 34 H      -10.6610     2.9150    -1.5150 H     1 <1>   0.0800 
@<TRIPOS>BOND
  1   1   2  1   
  2   1   3  1   
  3   2   4  ar  
  4   2   5  ar  
  5   3  18  1   
  6   3  19  1   
  7   3  20  1   
  8   4   6  ar  
  9   4  21  1   
 10   5   7  ar  
 11   5  22  1   
 12   6   8  1   
 13   6   9  ar  
 14   7   9  ar  
 15   7  23  1   
 16   8  10  1   
 17   9  11  1   
 18  10  24  1   
 19  10  25  1   
 20  10  26  1   
 21  11  12  2   
 22  11  13  am  
 23  13  14  1   
 24  13  27  1   
 25  14  15  1   
 26  14  28  1   
 27  14  29  1   
 28  15  16  1   
 29  15  30  1   
 30  15  31  1   
 31  16  17  1   
 32  17  32  1   
 33  17  33  1   
 34  17  34  1   
@<TRIPOS>SUBSTRUCTURE
  1 ****   9 GROUP 4 **** **** 0

# MOE 2024.06 (io_trps.svl 2023.06)
