@<TRIPOS>MOLECULE
NONAME
46 47 1 0 0 
SMALL
USER_CHARGES


@<TRIPOS>ATOM
  1 O       -1.0540    -0.6550     0.1570 O.2   1 <1>  -0.5700 
  2 C       -1.1040    -1.6800    -0.4960 C.2   1 <1>   0.6900 
  3 N       -2.2860    -2.0240    -1.0810 N.am  1 <1>  -0.6600 
  4 N       -0.0540    -2.5310    -0.6410 N.am  1 <1>  -0.5470 
  5 C       -3.0970    -3.0570    -0.3800 C.3   1 <1>   0.1400 
  6 C       -3.1150    -0.9220    -1.6510 C.3   1 <1>   0.1400 
  7 C        1.2330    -2.5480    -0.0800 C.ar  1 <1>   0.1170 
  8 C       -3.9470    -2.3980     0.7270 C.3   1 <1>   0.3430 
  9 C       -3.9720    -0.2650    -0.5500 C.3   1 <1>   0.3430 
 10 C        2.2480    -3.2720    -0.7110 C.ar  1 <1>  -0.1440 
 11 C        1.5300    -1.8820     1.1050 C.ar  1 <1>  -0.1500 
 12 N       -4.8090    -1.2750     0.2030 N.4   1 <1>  -0.9590 
 13 C        3.5180    -3.3110    -0.1550 C.ar  1 <1>  -0.1500 
 14 C        1.9970    -4.0240    -2.0130 C.3   1 <1>  -0.0970 
 15 C        2.7980    -1.9250     1.6500 C.ar  1 <1>  -0.1500 
 16 C       -5.5540    -0.6390     1.3230 C.3   1 <1>   0.3430 
 17 C        3.8020    -2.6400     1.0220 C.ar  1 <1>  -0.1430 
 18 C       -6.6880     0.2360     0.7860 C.3   1 <1>  -0.1600 
 19 C        5.1970    -2.6930     1.6180 C.3   1 <1>  -0.0970 
 20 C       -7.5300     0.8050     1.9340 C.3   1 <1>  -0.2400 
 21 H       -0.1940    -3.2060    -1.3860 H     1 <1>   0.3700 
 22 H       -2.4450    -3.7910     0.0640 H     1 <1>   0.0800 
 23 H       -3.7310    -3.5630    -1.0870 H     1 <1>   0.0800 
 24 H       -3.7430    -1.3070    -2.4350 H     1 <1>   0.0800 
 25 H       -2.4670    -0.1770    -2.0840 H     1 <1>   0.0800 
 26 H       -3.2760    -2.0120     1.4780 H     1 <1>   0.0800 
 27 H       -4.5650    -3.1480     1.1920 H     1 <1>   0.0800 
 28 H       -4.6060     0.4810    -0.9980 H     1 <1>   0.0800 
 29 H       -3.3080     0.2360     0.1360 H     1 <1>   0.0800 
 30 H        0.7700    -1.3220     1.6150 H     1 <1>   0.1500 
 31 H       -5.4930    -1.6760    -0.4510 H     1 <1>   0.4500 
 32 H        4.3000    -3.8680    -0.6400 H     1 <1>   0.1500 
 33 H        1.2820    -4.8100    -1.8540 H     1 <1>   0.0800 
 34 H        2.9050    -4.4670    -2.3820 H     1 <1>   0.0800 
 35 H        1.6270    -3.3490    -2.7640 H     1 <1>   0.0800 
 36 H        3.0000    -1.3990     2.5670 H     1 <1>   0.1500 
 37 H       -4.8840    -0.0450     1.9240 H     1 <1>   0.0800 
 38 H       -5.9800    -1.4030     1.9540 H     1 <1>   0.0800 
 39 H       -7.3310    -0.3470     0.1490 H     1 <1>   0.0800 
 40 H       -6.2920     1.0600     0.2200 H     1 <1>   0.0800 
 41 H        5.2930    -3.5640     2.2400 H     1 <1>   0.0800 
 42 H        5.3850    -1.8180     2.2140 H     1 <1>   0.0800 
 43 H        5.9350    -2.7370     0.8380 H     1 <1>   0.0800 
 44 H       -7.9740     0.0130     2.5140 H     1 <1>   0.0800 
 45 H       -8.3240     1.4170     1.5400 H     1 <1>   0.0800 
 46 H       -6.9270     1.4150     2.5850 H     1 <1>   0.0800 
@<TRIPOS>BOND
  1   1   2  2   
  2   2   3  am  
  3   2   4  am  
  4   3   5  1   
  5   3   6  1   
  6   4   7  1   
  7   4  21  1   
  8   5   8  1   
  9   5  22  1   
 10   5  23  1   
 11   6   9  1   
 12   6  24  1   
 13   6  25  1   
 14   7  10  ar  
 15   7  11  ar  
 16   8  12  1   
 17   8  26  1   
 18   8  27  1   
 19   9  12  1   
 20   9  28  1   
 21   9  29  1   
 22  10  13  ar  
 23  10  14  1   
 24  11  15  ar  
 25  11  30  1   
 26  12  16  1   
 27  12  31  1   
 28  13  17  ar  
 29  13  32  1   
 30  14  33  1   
 31  14  34  1   
 32  14  35  1   
 33  15  17  ar  
 34  15  36  1   
 35  16  18  1   
 36  16  37  1   
 37  16  38  1   
 38  17  19  1   
 39  18  20  1   
 40  18  39  1   
 41  18  40  1   
 42  19  41  1   
 43  19  42  1   
 44  19  43  1   
 45  20  44  1   
 46  20  45  1   
 47  20  46  1   
@<TRIPOS>SUBSTRUCTURE
  1 ****   2 GROUP 4 **** **** 0

# MOE 2024.06 (io_trps.svl 2023.06)
