@<TRIPOS>MOLECULE
NONAME
46 48 1 0 0 
SMALL
USER_CHARGES


@<TRIPOS>ATOM
  1 CL      -0.7000     0.3220     1.3910 Cl    1 <1>  -0.1770 
  2 C        0.9900     0.0540     1.0160 C.ar  1 <1>   0.1770 
  3 C        1.4030    -1.1970     0.5620 C.ar  1 <1>   0.1170 
  4 C        1.8720     1.1050     1.1920 C.ar  1 <1>  -0.1500 
  5 N        0.4680    -2.2330     0.3650 N.am  1 <1>  -0.5470 
  6 C        2.7700    -1.3550     0.3230 C.ar  1 <1>   0.1770 
  7 C        3.2190     0.9230     0.9220 C.ar  1 <1>  -0.1500 
  8 C        0.1670    -2.8420    -0.8220 C.2   1 <1>   0.5690 
  9 CL       3.4140    -2.9110    -0.1610 Cl    1 <1>  -0.1770 
 10 C        3.6670    -0.3150     0.4900 C.ar  1 <1>  -0.1500 
 11 O        0.7090    -2.5320    -1.8550 O.2   1 <1>  -0.5700 
 12 C       -0.8740    -3.9700    -0.8230 C.3   1 <1>   0.1710 
 13 N       -2.3030    -3.5510    -0.8740 N.3   1 <1>  -0.8100 
 14 C       -3.1830    -4.7370    -1.0220 C.3   1 <1>   0.1100 
 15 C       -2.7330    -2.7330     0.2890 C.3   1 <1>   0.1100 
 16 C       -4.6750    -4.3640    -1.1210 C.3   1 <1>   0.2090 
 17 C       -4.2160    -2.3250     0.2080 C.3   1 <1>   0.2090 
 18 N       -5.0740    -3.5280     0.0430 N.pl3 1 <1>  -0.8380 
 19 C       -6.4120    -3.5030     0.4320 C.ar  1 <1>   0.1000 
 20 C       -7.3800    -2.6680    -0.1390 C.ar  1 <1>  -0.1430 
 21 C       -6.7930    -4.3680     1.4500 C.ar  1 <1>  -0.1500 
 22 C       -8.6850    -2.7180     0.3240 C.ar  1 <1>  -0.1500 
 23 C       -7.0540    -1.6950    -1.2650 C.3   1 <1>  -0.0970 
 24 C       -8.0960    -4.4150     1.9040 C.ar  1 <1>  -0.1500 
 25 C       -9.0470    -3.5850     1.3400 C.ar  1 <1>  -0.1500 
 26 H        1.5070     2.0560     1.5360 H     1 <1>   0.1500 
 27 H       -0.1800    -2.4090     1.1310 H     1 <1>   0.3700 
 28 H        3.9140     1.7360     1.0510 H     1 <1>   0.1500 
 29 H        4.7100    -0.4780     0.2850 H     1 <1>   0.1500 
 30 H       -0.7130    -4.5840     0.0440 H     1 <1>   0.0800 
 31 H       -0.6690    -4.5760    -1.6880 H     1 <1>   0.0800 
 32 H       -3.0540    -5.3930    -0.1790 H     1 <1>   0.0800 
 33 H       -2.9070    -5.2760    -1.9120 H     1 <1>   0.0800 
 34 H       -2.1520    -1.8310     0.3260 H     1 <1>   0.0800 
 35 H       -2.5800    -3.2830     1.2010 H     1 <1>   0.0800 
 36 H       -5.2750    -5.2570    -1.1430 H     1 <1>   0.0800 
 37 H       -4.8420    -3.8210    -2.0330 H     1 <1>   0.0800 
 38 H       -4.3470    -1.6660    -0.6310 H     1 <1>   0.0800 
 39 H       -4.5030    -1.8010     1.1030 H     1 <1>   0.0800 
 40 H       -6.0460    -5.0070     1.8830 H     1 <1>   0.1500 
 41 H       -9.4360    -2.0780    -0.1050 H     1 <1>   0.1500 
 42 H       -6.4130    -2.1600    -1.9890 H     1 <1>   0.0800 
 43 H       -6.5610    -0.8290    -0.8630 H     1 <1>   0.0800 
 44 H       -7.9480    -1.3770    -1.7680 H     1 <1>   0.0800 
 45 H       -8.3690    -5.0920     2.6940 H     1 <1>   0.1500 
 46 H      -10.0640    -3.6140     1.6890 H     1 <1>   0.1500 
@<TRIPOS>BOND
  1   1   2  1   
  2   2   3  ar  
  3   2   4  ar  
  4   3   5  1   
  5   3   6  ar  
  6   4   7  ar  
  7   4  26  1   
  8   5   8  am  
  9   5  27  1   
 10   6   9  1   
 11   6  10  ar  
 12   7  10  ar  
 13   7  28  1   
 14   8  11  2   
 15   8  12  1   
 16  10  29  1   
 17  12  13  1   
 18  12  30  1   
 19  12  31  1   
 20  13  14  1   
 21  13  15  1   
 22  14  16  1   
 23  14  32  1   
 24  14  33  1   
 25  15  17  1   
 26  15  34  1   
 27  15  35  1   
 28  16  18  1   
 29  16  36  1   
 30  16  37  1   
 31  17  18  1   
 32  17  38  1   
 33  17  39  1   
 34  18  19  1   
 35  19  20  ar  
 36  19  21  ar  
 37  20  22  ar  
 38  20  23  1   
 39  21  24  ar  
 40  21  40  1   
 41  22  25  ar  
 42  22  41  1   
 43  23  42  1   
 44  23  43  1   
 45  23  44  1   
 46  24  25  ar  
 47  24  45  1   
 48  25  46  1   
@<TRIPOS>SUBSTRUCTURE
  1 ****  15 GROUP 4 **** **** 0

# MOE 2024.06 (io_trps.svl 2023.06)
