@<TRIPOS>MOLECULE
NONAME
43 44 1 0 0 
SMALL
USER_CHARGES


@<TRIPOS>ATOM
  1 O       -0.7610     1.5780    -1.8170 O.3   1 <1>  -0.3630 
  2 C        0.0910     2.2440    -1.0050 C.ar  1 <1>   0.0830 
  3 C       -1.9230     1.0440    -1.2210 C.3   1 <1>   0.1200 
  4 C        1.0120     1.5700    -0.2020 C.ar  1 <1>  -0.1440 
  5 C        0.0270     3.6270    -1.0030 C.ar  1 <1>  -0.1500 
  6 C       -3.0310     2.0990    -1.2290 C.3   1 <1>  -0.1600 
  7 C        1.8380     2.3100     0.6410 C.ar  1 <1>  -0.1440 
  8 C        1.1200     0.0470    -0.2540 C.3   1 <1>  -0.0960 
  9 C        0.8570     4.3550    -0.1740 C.ar  1 <1>  -0.1500 
 10 C       -4.3280     1.5230    -0.6640 C.3   1 <1>   0.1200 
 11 C        1.7530     3.6960     0.6470 C.ar  1 <1>  -0.1500 
 12 C        2.8490     1.6450     1.5660 C.3   1 <1>  -0.0970 
 13 O       -5.3110     2.5310    -0.7040 O.3   1 <1>  -0.3630 
 14 C       -6.5710     2.2970    -0.2540 C.ar  1 <1>   0.0830 
 15 C       -6.9950     1.0790     0.2710 C.ar  1 <1>  -0.1500 
 16 C       -7.4650     3.3530    -0.3340 C.ar  1 <1>  -0.1500 
 17 C       -8.3010     0.9340     0.7060 C.ar  1 <1>  -0.1500 
 18 C       -8.7710     3.2070     0.1010 C.ar  1 <1>  -0.1500 
 19 C       -9.1950     1.9890     0.6250 C.ar  1 <1>   0.0830 
 20 O      -10.4560     1.7570     1.0750 O.3   1 <1>  -0.3630 
 21 C      -11.4390     2.7660     1.0360 C.3   1 <1>   0.0400 
 22 H       -1.6900     0.7300    -0.2180 H     1 <1>   0.0800 
 23 H       -2.2140     0.1880    -1.8030 H     1 <1>   0.0800 
 24 H       -0.6730     4.1250    -1.6490 H     1 <1>   0.1500 
 25 H       -3.2010     2.4260    -2.2400 H     1 <1>   0.0800 
 26 H       -2.7330     2.9370    -0.6240 H     1 <1>   0.0800 
 27 H        0.6840    -0.3450    -1.1540 H     1 <1>   0.0800 
 28 H        0.6150    -0.3840     0.5910 H     1 <1>   0.0800 
 29 H        2.1490    -0.2600    -0.2420 H     1 <1>   0.0800 
 30 H        0.8060     5.4290    -0.1670 H     1 <1>   0.1500 
 31 H       -4.1950     1.2200     0.3600 H     1 <1>   0.0800 
 32 H       -4.6690     0.6950    -1.2600 H     1 <1>   0.0800 
 33 H        2.3910     4.2750     1.2920 H     1 <1>   0.1500 
 34 H        2.3770     0.8630     2.1320 H     1 <1>   0.0800 
 35 H        3.2630     2.3540     2.2590 H     1 <1>   0.0800 
 36 H        3.6530     1.2260     0.9880 H     1 <1>   0.0800 
 37 H       -6.3330     0.2390     0.3500 H     1 <1>   0.1500 
 38 H       -7.1280     4.2900    -0.7400 H     1 <1>   0.1500 
 39 H       -8.6380    -0.0020     1.1120 H     1 <1>   0.1500 
 40 H       -9.4350     4.0460     0.0240 H     1 <1>   0.1500 
 41 H      -12.3500     2.3610     1.4380 H     1 <1>   0.0800 
 42 H      -11.5920     3.0650     0.0140 H     1 <1>   0.0800 
 43 H      -11.1120     3.5960     1.6360 H     1 <1>   0.0800 
@<TRIPOS>BOND
  1   1   2  1   
  2   1   3  1   
  3   2   4  ar  
  4   2   5  ar  
  5   3   6  1   
  6   3  22  1   
  7   3  23  1   
  8   4   7  ar  
  9   4   8  1   
 10   5   9  ar  
 11   5  24  1   
 12   6  10  1   
 13   6  25  1   
 14   6  26  1   
 15   7  11  ar  
 16   7  12  1   
 17   8  27  1   
 18   8  28  1   
 19   8  29  1   
 20   9  11  ar  
 21   9  30  1   
 22  10  13  1   
 23  10  31  1   
 24  10  32  1   
 25  11  33  1   
 26  12  34  1   
 27  12  35  1   
 28  12  36  1   
 29  13  14  1   
 30  14  15  ar  
 31  14  16  ar  
 32  15  17  ar  
 33  15  37  1   
 34  16  18  ar  
 35  16  38  1   
 36  17  19  ar  
 37  17  39  1   
 38  18  19  ar  
 39  18  40  1   
 40  19  20  1   
 41  20  21  1   
 42  21  41  1   
 43  21  42  1   
 44  21  43  1   
@<TRIPOS>SUBSTRUCTURE
  1 ****  10 GROUP 4 **** **** 0

# MOE 2024.06 (io_trps.svl 2023.06)
