@<TRIPOS>MOLECULE
NONAME
51 53 1 0 0 
SMALL
USER_CHARGES


@<TRIPOS>ATOM
  1 O        1.2330     0.0440     1.5420 O.2   1 <1>  -0.5700 
  2 C        0.6830     1.0160     1.0530 C.2   1 <1>   0.5440 
  3 N       -0.0270     0.8530    -0.1170 N.am  1 <1>  -0.6600 
  4 C        0.8210     2.3030     1.6980 C.ar  1 <1>   0.0860 
  5 C       -0.2960    -0.4960    -0.6980 C.3   1 <1>   0.1400 
  6 C       -0.4130     1.9670    -1.0330 C.3   1 <1>   0.1400 
  7 C        2.0900     2.8620     1.9200 C.ar  1 <1>   0.1170 
  8 C       -0.3100     3.0090     2.1130 C.ar  1 <1>  -0.1500 
  9 C       -1.7280    -0.5690    -1.2550 C.3   1 <1>   0.1200 
 10 C       -1.8440     1.7590    -1.5580 C.3   1 <1>   0.1200 
 11 N        3.2310     2.1410     1.5330 N.am  1 <1>  -0.5470 
 12 C        2.1780     4.1110     2.5310 C.ar  1 <1>  -0.1500 
 13 C       -0.2040     4.2460     2.7160 C.ar  1 <1>  -0.1500 
 14 O       -1.9780     0.4920    -2.1360 O.3   1 <1>  -0.5600 
 15 C        4.5390     2.4920     1.3320 C.2   1 <1>   0.5690 
 16 C        1.0470     4.8000     2.9230 C.ar  1 <1>  -0.1500 
 17 O        4.9570     3.6180     1.4510 O.2   1 <1>  -0.5700 
 18 C        5.5180     1.3940     0.9440 C.3   1 <1>   0.1810 
 19 O        4.8810     0.4090     0.1460 O.3   1 <1>  -0.3630 
 20 C        5.5830    -0.7290    -0.0460 C.ar  1 <1>   0.0830 
 21 C        6.5640    -0.7920    -1.0340 C.ar  1 <1>  -0.1430 
 22 C        5.3030    -1.8350     0.7530 C.ar  1 <1>  -0.1440 
 23 C        7.2910    -1.9620    -1.1850 C.ar  1 <1>  -0.1500 
 24 C        6.8550     0.3810    -1.9610 C.3   1 <1>  -0.0970 
 25 C        6.0400    -2.9950     0.5820 C.ar  1 <1>  -0.1500 
 26 C        4.1950    -1.7920     1.7960 C.3   1 <1>  -0.0970 
 27 C        7.0340    -3.0570    -0.3790 C.ar  1 <1>  -0.1500 
 28 H       -0.1700    -1.2600     0.0500 H     1 <1>   0.0800 
 29 H        0.4060    -0.6870    -1.4900 H     1 <1>   0.0800 
 30 H        0.2650     1.9830    -1.8690 H     1 <1>   0.0800 
 31 H       -0.3470     2.9190    -0.5400 H     1 <1>   0.0800 
 32 H       -1.2810     2.5730     1.9590 H     1 <1>   0.1500 
 33 H       -2.4450    -0.5280    -0.4540 H     1 <1>   0.0800 
 34 H       -1.8680    -1.4870    -1.7970 H     1 <1>   0.0800 
 35 H       -2.0710     2.4890    -2.3140 H     1 <1>   0.0800 
 36 H       -2.5590     1.8520    -0.7600 H     1 <1>   0.0800 
 37 H        3.0380     1.1520     1.3120 H     1 <1>   0.3700 
 38 H        3.1390     4.5550     2.7120 H     1 <1>   0.1500 
 39 H       -1.0860     4.7790     3.0280 H     1 <1>   0.1500 
 40 H        1.1390     5.7640     3.3930 H     1 <1>   0.1500 
 41 H        5.8980     0.9230     1.8320 H     1 <1>   0.0800 
 42 H        6.3310     1.8150     0.3850 H     1 <1>   0.0800 
 43 H        8.0590    -2.0290    -1.9350 H     1 <1>   0.1500 
 44 H        7.5730     1.0390    -1.5070 H     1 <1>   0.0800 
 45 H        5.9550     0.9310    -2.1670 H     1 <1>   0.0800 
 46 H        7.2520     0.0310    -2.8970 H     1 <1>   0.0800 
 47 H        5.8440    -3.8580     1.1920 H     1 <1>   0.1500 
 48 H        3.2480    -1.6420     1.3080 H     1 <1>   0.0800 
 49 H        4.3580    -0.9860     2.4870 H     1 <1>   0.0800 
 50 H        4.1470    -2.7110     2.3500 H     1 <1>   0.0800 
 51 H        7.6040    -3.9610    -0.5040 H     1 <1>   0.1500 
@<TRIPOS>BOND
  1   1   2  2   
  2   2   3  am  
  3   2   4  1   
  4   3   5  1   
  5   3   6  1   
  6   4   7  ar  
  7   4   8  ar  
  8   5   9  1   
  9   5  28  1   
 10   5  29  1   
 11   6  10  1   
 12   6  30  1   
 13   6  31  1   
 14   7  11  1   
 15   7  12  ar  
 16   8  13  ar  
 17   8  32  1   
 18   9  14  1   
 19   9  33  1   
 20   9  34  1   
 21  10  14  1   
 22  10  35  1   
 23  10  36  1   
 24  11  15  am  
 25  11  37  1   
 26  12  16  ar  
 27  12  38  1   
 28  13  16  ar  
 29  13  39  1   
 30  15  17  2   
 31  15  18  1   
 32  16  40  1   
 33  18  19  1   
 34  18  41  1   
 35  18  42  1   
 36  19  20  1   
 37  20  21  ar  
 38  20  22  ar  
 39  21  23  ar  
 40  21  24  1   
 41  22  25  ar  
 42  22  26  1   
 43  23  27  ar  
 44  23  43  1   
 45  24  44  1   
 46  24  45  1   
 47  24  46  1   
 48  25  27  ar  
 49  25  47  1   
 50  26  48  1   
 51  26  49  1   
 52  26  50  1   
 53  27  51  1   
@<TRIPOS>SUBSTRUCTURE
  1 ****  11 GROUP 4 **** **** 0

# MOE 2024.06 (io_trps.svl 2023.06)
