@<TRIPOS>MOLECULE
NONAME
31 32 1 0 0 
SMALL
USER_CHARGES


@<TRIPOS>ATOM
  1 O        0.0450    -0.6050     1.5140 O.2   1 <1>  -0.5700 
  2 C        0.0150    -1.4730     0.6610 C.2   1 <1>   0.7150 
  3 N        1.1540    -1.8280    -0.0060 N.am  1 <1>  -0.7300 
  4 C       -1.2250    -2.1410     0.3390 C.2   1 <1>   0.0550 
  5 C        2.5210    -1.3200     0.1200 C.3   1 <1>   0.3000 
  6 O       -1.2560    -3.0990    -0.6040 O.3   1 <1>  -0.2800 
  7 C       -2.4710    -1.9730     0.8500 C.2   1 <1>  -0.1500 
  8 C        2.5550     0.1690    -0.2250 C.3   1 <1>  -0.2400 
  9 C        3.3670    -2.0980    -0.8860 C.3   1 <1>  -0.2400 
 10 C        3.0410    -1.5790     1.5350 C.3   1 <1>  -0.2400 
 11 C       -2.5080    -3.5440    -0.6990 C.ar  1 <1>   0.1400 
 12 C       -3.3250    -2.8730     0.1920 C.ar  1 <1>   0.0000 
 13 C       -2.9970    -4.5310    -1.5450 C.ar  1 <1>  -0.1500 
 14 C       -4.6830    -3.1920     0.2510 C.ar  1 <1>  -0.1500 
 15 C       -4.3410    -4.8410    -1.4820 C.ar  1 <1>  -0.1500 
 16 C       -5.1800    -4.1710    -0.5850 C.ar  1 <1>  -0.1500 
 17 H        1.0430    -2.5620    -0.7040 H     1 <1>   0.3700 
 18 H       -2.7760    -1.2850     1.6170 H     1 <1>   0.1500 
 19 H        2.1450     0.3380    -1.2040 H     1 <1>   0.0800 
 20 H        3.5680     0.5290    -0.2110 H     1 <1>   0.0800 
 21 H        1.9930     0.7380     0.4930 H     1 <1>   0.0800 
 22 H        3.3450    -3.1510    -0.6650 H     1 <1>   0.0800 
 23 H        3.0080    -1.9380    -1.8870 H     1 <1>   0.0800 
 24 H        4.3900    -1.7690    -0.8410 H     1 <1>   0.0800 
 25 H        2.4800    -1.0120     2.2560 H     1 <1>   0.0800 
 26 H        4.0710    -1.2810     1.6110 H     1 <1>   0.0800 
 27 H        2.9680    -2.6230     1.7780 H     1 <1>   0.0800 
 28 H       -2.3310    -5.0300    -2.2240 H     1 <1>   0.1500 
 29 H       -5.3200    -2.6710     0.9430 H     1 <1>   0.1500 
 30 H       -4.7520    -5.6010    -2.1230 H     1 <1>   0.1500 
 31 H       -6.2250    -4.4290    -0.5520 H     1 <1>   0.1500 
@<TRIPOS>BOND
  1   1   2  2   
  2   2   3  am  
  3   2   4  1   
  4   3   5  1   
  5   3  17  1   
  6   4   6  1   
  7   4   7  2   
  8   5   8  1   
  9   5   9  1   
 10   5  10  1   
 11   6  11  1   
 12   7  12  1   
 13   7  18  1   
 14   8  19  1   
 15   8  20  1   
 16   8  21  1   
 17   9  22  1   
 18   9  23  1   
 19   9  24  1   
 20  10  25  1   
 21  10  26  1   
 22  10  27  1   
 23  11  12  ar  
 24  11  13  ar  
 25  12  14  ar  
 26  13  15  ar  
 27  13  28  1   
 28  14  16  ar  
 29  14  29  1   
 30  15  16  ar  
 31  15  30  1   
 32  16  31  1   
@<TRIPOS>SUBSTRUCTURE
  1 ****   4 GROUP 4 **** **** 0

# MOE 2024.06 (io_trps.svl 2023.06)
