@<TRIPOS>MOLECULE
NONAME
43 43 1 0 0 
SMALL
USER_CHARGES


@<TRIPOS>ATOM
  1 S       -0.0120     0.2020    -0.2840 S.o2  1 <1>   1.3330 
  2 O       -1.1020     1.0190     0.1890 O.2   1 <1>  -0.6500 
  3 O        0.1400    -0.0660    -1.6930 O.2   1 <1>  -0.6500 
  4 N        1.4460     0.9610     0.2470 N.am  1 <1>  -0.6930 
  5 C       -0.0130    -1.3240     0.6320 C.3   1 <1>  -0.1350 
  6 C        2.6500     0.2850     0.1350 C.ar  1 <1>   0.1990 
  7 C        1.4530     2.4170     0.0040 C.3   1 <1>   0.3340 
  8 C        3.3290    -0.1170     1.2790 C.ar  1 <1>  -0.1500 
  9 C        3.2090    -0.0190    -1.1020 C.ar  1 <1>  -0.1500 
 10 C        2.6110     3.0720     0.7380 C.2   1 <1>  -0.2880 
 11 C        4.5270    -0.7970     1.1900 C.ar  1 <1>  -0.1500 
 12 C        4.4070    -0.7000    -1.1880 C.ar  1 <1>  -0.1500 
 13 C        3.6220     3.7340     0.1660 C.2   1 <1>  -0.3000 
 14 C        5.1030    -1.0960    -0.0450 C.ar  1 <1>   0.0860 
 15 C        6.3640    -1.8010    -0.1220 C.2   1 <1>   0.5440 
 16 O        6.4410    -2.9150     0.3640 O.2   1 <1>  -0.5700 
 17 N        7.4850    -1.2470    -0.7160 N.am  1 <1>  -0.6600 
 18 C        7.5840     0.1850    -1.1120 C.3   1 <1>   0.1400 
 19 C        8.6810    -2.0850    -1.0090 C.3   1 <1>   0.1400 
 20 C        7.6900     1.0750     0.1260 C.3   1 <1>  -0.2400 
 21 C        9.7580    -1.8570     0.0490 C.3   1 <1>  -0.2400 
 22 H       -0.8980    -1.8860     0.4080 H     1 <1>   0.0800 
 23 H        0.0100    -1.1230     1.6850 H     1 <1>   0.0800 
 24 H        0.8440    -1.9150     0.3720 H     1 <1>   0.0800 
 25 H        0.5320     2.8520     0.3540 H     1 <1>   0.0800 
 26 H        1.5300     2.5990    -1.0540 H     1 <1>   0.0800 
 27 H        2.9060     0.1120     2.2410 H     1 <1>   0.1500 
 28 H        2.6940     0.2780    -1.9990 H     1 <1>   0.1500 
 29 H        2.5320     2.9430     1.8040 H     1 <1>   0.1500 
 30 H        5.0400    -1.1080     2.0840 H     1 <1>   0.1500 
 31 H        4.8190    -0.9390    -2.1540 H     1 <1>   0.1500 
 32 H        4.4290     4.1860     0.7170 H     1 <1>   0.1500 
 33 H        3.7310     3.8780    -0.8950 H     1 <1>   0.1500 
 34 H        6.7250     0.4680    -1.6940 H     1 <1>   0.0800 
 35 H        8.4550     0.3300    -1.7280 H     1 <1>   0.0800 
 36 H        9.0620    -1.8450    -1.9870 H     1 <1>   0.0800 
 37 H        8.4060    -3.1270    -1.0150 H     1 <1>   0.0800 
 38 H        6.7970     1.0130     0.7190 H     1 <1>   0.0800 
 39 H        7.8200     2.0980    -0.1770 H     1 <1>   0.0800 
 40 H        8.5340     0.7880     0.7260 H     1 <1>   0.0800 
 41 H       10.1230    -0.8480     0.0090 H     1 <1>   0.0800 
 42 H       10.5820    -2.5240    -0.1270 H     1 <1>   0.0800 
 43 H        9.3570    -2.0600     1.0260 H     1 <1>   0.0800 
@<TRIPOS>BOND
  1   1   2  2   
  2   1   3  2   
  3   1   4  am  
  4   1   5  1   
  5   4   6  1   
  6   4   7  1   
  7   5  22  1   
  8   5  23  1   
  9   5  24  1   
 10   6   8  ar  
 11   6   9  ar  
 12   7  10  1   
 13   7  25  1   
 14   7  26  1   
 15   8  11  ar  
 16   8  27  1   
 17   9  12  ar  
 18   9  28  1   
 19  10  13  2   
 20  10  29  1   
 21  11  14  ar  
 22  11  30  1   
 23  12  14  ar  
 24  12  31  1   
 25  13  32  1   
 26  13  33  1   
 27  14  15  1   
 28  15  16  2   
 29  15  17  am  
 30  17  18  1   
 31  17  19  1   
 32  18  20  1   
 33  18  34  1   
 34  18  35  1   
 35  19  21  1   
 36  19  36  1   
 37  19  37  1   
 38  20  38  1   
 39  20  39  1   
 40  20  40  1   
 41  21  41  1   
 42  21  42  1   
 43  21  43  1   
@<TRIPOS>SUBSTRUCTURE
  1 ****  12 GROUP 4 **** **** 0

# MOE 2024.06 (io_trps.svl 2023.06)
