@<TRIPOS>MOLECULE
NONAME
36 36 1 0 0 
SMALL
USER_CHARGES


@<TRIPOS>ATOM
  1 O       -0.0130    -0.2460    -0.9390 O.2   1 <1>  -0.5700 
  2 C        0.0000    -1.1010    -0.0770 C.2   1 <1>   0.6900 
  3 N        1.1660    -1.5660     0.4570 N.am  1 <1>  -0.5470 
  4 N       -1.1470    -1.6500     0.3990 N.am  1 <1>  -0.7300 
  5 C        2.4910    -1.1310     0.3060 C.ar  1 <1>   0.1170 
  6 C       -2.5310    -1.3760    -0.0010 C.3   1 <1>   0.3000 
  7 C        2.8230     0.1700    -0.0560 C.ar  1 <1>  -0.1500 
  8 C        3.5220    -2.0310     0.5530 C.ar  1 <1>  -0.1500 
  9 C       -2.7240    -1.7010    -1.4830 C.3   1 <1>  -0.2400 
 10 C       -2.8820     0.0810     0.3040 C.3   1 <1>  -0.2400 
 11 C       -3.4130    -2.2980     0.8390 C.3   1 <1>  -0.2400 
 12 C        4.1440     0.5640    -0.1770 C.ar  1 <1>  -0.1430 
 13 C        4.8480    -1.6510     0.4380 C.ar  1 <1>  -0.1430 
 14 C        5.1540    -0.3500     0.0740 C.ar  1 <1>  -0.1500 
 15 C        4.4890     1.9870    -0.5780 C.3   1 <1>  -0.0970 
 16 C        5.9690    -2.6390     0.7080 C.3   1 <1>  -0.0970 
 17 H        1.0610    -2.4380     0.9590 H     1 <1>   0.3700 
 18 H       -1.0850    -2.2100     1.2420 H     1 <1>   0.3700 
 19 H        2.0390     0.8810    -0.2430 H     1 <1>   0.1500 
 20 H        3.2810    -3.0380     0.8330 H     1 <1>   0.1500 
 21 H       -2.1450    -1.0340    -2.0970 H     1 <1>   0.0800 
 22 H       -3.7560    -1.5870    -1.7570 H     1 <1>   0.0800 
 23 H       -2.4230    -2.7120    -1.6890 H     1 <1>   0.0800 
 24 H       -2.2950     0.7460    -0.3030 H     1 <1>   0.0800 
 25 H       -2.7010     0.3050     1.3400 H     1 <1>   0.0800 
 26 H       -3.9180     0.2660     0.0890 H     1 <1>   0.0800 
 27 H       -3.1710    -3.3290     0.6500 H     1 <1>   0.0800 
 28 H       -4.4480    -2.1480     0.5880 H     1 <1>   0.0800 
 29 H       -3.2920    -2.0900     1.8870 H     1 <1>   0.0800 
 30 H        6.1820    -0.0480    -0.0160 H     1 <1>   0.1500 
 31 H        3.6420     2.4690    -1.0320 H     1 <1>   0.0800 
 32 H        5.2980     1.9860    -1.2860 H     1 <1>   0.0800 
 33 H        4.7830     2.5480     0.2900 H     1 <1>   0.0800 
 34 H        5.5850    -3.6380     0.8110 H     1 <1>   0.0800 
 35 H        6.4810    -2.3700     1.6140 H     1 <1>   0.0800 
 36 H        6.6710    -2.6270    -0.1060 H     1 <1>   0.0800 
@<TRIPOS>BOND
  1   1   2  2   
  2   2   3  am  
  3   2   4  am  
  4   3   5  1   
  5   3  17  1   
  6   4   6  1   
  7   4  18  1   
  8   5   7  ar  
  9   5   8  ar  
 10   6   9  1   
 11   6  10  1   
 12   6  11  1   
 13   7  12  ar  
 14   7  19  1   
 15   8  13  ar  
 16   8  20  1   
 17   9  21  1   
 18   9  22  1   
 19   9  23  1   
 20  10  24  1   
 21  10  25  1   
 22  10  26  1   
 23  11  27  1   
 24  11  28  1   
 25  11  29  1   
 26  12  14  ar  
 27  12  15  1   
 28  13  14  ar  
 29  13  16  1   
 30  14  30  1   
 31  15  31  1   
 32  15  32  1   
 33  15  33  1   
 34  16  34  1   
 35  16  35  1   
 36  16  36  1   
@<TRIPOS>SUBSTRUCTURE
  1 ****   3 GROUP 4 **** **** 0

# MOE 2024.06 (io_trps.svl 2023.06)
