@<TRIPOS>MOLECULE
NONAME
46 48 1 0 0 
SMALL
USER_CHARGES


@<TRIPOS>ATOM
  1 O        3.2280     1.8900    -0.7240 O.co2 1 <1>  -0.9000 
  2 C        2.8030     1.5090     0.3740 C.2   1 <1>   0.9060 
  3 O        2.5770     2.3010     1.2900 O.co2 1 <1>  -0.9000 
  4 C        2.5880     0.0230     0.6280 C.3   1 <1>  -0.1860 
  5 C        3.8420    -0.7890     1.0970 C.3   1 <1>  -0.0190 
  6 C        1.8590    -0.7360    -0.5150 C.3   1 <1>  -0.0800 
  7 C        5.2460    -0.1820     0.9330 C.2   1 <1>   0.5690 
  8 C        3.7960    -2.2110     0.4720 C.3   1 <1>  -0.0800 
  9 C        2.8620    -1.1380    -1.6200 C.3   1 <1>  -0.1600 
 10 C        1.2910    -2.0390     0.0870 C.3   1 <1>  -0.1600 
 11 O        6.0670    -0.4610     1.7800 O.2   1 <1>  -0.5700 
 12 N        5.5520     0.5990    -0.1410 N.am  1 <1>  -0.5470 
 13 C        3.9320    -2.1030    -1.0620 C.3   1 <1>  -0.1600 
 14 C        2.4200    -2.8470     0.7700 C.3   1 <1>  -0.1600 
 15 C        6.7670     1.2220    -0.4600 C.ar  1 <1>   0.1170 
 16 C        7.9470     0.5240    -0.7420 C.ar  1 <1>   0.0820 
 17 C        6.7850     2.6080    -0.5110 C.ar  1 <1>  -0.1500 
 18 O        7.9600    -0.8330    -0.7510 O.3   1 <1>  -0.3630 
 19 C        9.1100     1.2130    -1.0480 C.ar  1 <1>  -0.1500 
 20 C        7.9470     3.2970    -0.8140 C.ar  1 <1>  -0.1500 
 21 C        8.7050    -1.4470     0.2740 C.3   1 <1>   0.0400 
 22 C        9.1220     2.5970    -1.0810 C.ar  1 <1>   0.0820 
 23 O       10.3060     3.1940    -1.3840 O.3   1 <1>  -0.3620 
 24 C       10.4110     4.5990    -1.4410 C.3   1 <1>   0.0400 
 25 H        1.9060     0.0200     1.4580 H     1 <1>   0.0800 
 26 H        3.7290    -0.9110     2.1590 H     1 <1>   0.0800 
 27 H        1.0700    -0.1270    -0.9230 H     1 <1>   0.0800 
 28 H        4.5870    -2.8200     0.8760 H     1 <1>   0.0800 
 29 H        3.3390    -0.2590    -2.0160 H     1 <1>   0.0800 
 30 H        2.3390    -1.6090    -2.4330 H     1 <1>   0.0800 
 31 H        0.8430    -2.6270    -0.6950 H     1 <1>   0.0800 
 32 H        0.5230    -1.8080     0.8030 H     1 <1>   0.0800 
 33 H        4.7230     1.0230    -0.6020 H     1 <1>   0.3700 
 34 H        3.8040    -3.0770    -1.5010 H     1 <1>   0.0800 
 35 H        4.9150    -1.7570    -1.3330 H     1 <1>   0.0800 
 36 H        2.2590    -2.8660     1.8340 H     1 <1>   0.0800 
 37 H        2.4020    -3.8640     0.4170 H     1 <1>   0.0800 
 38 H        5.8700     3.1410    -0.3070 H     1 <1>   0.1500 
 39 H       10.0100     0.6740    -1.2720 H     1 <1>   0.1500 
 40 H        7.9100     4.3690    -0.8350 H     1 <1>   0.1500 
 41 H        8.4490    -2.4910     0.2940 H     1 <1>   0.0800 
 42 H        8.4490    -0.9910     1.2140 H     1 <1>   0.0800 
 43 H        9.7520    -1.3220     0.0690 H     1 <1>   0.0800 
 44 H       11.4250     4.8480    -1.6940 H     1 <1>   0.0800 
 45 H       10.1630     5.0060    -0.4760 H     1 <1>   0.0800 
 46 H        9.7430     4.9670    -2.1990 H     1 <1>   0.0800 
@<TRIPOS>BOND
  1   1   2  ar  
  2   2   3  ar  
  3   2   4  1   
  4   4   5  1   
  5   4   6  1   
  6   4  25  1   
  7   5   7  1   
  8   5   8  1   
  9   5  26  1   
 10   6   9  1   
 11   6  10  1   
 12   6  27  1   
 13   7  11  2   
 14   7  12  am  
 15   8  13  1   
 16   8  14  1   
 17   8  28  1   
 18   9  13  1   
 19   9  29  1   
 20   9  30  1   
 21  10  14  1   
 22  10  31  1   
 23  10  32  1   
 24  12  15  1   
 25  12  33  1   
 26  13  34  1   
 27  13  35  1   
 28  14  36  1   
 29  14  37  1   
 30  15  16  ar  
 31  15  17  ar  
 32  16  18  1   
 33  16  19  ar  
 34  17  20  ar  
 35  17  38  1   
 36  18  21  1   
 37  19  22  ar  
 38  19  39  1   
 39  20  22  ar  
 40  20  40  1   
 41  21  41  1   
 42  21  42  1   
 43  21  43  1   
 44  22  23  1   
 45  23  24  1   
 46  24  44  1   
 47  24  45  1   
 48  24  46  1   
@<TRIPOS>SUBSTRUCTURE
  1 ****  12 GROUP 4 **** **** 0

# MOE 2024.06 (io_trps.svl 2023.06)
