@<TRIPOS>MOLECULE
NONAME
29 29 1 0 0 
SMALL
USER_CHARGES


@<TRIPOS>ATOM
  1 F       -0.0010    -0.4990     0.0160 F     1 <1>  -0.1900 
  2 C       -0.9640     0.3890     0.0410 C.ar  1 <1>   0.1900 
  3 C       -0.6920     1.7640     0.0500 C.ar  1 <1>   0.0820 
  4 C       -2.2550    -0.1040     0.0560 C.ar  1 <1>  -0.1500 
  5 O        0.5360     2.3600     0.0360 O.3   1 <1>  -0.3630 
  6 C       -1.7750     2.6310     0.0760 C.ar  1 <1>  -0.1500 
  7 C       -3.3170     0.7840     0.0820 C.ar  1 <1>  -0.1500 
  8 C        1.7360     1.6280     0.0100 C.3   1 <1>   0.1200 
  9 C       -3.0740     2.1480     0.0920 C.ar  1 <1>  -0.1500 
 10 C        2.8880     2.6320     0.0020 C.3   1 <1>   0.3430 
 11 N        4.2170     1.9460    -0.0260 N.4   1 <1>  -0.9060 
 12 C        5.3370     2.9350    -0.0350 C.3   1 <1>   0.3430 
 13 C        6.7090     2.2490    -0.0630 C.3   1 <1>   0.1200 
 14 O        7.6670     3.2440    -0.0690 O.3   1 <1>  -0.6800 
 15 H       -2.4270    -1.1660     0.0480 H     1 <1>   0.1500 
 16 H       -1.6020     3.6920     0.0840 H     1 <1>   0.1500 
 17 H       -4.3290     0.4160     0.0950 H     1 <1>   0.1500 
 18 H        1.7400     1.0290    -0.8840 H     1 <1>   0.0800 
 19 H        1.7690     1.0110     0.8920 H     1 <1>   0.0800 
 20 H       -3.9020     2.8370     0.1120 H     1 <1>   0.1500 
 21 H        2.8160     3.2470     0.8840 H     1 <1>   0.0800 
 22 H        2.7880     3.2650    -0.8660 H     1 <1>   0.0800 
 23 H        4.2790     1.3510    -0.8630 H     1 <1>   0.4500 
 24 H        4.3050     1.3340     0.7960 H     1 <1>   0.4500 
 25 H        5.2820     3.5540     0.8470 H     1 <1>   0.0800 
 26 H        5.2540     3.5710    -0.9010 H     1 <1>   0.0800 
 27 H        6.8350     1.6610    -0.9570 H     1 <1>   0.0800 
 28 H        6.8630     1.6440     0.8140 H     1 <1>   0.0800 
 29 H        8.5780     2.8780    -0.0870 H     1 <1>   0.4000 
@<TRIPOS>BOND
  1   1   2  1   
  2   2   3  ar  
  3   2   4  ar  
  4   3   5  1   
  5   3   6  ar  
  6   4   7  ar  
  7   4  15  1   
  8   5   8  1   
  9   6   9  ar  
 10   6  16  1   
 11   7   9  ar  
 12   7  17  1   
 13   8  10  1   
 14   8  18  1   
 15   8  19  1   
 16   9  20  1   
 17  10  11  1   
 18  10  21  1   
 19  10  22  1   
 20  11  12  1   
 21  11  23  1   
 22  11  24  1   
 23  12  13  1   
 24  12  25  1   
 25  12  26  1   
 26  13  14  1   
 27  13  27  1   
 28  13  28  1   
 29  14  29  1   
@<TRIPOS>SUBSTRUCTURE
  1 ****   8 GROUP 4 **** **** 0

# MOE 2024.06 (io_trps.svl 2023.06)
