@<TRIPOS>MOLECULE
NONAME
54 56 1 0 0 
SMALL
USER_CHARGES


@<TRIPOS>ATOM
  1 S       -0.1750     0.0060     1.0740 S.o2  1 <1>   1.4470 
  2 O        0.0740     0.0520     2.5000 O.2   1 <1>  -0.6500 
  3 O       -0.5330     1.2250     0.3810 O.2   1 <1>  -0.6500 
  4 N        1.2450    -0.5720     0.3510 N.am  1 <1>  -0.8490 
  5 C       -1.3900    -1.2840     0.6850 C.ar  1 <1>  -0.0090 
  6 C        1.7360    -1.7980     1.0020 C.3   1 <1>   0.1960 
  7 C        2.2880     0.4580     0.3450 C.3   1 <1>   0.1960 
  8 C       -1.7560    -1.5410    -0.6310 C.ar  1 <1>  -0.1500 
  9 C       -1.9660    -2.0630     1.6810 C.ar  1 <1>  -0.1500 
 10 C        2.9110    -2.3870     0.2110 C.3   1 <1>  -0.0190 
 11 C        3.5110    -0.0290    -0.4420 C.3   1 <1>  -0.1600 
 12 C       -2.6610    -2.5380    -0.9560 C.ar  1 <1>  -0.1430 
 13 C       -2.8710    -3.0630     1.3780 C.ar  1 <1>  -0.1500 
 14 C        3.3880    -3.6870     0.8530 C.2   1 <1>   0.5690 
 15 C        4.0500    -1.3560     0.1090 C.3   1 <1>  -0.1600 
 16 C       -3.2250    -3.3100     0.0550 C.ar  1 <1>   0.0830 
 17 C       -3.0290    -2.7800    -2.4120 C.3   1 <1>  -0.0960 
 18 O        3.3540    -3.7780     2.0590 O.2   1 <1>  -0.5700 
 19 N        3.8450    -4.7190     0.0790 N.am  1 <1>  -0.6600 
 20 O       -4.1030    -4.2810    -0.3070 O.3   1 <1>  -0.3630 
 21 C        3.9900    -4.7360    -1.3940 C.3   1 <1>   0.1400 
 22 C        4.3070    -5.9940     0.6700 C.3   1 <1>   0.1400 
 23 C       -4.7220    -5.1170     0.6410 C.3   1 <1>   0.1200 
 24 C        4.8170    -5.9820    -1.6890 C.3   1 <1>  -0.1600 
 25 C        4.5310    -6.9190    -0.5200 C.3   1 <1>  -0.1600 
 26 C       -5.6350    -6.0850    -0.1070 C.3   1 <1>  -0.2400 
 27 H        0.9500    -2.5330     1.0440 H     1 <1>   0.0800 
 28 H        2.0430    -1.5810     2.0140 H     1 <1>   0.0800 
 29 H        2.5690     0.6990     1.3580 H     1 <1>   0.0800 
 30 H        1.9120     1.3550    -0.1200 H     1 <1>   0.0800 
 31 H       -1.3150    -0.9410    -1.4100 H     1 <1>   0.1500 
 32 H       -1.6990    -1.8840     2.7100 H     1 <1>   0.1500 
 33 H        2.5420    -2.6040    -0.7730 H     1 <1>   0.0800 
 34 H        4.2810     0.7210    -0.3980 H     1 <1>   0.0800 
 35 H        3.2290    -0.1490    -1.4730 H     1 <1>   0.0800 
 36 H       -3.2880    -3.6370     2.1840 H     1 <1>   0.1500 
 37 H        4.8330    -1.7290    -0.5270 H     1 <1>   0.0800 
 38 H        4.4670    -1.1940     1.0890 H     1 <1>   0.0800 
 39 H       -2.5110    -2.1020    -3.0650 H     1 <1>   0.0800 
 40 H       -4.0880    -2.6440    -2.5460 H     1 <1>   0.0800 
 41 H       -2.7750    -3.7880    -2.6890 H     1 <1>   0.0800 
 42 H        4.4810    -3.8470    -1.7490 H     1 <1>   0.0800 
 43 H        3.0140    -4.8220    -1.8420 H     1 <1>   0.0800 
 44 H        3.5730    -6.3890     1.3530 H     1 <1>   0.0800 
 45 H        5.2310    -5.8200     1.1970 H     1 <1>   0.0800 
 46 H       -5.2920    -4.5030     1.3170 H     1 <1>   0.0800 
 47 H       -3.9560    -5.6530     1.1750 H     1 <1>   0.0800 
 48 H        5.8600    -5.7160    -1.6970 H     1 <1>   0.0800 
 49 H        4.5600    -6.4190    -2.6380 H     1 <1>   0.0800 
 50 H        3.6280    -7.4740    -0.7060 H     1 <1>   0.0800 
 51 H        5.3350    -7.6110    -0.3410 H     1 <1>   0.0800 
 52 H       -6.3860    -5.5390    -0.6500 H     1 <1>   0.0800 
 53 H       -6.1240    -6.7390     0.5910 H     1 <1>   0.0800 
 54 H       -5.0590    -6.6810    -0.7920 H     1 <1>   0.0800 
@<TRIPOS>BOND
  1   1   2  2   
  2   1   3  2   
  3   1   4  am  
  4   1   5  1   
  5   4   6  1   
  6   4   7  1   
  7   5   8  ar  
  8   5   9  ar  
  9   6  10  1   
 10   6  27  1   
 11   6  28  1   
 12   7  11  1   
 13   7  29  1   
 14   7  30  1   
 15   8  12  ar  
 16   8  31  1   
 17   9  13  ar  
 18   9  32  1   
 19  10  14  1   
 20  10  15  1   
 21  10  33  1   
 22  11  15  1   
 23  11  34  1   
 24  11  35  1   
 25  12  16  ar  
 26  12  17  1   
 27  13  16  ar  
 28  13  36  1   
 29  14  18  2   
 30  14  19  am  
 31  15  37  1   
 32  15  38  1   
 33  16  20  1   
 34  17  39  1   
 35  17  40  1   
 36  17  41  1   
 37  19  21  1   
 38  19  22  1   
 39  20  23  1   
 40  21  24  1   
 41  21  42  1   
 42  21  43  1   
 43  22  25  1   
 44  22  44  1   
 45  22  45  1   
 46  23  26  1   
 47  23  46  1   
 48  23  47  1   
 49  24  25  1   
 50  24  48  1   
 51  24  49  1   
 52  25  50  1   
 53  25  51  1   
 54  26  52  1   
 55  26  53  1   
 56  26  54  1   
@<TRIPOS>SUBSTRUCTURE
  1 ****   6 GROUP 4 **** **** 0

# MOE 2024.06 (io_trps.svl 2023.06)
