@<TRIPOS>MOLECULE
NONAME
40 43 1 0 0 
SMALL
USER_CHARGES


@<TRIPOS>ATOM
  1 O        1.4500    -1.1290    -1.6110 O.3   1 <1>  -0.5600 
  2 C        1.9630     0.1160    -1.2110 C.3   1 <1>   0.1200 
  3 C        0.7420    -1.8080    -0.6110 C.3   1 <1>   0.1200 
  4 C        2.8390    -0.0120     0.0570 C.3   1 <1>   0.3430 
  5 C        1.6520    -2.1170     0.6010 C.3   1 <1>   0.3430 
  6 N        2.9900    -1.4490     0.4690 N.4   1 <1>  -0.9590 
  7 C        3.8790    -1.6440     1.6460 C.3   1 <1>   0.4860 
  8 C        5.2310    -1.0320     1.3380 C.ar  1 <1>  -0.1440 
  9 C        6.0870    -1.6430     0.4290 C.ar  1 <1>  -0.1500 
 10 C        5.6140     0.1540     1.9580 C.ar  1 <1>  -0.1500 
 11 C        7.3010    -1.0500     0.1440 C.ar  1 <1>  -0.1440 
 12 C        6.8340     0.7390     1.6650 C.ar  1 <1>  -0.1500 
 13 C        7.6810     0.1340     0.7490 C.ar  1 <1>   0.0000 
 14 C        8.3910    -1.5260    -0.8080 C.3   1 <1>   0.1270 
 15 C        8.9750     0.5210     0.2660 C.ar  1 <1>   0.0000 
 16 C        9.4210    -0.4200    -0.6450 C.ar  1 <1>  -0.1440 
 17 C        9.7690     1.6200     0.5630 C.ar  1 <1>  -0.1500 
 18 C       10.6460    -0.2890    -1.2700 C.ar  1 <1>  -0.1500 
 19 C       10.9990     1.7600    -0.0590 C.ar  1 <1>  -0.1500 
 20 C       11.4360     0.8100    -0.9720 C.ar  1 <1>  -0.1500 
 21 H        1.1400     0.7890    -1.0400 H     1 <1>   0.0800 
 22 H        2.5490     0.5030    -2.0270 H     1 <1>   0.0800 
 23 H        0.3650    -2.7230    -1.0360 H     1 <1>   0.0800 
 24 H       -0.0990    -1.2050    -0.3140 H     1 <1>   0.0800 
 25 H        2.3890     0.5560     0.8540 H     1 <1>   0.0800 
 26 H        3.8060     0.4220    -0.1440 H     1 <1>   0.0800 
 27 H        1.7820    -3.1840     0.6760 H     1 <1>   0.0800 
 28 H        1.1580    -1.7860     1.4990 H     1 <1>   0.0800 
 29 H        3.4450    -1.8900    -0.3430 H     1 <1>   0.4500 
 30 H        4.0010    -2.6960     1.8500 H     1 <1>   0.0800 
 31 H        3.4540    -1.1730     2.5170 H     1 <1>   0.0800 
 32 H        5.8270    -2.5680    -0.0560 H     1 <1>   0.1500 
 33 H        4.9720     0.6350     2.6760 H     1 <1>   0.1500 
 34 H        7.1360     1.6550     2.1420 H     1 <1>   0.1500 
 35 H        8.0340    -1.5740    -1.8210 H     1 <1>   0.0800 
 36 H        8.7940    -2.4740    -0.4980 H     1 <1>   0.0800 
 37 H        9.4300     2.3540     1.2700 H     1 <1>   0.1500 
 38 H       10.9840    -1.0260    -1.9770 H     1 <1>   0.1500 
 39 H       11.6200     2.6090     0.1670 H     1 <1>   0.1500 
 40 H       12.3930     0.9280    -1.4500 H     1 <1>   0.1500 
@<TRIPOS>BOND
  1   1   2  1   
  2   1   3  1   
  3   2   4  1   
  4   2  21  1   
  5   2  22  1   
  6   3   5  1   
  7   3  23  1   
  8   3  24  1   
  9   4   6  1   
 10   4  25  1   
 11   4  26  1   
 12   5   6  1   
 13   5  27  1   
 14   5  28  1   
 15   6   7  1   
 16   6  29  1   
 17   7   8  1   
 18   7  30  1   
 19   7  31  1   
 20   8   9  ar  
 21   8  10  ar  
 22   9  11  ar  
 23   9  32  1   
 24  10  12  ar  
 25  10  33  1   
 26  11  13  ar  
 27  11  14  1   
 28  12  13  ar  
 29  12  34  1   
 30  13  15  1   
 31  14  16  1   
 32  14  35  1   
 33  14  36  1   
 34  15  16  ar  
 35  15  17  ar  
 36  16  18  ar  
 37  17  19  ar  
 38  17  37  1   
 39  18  20  ar  
 40  18  38  1   
 41  19  20  ar  
 42  19  39  1   
 43  20  40  1   
@<TRIPOS>SUBSTRUCTURE
  1 ****   9 GROUP 4 **** **** 0

# MOE 2024.06 (io_trps.svl 2023.06)
