@<TRIPOS>MOLECULE
NONAME
43 45 1 0 0 
SMALL
USER_CHARGES


@<TRIPOS>ATOM
  1 CL      -0.5240     1.0180    -1.1290 Cl    1 <1>  -0.1770 
  2 C       -2.1670     0.6920    -0.6310 C.ar  1 <1>   0.1770 
  3 C       -2.4190     0.3220     0.6770 C.ar  1 <1>  -0.1500 
  4 C       -3.1900     0.8090    -1.5540 C.ar  1 <1>  -0.1500 
  5 C       -3.7220     0.0650     1.0650 C.ar  1 <1>  -0.1500 
  6 C       -4.4900     0.5490    -1.1560 C.ar  1 <1>  -0.1500 
  7 C       -4.7680     0.1750     0.1560 C.ar  1 <1>   0.1000 
  8 N       -6.0650    -0.0910     0.5750 N.pl3 1 <1>  -0.8380 
  9 C       -6.6840    -1.3300     0.0140 C.3   1 <1>   0.2090 
 10 C       -7.0110     1.0680     0.5460 C.3   1 <1>   0.2090 
 11 C       -8.0050    -1.6730     0.7280 C.3   1 <1>   0.1400 
 12 C       -8.3240     0.7310     1.2720 C.3   1 <1>   0.1400 
 13 N       -8.9420    -0.5100     0.7140 N.am  1 <1>  -0.6600 
 14 C       -9.9010    -0.4160    -0.2600 C.2   1 <1>   0.6900 
 15 O       -9.9670     0.6000    -0.9320 O.2   1 <1>  -0.5700 
 16 N      -10.7620    -1.4590    -0.4960 N.am  1 <1>  -0.6600 
 17 C      -11.2350    -2.3640     0.5870 C.3   1 <1>   0.1400 
 18 C      -11.5500    -1.5340    -1.7570 C.3   1 <1>   0.1400 
 19 C      -12.7140    -2.0900     0.8860 C.3   1 <1>  -0.1600 
 20 C      -13.0270    -1.2470    -1.4670 C.3   1 <1>  -0.1600 
 21 C      -13.5790    -2.1780    -0.3790 C.3   1 <1>  -0.1600 
 22 H       -1.6070     0.2380     1.3760 H     1 <1>   0.1500 
 23 H       -2.9690     1.0980    -2.5650 H     1 <1>   0.1500 
 24 H       -3.9470    -0.2230     2.0750 H     1 <1>   0.1500 
 25 H       -5.2970     0.6350    -1.8600 H     1 <1>   0.1500 
 26 H       -5.9960    -2.1500     0.1210 H     1 <1>   0.0800 
 27 H       -6.8790    -1.1910    -1.0350 H     1 <1>   0.0800 
 28 H       -7.2350     1.3310    -0.4740 H     1 <1>   0.0800 
 29 H       -6.5490     1.9170     1.0180 H     1 <1>   0.0800 
 30 H       -7.7950    -1.9470     1.7460 H     1 <1>   0.0800 
 31 H       -8.4550    -2.5190     0.2390 H     1 <1>   0.0800 
 32 H       -9.0090     1.5550     1.1750 H     1 <1>   0.0800 
 33 H       -8.1230     0.5870     2.3180 H     1 <1>   0.0800 
 34 H      -10.6620    -2.2130     1.4850 H     1 <1>   0.0800 
 35 H      -11.1070    -3.3840     0.2700 H     1 <1>   0.0800 
 36 H      -11.4440    -2.5190    -2.1750 H     1 <1>   0.0800 
 37 H      -11.1760    -0.8250    -2.4770 H     1 <1>   0.0800 
 38 H      -12.8010    -1.1070     1.3150 H     1 <1>   0.0800 
 39 H      -13.0660    -2.7970     1.6160 H     1 <1>   0.0800 
 40 H      -13.5960    -1.3670    -2.3710 H     1 <1>   0.0800 
 41 H      -13.1210    -0.2220    -1.1540 H     1 <1>   0.0800 
 42 H      -14.5930    -1.9030    -0.1460 H     1 <1>   0.0800 
 43 H      -13.5820    -3.1910    -0.7420 H     1 <1>   0.0800 
@<TRIPOS>BOND
  1   1   2  1   
  2   2   3  ar  
  3   2   4  ar  
  4   3   5  ar  
  5   3  22  1   
  6   4   6  ar  
  7   4  23  1   
  8   5   7  ar  
  9   5  24  1   
 10   6   7  ar  
 11   6  25  1   
 12   7   8  1   
 13   8   9  1   
 14   8  10  1   
 15   9  11  1   
 16   9  26  1   
 17   9  27  1   
 18  10  12  1   
 19  10  28  1   
 20  10  29  1   
 21  11  13  1   
 22  11  30  1   
 23  11  31  1   
 24  12  13  1   
 25  12  32  1   
 26  12  33  1   
 27  13  14  am  
 28  14  15  2   
 29  14  16  am  
 30  16  17  1   
 31  16  18  1   
 32  17  19  1   
 33  17  34  1   
 34  17  35  1   
 35  18  20  1   
 36  18  36  1   
 37  18  37  1   
 38  19  21  1   
 39  19  38  1   
 40  19  39  1   
 41  20  21  1   
 42  20  40  1   
 43  20  41  1   
 44  21  42  1   
 45  21  43  1   
@<TRIPOS>SUBSTRUCTURE
  1 ****   9 GROUP 4 **** **** 0

# MOE 2024.06 (io_trps.svl 2023.06)
