@<TRIPOS>MOLECULE
NONAME
55 56 1 0 0 
SMALL
USER_CHARGES


@<TRIPOS>ATOM
  1 S        0.2510     1.1450    -0.2370 S.o2  1 <1>   1.4470 
  2 O       -0.5230     2.3240     0.0830 O.2   1 <1>  -0.6500 
  3 O        1.3160     1.2120    -1.2110 O.2   1 <1>  -0.6500 
  4 N        0.9530     0.6070     1.2610 N.am  1 <1>  -0.6930 
  5 C       -0.8650    -0.2310    -0.6260 C.ar  1 <1>  -0.0090 
  6 C        1.8750    -0.4270     1.2880 C.ar  1 <1>   0.1990 
  7 C        0.2720     1.0200     2.5120 C.3   1 <1>   0.1160 
  8 C       -2.2370    -0.1310    -0.4200 C.ar  1 <1>  -0.1500 
  9 C       -0.3690    -1.4340    -1.1170 C.ar  1 <1>  -0.1500 
 10 C        1.5660    -1.6550     1.8640 C.ar  1 <1>  -0.1500 
 11 C        3.1370    -0.2700     0.7290 C.ar  1 <1>  -0.1500 
 12 C       -3.0840    -1.1920    -0.6930 C.ar  1 <1>  -0.1500 
 13 C       -1.2080    -2.5010    -1.3910 C.ar  1 <1>  -0.1500 
 14 C        2.4820    -2.6890     1.8640 C.ar  1 <1>  -0.1500 
 15 C        4.0520    -1.3050     0.7300 C.ar  1 <1>  -0.1500 
 16 C       -2.5680    -2.3790    -1.1790 C.ar  1 <1>  -0.1500 
 17 C        3.7470    -2.5500     1.2870 C.ar  1 <1>   0.0860 
 18 C        4.6820    -3.6580     1.2640 C.2   1 <1>   0.5440 
 19 O        4.6090    -4.5510     2.0860 O.2   1 <1>  -0.5700 
 20 N        5.6450    -3.7320     0.2960 N.am  1 <1>  -0.7300 
 21 C        6.5570    -4.8760     0.0640 C.3   1 <1>   0.2200 
 22 C        8.0240    -4.4010     0.2490 C.3   1 <1>  -0.0800 
 23 C        6.2300    -5.5030    -1.3200 C.3   1 <1>  -0.0800 
 24 C        9.0480    -5.5130    -0.0360 C.3   1 <1>  -0.2400 
 25 C        8.2670    -3.8800     1.6770 C.3   1 <1>  -0.2400 
 26 C        6.4710    -4.5580    -2.5110 C.3   1 <1>  -0.2400 
 27 C        4.7830    -6.0250    -1.3720 C.3   1 <1>  -0.2400 
 28 H        0.2460     2.0950     2.5710 H     1 <1>   0.0800 
 29 H        0.8020     0.6410     3.3690 H     1 <1>   0.0800 
 30 H       -0.7370     0.6440     2.5220 H     1 <1>   0.0800 
 31 H       -2.6510     0.7900    -0.0430 H     1 <1>   0.1500 
 32 H        0.6910    -1.5370    -1.2860 H     1 <1>   0.1500 
 33 H        0.5970    -1.8010     2.3060 H     1 <1>   0.1500 
 34 H        3.3950     0.6780     0.2890 H     1 <1>   0.1500 
 35 H       -4.1430    -1.0930    -0.5280 H     1 <1>   0.1500 
 36 H       -0.8020    -3.4230    -1.7710 H     1 <1>   0.1500 
 37 H        2.2210    -3.6320     2.3140 H     1 <1>   0.1500 
 38 H        5.0210    -1.1400     0.2950 H     1 <1>   0.1500 
 39 H       -3.2240    -3.2060    -1.3920 H     1 <1>   0.1500 
 40 H        5.6400    -3.0510    -0.4600 H     1 <1>   0.3700 
 41 H        6.3660    -5.6280     0.8120 H     1 <1>   0.0800 
 42 H        8.2150    -3.5920    -0.4340 H     1 <1>   0.0800 
 43 H        6.8630    -6.3630    -1.4470 H     1 <1>   0.0800 
 44 H        8.8470    -6.3760     0.5750 H     1 <1>   0.0800 
 45 H       10.0440    -5.1680     0.1800 H     1 <1>   0.0800 
 46 H        9.0250    -5.8050    -1.0690 H     1 <1>   0.0800 
 47 H        8.0480    -4.6480     2.3990 H     1 <1>   0.0800 
 48 H        7.6400    -3.0330     1.8880 H     1 <1>   0.0800 
 49 H        9.2900    -3.5720     1.8000 H     1 <1>   0.0800 
 50 H        5.8400    -3.6900    -2.4510 H     1 <1>   0.0800 
 51 H        6.2540    -5.0670    -3.4330 H     1 <1>   0.0800 
 52 H        7.4970    -4.2390    -2.5470 H     1 <1>   0.0800 
 53 H        4.0770    -5.2150    -1.3300 H     1 <1>   0.0800 
 54 H        4.5950    -6.6800    -0.5400 H     1 <1>   0.0800 
 55 H        4.6160    -6.5750    -2.2810 H     1 <1>   0.0800 
@<TRIPOS>BOND
  1   1   2  2   
  2   1   3  2   
  3   1   4  am  
  4   1   5  1   
  5   4   6  1   
  6   4   7  1   
  7   5   8  ar  
  8   5   9  ar  
  9   6  10  ar  
 10   6  11  ar  
 11   7  28  1   
 12   7  29  1   
 13   7  30  1   
 14   8  12  ar  
 15   8  31  1   
 16   9  13  ar  
 17   9  32  1   
 18  10  14  ar  
 19  10  33  1   
 20  11  15  ar  
 21  11  34  1   
 22  12  16  ar  
 23  12  35  1   
 24  13  16  ar  
 25  13  36  1   
 26  14  17  ar  
 27  14  37  1   
 28  15  17  ar  
 29  15  38  1   
 30  16  39  1   
 31  17  18  1   
 32  18  19  2   
 33  18  20  am  
 34  20  21  1   
 35  20  40  1   
 36  21  22  1   
 37  21  23  1   
 38  21  41  1   
 39  22  24  1   
 40  22  25  1   
 41  22  42  1   
 42  23  26  1   
 43  23  27  1   
 44  23  43  1   
 45  24  44  1   
 46  24  45  1   
 47  24  46  1   
 48  25  47  1   
 49  25  48  1   
 50  25  49  1   
 51  26  50  1   
 52  26  51  1   
 53  26  52  1   
 54  27  53  1   
 55  27  54  1   
 56  27  55  1   
@<TRIPOS>SUBSTRUCTURE
  1 ****  17 GROUP 4 **** **** 0

# MOE 2024.06 (io_trps.svl 2023.06)
