@<TRIPOS>MOLECULE
NONAME
42 43 1 0 0 
SMALL
USER_CHARGES


@<TRIPOS>ATOM
  1 BR      -0.6930     2.4060     3.7240 Br    1 <1>  -0.1110 
  2 C       -0.0750     3.2650     2.1110 C.ar  1 <1>   0.1110 
  3 C       -0.8090     3.1450     0.9400 C.ar  1 <1>   0.0820 
  4 C        1.1110     3.9740     2.1790 C.ar  1 <1>  -0.1500 
  5 O       -1.9470     2.4070     0.9400 O.3   1 <1>  -0.3630 
  6 C       -0.3320     3.7960    -0.2030 C.ar  1 <1>   0.0820 
  7 C        1.5920     4.5920     1.0330 C.ar  1 <1>  -0.1440 
  8 C       -1.8440     1.1210     0.3720 C.3   1 <1>   0.0400 
  9 O       -0.9670     3.7880    -1.4020 O.3   1 <1>  -0.3630 
 10 C        0.8630     4.4990    -0.1470 C.ar  1 <1>  -0.1500 
 11 C        2.8970     5.3550     1.0580 C.3   1 <1>   0.4860 
 12 C       -2.3380     4.1310    -1.4410 C.3   1 <1>   0.0400 
 13 N        3.9470     4.4060     0.6450 N.4   1 <1>  -0.9060 
 14 C        5.3040     4.9740     0.5720 C.3   1 <1>   0.4860 
 15 C        6.2100     3.8390     0.1630 C.ar  1 <1>  -0.1430 
 16 C        6.4340     3.5710    -1.1790 C.ar  1 <1>  -0.1500 
 17 C        6.8130     3.0450     1.1280 C.ar  1 <1>  -0.1500 
 18 C        7.2470     2.5150    -1.5510 C.ar  1 <1>  -0.1500 
 19 C        7.6250     1.9900     0.7500 C.ar  1 <1>  -0.1500 
 20 C        7.8450     1.7200    -0.5890 C.ar  1 <1>  -0.1430 
 21 C        8.7370     0.5610    -1.0000 C.3   1 <1>  -0.0970 
 22 H        1.6290     4.0270     3.1210 H     1 <1>   0.1500 
 23 H       -2.8100     0.6510     0.4260 H     1 <1>   0.0800 
 24 H       -1.1260     0.5490     0.9330 H     1 <1>   0.0800 
 25 H       -1.5350     1.2110    -0.6540 H     1 <1>   0.0800 
 26 H        1.1990     4.9770    -1.0510 H     1 <1>   0.1500 
 27 H        3.0890     5.7260     2.0520 H     1 <1>   0.0800 
 28 H        2.8480     6.1880     0.3760 H     1 <1>   0.0800 
 29 H       -2.5810     4.4310    -2.4440 H     1 <1>   0.0800 
 30 H       -2.5200     4.9430    -0.7590 H     1 <1>   0.0800 
 31 H       -2.9270     3.2740    -1.1700 H     1 <1>   0.0800 
 32 H        3.7060     4.0060    -0.2700 H     1 <1>   0.4500 
 33 H        3.9600     3.6030     1.2830 H     1 <1>   0.4500 
 34 H        5.6100     5.3610     1.5310 H     1 <1>   0.0800 
 35 H        5.3510     5.7650    -0.1600 H     1 <1>   0.0800 
 36 H        5.9890     4.1740    -1.9530 H     1 <1>   0.1500 
 37 H        6.6680     3.2310     2.1780 H     1 <1>   0.1500 
 38 H        7.4160     2.3120    -2.5950 H     1 <1>   0.1500 
 39 H        8.0910     1.3770     1.5040 H     1 <1>   0.1500 
 40 H        9.4970     0.3880    -0.2600 H     1 <1>   0.0800 
 41 H        9.2220     0.7710    -1.9370 H     1 <1>   0.0800 
 42 H        8.1490    -0.3320    -1.1080 H     1 <1>   0.0800 
@<TRIPOS>BOND
  1   1   2  1   
  2   2   3  ar  
  3   2   4  ar  
  4   3   5  1   
  5   3   6  ar  
  6   4   7  ar  
  7   4  22  1   
  8   5   8  1   
  9   6   9  1   
 10   6  10  ar  
 11   7  10  ar  
 12   7  11  1   
 13   8  23  1   
 14   8  24  1   
 15   8  25  1   
 16   9  12  1   
 17  10  26  1   
 18  11  13  1   
 19  11  27  1   
 20  11  28  1   
 21  12  29  1   
 22  12  30  1   
 23  12  31  1   
 24  13  14  1   
 25  13  32  1   
 26  13  33  1   
 27  14  15  1   
 28  14  34  1   
 29  14  35  1   
 30  15  16  ar  
 31  15  17  ar  
 32  16  18  ar  
 33  16  36  1   
 34  17  19  ar  
 35  17  37  1   
 36  18  20  ar  
 37  18  38  1   
 38  19  20  ar  
 39  19  39  1   
 40  20  21  1   
 41  21  40  1   
 42  21  41  1   
 43  21  42  1   
@<TRIPOS>SUBSTRUCTURE
  1 ****  13 GROUP 4 **** **** 0

# MOE 2024.06 (io_trps.svl 2023.06)
