@<TRIPOS>MOLECULE
NONAME
52 53 1 0 0 
SMALL
USER_CHARGES


@<TRIPOS>ATOM
  1 S        0.3820     0.3300     1.5860 S.o2  1 <1>   1.4470 
  2 O       -0.2930     1.3980     0.8850 O.2   1 <1>  -0.6500 
  3 O        0.8660     0.5440     2.9310 O.2   1 <1>  -0.6500 
  4 N        1.7650     0.0060     0.6510 N.am  1 <1>  -0.8490 
  5 C       -0.5640    -1.2160     1.4950 C.ar  1 <1>  -0.0090 
  6 C        1.4710    -0.0830    -0.7990 C.3   1 <1>   0.1960 
  7 C        2.8030     1.0320     0.8970 C.3   1 <1>   0.1960 
  8 C       -1.4650    -1.4390     0.4650 C.ar  1 <1>  -0.1500 
  9 C       -0.3820    -2.2330     2.4200 C.ar  1 <1>  -0.1500 
 10 C        2.7310    -0.3980    -1.6460 C.3   1 <1>   0.3430 
 11 C        4.0730     0.8350     0.0300 C.3   1 <1>   0.3430 
 12 C       -2.1570    -2.6370     0.3070 C.ar  1 <1>   0.0860 
 13 C       -1.0620    -3.4310     2.3020 C.ar  1 <1>  -0.1500 
 14 N        3.9880    -0.4060    -0.8170 N.4   1 <1>  -0.9590 
 15 C       -1.9370    -3.6470     1.2510 C.ar  1 <1>  -0.1430 
 16 C       -3.0370    -2.7670    -0.8400 C.2   1 <1>   0.5440 
 17 C        5.2200    -0.6500    -1.6250 C.3   1 <1>   0.2630 
 18 C       -2.6220    -5.0050     1.1450 C.3   1 <1>  -0.0970 
 19 O       -2.6140    -2.5120    -1.9510 O.2   1 <1>  -0.5700 
 20 N       -4.3420    -3.1390    -0.6920 N.am  1 <1>  -0.7300 
 21 C       -5.3310    -3.2370    -1.7890 C.3   1 <1>   0.1400 
 22 C       -6.7380    -2.8710    -1.2880 C.3   1 <1>  -0.0800 
 23 C       -7.7590    -3.0590    -2.4180 C.3   1 <1>  -0.2400 
 24 C       -6.8100    -1.4270    -0.7690 C.3   1 <1>  -0.2400 
 25 H        1.0430     0.8430    -1.1480 H     1 <1>   0.0800 
 26 H        0.7430    -0.8570    -0.9800 H     1 <1>   0.0800 
 27 H        3.0960     1.0040     1.9340 H     1 <1>   0.0800 
 28 H        2.3990     2.0150     0.7100 H     1 <1>   0.0800 
 29 H       -1.6420    -0.6580    -0.2570 H     1 <1>   0.1500 
 30 H        0.3020    -2.0900     3.2410 H     1 <1>   0.1500 
 31 H        2.8110     0.3350    -2.4320 H     1 <1>   0.0800 
 32 H        2.6000    -1.3600    -2.1150 H     1 <1>   0.0800 
 33 H        4.9310     0.7790     0.6800 H     1 <1>   0.0800 
 34 H        4.2000     1.7000    -0.6010 H     1 <1>   0.0800 
 35 H       -0.8960    -4.2010     3.0370 H     1 <1>   0.1500 
 36 H        3.8500    -1.1750    -0.1400 H     1 <1>   0.4500 
 37 H        5.3690     0.1490    -2.3330 H     1 <1>   0.0800 
 38 H        5.1340    -1.5790    -2.1650 H     1 <1>   0.0800 
 39 H        6.0830    -0.7070    -0.9820 H     1 <1>   0.0800 
 40 H       -3.6370    -4.9380     1.4920 H     1 <1>   0.0800 
 41 H       -2.1090    -5.7410     1.7390 H     1 <1>   0.0800 
 42 H       -2.6230    -5.3490     0.1250 H     1 <1>   0.0800 
 43 H       -4.7140    -3.2820     0.2470 H     1 <1>   0.3700 
 44 H       -5.3280    -4.2450    -2.1680 H     1 <1>   0.0800 
 45 H       -5.0460    -2.5770    -2.5930 H     1 <1>   0.0800 
 46 H       -7.0020    -3.5450    -0.4900 H     1 <1>   0.0800 
 47 H       -7.5370    -2.4040    -3.2420 H     1 <1>   0.0800 
 48 H       -8.7520    -2.8410    -2.0650 H     1 <1>   0.0800 
 49 H       -7.7440    -4.0740    -2.7730 H     1 <1>   0.0800 
 50 H       -6.5220    -0.7350    -1.5410 H     1 <1>   0.0800 
 51 H       -6.1530    -1.2880     0.0710 H     1 <1>   0.0800 
 52 H       -7.8110    -1.1910    -0.4530 H     1 <1>   0.0800 
@<TRIPOS>BOND
  1   1   2  2   
  2   1   3  2   
  3   1   4  am  
  4   1   5  1   
  5   4   6  1   
  6   4   7  1   
  7   5   8  ar  
  8   5   9  ar  
  9   6  10  1   
 10   6  25  1   
 11   6  26  1   
 12   7  11  1   
 13   7  27  1   
 14   7  28  1   
 15   8  12  ar  
 16   8  29  1   
 17   9  13  ar  
 18   9  30  1   
 19  10  14  1   
 20  10  31  1   
 21  10  32  1   
 22  11  14  1   
 23  11  33  1   
 24  11  34  1   
 25  12  15  ar  
 26  12  16  1   
 27  13  15  ar  
 28  13  35  1   
 29  14  17  1   
 30  14  36  1   
 31  15  18  1   
 32  16  19  2   
 33  16  20  am  
 34  17  37  1   
 35  17  38  1   
 36  17  39  1   
 37  18  40  1   
 38  18  41  1   
 39  18  42  1   
 40  20  21  1   
 41  20  43  1   
 42  21  22  1   
 43  21  44  1   
 44  21  45  1   
 45  22  23  1   
 46  22  24  1   
 47  22  46  1   
 48  23  47  1   
 49  23  48  1   
 50  23  49  1   
 51  24  50  1   
 52  24  51  1   
 53  24  52  1   
@<TRIPOS>SUBSTRUCTURE
  1 ****   8 GROUP 4 **** **** 0

# MOE 2024.06 (io_trps.svl 2023.06)
