@<TRIPOS>MOLECULE
NONAME
60 63 1 0 0 
SMALL
USER_CHARGES


@<TRIPOS>ATOM
  1 O       -0.1530    -0.3720    -0.8570 O.2   1 <1>  -0.5700 
  2 C        0.0970    -1.4940    -0.4870 C.2   1 <1>   0.5690 
  3 N       -0.8100    -2.3000     0.1450 N.am  1 <1>  -0.5470 
  4 C        1.4920    -2.0680    -0.7430 C.3   1 <1>  -0.0190 
  5 C       -2.1460    -2.0750     0.5250 C.ar  1 <1>   0.1170 
  6 C        2.5910    -1.1920    -0.1090 C.3   1 <1>  -0.1600 
  7 C        1.7510    -2.2510    -2.2510 C.3   1 <1>  -0.1600 
  8 C       -2.9720    -3.1650     0.7130 C.ar  1 <1>  -0.1500 
  9 C       -2.6630    -0.7830     0.7370 C.ar  1 <1>  -0.1500 
 10 C        3.9910    -1.7620    -0.3750 C.3   1 <1>  -0.1600 
 11 C        3.1510    -2.8210    -2.5190 C.3   1 <1>  -0.1600 
 12 C       -4.2950    -2.9770     1.0980 C.ar  1 <1>   0.2270 
 13 C       -3.9720    -0.5860     1.1160 C.ar  1 <1>  -0.1500 
 14 C        4.2370    -1.9460    -1.8780 C.3   1 <1>  -0.1600 
 15 N       -5.2590    -3.9050     1.3340 N.2   1 <1>  -0.5650 
 16 C       -4.7900    -1.7040     1.2930 C.ar  1 <1>  -0.1520 
 17 C       -6.3060    -3.2160     1.6450 C.2   1 <1>   0.0060 
 18 N       -6.0940    -1.8660     1.6470 N.pl3 1 <1>   0.0480 
 19 C       -7.6510    -3.8520     1.9960 C.3   1 <1>   0.2900 
 20 C       -7.0080    -0.7590     1.9890 C.3   1 <1>   0.0160 
 21 N       -8.4860    -4.1760     0.8170 N.3   1 <1>  -0.8100 
 22 C       -9.7910    -4.7340     1.2300 C.3   1 <1>   0.1100 
 23 C       -8.6560    -3.0620    -0.1390 C.3   1 <1>   0.1100 
 24 C      -10.6310    -5.1830     0.0230 C.3   1 <1>   0.1400 
 25 C       -9.4720    -3.4910    -1.3710 C.3   1 <1>   0.1400 
 26 N      -10.7870    -4.0660    -0.9550 N.am  1 <1>  -0.6600 
 27 C      -12.0200    -3.6260    -1.3530 C.2   1 <1>   0.5690 
 28 O      -13.0430    -4.0910    -0.9090 O.2   1 <1>  -0.5700 
 29 C      -12.1480    -2.5220    -2.3750 C.3   1 <1>  -0.1790 
 30 H       -0.4860    -3.2470     0.3260 H     1 <1>   0.3700 
 31 H        1.5460    -3.0370    -0.2820 H     1 <1>   0.0800 
 32 H        2.4270    -1.1180     0.9520 H     1 <1>   0.0800 
 33 H        2.5310    -0.1970    -0.5180 H     1 <1>   0.0800 
 34 H        1.6560    -1.2970    -2.7440 H     1 <1>   0.0800 
 35 H        1.0080    -2.9080    -2.6690 H     1 <1>   0.0800 
 36 H       -2.6310    -4.1710     0.5670 H     1 <1>   0.1500 
 37 H       -2.0210     0.0680     0.6040 H     1 <1>   0.1500 
 38 H        4.0930    -2.7120     0.1230 H     1 <1>   0.0800 
 39 H        4.7330    -1.0960     0.0310 H     1 <1>   0.0800 
 40 H        3.3180    -2.8790    -3.5810 H     1 <1>   0.0800 
 41 H        3.2160    -3.8190    -2.1210 H     1 <1>   0.0800 
 42 H       -4.3570     0.4050     1.2720 H     1 <1>   0.1500 
 43 H        5.2020    -2.3970    -2.0330 H     1 <1>   0.0800 
 44 H        4.2430    -0.9820    -2.3560 H     1 <1>   0.0800 
 45 H       -8.1950    -3.2100     2.6650 H     1 <1>   0.0800 
 46 H       -7.4470    -4.7680     2.5240 H     1 <1>   0.0800 
 47 H       -6.7120    -0.3380     2.9320 H     1 <1>   0.0800 
 48 H       -8.0190    -1.1120     2.0550 H     1 <1>   0.0800 
 49 H       -6.9460    -0.0040     1.2260 H     1 <1>   0.0800 
 50 H      -10.3480    -3.9980     1.7850 H     1 <1>   0.0800 
 51 H       -9.6290    -5.5850     1.8690 H     1 <1>   0.0800 
 52 H       -7.6910    -2.7310    -0.4820 H     1 <1>   0.0800 
 53 H       -9.1530    -2.2370     0.3410 H     1 <1>   0.0800 
 54 H      -11.5920    -5.5240     0.3660 H     1 <1>   0.0800 
 55 H      -10.1400    -6.0090    -0.4610 H     1 <1>   0.0800 
 56 H       -8.9170    -4.2390    -1.9110 H     1 <1>   0.0800 
 57 H       -9.6040    -2.6450    -2.0180 H     1 <1>   0.0800 
 58 H      -11.7430    -1.6110    -1.9800 H     1 <1>   0.0800 
 59 H      -13.1850    -2.3660    -2.6100 H     1 <1>   0.0800 
 60 H      -11.6300    -2.7960    -3.2750 H     1 <1>   0.0800 
@<TRIPOS>BOND
  1   1   2  2   
  2   2   3  am  
  3   2   4  1   
  4   3   5  1   
  5   3  30  1   
  6   4   6  1   
  7   4   7  1   
  8   4  31  1   
  9   5   8  ar  
 10   5   9  ar  
 11   6  10  1   
 12   6  32  1   
 13   6  33  1   
 14   7  11  1   
 15   7  34  1   
 16   7  35  1   
 17   8  12  ar  
 18   8  36  1   
 19   9  13  ar  
 20   9  37  1   
 21  10  14  1   
 22  10  38  1   
 23  10  39  1   
 24  11  14  1   
 25  11  40  1   
 26  11  41  1   
 27  12  15  1   
 28  12  16  ar  
 29  13  16  ar  
 30  13  42  1   
 31  14  43  1   
 32  14  44  1   
 33  15  17  2   
 34  16  18  1   
 35  17  18  1   
 36  17  19  1   
 37  18  20  1   
 38  19  21  1   
 39  19  45  1   
 40  19  46  1   
 41  20  47  1   
 42  20  48  1   
 43  20  49  1   
 44  21  22  1   
 45  21  23  1   
 46  22  24  1   
 47  22  50  1   
 48  22  51  1   
 49  23  25  1   
 50  23  52  1   
 51  23  53  1   
 52  24  26  1   
 53  24  54  1   
 54  24  55  1   
 55  25  26  1   
 56  25  56  1   
 57  25  57  1   
 58  26  27  am  
 59  27  28  2   
 60  27  29  1   
 61  29  58  1   
 62  29  59  1   
 63  29  60  1   
@<TRIPOS>SUBSTRUCTURE
  1 ****  12 GROUP 4 **** **** 0

# MOE 2024.06 (io_trps.svl 2023.06)
