@<TRIPOS>MOLECULE
NONAME
46 47 1 0 0 
SMALL
USER_CHARGES


@<TRIPOS>ATOM
  1 O        0.2640    -0.8490    -0.3980 O.2   1 <1>  -0.5700 
  2 C       -0.2000    -1.8620     0.0830 C.2   1 <1>   0.6340 
  3 O        0.5130    -2.5310     0.9940 O.3   1 <1>  -0.4300 
  4 C       -1.5060    -2.3840    -0.2810 C.ar  1 <1>   0.0860 
  5 C        1.7930    -2.0920     1.4070 C.3   1 <1>   0.0400 
  6 C       -2.0370    -3.5370     0.3030 C.ar  1 <1>  -0.1500 
  7 C       -2.2920    -1.7470    -1.2410 C.ar  1 <1>  -0.1500 
  8 C       -3.2840    -4.0220    -0.0450 C.ar  1 <1>  -0.1500 
  9 C       -3.5410    -2.2230    -1.5960 C.ar  1 <1>  -0.1500 
 10 C       -4.0520    -3.3620    -0.9930 C.ar  1 <1>  -0.1440 
 11 C       -5.4290    -3.8760    -1.3670 C.3   1 <1>   0.4860 
 12 N       -6.3750    -3.5810    -0.2390 N.4   1 <1>  -0.9590 
 13 C       -7.6780    -4.3250    -0.3220 C.3   1 <1>   0.4230 
 14 C       -6.5340    -2.0850    -0.1350 C.3   1 <1>   0.2630 
 15 C       -8.5910    -3.9500     0.8580 C.3   1 <1>  -0.1600 
 16 C       -7.4350    -5.8440    -0.3180 C.3   1 <1>  -0.1600 
 17 C       -9.8840    -4.7670     0.8700 C.3   1 <1>   0.3430 
 18 C       -8.7450    -6.6360    -0.2890 C.3   1 <1>   0.3430 
 19 N       -9.5680    -6.2220     0.8800 N.4   1 <1>  -0.9590 
 20 C      -10.8340    -7.0250     0.9330 C.3   1 <1>   0.2630 
 21 H        2.1720    -2.7830     2.1390 H     1 <1>   0.0800 
 22 H        1.7020    -1.1090     1.8350 H     1 <1>   0.0800 
 23 H        2.4450    -2.0650     0.5510 H     1 <1>   0.0800 
 24 H       -1.4560    -4.0650     1.0410 H     1 <1>   0.1500 
 25 H       -1.9080    -0.8590    -1.7180 H     1 <1>   0.1500 
 26 H       -3.6360    -4.9210     0.4310 H     1 <1>   0.1500 
 27 H       -4.0990    -1.6910    -2.3500 H     1 <1>   0.1500 
 28 H       -5.3540    -4.9360    -1.5400 H     1 <1>   0.0800 
 29 H       -5.7660    -3.4050    -2.2760 H     1 <1>   0.0800 
 30 H       -5.8720    -3.8760     0.6100 H     1 <1>   0.4500 
 31 H       -8.1780    -4.0560    -1.2410 H     1 <1>   0.0800 
 32 H       -7.0450    -1.6960    -1.0000 H     1 <1>   0.0800 
 33 H       -5.5680    -1.6070    -0.0660 H     1 <1>   0.0800 
 34 H       -7.0910    -1.8190     0.7480 H     1 <1>   0.0800 
 35 H       -8.8810    -2.9170     0.7920 H     1 <1>   0.0800 
 36 H       -8.0790    -4.0970     1.7930 H     1 <1>   0.0800 
 37 H       -6.8400    -6.1280     0.5320 H     1 <1>   0.0800 
 38 H       -6.9160    -6.1440    -1.2090 H     1 <1>   0.0800 
 39 H      -10.4740    -4.5290    -0.0010 H     1 <1>   0.0800 
 40 H      -10.4640    -4.5120     1.7440 H     1 <1>   0.0800 
 41 H       -8.5260    -7.6910    -0.2270 H     1 <1>   0.0800 
 42 H       -9.2960    -6.4640    -1.2000 H     1 <1>   0.0800 
 43 H       -9.0460    -6.4390     1.7450 H     1 <1>   0.4500 
 44 H      -11.4340    -6.8470     0.0550 H     1 <1>   0.0800 
 45 H      -11.4130    -6.7590     1.8030 H     1 <1>   0.0800 
 46 H      -10.6100    -8.0790     0.9860 H     1 <1>   0.0800 
@<TRIPOS>BOND
  1   1   2  2   
  2   2   3  1   
  3   2   4  1   
  4   3   5  1   
  5   4   6  ar  
  6   4   7  ar  
  7   5  21  1   
  8   5  22  1   
  9   5  23  1   
 10   6   8  ar  
 11   6  24  1   
 12   7   9  ar  
 13   7  25  1   
 14   8  10  ar  
 15   8  26  1   
 16   9  10  ar  
 17   9  27  1   
 18  10  11  1   
 19  11  12  1   
 20  11  28  1   
 21  11  29  1   
 22  12  13  1   
 23  12  14  1   
 24  12  30  1   
 25  13  15  1   
 26  13  16  1   
 27  13  31  1   
 28  14  32  1   
 29  14  33  1   
 30  14  34  1   
 31  15  17  1   
 32  15  35  1   
 33  15  36  1   
 34  16  18  1   
 35  16  37  1   
 36  16  38  1   
 37  17  19  1   
 38  17  39  1   
 39  17  40  1   
 40  18  19  1   
 41  18  41  1   
 42  18  42  1   
 43  19  20  1   
 44  19  43  1   
 45  20  44  1   
 46  20  45  1   
 47  20  46  1   
@<TRIPOS>SUBSTRUCTURE
  1 ****  10 GROUP 4 **** **** 0

# MOE 2024.06 (io_trps.svl 2023.06)
