@<TRIPOS>MOLECULE
NONAME
39 40 1 0 0 
SMALL
USER_CHARGES


@<TRIPOS>ATOM
  1 S        0.3860    -0.4420    -0.2480 S.3   1 <1>  -0.4600 
  2 C       -1.3190     0.1670    -0.0950 C.3   1 <1>   0.1500 
  3 C        1.2050     0.1820     1.2700 C.3   1 <1>   0.1310 
  4 C       -2.0870    -0.7590     0.8410 C.3   1 <1>  -0.1600 
  5 C       -2.0000    -0.0050    -1.4480 C.3   1 <1>  -0.1600 
  6 C        2.6460    -0.2990     1.3870 C.2   1 <1>   0.5690 
  7 C       -2.5260    -1.9430    -0.0260 C.3   1 <1>  -0.1600 
  8 C       -2.4980    -1.4540    -1.4800 C.3   1 <1>  -0.1600 
  9 O        3.2930     0.0970     2.3270 O.2   1 <1>  -0.5700 
 10 N        3.1200    -1.1490     0.4260 N.am  1 <1>  -0.5470 
 11 C        4.3490    -1.7930     0.2050 C.ar  1 <1>   0.1170 
 12 C        4.4990    -2.5910    -0.9320 C.ar  1 <1>  -0.1440 
 13 C        5.4280    -1.6690     1.0750 C.ar  1 <1>  -0.1500 
 14 C        5.7010    -3.2380    -1.1710 C.ar  1 <1>  -0.1500 
 15 C        3.3570    -2.7690    -1.9280 C.3   1 <1>  -0.0970 
 16 C        6.6230    -2.3170     0.8290 C.ar  1 <1>  -0.1500 
 17 C        6.7670    -3.1080    -0.2970 C.ar  1 <1>  -0.1440 
 18 C        8.0780    -3.8210    -0.5740 C.3   1 <1>  -0.0970 
 19 H       -1.2810     1.1910     0.2350 H     1 <1>   0.0800 
 20 H        0.6380    -0.1660     2.1120 H     1 <1>   0.0800 
 21 H        1.1790     1.2550     1.2300 H     1 <1>   0.0800 
 22 H       -2.9620    -0.2420     1.1940 H     1 <1>   0.0800 
 23 H       -1.5060    -1.0730     1.6890 H     1 <1>   0.0800 
 24 H       -1.3390     0.2190    -2.2670 H     1 <1>   0.0800 
 25 H       -2.8460     0.6580    -1.4940 H     1 <1>   0.0800 
 26 H       -3.5060    -2.2880     0.2560 H     1 <1>   0.0800 
 27 H       -1.8260    -2.7540     0.0900 H     1 <1>   0.0800 
 28 H       -1.8140    -2.0610    -2.0490 H     1 <1>   0.0800 
 29 H       -3.4730    -1.5130    -1.9340 H     1 <1>   0.0800 
 30 H        2.4190    -1.3500    -0.2900 H     1 <1>   0.3700 
 31 H        5.3450    -1.0630     1.9570 H     1 <1>   0.1500 
 32 H        5.8150    -3.8510    -2.0480 H     1 <1>   0.1500 
 33 H        2.5080    -3.2130    -1.4400 H     1 <1>   0.0800 
 34 H        3.6500    -3.4090    -2.7400 H     1 <1>   0.0800 
 35 H        3.0730    -1.8160    -2.3370 H     1 <1>   0.0800 
 36 H        7.4390    -2.2010     1.5190 H     1 <1>   0.1500 
 37 H        7.8950    -4.7680    -1.0500 H     1 <1>   0.0800 
 38 H        8.6110    -4.0000     0.3430 H     1 <1>   0.0800 
 39 H        8.6890    -3.2180    -1.2200 H     1 <1>   0.0800 
@<TRIPOS>BOND
  1   1   2  1   
  2   1   3  1   
  3   2   4  1   
  4   2   5  1   
  5   2  19  1   
  6   3   6  1   
  7   3  20  1   
  8   3  21  1   
  9   4   7  1   
 10   4  22  1   
 11   4  23  1   
 12   5   8  1   
 13   5  24  1   
 14   5  25  1   
 15   6   9  2   
 16   6  10  am  
 17   7   8  1   
 18   7  26  1   
 19   7  27  1   
 20   8  28  1   
 21   8  29  1   
 22  10  11  1   
 23  10  30  1   
 24  11  12  ar  
 25  11  13  ar  
 26  12  14  ar  
 27  12  15  1   
 28  13  16  ar  
 29  13  31  1   
 30  14  17  ar  
 31  14  32  1   
 32  15  33  1   
 33  15  34  1   
 34  15  35  1   
 35  16  17  ar  
 36  16  36  1   
 37  17  18  1   
 38  18  37  1   
 39  18  38  1   
 40  18  39  1   
@<TRIPOS>SUBSTRUCTURE
  1 ****  10 GROUP 4 **** **** 0

# MOE 2024.06 (io_trps.svl 2023.06)
