@<TRIPOS>MOLECULE
NONAME
47 48 1 0 0 
SMALL
USER_CHARGES


@<TRIPOS>ATOM
  1 CL      -0.9000    -0.1360     0.6570 Cl    1 <1>  -0.1770 
  2 C       -1.9580     1.1390     0.1180 C.ar  1 <1>   0.1770 
  3 C       -3.1610     0.8060    -0.4750 C.ar  1 <1>  -0.1500 
  4 C       -1.5830     2.4570     0.2940 C.ar  1 <1>  -0.1500 
  5 C       -4.0180     1.8130    -0.8980 C.ar  1 <1>  -0.1440 
  6 C       -2.4320     3.4620    -0.1360 C.ar  1 <1>  -0.1500 
  7 C       -3.6420     3.1410    -0.7300 C.ar  1 <1>  -0.1500 
  8 C       -5.3520     1.4650    -1.5300 C.3   1 <1>   0.4870 
  9 N       -6.2670     0.9800    -0.4620 N.4   1 <1>  -0.9590 
 10 C       -7.4970     0.3670    -1.0580 C.3   1 <1>   0.3430 
 11 C       -6.5990     2.0660     0.5080 C.3   1 <1>   0.3430 
 12 C       -8.4190    -0.2130     0.0220 C.3   1 <1>  -0.0190 
 13 C       -7.4770     1.5070     1.6290 C.3   1 <1>  -0.1600 
 14 C       -9.6790    -0.7320    -0.6610 C.2   1 <1>   0.5690 
 15 C       -8.7550     0.8560     1.0800 C.3   1 <1>  -0.1600 
 16 O      -10.0100    -0.1640    -1.6760 O.2   1 <1>  -0.5700 
 17 N      -10.3940    -1.7900    -0.1560 N.am  1 <1>  -0.6600 
 18 C      -10.0760    -2.5300     1.0960 C.3   1 <1>   0.1400 
 19 C      -11.6260    -2.2570    -0.8520 C.3   1 <1>   0.1400 
 20 C       -9.2220    -3.7520     0.7650 C.3   1 <1>  -0.2400 
 21 C      -12.8430    -1.5360    -0.2770 C.3   1 <1>  -0.2400 
 22 H       -3.4000    -0.2350    -0.5970 H     1 <1>   0.1500 
 23 H       -0.6400     2.6890     0.7570 H     1 <1>   0.1500 
 24 H       -2.1450     4.4940    -0.0100 H     1 <1>   0.1500 
 25 H       -4.2820     3.9430    -1.0600 H     1 <1>   0.1500 
 26 H       -5.2030     0.6950    -2.2700 H     1 <1>   0.0800 
 27 H       -5.7710     2.3300    -2.0190 H     1 <1>   0.0800 
 28 H       -5.7560     0.2580     0.0590 H     1 <1>   0.4500 
 29 H       -7.2290    -0.4170    -1.7480 H     1 <1>   0.0800 
 30 H       -8.0430     1.1180    -1.6090 H     1 <1>   0.0800 
 31 H       -7.1260     2.8600     0.0020 H     1 <1>   0.0800 
 32 H       -5.6950     2.4750     0.9320 H     1 <1>   0.0800 
 33 H       -7.9050    -1.0350     0.4820 H     1 <1>   0.0800 
 34 H       -7.7470     2.3110     2.2930 H     1 <1>   0.0800 
 35 H       -6.9140     0.7930     2.2040 H     1 <1>   0.0800 
 36 H       -9.3170     0.4170     1.8870 H     1 <1>   0.0800 
 37 H       -9.3780     1.6140     0.6320 H     1 <1>   0.0800 
 38 H      -10.9900    -2.8460     1.5720 H     1 <1>   0.0800 
 39 H       -9.5580    -1.8950     1.7920 H     1 <1>   0.0800 
 40 H      -11.7360    -3.3220    -0.7330 H     1 <1>   0.0800 
 41 H      -11.5530    -2.0520    -1.9080 H     1 <1>   0.0800 
 42 H       -9.7590    -4.4200     0.1160 H     1 <1>   0.0800 
 43 H       -8.9860    -4.2820     1.6700 H     1 <1>   0.0800 
 44 H       -8.3030    -3.4610     0.2910 H     1 <1>   0.0800 
 45 H      -12.9570    -1.7510     0.7700 H     1 <1>   0.0800 
 46 H      -13.7290    -1.8620    -0.7900 H     1 <1>   0.0800 
 47 H      -12.7420    -0.4740    -0.4180 H     1 <1>   0.0800 
@<TRIPOS>BOND
  1   1   2  1   
  2   2   3  ar  
  3   2   4  ar  
  4   3   5  ar  
  5   3  22  1   
  6   4   6  ar  
  7   4  23  1   
  8   5   7  ar  
  9   5   8  1   
 10   6   7  ar  
 11   6  24  1   
 12   7  25  1   
 13   8   9  1   
 14   8  26  1   
 15   8  27  1   
 16   9  10  1   
 17   9  11  1   
 18   9  28  1   
 19  10  12  1   
 20  10  29  1   
 21  10  30  1   
 22  11  13  1   
 23  11  31  1   
 24  11  32  1   
 25  12  14  1   
 26  12  15  1   
 27  12  33  1   
 28  13  15  1   
 29  13  34  1   
 30  13  35  1   
 31  14  16  2   
 32  14  17  am  
 33  15  36  1   
 34  15  37  1   
 35  17  18  1   
 36  17  19  1   
 37  18  20  1   
 38  18  38  1   
 39  18  39  1   
 40  19  21  1   
 41  19  40  1   
 42  19  41  1   
 43  20  42  1   
 44  20  43  1   
 45  20  44  1   
 46  21  45  1   
 47  21  46  1   
 48  21  47  1   
@<TRIPOS>SUBSTRUCTURE
  1 ****   9 GROUP 4 **** **** 0

# MOE 2024.06 (io_trps.svl 2023.06)
