@<TRIPOS>MOLECULE
NONAME
40 40 1 0 0 
SMALL
USER_CHARGES


@<TRIPOS>ATOM
  1 O        6.9920    -0.2410     0.0080 O.3   1 <1>  -0.3630 
  2 C        7.0720     1.1030    -0.1940 C.ar  1 <1>   0.0830 
  3 C        5.8890    -0.9940    -0.4290 C.3   1 <1>   0.1200 
  4 C        8.2090     1.7600     0.2780 C.ar  1 <1>  -0.1440 
  5 C        6.0690     1.8210    -0.8440 C.ar  1 <1>  -0.1500 
  6 C        6.1540    -2.4460    -0.0300 C.3   1 <1>   0.3430 
  7 C        8.3170     3.1320     0.0860 C.ar  1 <1>  -0.1500 
  8 C        9.2950     0.9450     0.9900 C.3   1 <1>  -0.0160 
  9 C        6.1950     3.1850    -1.0250 C.ar  1 <1>  -0.1500 
 10 N        5.0350    -3.3520    -0.4480 N.4   1 <1>  -0.9060 
 11 C        7.3190     3.8400    -0.5600 C.ar  1 <1>  -0.1500 
 12 C       10.5150     1.7350     1.4800 C.3   1 <1>  -0.2400 
 13 C        5.1890    -4.7700    -0.1130 C.3   1 <1>   0.5030 
 14 C        5.2810    -4.9370     1.4030 C.3   1 <1>  -0.2400 
 15 C        3.9390    -5.4700    -0.6360 C.3   1 <1>  -0.2400 
 16 C        6.4280    -5.3350    -0.8060 C.3   1 <1>  -0.2400 
 17 H        5.8200    -0.8910    -1.4980 H     1 <1>   0.0800 
 18 H        5.0110    -0.6100     0.0590 H     1 <1>   0.0800 
 19 H        5.1830     1.3500    -1.2190 H     1 <1>   0.1500 
 20 H        6.2770    -2.4880     1.0400 H     1 <1>   0.0800 
 21 H        7.0730    -2.7650    -0.4940 H     1 <1>   0.0800 
 22 H        9.1740     3.6790     0.4320 H     1 <1>   0.1500 
 23 H        9.6390     0.1800     0.3160 H     1 <1>   0.0800 
 24 H        8.8490     0.4540     1.8370 H     1 <1>   0.0800 
 25 H        5.4220     3.7410    -1.5270 H     1 <1>   0.1500 
 26 H        4.9090    -3.2980    -1.4640 H     1 <1>   0.4500 
 27 H        4.1590    -3.0380    -0.0190 H     1 <1>   0.4500 
 28 H        7.4200     4.9020    -0.7000 H     1 <1>   0.1500 
 29 H       11.0140     2.2070     0.6530 H     1 <1>   0.0800 
 30 H       11.2100     1.0710     1.9620 H     1 <1>   0.0800 
 31 H       10.2150     2.4850     2.1910 H     1 <1>   0.0800 
 32 H        6.1860    -4.5110     1.7970 H     1 <1>   0.0800 
 33 H        5.2920    -5.9850     1.6510 H     1 <1>   0.0800 
 34 H        4.4340    -4.4940     1.8970 H     1 <1>   0.0800 
 35 H        3.0510    -5.0870    -0.1650 H     1 <1>   0.0800 
 36 H        3.9920    -6.5230    -0.4180 H     1 <1>   0.0800 
 37 H        3.8500    -5.3640    -1.7030 H     1 <1>   0.0800 
 38 H        6.4820    -6.3970    -0.6400 H     1 <1>   0.0800 
 39 H        6.3890    -5.1720    -1.8680 H     1 <1>   0.0800 
 40 H        7.3340    -4.9090    -0.4130 H     1 <1>   0.0800 
@<TRIPOS>BOND
  1   1   2  1   
  2   1   3  1   
  3   2   4  ar  
  4   2   5  ar  
  5   3   6  1   
  6   3  17  1   
  7   3  18  1   
  8   4   7  ar  
  9   4   8  1   
 10   5   9  ar  
 11   5  19  1   
 12   6  10  1   
 13   6  20  1   
 14   6  21  1   
 15   7  11  ar  
 16   7  22  1   
 17   8  12  1   
 18   8  23  1   
 19   8  24  1   
 20   9  11  ar  
 21   9  25  1   
 22  10  13  1   
 23  10  26  1   
 24  10  27  1   
 25  11  28  1   
 26  12  29  1   
 27  12  30  1   
 28  12  31  1   
 29  13  14  1   
 30  13  15  1   
 31  13  16  1   
 32  14  32  1   
 33  14  33  1   
 34  14  34  1   
 35  15  35  1   
 36  15  36  1   
 37  15  37  1   
 38  16  38  1   
 39  16  39  1   
 40  16  40  1   
@<TRIPOS>SUBSTRUCTURE
  1 ****   1 GROUP 4 **** **** 0

# MOE 2024.06 (io_trps.svl 2023.06)
