@<TRIPOS>MOLECULE
NONAME
40 41 1 0 0 
SMALL
USER_CHARGES


@<TRIPOS>ATOM
  1 BR       2.6450     2.2550    -2.6080 Br    1 <1>  -0.1110 
  2 C        1.5190     2.8400    -1.1540 C.ar  1 <1>   0.1110 
  3 C        1.8900     2.5640     0.1550 C.ar  1 <1>   0.0820 
  4 C        0.3680     3.5390    -1.4650 C.ar  1 <1>  -0.1500 
  5 O        3.0390     1.8770     0.3800 O.3   1 <1>  -0.3630 
  6 C        1.0620     3.0090     1.1800 C.ar  1 <1>  -0.1500 
  7 C       -0.4490     3.9810    -0.4350 C.ar  1 <1>  -0.1430 
  8 C        3.7810     2.1080     1.5700 C.3   1 <1>   0.1810 
  9 C       -0.0950     3.7140     0.8800 C.ar  1 <1>  -0.1500 
 10 C       -1.7200     4.7540    -0.7410 C.3   1 <1>  -0.0960 
 11 C        5.1930     1.5330     1.4700 C.2   1 <1>   0.5690 
 12 O        5.5000     0.7080     2.3010 O.2   1 <1>  -0.5700 
 13 N        6.0840     1.9510     0.5050 N.am  1 <1>  -0.6600 
 14 C        5.7680     2.9330    -0.5720 C.3   1 <1>   0.1400 
 15 C        7.4490     1.3600     0.4170 C.3   1 <1>   0.1400 
 16 C        6.8110     4.0520    -0.5820 C.3   1 <1>  -0.1600 
 17 C        8.5000     2.4730     0.4190 C.3   1 <1>  -0.1600 
 18 C        8.2430     3.4980    -0.7000 C.3   1 <1>  -0.0190 
 19 C        9.2810     4.6170    -0.6740 C.2   1 <1>   0.5690 
 20 O        9.3030     5.4130     0.2290 O.2   1 <1>  -0.5700 
 21 N       10.1800     4.7150    -1.6700 N.am  1 <1>  -0.8000 
 22 H        0.1220     3.7310    -2.4930 H     1 <1>   0.1500 
 23 H        1.2970     2.8090     2.2090 H     1 <1>   0.1500 
 24 H        3.2630     1.6370     2.3840 H     1 <1>   0.0800 
 25 H        3.8400     3.1670     1.7400 H     1 <1>   0.0800 
 26 H       -0.7270     4.0540     1.6820 H     1 <1>   0.1500 
 27 H       -2.0590     4.5480    -1.7410 H     1 <1>   0.0800 
 28 H       -1.5360     5.8090    -0.6490 H     1 <1>   0.0800 
 29 H       -2.5000     4.4760    -0.0560 H     1 <1>   0.0800 
 30 H        4.7970     3.3710    -0.4350 H     1 <1>   0.0800 
 31 H        5.7670     2.4210    -1.5190 H     1 <1>   0.0800 
 32 H        7.5210     0.7840    -0.4890 H     1 <1>   0.0800 
 33 H        7.6330     0.6970     1.2460 H     1 <1>   0.0800 
 34 H        6.7160     4.6220     0.3270 H     1 <1>   0.0800 
 35 H        6.6120     4.7160    -1.4040 H     1 <1>   0.0800 
 36 H        9.4760     2.0390     0.2970 H     1 <1>   0.0800 
 37 H        8.4810     2.9660     1.3760 H     1 <1>   0.0800 
 38 H        8.3230     2.9890    -1.6430 H     1 <1>   0.0800 
 39 H       10.8690     5.4680    -1.6370 H     1 <1>   0.3700 
 40 H       10.2330     4.0820    -2.4660 H     1 <1>   0.3700 
@<TRIPOS>BOND
  1   1   2  1   
  2   2   3  ar  
  3   2   4  ar  
  4   3   5  1   
  5   3   6  ar  
  6   4   7  ar  
  7   4  22  1   
  8   5   8  1   
  9   6   9  ar  
 10   6  23  1   
 11   7   9  ar  
 12   7  10  1   
 13   8  11  1   
 14   8  24  1   
 15   8  25  1   
 16   9  26  1   
 17  10  27  1   
 18  10  28  1   
 19  10  29  1   
 20  11  12  2   
 21  11  13  am  
 22  13  14  1   
 23  13  15  1   
 24  14  16  1   
 25  14  30  1   
 26  14  31  1   
 27  15  17  1   
 28  15  32  1   
 29  15  33  1   
 30  16  18  1   
 31  16  34  1   
 32  16  35  1   
 33  17  18  1   
 34  17  36  1   
 35  17  37  1   
 36  18  19  1   
 37  18  38  1   
 38  19  20  2   
 39  19  21  am  
 40  21  39  1   
 41  21  40  1   
@<TRIPOS>SUBSTRUCTURE
  1 ****  14 GROUP 4 **** **** 0

# MOE 2024.06 (io_trps.svl 2023.06)
