@<TRIPOS>MOLECULE
NONAME
33 34 1 0 0 
SMALL
USER_CHARGES


@<TRIPOS>ATOM
  1 CL      -0.2380     1.0940     2.3080 Cl    1 <1>  -0.1770 
  2 C        0.7230     2.0520     1.2020 C.ar  1 <1>   0.1770 
  3 C        0.1080     2.8720     0.2630 C.ar  1 <1>   0.0830 
  4 C        2.1000     1.9670     1.2950 C.ar  1 <1>  -0.1500 
  5 O       -1.2520     2.9080     0.2300 O.3   1 <1>  -0.3630 
  6 C        0.9140     3.6150    -0.5970 C.ar  1 <1>  -0.1500 
  7 C        2.8980     2.7120     0.4390 C.ar  1 <1>  -0.1430 
  8 C       -1.9520     3.7030    -0.6980 C.3   1 <1>   0.1200 
  9 C        2.2940     3.5320    -0.5050 C.ar  1 <1>  -0.1500 
 10 C        4.4110     2.6340     0.5340 C.3   1 <1>   0.2140 
 11 C       -3.4450     3.5010    -0.4560 C.3   1 <1>  -0.2400 
 12 S        5.0010     1.4810    -0.7820 S.3   1 <1>  -0.3610 
 13 C        6.7400     1.4290    -0.6520 C.cat 1 <1>   0.8400 
 14 N        7.4530     2.0910     0.2170 N.pl3 1 <1>  -0.7940 
 15 N        7.4460     0.6930    -1.4570 N.pl3 1 <1>  -0.7940 
 16 C        8.9010     1.8030     0.0290 C.3   1 <1>   0.3290 
 17 C        8.8940     0.8090    -1.1610 C.3   1 <1>   0.3290 
 18 H        2.5280     1.3160     2.0360 H     1 <1>   0.1500 
 19 H        0.4880     4.2600    -1.3410 H     1 <1>   0.1500 
 20 H       -1.6820     3.3880    -1.6910 H     1 <1>   0.0800 
 21 H       -1.6780     4.7320    -0.5420 H     1 <1>   0.0800 
 22 H        2.8980     4.1120    -1.1820 H     1 <1>   0.1500 
 23 H        4.7250     2.2380     1.4830 H     1 <1>   0.0800 
 24 H        4.8600     3.5950     0.3560 H     1 <1>   0.0800 
 25 H       -3.7040     2.4670    -0.5970 H     1 <1>   0.0800 
 26 H       -4.0110     4.0960    -1.1500 H     1 <1>   0.0800 
 27 H       -3.7000     3.8020     0.5440 H     1 <1>   0.0800 
 28 H        7.1200     2.7270     0.9430 H     1 <1>   0.4500 
 29 H        7.0620     0.1040    -2.2030 H     1 <1>   0.4500 
 30 H        9.3230     1.3490     0.9110 H     1 <1>   0.0800 
 31 H        9.4450     2.7000    -0.2180 H     1 <1>   0.0800 
 32 H        9.4310     1.2080    -2.0060 H     1 <1>   0.0800 
 33 H        9.3090    -0.1440    -0.8760 H     1 <1>   0.0800 
@<TRIPOS>BOND
  1   1   2  1   
  2   2   3  ar  
  3   2   4  ar  
  4   3   5  1   
  5   3   6  ar  
  6   4   7  ar  
  7   4  18  1   
  8   5   8  1   
  9   6   9  ar  
 10   6  19  1   
 11   7   9  ar  
 12   7  10  1   
 13   8  11  1   
 14   8  20  1   
 15   8  21  1   
 16   9  22  1   
 17  10  12  1   
 18  10  23  1   
 19  10  24  1   
 20  11  25  1   
 21  11  26  1   
 22  11  27  1   
 23  12  13  1   
 24  13  14  ar  
 25  13  15  ar  
 26  14  16  1   
 27  14  28  1   
 28  15  17  1   
 29  15  29  1   
 30  16  17  1   
 31  16  30  1   
 32  16  31  1   
 33  17  32  1   
 34  17  33  1   
@<TRIPOS>SUBSTRUCTURE
  1 ****   7 GROUP 4 **** **** 0

# MOE 2024.06 (io_trps.svl 2023.06)
