@<TRIPOS>MOLECULE
NONAME
52 54 1 0 0 
SMALL
USER_CHARGES


@<TRIPOS>ATOM
  1 S        0.2040    -1.2230     2.6380 S.o2  1 <1>   1.4470 
  2 O        0.0730    -2.0620     3.8090 O.2   1 <1>  -0.6500 
  3 O        0.7080     0.1250     2.7770 O.2   1 <1>  -0.6500 
  4 N        1.2680    -2.0230     1.5930 N.am  1 <1>  -0.8490 
  5 C       -1.3470    -1.1860     1.6960 C.ar  1 <1>  -0.0090 
  6 C        2.6600    -1.9150     2.1110 C.3   1 <1>   0.2570 
  7 C        0.9020    -3.4260     1.3670 C.3   1 <1>   0.1960 
  8 C       -1.3960    -0.6920     0.4170 C.ar  1 <1>  -0.1500 
  9 C       -2.5400    -1.6720     2.2600 C.ar  1 <1>  -0.1500 
 10 C        3.7610    -2.4070     1.1600 C.2   1 <1>   0.5690 
 11 C        0.9690    -3.7200    -0.1280 C.3   1 <1>  -0.2400 
 12 C       -2.5830    -0.6660    -0.3410 C.ar  1 <1>   0.0000 
 13 C       -3.7120    -1.6620     1.5550 C.ar  1 <1>  -0.1500 
 14 O        4.3220    -3.4380     1.4560 O.2   1 <1>  -0.5700 
 15 N        4.0930    -1.7040     0.0240 N.am  1 <1>  -0.6600 
 16 C       -3.7670    -1.1640     0.2390 C.ar  1 <1>   0.0000 
 17 C       -2.6300    -0.1650    -1.6580 C.ar  1 <1>  -0.1500 
 18 C        3.3710    -0.4920    -0.4600 C.3   1 <1>   0.1400 
 19 C        5.2080    -2.1390    -0.8620 C.3   1 <1>   0.1400 
 20 C       -4.9540    -1.1430    -0.5200 C.ar  1 <1>  -0.1500 
 21 C       -3.7970    -0.1570    -2.3710 C.ar  1 <1>  -0.1500 
 22 C        4.3590     0.6670    -0.6180 C.3   1 <1>  -0.1600 
 23 C        6.2100    -0.9920    -1.0290 C.3   1 <1>  -0.1600 
 24 C       -4.9720    -0.6520    -1.7960 C.ar  1 <1>  -0.1500 
 25 C        5.5300     0.2890    -1.5390 C.3   1 <1>  -0.0800 
 26 C        6.5400     1.4380    -1.6290 C.3   1 <1>  -0.2400 
 27 H        2.7400    -2.4640     3.0340 H     1 <1>   0.0800 
 28 H        2.8850    -0.8890     2.3390 H     1 <1>   0.0800 
 29 H       -0.1040    -3.6180     1.7010 H     1 <1>   0.0800 
 30 H        1.5540    -4.0920     1.9100 H     1 <1>   0.0800 
 31 H       -0.4990    -0.3090    -0.0360 H     1 <1>   0.1500 
 32 H       -2.5150    -2.0570     3.2670 H     1 <1>   0.1500 
 33 H        1.9710    -3.6070    -0.4980 H     1 <1>   0.0800 
 34 H        0.3120    -3.0610    -0.6670 H     1 <1>   0.0800 
 35 H        0.6590    -4.7320    -0.3080 H     1 <1>   0.0800 
 36 H       -4.6180    -2.0360     1.9980 H     1 <1>   0.1500 
 37 H       -1.7250     0.2160    -2.0960 H     1 <1>   0.1500 
 38 H        2.5870    -0.2010     0.2160 H     1 <1>   0.0800 
 39 H        2.9180    -0.7170    -1.4100 H     1 <1>   0.0800 
 40 H        4.8050    -2.4180    -1.8200 H     1 <1>   0.0800 
 41 H        5.7110    -2.9970    -0.4490 H     1 <1>   0.0800 
 42 H       -5.8550    -1.5240    -0.0730 H     1 <1>   0.1500 
 43 H       -3.8280     0.2270    -3.3770 H     1 <1>   0.1500 
 44 H        4.7280     0.9410     0.3550 H     1 <1>   0.0800 
 45 H        3.8390     1.5170    -1.0230 H     1 <1>   0.0800 
 46 H        6.9770    -1.2960    -1.7180 H     1 <1>   0.0800 
 47 H        6.6790    -0.8070    -0.0780 H     1 <1>   0.0800 
 48 H       -5.8820    -0.6390    -2.3710 H     1 <1>   0.1500 
 49 H        5.1420     0.0990    -2.5260 H     1 <1>   0.0800 
 50 H        6.9510     1.6590    -0.6590 H     1 <1>   0.0800 
 51 H        6.0650     2.3240    -2.0110 H     1 <1>   0.0800 
 52 H        7.3460     1.1750    -2.2910 H     1 <1>   0.0800 
@<TRIPOS>BOND
  1   1   2  2   
  2   1   3  2   
  3   1   4  am  
  4   1   5  1   
  5   4   6  1   
  6   4   7  1   
  7   5   8  ar  
  8   5   9  ar  
  9   6  10  1   
 10   6  27  1   
 11   6  28  1   
 12   7  11  1   
 13   7  29  1   
 14   7  30  1   
 15   8  12  ar  
 16   8  31  1   
 17   9  13  ar  
 18   9  32  1   
 19  10  14  2   
 20  10  15  am  
 21  11  33  1   
 22  11  34  1   
 23  11  35  1   
 24  12  16  ar  
 25  12  17  ar  
 26  13  16  ar  
 27  13  36  1   
 28  15  18  1   
 29  15  19  1   
 30  16  20  ar  
 31  17  21  ar  
 32  17  37  1   
 33  18  22  1   
 34  18  38  1   
 35  18  39  1   
 36  19  23  1   
 37  19  40  1   
 38  19  41  1   
 39  20  24  ar  
 40  20  42  1   
 41  21  24  ar  
 42  21  43  1   
 43  22  25  1   
 44  22  44  1   
 45  22  45  1   
 46  23  25  1   
 47  23  46  1   
 48  23  47  1   
 49  24  48  1   
 50  25  26  1   
 51  25  49  1   
 52  26  50  1   
 53  26  51  1   
 54  26  52  1   
@<TRIPOS>SUBSTRUCTURE
  1 ****   4 GROUP 4 **** **** 0

# MOE 2024.06 (io_trps.svl 2023.06)
