@<TRIPOS>MOLECULE
NONAME
43 45 1 0 0 
SMALL
USER_CHARGES


@<TRIPOS>ATOM
  1 O        0.6240     0.4330    -1.3360 O.2   1 <1>  -0.5700 
  2 C        1.0100     1.5210    -0.9500 C.2   1 <1>   0.6900 
  3 N        2.3510     1.8190    -0.9470 N.am  1 <1>  -0.6600 
  4 N        0.1250     2.4780    -0.5410 N.am  1 <1>  -0.5470 
  5 C        2.9790     2.8760    -0.1030 C.3   1 <1>   0.1400 
  6 C        3.3320     0.9490    -1.6550 C.3   1 <1>   0.1400 
  7 C       -1.2530     2.4350    -0.2910 C.ar  1 <1>   0.1170 
  8 C        3.8820     2.2190     0.9410 C.3   1 <1>  -0.1600 
  9 C        4.2400     0.2650    -0.6330 C.3   1 <1>  -0.1600 
 10 C       -1.9750     3.6230    -0.3230 C.ar  1 <1>  -0.1500 
 11 C       -1.9300     1.2590     0.0130 C.ar  1 <1>  -0.1500 
 12 C        4.9020     1.3050     0.2730 C.3   1 <1>   0.5600 
 13 C       -3.3340     3.6430    -0.0640 C.ar  1 <1>  -0.1430 
 14 C       -3.2900     1.2620     0.2720 C.ar  1 <1>  -0.1430 
 15 O        5.6670     0.6890     1.2510 O.3   1 <1>  -0.5600 
 16 O        5.7960     2.0830    -0.4550 O.3   1 <1>  -0.5600 
 17 C       -3.9870     2.4580     0.2340 C.ar  1 <1>  -0.1500 
 18 C       -4.1160     4.9440    -0.1030 C.3   1 <1>  -0.0970 
 19 C       -4.0110    -0.0320     0.5980 C.3   1 <1>  -0.0970 
 20 C        6.9590     0.5440     0.7870 C.3   1 <1>   0.1200 
 21 C        7.0610     1.5330    -0.3580 C.3   1 <1>   0.1200 
 22 H        0.5410     3.4000    -0.5170 H     1 <1>   0.3700 
 23 H        2.2360     3.4690     0.4010 H     1 <1>   0.0800 
 24 H        3.5630     3.5270    -0.7310 H     1 <1>   0.0800 
 25 H        3.9230     1.5570    -2.3190 H     1 <1>   0.0800 
 26 H        2.8270     0.2060    -2.2490 H     1 <1>   0.0800 
 27 H        3.2730     1.6390     1.6100 H     1 <1>   0.0800 
 28 H        4.3950     2.9700     1.5110 H     1 <1>   0.0800 
 29 H        4.9820    -0.3190    -1.1410 H     1 <1>   0.0800 
 30 H        3.6400    -0.3950    -0.0330 H     1 <1>   0.0800 
 31 H       -1.4650     4.5380    -0.5570 H     1 <1>   0.1500 
 32 H       -1.3860     0.3330     0.0500 H     1 <1>   0.1500 
 33 H       -5.0430     2.4670     0.4380 H     1 <1>   0.1500 
 34 H       -3.5270     5.7340    -0.5330 H     1 <1>   0.0800 
 35 H       -4.4000     5.2270     0.8950 H     1 <1>   0.0800 
 36 H       -5.0040     4.8200    -0.6960 H     1 <1>   0.0800 
 37 H       -3.4800    -0.8730     0.1890 H     1 <1>   0.0800 
 38 H       -5.0020    -0.0230     0.1810 H     1 <1>   0.0800 
 39 H       -4.0810    -0.1510     1.6640 H     1 <1>   0.0800 
 40 H        7.0990    -0.4680     0.4490 H     1 <1>   0.0800 
 41 H        7.6470     0.7700     1.5830 H     1 <1>   0.0800 
 42 H        7.7670     2.3180    -0.1500 H     1 <1>   0.0800 
 43 H        7.3070     1.0450    -1.2850 H     1 <1>   0.0800 
@<TRIPOS>BOND
  1   1   2  2   
  2   2   3  am  
  3   2   4  am  
  4   3   5  1   
  5   3   6  1   
  6   4   7  1   
  7   4  22  1   
  8   5   8  1   
  9   5  23  1   
 10   5  24  1   
 11   6   9  1   
 12   6  25  1   
 13   6  26  1   
 14   7  10  ar  
 15   7  11  ar  
 16   8  12  1   
 17   8  27  1   
 18   8  28  1   
 19   9  12  1   
 20   9  29  1   
 21   9  30  1   
 22  10  13  ar  
 23  10  31  1   
 24  11  14  ar  
 25  11  32  1   
 26  12  15  1   
 27  12  16  1   
 28  13  17  ar  
 29  13  18  1   
 30  14  17  ar  
 31  14  19  1   
 32  15  20  1   
 33  16  21  1   
 34  17  33  1   
 35  18  34  1   
 36  18  35  1   
 37  18  36  1   
 38  19  37  1   
 39  19  38  1   
 40  19  39  1   
 41  20  21  1   
 42  20  40  1   
 43  20  41  1   
 44  21  42  1   
 45  21  43  1   
@<TRIPOS>SUBSTRUCTURE
  1 ****   2 GROUP 4 **** **** 0

# MOE 2024.06 (io_trps.svl 2023.06)
