@<TRIPOS>MOLECULE
NONAME
51 52 1 0 0 
SMALL
USER_CHARGES


@<TRIPOS>ATOM
  1 BR      -0.0700    -1.4640     1.6330 Br    1 <1>  -0.1110 
  2 C        1.7960    -1.5740     1.1700 C.ar  1 <1>   0.1110 
  3 C        2.1430    -1.7470    -0.1560 C.ar  1 <1>  -0.1500 
  4 C        2.7380    -1.4790     2.1750 C.ar  1 <1>  -0.1500 
  5 C        3.4850    -1.8260    -0.4890 C.ar  1 <1>  -0.1500 
  6 C        4.0770    -1.5590     1.8320 C.ar  1 <1>  -0.1500 
  7 C        4.4590    -1.7320     0.5080 C.ar  1 <1>   0.0830 
  8 O        5.7960    -1.8010     0.2760 O.3   1 <1>  -0.3630 
  9 C        6.3570    -1.9270    -1.0280 C.3   1 <1>   0.2610 
 10 C        7.7700    -2.5200    -0.9250 C.2   1 <1>   0.5690 
 11 C        6.3730    -0.5370    -1.6820 C.3   1 <1>  -0.2400 
 12 O        8.2720    -3.0130    -1.9090 O.2   1 <1>  -0.5700 
 13 N        8.4290    -2.4750     0.2710 N.am  1 <1>  -0.7300 
 14 C        9.7730    -2.9830     0.6070 C.3   1 <1>   0.2200 
 15 C       10.8300    -2.2730    -0.2400 C.3   1 <1>  -0.1600 
 16 C        9.8310    -4.4960     0.3900 C.3   1 <1>  -0.1600 
 17 C       12.2440    -2.8100     0.0040 C.3   1 <1>   0.5030 
 18 C       11.2240    -5.0780     0.6460 C.3   1 <1>   0.5030 
 19 N       12.2590    -4.2810    -0.0310 N.4   1 <1>  -0.9060 
 20 C       12.8380    -2.2970     1.3190 C.3   1 <1>  -0.2400 
 21 C       13.1630    -2.3680    -1.1340 C.3   1 <1>  -0.2400 
 22 C       11.5330    -5.2020     2.1410 C.3   1 <1>  -0.2400 
 23 C       11.3170    -6.4730     0.0290 C.3   1 <1>  -0.2400 
 24 H        1.3780    -1.8160    -0.9090 H     1 <1>   0.1500 
 25 H        2.4310    -1.3450     3.1970 H     1 <1>   0.1500 
 26 H        3.7420    -1.9580    -1.5220 H     1 <1>   0.1500 
 27 H        4.8330    -1.4870     2.5940 H     1 <1>   0.1500 
 28 H        5.7620    -2.6170    -1.5960 H     1 <1>   0.0800 
 29 H        6.9780     0.1370    -1.1050 H     1 <1>   0.0800 
 30 H        5.3780    -0.1400    -1.7660 H     1 <1>   0.0800 
 31 H        6.7920    -0.6100    -2.6700 H     1 <1>   0.0800 
 32 H        7.8900    -2.0820     1.0520 H     1 <1>   0.3700 
 33 H        9.9500    -2.7670     1.6470 H     1 <1>   0.0800 
 34 H       10.8050    -1.2180    -0.0310 H     1 <1>   0.0800 
 35 H       10.5950    -2.3960    -1.2820 H     1 <1>   0.0800 
 36 H        9.5480    -4.7210    -0.6220 H     1 <1>   0.0800 
 37 H        9.1160    -4.9770     1.0340 H     1 <1>   0.0800 
 38 H       13.1750    -4.6040     0.2820 H     1 <1>   0.4500 
 39 H       12.1880    -4.5300    -1.0210 H     1 <1>   0.4500 
 40 H       12.1670    -2.4130     2.1460 H     1 <1>   0.0800 
 41 H       13.0340    -1.2420     1.2370 H     1 <1>   0.0800 
 42 H       13.7700    -2.7840     1.5430 H     1 <1>   0.0800 
 43 H       12.8100    -2.7250    -2.0850 H     1 <1>   0.0800 
 44 H       14.1700    -2.7130    -0.9790 H     1 <1>   0.0800 
 45 H       13.1910    -1.2930    -1.1850 H     1 <1>   0.0800 
 46 H       11.3200    -4.3010     2.6800 H     1 <1>   0.0800 
 47 H       12.5560    -5.4860     2.3070 H     1 <1>   0.0800 
 48 H       10.9100    -5.9650     2.5750 H     1 <1>   0.0800 
 49 H       11.1360    -6.4460    -1.0320 H     1 <1>   0.0800 
 50 H       10.5720    -7.1170     0.4640 H     1 <1>   0.0800 
 51 H       12.2790    -6.9180     0.2110 H     1 <1>   0.0800 
@<TRIPOS>BOND
  1   1   2  1   
  2   2   3  ar  
  3   2   4  ar  
  4   3   5  ar  
  5   3  24  1   
  6   4   6  ar  
  7   4  25  1   
  8   5   7  ar  
  9   5  26  1   
 10   6   7  ar  
 11   6  27  1   
 12   7   8  1   
 13   8   9  1   
 14   9  10  1   
 15   9  11  1   
 16   9  28  1   
 17  10  12  2   
 18  10  13  am  
 19  11  29  1   
 20  11  30  1   
 21  11  31  1   
 22  13  14  1   
 23  13  32  1   
 24  14  15  1   
 25  14  16  1   
 26  14  33  1   
 27  15  17  1   
 28  15  34  1   
 29  15  35  1   
 30  16  18  1   
 31  16  36  1   
 32  16  37  1   
 33  17  19  1   
 34  17  20  1   
 35  17  21  1   
 36  18  19  1   
 37  18  22  1   
 38  18  23  1   
 39  19  38  1   
 40  19  39  1   
 41  20  40  1   
 42  20  41  1   
 43  20  42  1   
 44  21  43  1   
 45  21  44  1   
 46  21  45  1   
 47  22  46  1   
 48  22  47  1   
 49  22  48  1   
 50  23  49  1   
 51  23  50  1   
 52  23  51  1   
@<TRIPOS>SUBSTRUCTURE
  1 ****  13 GROUP 4 **** **** 0

# MOE 2024.06 (io_trps.svl 2023.06)
