@<TRIPOS>MOLECULE
NONAME
38 40 1 0 0 
SMALL
USER_CHARGES


@<TRIPOS>ATOM
  1 CL      -1.6720    -0.0060    -1.8540 Cl    1 <1>  -0.1770 
  2 C       -1.6200     1.4110    -0.8300 C.ar  1 <1>   0.1770 
  3 C       -2.4110     1.4910     0.3070 C.ar  1 <1>  -0.1440 
  4 C       -0.7590     2.4350    -1.1920 C.ar  1 <1>  -0.1500 
  5 C       -2.2900     2.6420     1.0720 C.ar  1 <1>   0.1900 
  6 C       -3.3600     0.3670     0.6960 C.3   1 <1>   0.2540 
  7 C       -0.6660     3.5740    -0.4080 C.ar  1 <1>  -0.1500 
  8 F       -3.0050     2.7720     2.1580 F     1 <1>  -0.1900 
  9 C       -1.4370     3.6800     0.7370 C.ar  1 <1>  -0.1500 
 10 N       -4.5800     0.4070    -0.1260 N.3   1 <1>  -0.8100 
 11 C       -5.3510    -0.8440     0.0240 C.3   1 <1>   0.1100 
 12 C       -5.4270     1.5760     0.1950 C.3   1 <1>   0.1100 
 13 C       -6.5970    -0.8480    -0.8740 C.3   1 <1>   0.1400 
 14 C       -6.7000     1.6300    -0.6690 C.3   1 <1>   0.1400 
 15 N       -7.4540     0.3420    -0.5950 N.am  1 <1>  -0.6600 
 16 C       -8.7490     0.2220    -0.1280 C.2   1 <1>   0.7150 
 17 O       -9.0870    -0.8500     0.3480 O.2   1 <1>  -0.5700 
 18 C       -9.7190     1.3000    -0.1620 C.2   1 <1>   0.0550 
 19 O       -9.6090     2.3470    -0.9800 O.3   1 <1>  -0.2800 
 20 C      -10.8700     1.4450     0.5540 C.2   1 <1>  -0.1500 
 21 C      -10.6390     3.1420    -0.8000 C.2   1 <1>  -0.0100 
 22 C      -11.4630     2.6390     0.1430 C.2   1 <1>  -0.1500 
 23 H       -0.1650     2.3350    -2.0830 H     1 <1>   0.1500 
 24 H       -3.6200     0.4250     1.7390 H     1 <1>   0.0800 
 25 H       -2.8580    -0.5730     0.5400 H     1 <1>   0.0800 
 26 H        0.0030     4.3710    -0.6880 H     1 <1>   0.1500 
 27 H       -1.3810     4.5530     1.3630 H     1 <1>   0.1500 
 28 H       -5.6580    -0.9700     1.0490 H     1 <1>   0.0800 
 29 H       -4.7310    -1.6800    -0.2490 H     1 <1>   0.0800 
 30 H       -4.8720     2.4820     0.0270 H     1 <1>   0.0800 
 31 H       -5.7100     1.5480     1.2340 H     1 <1>   0.0800 
 32 H       -7.1460    -1.7600    -0.7200 H     1 <1>   0.0800 
 33 H       -6.2860    -0.8220    -1.9040 H     1 <1>   0.0800 
 34 H       -6.4270     1.8200    -1.6920 H     1 <1>   0.0800 
 35 H       -7.3030     2.4490    -0.3250 H     1 <1>   0.0800 
 36 H      -11.2600     0.7690     1.2950 H     1 <1>   0.1500 
 37 H      -10.7130     4.0440    -1.3830 H     1 <1>   0.1500 
 38 H      -12.3860     3.0460     0.5160 H     1 <1>   0.1500 
@<TRIPOS>BOND
  1   1   2  1   
  2   2   3  ar  
  3   2   4  ar  
  4   3   5  ar  
  5   3   6  1   
  6   4   7  ar  
  7   4  23  1   
  8   5   8  1   
  9   5   9  ar  
 10   6  10  1   
 11   6  24  1   
 12   6  25  1   
 13   7   9  ar  
 14   7  26  1   
 15   9  27  1   
 16  10  11  1   
 17  10  12  1   
 18  11  13  1   
 19  11  28  1   
 20  11  29  1   
 21  12  14  1   
 22  12  30  1   
 23  12  31  1   
 24  13  15  1   
 25  13  32  1   
 26  13  33  1   
 27  14  15  1   
 28  14  34  1   
 29  14  35  1   
 30  15  16  am  
 31  16  17  2   
 32  16  18  1   
 33  18  19  1   
 34  18  20  2   
 35  19  21  1   
 36  20  22  1   
 37  20  36  1   
 38  21  22  2   
 39  21  37  1   
 40  22  38  1   
@<TRIPOS>SUBSTRUCTURE
  1 ****  12 GROUP 4 **** **** 0

# MOE 2024.06 (io_trps.svl 2023.06)
