@<TRIPOS>MOLECULE
NONAME
54 57 1 0 0 
SMALL
USER_CHARGES


@<TRIPOS>ATOM
  1 N       -7.0980     1.1580     0.1230 N.4   1 <1>  -0.9590 
  2 C       -5.9870     2.0310    -0.3350 C.3   1 <1>   0.4230 
  3 C       -8.2720     1.9100     0.6780 C.3   1 <1>   0.3430 
  4 C       -6.7260     0.0170     1.0270 C.3   1 <1>   0.3430 
  5 C       -5.1630     1.2620    -1.3760 C.3   1 <1>  -0.1600 
  6 C       -5.1720     2.5600     0.8590 C.3   1 <1>  -0.1600 
  7 C       -9.4420     0.9520     1.0080 C.3   1 <1>   0.1100 
  8 C       -7.9300    -0.9370     1.2320 C.3   1 <1>   0.1100 
  9 C       -4.0090     2.0660    -1.9990 C.3   1 <1>  -0.1600 
 10 C       -4.3410     3.7940     0.4750 C.3   1 <1>  -0.1600 
 11 N       -9.1620    -0.4400     0.5730 N.3   1 <1>  -0.8100 
 12 C       -2.8360     2.2610    -1.0280 C.3   1 <1>  -0.1600 
 13 C       -2.9520     3.4820    -0.1020 C.3   1 <1>  -0.1600 
 14 C      -10.3130    -1.3340     0.8000 C.3   1 <1>   0.1100 
 15 C      -11.0940    -1.5510    -0.5090 C.3   1 <1>  -0.0800 
 16 C      -11.5980    -0.1480    -1.2330 C.3   1 <1>   0.0580 
 17 C      -12.4970    -2.4900    -0.2570 C.3   1 <1>  -0.1600 
 18 C      -12.9570     0.6160    -1.6560 C.2   1 <1>  -0.2880 
 19 C      -12.6080    -0.9930    -1.0320 C.3   1 <1>  -0.1600 
 20 C      -13.7690    -1.6190    -0.8580 C.3   1 <1>   0.0580 
 21 C      -14.0950    -0.1550    -1.4580 C.2   1 <1>  -0.2880 
 22 H       -7.5040     0.6810    -0.6960 H     1 <1>   0.4500 
 23 H       -6.4180     2.8820    -0.8370 H     1 <1>   0.0800 
 24 H       -8.6120     2.6360    -0.0420 H     1 <1>   0.0800 
 25 H       -7.9880     2.4420     1.5710 H     1 <1>   0.0800 
 26 H       -6.4060     0.3950     1.9830 H     1 <1>   0.0800 
 27 H       -5.9080    -0.5420     0.6050 H     1 <1>   0.0800 
 28 H       -5.8210     0.9750    -2.1770 H     1 <1>   0.0800 
 29 H       -4.7580     0.3640    -0.9460 H     1 <1>   0.0800 
 30 H       -4.5310     1.7980     1.2640 H     1 <1>   0.0800 
 31 H       -5.8490     2.8710     1.6340 H     1 <1>   0.0800 
 32 H      -10.3330     1.3190     0.5280 H     1 <1>   0.0800 
 33 H       -9.6240     0.9710     2.0690 H     1 <1>   0.0800 
 34 H       -8.1030    -1.0640     2.2880 H     1 <1>   0.0800 
 35 H       -7.6780    -1.9030     0.8270 H     1 <1>   0.0800 
 36 H       -4.3510     3.0150    -2.3760 H     1 <1>   0.0800 
 37 H       -3.6410     1.5060    -2.8430 H     1 <1>   0.0800 
 38 H       -4.1960     4.4020     1.3520 H     1 <1>   0.0800 
 39 H       -4.8900     4.3980    -0.2280 H     1 <1>   0.0800 
 40 H       -1.9330     2.3790    -1.6040 H     1 <1>   0.0800 
 41 H       -2.7010     1.3710    -0.4360 H     1 <1>   0.0800 
 42 H       -2.2620     3.3420     0.7130 H     1 <1>   0.0800 
 43 H       -2.6150     4.3530    -0.6400 H     1 <1>   0.0800 
 44 H      -10.9630    -0.9270     1.5570 H     1 <1>   0.0800 
 45 H       -9.9760    -2.2970     1.1450 H     1 <1>   0.0800 
 46 H      -10.4360    -2.0860    -1.1800 H     1 <1>   0.0800 
 47 H      -11.0470    -0.1600    -2.1620 H     1 <1>   0.0800 
 48 H      -12.6500    -2.6890     0.7930 H     1 <1>   0.0800 
 49 H      -12.4110    -3.4440    -0.7570 H     1 <1>   0.0800 
 50 H      -12.8880     1.6190    -2.0440 H     1 <1>   0.1500 
 51 H      -12.5040    -1.4230    -2.1140 H     1 <1>   0.0800 
 52 H      -12.7620    -0.4810     0.0630 H     1 <1>   0.0800 
 53 H      -14.1610    -2.2740    -1.6250 H     1 <1>   0.0800 
 54 H      -15.1230     0.1020    -1.6530 H     1 <1>   0.1500 
@<TRIPOS>BOND
  1   1   2  1   
  2   1   3  1   
  3   1   4  1   
  4   1  22  1   
  5   2   5  1   
  6   2   6  1   
  7   2  23  1   
  8   3   7  1   
  9   3  24  1   
 10   3  25  1   
 11   4   8  1   
 12   4  26  1   
 13   4  27  1   
 14   5   9  1   
 15   5  28  1   
 16   5  29  1   
 17   6  10  1   
 18   6  30  1   
 19   6  31  1   
 20   7  11  1   
 21   7  32  1   
 22   7  33  1   
 23   8  11  1   
 24   8  34  1   
 25   8  35  1   
 26   9  12  1   
 27   9  36  1   
 28   9  37  1   
 29  10  13  1   
 30  10  38  1   
 31  10  39  1   
 32  11  14  1   
 33  12  13  1   
 34  12  40  1   
 35  12  41  1   
 36  13  42  1   
 37  13  43  1   
 38  14  15  1   
 39  14  44  1   
 40  14  45  1   
 41  15  16  1   
 42  15  17  1   
 43  15  46  1   
 44  16  18  1   
 45  16  19  1   
 46  16  47  1   
 47  17  20  1   
 48  17  48  1   
 49  17  49  1   
 50  18  21  2   
 51  18  50  1   
 52  19  20  1   
 53  19  51  1   
 54  19  52  1   
 55  20  21  1   
 56  20  53  1   
 57  21  54  1   
@<TRIPOS>SUBSTRUCTURE
  1 ****  11 GROUP 4 **** **** 0

# MOE 2024.06 (io_trps.svl 2023.06)
