@<TRIPOS>MOLECULE
NONAME
34 36 1 0 0 
SMALL
USER_CHARGES


@<TRIPOS>ATOM
  1 O        0.2280    -0.6120    -1.1080 O.3   1 <1>  -0.5600 
  2 C        0.4380    -1.9610    -0.8070 C.3   1 <1>   0.1200 
  3 C        0.6050     0.2850    -0.1040 C.3   1 <1>   0.1200 
  4 C        1.9320    -2.2200    -0.5280 C.3   1 <1>   0.3430 
  5 C        2.1070     0.1350     0.2060 C.3   1 <1>   0.3430 
  6 N        2.4630    -1.2910     0.5340 N.4   1 <1>  -0.9590 
  7 C        3.9230    -1.5110     0.8130 C.3   1 <1>   0.3430 
  8 C        4.8700    -1.0850    -0.3300 C.3   1 <1>  -0.0800 
  9 C        6.3180    -1.8540    -0.1580 C.3   1 <1>   0.0580 
 10 C        5.2060     0.5760    -0.3750 C.3   1 <1>  -0.1600 
 11 C        7.8850    -1.5170     0.0880 C.2   1 <1>  -0.2880 
 12 C        6.5430    -0.5470    -0.2330 C.3   1 <1>  -0.1600 
 13 C        6.8390     0.7480    -0.2580 C.3   1 <1>   0.0580 
 14 C        8.1590    -0.1480     0.0370 C.2   1 <1>  -0.2880 
 15 H        0.1150    -2.5390    -1.6570 H     1 <1>   0.0800 
 16 H       -0.1710    -2.2280     0.0390 H     1 <1>   0.0800 
 17 H        0.0040     0.1020     0.7700 H     1 <1>   0.0800 
 18 H        0.3980     1.2790    -0.4600 H     1 <1>   0.0800 
 19 H        2.4720    -2.0750    -1.4480 H     1 <1>   0.0800 
 20 H        2.0640    -3.2450    -0.2240 H     1 <1>   0.0800 
 21 H        2.3690     0.7810     1.0280 H     1 <1>   0.0800 
 22 H        2.6580     0.4580    -0.6610 H     1 <1>   0.0800 
 23 H        1.9540    -1.5230     1.3980 H     1 <1>   0.4500 
 24 H        4.0810    -2.5590     1.0080 H     1 <1>   0.0800 
 25 H        4.2060    -0.9770     1.7060 H     1 <1>   0.0800 
 26 H        4.4440    -1.3900    -1.2740 H     1 <1>   0.0800 
 27 H        6.3680    -2.4790    -1.0400 H     1 <1>   0.0800 
 28 H        4.7390     1.1000     0.4440 H     1 <1>   0.0800 
 29 H        4.8480     1.0140    -1.2950 H     1 <1>   0.0800 
 30 H        8.5710    -2.3310     0.2640 H     1 <1>   0.1500 
 31 H        6.6580    -0.6120    -1.3980 H     1 <1>   0.0800 
 32 H        6.3650    -0.4660     0.9670 H     1 <1>   0.0800 
 33 H        7.1030     1.2420    -1.1840 H     1 <1>   0.0800 
 34 H        9.1050     0.3540     0.1620 H     1 <1>   0.1500 
@<TRIPOS>BOND
  1   1   2  1   
  2   1   3  1   
  3   2   4  1   
  4   2  15  1   
  5   2  16  1   
  6   3   5  1   
  7   3  17  1   
  8   3  18  1   
  9   4   6  1   
 10   4  19  1   
 11   4  20  1   
 12   5   6  1   
 13   5  21  1   
 14   5  22  1   
 15   6   7  1   
 16   6  23  1   
 17   7   8  1   
 18   7  24  1   
 19   7  25  1   
 20   8   9  1   
 21   8  10  1   
 22   8  26  1   
 23   9  11  1   
 24   9  12  1   
 25   9  27  1   
 26  10  13  1   
 27  10  28  1   
 28  10  29  1   
 29  11  14  2   
 30  11  30  1   
 31  12  13  1   
 32  12  31  1   
 33  12  32  1   
 34  13  14  1   
 35  13  33  1   
 36  14  34  1   
@<TRIPOS>SUBSTRUCTURE
  1 ****   8 GROUP 4 **** **** 0

# MOE 2024.06 (io_trps.svl 2023.06)
