@<TRIPOS>MOLECULE
NONAME
47 48 1 0 0 
SMALL
USER_CHARGES


@<TRIPOS>ATOM
  1 O        0.5620    -1.7520    -0.3440 O.3   1 <1>  -0.3630 
  2 C       -0.6810    -1.8190     0.2050 C.ar  1 <1>   0.0830 
  3 C        1.6780    -1.3340     0.4030 C.3   1 <1>   0.1200 
  4 C       -1.7250    -2.2460    -0.6110 C.ar  1 <1>  -0.1440 
  5 C       -0.9430    -1.4810     1.5310 C.ar  1 <1>  -0.1500 
  6 C        2.8950    -1.3820    -0.5230 C.3   1 <1>  -0.1600 
  7 C       -3.0080    -2.3310    -0.0960 C.ar  1 <1>  -0.1500 
  8 C       -1.4700    -2.6210    -2.0640 C.3   1 <1>  -0.0970 
  9 C       -2.2290    -1.5700     2.0320 C.ar  1 <1>  -0.1500 
 10 C        4.1790    -0.9470     0.1970 C.3   1 <1>  -0.1600 
 11 C       -3.2680    -1.9970     1.2230 C.ar  1 <1>  -0.1430 
 12 C        5.3730    -1.0010    -0.7600 C.3   1 <1>   0.3430 
 13 C       -4.6800    -2.0940     1.7710 C.3   1 <1>  -0.0970 
 14 N        6.6020    -0.4800    -0.1020 N.4   1 <1>  -0.9590 
 15 C        7.6430    -0.1610    -1.1230 C.3   1 <1>   0.3430 
 16 C        7.1330    -1.4160     0.9370 C.3   1 <1>   0.3430 
 17 C        8.8400     0.5130    -0.4500 C.3   1 <1>  -0.1600 
 18 C        8.3200    -0.7710     1.6560 C.3   1 <1>  -0.1600 
 19 C        9.4220    -0.3540     0.6740 C.3   1 <1>  -0.1600 
 20 H        1.7960    -2.0060     1.2360 H     1 <1>   0.0800 
 21 H        1.4940    -0.3310     0.7500 H     1 <1>   0.0800 
 22 H       -0.1660    -1.1460     2.1890 H     1 <1>   0.1500 
 23 H        2.7090    -0.7330    -1.3620 H     1 <1>   0.0800 
 24 H        3.0050    -2.3900    -0.8870 H     1 <1>   0.0800 
 25 H       -3.8160    -2.6600    -0.7250 H     1 <1>   0.1500 
 26 H       -1.0620    -1.7770    -2.5910 H     1 <1>   0.0800 
 27 H       -2.3770    -2.9250    -2.5530 H     1 <1>   0.0800 
 28 H       -0.7660    -3.4320    -2.1110 H     1 <1>   0.0800 
 29 H       -2.4190    -1.3050     3.0570 H     1 <1>   0.1500 
 30 H        4.3420    -1.6020     1.0340 H     1 <1>   0.0800 
 31 H        4.0510     0.0590     0.5580 H     1 <1>   0.0800 
 32 H        5.1450    -0.3980    -1.6250 H     1 <1>   0.0800 
 33 H        5.5310    -2.0150    -1.0940 H     1 <1>   0.0800 
 34 H       -5.2000    -2.9180     1.3190 H     1 <1>   0.0800 
 35 H       -5.2140    -1.1860     1.5600 H     1 <1>   0.0800 
 36 H       -4.6620    -2.2480     2.8350 H     1 <1>   0.0800 
 37 H        6.3660     0.4020     0.3710 H     1 <1>   0.4500 
 38 H        7.2380     0.4990    -1.8730 H     1 <1>   0.0800 
 39 H        7.9690    -1.0680    -1.6090 H     1 <1>   0.0800 
 40 H        7.4520    -2.3350     0.4710 H     1 <1>   0.0800 
 41 H        6.3670    -1.6490     1.6580 H     1 <1>   0.0800 
 42 H        8.5390     1.4690    -0.0580 H     1 <1>   0.0800 
 43 H        9.6030     0.6950    -1.1880 H     1 <1>   0.0800 
 44 H        8.7230    -1.4720     2.3660 H     1 <1>   0.0800 
 45 H        7.9790     0.0860     2.2110 H     1 <1>   0.0800 
 46 H       10.1920     0.1900     1.1960 H     1 <1>   0.0800 
 47 H        9.8760    -1.2350     0.2500 H     1 <1>   0.0800 
@<TRIPOS>BOND
  1   1   2  1   
  2   1   3  1   
  3   2   4  ar  
  4   2   5  ar  
  5   3   6  1   
  6   3  20  1   
  7   3  21  1   
  8   4   7  ar  
  9   4   8  1   
 10   5   9  ar  
 11   5  22  1   
 12   6  10  1   
 13   6  23  1   
 14   6  24  1   
 15   7  11  ar  
 16   7  25  1   
 17   8  26  1   
 18   8  27  1   
 19   8  28  1   
 20   9  11  ar  
 21   9  29  1   
 22  10  12  1   
 23  10  30  1   
 24  10  31  1   
 25  11  13  1   
 26  12  14  1   
 27  12  32  1   
 28  12  33  1   
 29  13  34  1   
 30  13  35  1   
 31  13  36  1   
 32  14  15  1   
 33  14  16  1   
 34  14  37  1   
 35  15  17  1   
 36  15  38  1   
 37  15  39  1   
 38  16  18  1   
 39  16  40  1   
 40  16  41  1   
 41  17  19  1   
 42  17  42  1   
 43  17  43  1   
 44  18  19  1   
 45  18  44  1   
 46  18  45  1   
 47  19  46  1   
 48  19  47  1   
@<TRIPOS>SUBSTRUCTURE
  1 ****   3 GROUP 4 **** **** 0

# MOE 2024.06 (io_trps.svl 2023.06)
