@<TRIPOS>MOLECULE
NONAME
42 43 1 0 0 
SMALL
USER_CHARGES


@<TRIPOS>ATOM
  1 S       -8.1780    -2.9370     0.9100 S.3   1 <1>  -0.0800 
  2 C       -6.4470    -3.0870     0.6100 C.ar  1 <1>   0.2970 
  3 C       -8.5060    -4.4920     0.1380 C.2   1 <1>  -0.1400 
  4 N       -5.5670    -2.1810     0.9730 N.ar  1 <1>  -0.5670 
  5 C       -6.1780    -4.2630    -0.0420 C.ar  1 <1>   0.0000 
  6 C       -7.3590    -5.0470    -0.2990 C.2   1 <1>  -0.1500 
  7 C       -9.9620    -4.9220     0.1010 C.3   1 <1>   0.0200 
  8 C       -4.3330    -2.5080     0.6450 C.ar  1 <1>   0.4770 
  9 C       -4.8320    -4.4790    -0.3280 C.ar  1 <1>   0.4100 
 10 C      -10.1490    -6.2770    -0.5860 C.3   1 <1>  -0.2400 
 11 N       -3.9070    -3.6020     0.0230 N.ar  1 <1>  -0.6200 
 12 C       -3.2610    -1.5150     1.0260 C.3   1 <1>  -0.0960 
 13 N       -4.4200    -5.6160    -0.9830 N.pl3 1 <1>  -0.8690 
 14 C       -3.0600    -5.8240    -1.5100 C.3   1 <1>   0.2090 
 15 C       -2.2120    -6.4380    -0.3980 C.3   1 <1>  -0.1600 
 16 C       -0.7370    -6.4290    -0.7830 C.3   1 <1>   0.3430 
 17 N        0.1040    -6.8230     0.3860 N.4   1 <1>  -0.9590 
 18 C        1.5420    -6.5000     0.1350 C.3   1 <1>   0.2630 
 19 C       -0.0530    -8.2690     0.7450 C.3   1 <1>   0.2630 
 20 H       -7.2810    -5.9930    -0.8020 H     1 <1>   0.1500 
 21 H      -10.5330    -4.1750    -0.4230 H     1 <1>   0.0800 
 22 H      -10.3350    -4.9790     1.1090 H     1 <1>   0.0800 
 23 H       -9.8000    -6.2310    -1.6030 H     1 <1>   0.0800 
 24 H      -11.1900    -6.5450    -0.5930 H     1 <1>   0.0800 
 25 H       -9.6020    -7.0400    -0.0610 H     1 <1>   0.0800 
 26 H       -3.7020    -0.5760     1.3080 H     1 <1>   0.0800 
 27 H       -2.6040    -1.3530     0.1930 H     1 <1>   0.0800 
 28 H       -2.6980    -1.8990     1.8550 H     1 <1>   0.0800 
 29 H       -5.1480    -6.2240    -1.3650 H     1 <1>   0.4000 
 30 H       -2.6520    -4.8750    -1.8210 H     1 <1>   0.0800 
 31 H       -3.1000    -6.4740    -2.3680 H     1 <1>   0.0800 
 32 H       -2.5560    -7.4400    -0.2180 H     1 <1>   0.0800 
 33 H       -2.3450    -5.8490     0.4930 H     1 <1>   0.0800 
 34 H       -0.4700    -5.4310    -1.0920 H     1 <1>   0.0800 
 35 H       -0.5640    -7.0970    -1.6110 H     1 <1>   0.0800 
 36 H       -0.2160    -6.2570     1.1890 H     1 <1>   0.4500 
 37 H        1.9130    -7.0650    -0.7050 H     1 <1>   0.0800 
 38 H        2.1360    -6.7400     1.0010 H     1 <1>   0.0800 
 39 H        1.6580    -5.4490    -0.0790 H     1 <1>   0.0800 
 40 H        0.2390    -8.8950    -0.0830 H     1 <1>   0.0800 
 41 H       -1.0780    -8.4850     0.9970 H     1 <1>   0.0800 
 42 H        0.5640    -8.5120     1.5950 H     1 <1>   0.0800 
@<TRIPOS>BOND
  1   1   2  1   
  2   1   3  1   
  3   2   4  ar  
  4   2   5  ar  
  5   3   6  2   
  6   3   7  1   
  7   4   8  ar  
  8   5   6  1   
  9   5   9  ar  
 10   6  20  1   
 11   7  10  1   
 12   7  21  1   
 13   7  22  1   
 14   8  11  ar  
 15   8  12  1   
 16   9  11  ar  
 17   9  13  1   
 18  10  23  1   
 19  10  24  1   
 20  10  25  1   
 21  12  26  1   
 22  12  27  1   
 23  12  28  1   
 24  13  14  1   
 25  13  29  1   
 26  14  15  1   
 27  14  30  1   
 28  14  31  1   
 29  15  16  1   
 30  15  32  1   
 31  15  33  1   
 32  16  17  1   
 33  16  34  1   
 34  16  35  1   
 35  17  18  1   
 36  17  19  1   
 37  17  36  1   
 38  18  37  1   
 39  18  38  1   
 40  18  39  1   
 41  19  40  1   
 42  19  41  1   
 43  19  42  1   
@<TRIPOS>SUBSTRUCTURE
  1 ****   9 GROUP 4 **** **** 0

# MOE 2024.06 (io_trps.svl 2023.06)
