@<TRIPOS>MOLECULE
NONAME
50 54 1 0 0 
SMALL
USER_CHARGES


@<TRIPOS>ATOM
  1 O        0.5090     1.1030    -2.3590 O.2   1 <1>  -0.5700 
  2 C       -0.0120     1.7820    -1.5160 C.2   1 <1>   0.6590 
  3 O       -1.2820     2.1300    -1.5020 O.3   1 <1>  -0.4300 
  4 C        0.7060     2.4090    -0.3570 C.3   1 <1>  -0.0190 
  5 C       -1.5740     2.9600    -0.3980 C.3   1 <1>   0.2000 
  6 C        1.1500     3.8360    -0.7660 C.3   1 <1>  -0.0190 
  7 C       -0.4550     2.6610     0.6120 C.3   1 <1>  -0.0800 
  8 C       -1.2940     4.4320    -0.7710 C.3   1 <1>  -0.1600 
  9 C        2.5950     4.1010    -0.3560 C.2   1 <1>   0.5690 
 10 C        0.0670     4.7160    -0.0930 C.3   1 <1>  -0.0800 
 11 C       -0.1330     4.0080     1.2350 C.3   1 <1>  -0.1600 
 12 O        2.8390     4.9210     0.4940 O.2   1 <1>  -0.5700 
 13 N        3.5520     3.3700    -1.0090 N.am  1 <1>  -0.5470 
 14 C        4.9410     3.2940    -0.8500 C.ar  1 <1>   0.1170 
 15 C        5.6860     2.6760    -1.8480 C.ar  1 <1>  -0.1500 
 16 C        5.6200     3.7860     0.2610 C.ar  1 <1>  -0.1500 
 17 C        7.0570     2.5510    -1.7390 C.ar  1 <1>  -0.1500 
 18 C        6.9910     3.6590     0.3690 C.ar  1 <1>  -0.1500 
 19 C        7.7380     3.0350    -0.6260 C.ar  1 <1>   0.0000 
 20 C        9.1690     2.8920    -0.5060 C.ar  1 <1>   0.0000 
 21 C        9.7870     1.6350    -0.3680 C.ar  1 <1>   0.0860 
 22 C        9.9600     4.0360    -0.5510 C.ar  1 <1>  -0.1500 
 23 C        9.0370     0.4020    -0.2790 C.2   1 <1>   0.6340 
 24 C       11.1820     1.5870    -0.3170 C.ar  1 <1>  -0.1500 
 25 C       11.3370     3.9640    -0.4830 C.ar  1 <1>  -0.1500 
 26 O        9.3480    -0.6010    -0.8900 O.2   1 <1>  -0.5700 
 27 O        7.9750     0.3590     0.5310 O.3   1 <1>  -0.4300 
 28 C       11.9520     2.7320    -0.3710 C.ar  1 <1>  -0.1500 
 29 C        7.1730    -0.7960     0.6560 C.3   1 <1>   0.0400 
 30 H        1.4840     1.7870     0.0490 H     1 <1>   0.0800 
 31 H       -2.5740     2.7780    -0.0410 H     1 <1>   0.0800 
 32 H        1.1000     3.9750    -1.8330 H     1 <1>   0.0800 
 33 H       -0.6740     1.8580     1.2940 H     1 <1>   0.0800 
 34 H       -2.0490     5.0630    -0.3370 H     1 <1>   0.0800 
 35 H       -1.2760     4.5910    -1.8360 H     1 <1>   0.0800 
 36 H        0.3190     5.7620    -0.0220 H     1 <1>   0.0800 
 37 H        0.7570     3.9850     1.8420 H     1 <1>   0.0800 
 38 H       -0.9550     4.4100     1.8040 H     1 <1>   0.0800 
 39 H        3.1930     2.7750    -1.7560 H     1 <1>   0.3700 
 40 H        5.1920     2.2880    -2.7190 H     1 <1>   0.1500 
 41 H        5.0800     4.2670     1.0550 H     1 <1>   0.1500 
 42 H        7.6130     2.0690    -2.5250 H     1 <1>   0.1500 
 43 H        7.4940     4.0410     1.2400 H     1 <1>   0.1500 
 44 H        9.4850     4.9970    -0.6490 H     1 <1>   0.1500 
 45 H       11.6650     0.6280    -0.2320 H     1 <1>   0.1500 
 46 H       11.9300     4.8620    -0.5220 H     1 <1>   0.1500 
 47 H       13.0260     2.6670    -0.3250 H     1 <1>   0.1500 
 48 H        6.3810    -0.5860     1.3520 H     1 <1>   0.0800 
 49 H        7.7830    -1.6060     1.0170 H     1 <1>   0.0800 
 50 H        6.7640    -1.0400    -0.3090 H     1 <1>   0.0800 
@<TRIPOS>BOND
  1   1   2  2   
  2   2   3  1   
  3   2   4  1   
  4   3   5  1   
  5   4   6  1   
  6   4   7  1   
  7   4  30  1   
  8   5   7  1   
  9   5   8  1   
 10   5  31  1   
 11   6   9  1   
 12   6  10  1   
 13   6  32  1   
 14   7  11  1   
 15   7  33  1   
 16   8  10  1   
 17   8  34  1   
 18   8  35  1   
 19   9  12  2   
 20   9  13  am  
 21  10  11  1   
 22  10  36  1   
 23  11  37  1   
 24  11  38  1   
 25  13  14  1   
 26  13  39  1   
 27  14  15  ar  
 28  14  16  ar  
 29  15  17  ar  
 30  15  40  1   
 31  16  18  ar  
 32  16  41  1   
 33  17  19  ar  
 34  17  42  1   
 35  18  19  ar  
 36  18  43  1   
 37  19  20  1   
 38  20  21  ar  
 39  20  22  ar  
 40  21  23  1   
 41  21  24  ar  
 42  22  25  ar  
 43  22  44  1   
 44  23  26  2   
 45  23  27  1   
 46  24  28  ar  
 47  24  45  1   
 48  25  28  ar  
 49  25  46  1   
 50  27  29  1   
 51  28  47  1   
 52  29  48  1   
 53  29  49  1   
 54  29  50  1   
@<TRIPOS>SUBSTRUCTURE
  1 ****  14 GROUP 4 **** **** 0

# MOE 2024.06 (io_trps.svl 2023.06)
