@<TRIPOS>MOLECULE
NONAME
30 30 1 0 0 
SMALL
USER_CHARGES


@<TRIPOS>ATOM
  1 O        0.9950     2.8190     2.0480 O.2   1 <1>  -0.5700 
  2 C        0.2010     2.4300     1.2240 C.2   1 <1>   0.5690 
  3 N        0.5600     1.5540     0.2480 N.am  1 <1>  -0.7300 
  4 C       -1.2320     2.9450     1.2870 C.3   1 <1>   0.1810 
  5 C        1.9110     0.9690     0.0770 C.3   1 <1>   0.1400 
  6 O       -1.9970     2.4910     0.1760 O.3   1 <1>  -0.3630 
  7 C        2.7520     1.8530    -0.8460 C.3   1 <1>   0.1200 
  8 C       -3.2990     2.8420     0.0320 C.ar  1 <1>   0.0820 
  9 O        4.0190     1.3040    -0.9810 O.3   1 <1>  -0.6800 
 10 C       -3.9570     2.3570    -1.0860 C.ar  1 <1>  -0.1500 
 11 C       -3.9900     3.6490     0.9330 C.ar  1 <1>  -0.1500 
 12 C       -5.2870     2.6670    -1.3080 C.ar  1 <1>  -0.1500 
 13 C       -5.3200     3.9570     0.7070 C.ar  1 <1>  -0.1500 
 14 C       -5.9760     3.4680    -0.4120 C.ar  1 <1>  -0.1440 
 15 C       -7.4350     3.8100    -0.6560 C.3   1 <1>  -0.0970 
 16 H       -0.1530     1.2940    -0.4400 H     1 <1>   0.3700 
 17 H       -1.2220     4.0190     1.2750 H     1 <1>   0.0800 
 18 H       -1.6970     2.5900     2.1880 H     1 <1>   0.0800 
 19 H        1.8190    -0.0180    -0.3420 H     1 <1>   0.0800 
 20 H        2.3870     0.8980     1.0410 H     1 <1>   0.0800 
 21 H        2.8530     2.8440    -0.4380 H     1 <1>   0.0800 
 22 H        2.3090     1.9040    -1.8250 H     1 <1>   0.0800 
 23 H        4.5180     1.3870    -0.1440 H     1 <1>   0.4000 
 24 H       -3.4240     1.7360    -1.7820 H     1 <1>   0.1500 
 25 H       -3.5170     4.0460     1.8110 H     1 <1>   0.1500 
 26 H       -5.7830     2.2840    -2.1820 H     1 <1>   0.1500 
 27 H       -5.8460     4.5820     1.4080 H     1 <1>   0.1500 
 28 H       -7.9250     3.0110    -1.1830 H     1 <1>   0.0800 
 29 H       -7.5040     4.7080    -1.2440 H     1 <1>   0.0800 
 30 H       -7.9470     3.9640     0.2760 H     1 <1>   0.0800 
@<TRIPOS>BOND
  1   1   2  2   
  2   2   3  am  
  3   2   4  1   
  4   3   5  1   
  5   3  16  1   
  6   4   6  1   
  7   4  17  1   
  8   4  18  1   
  9   5   7  1   
 10   5  19  1   
 11   5  20  1   
 12   6   8  1   
 13   7   9  1   
 14   7  21  1   
 15   7  22  1   
 16   8  10  ar  
 17   8  11  ar  
 18   9  23  1   
 19  10  12  ar  
 20  10  24  1   
 21  11  13  ar  
 22  11  25  1   
 23  12  14  ar  
 24  12  26  1   
 25  13  14  ar  
 26  13  27  1   
 27  14  15  1   
 28  15  28  1   
 29  15  29  1   
 30  15  30  1   
@<TRIPOS>SUBSTRUCTURE
  1 ****   6 GROUP 4 **** **** 0

# MOE 2024.06 (io_trps.svl 2023.06)
