@<TRIPOS>MOLECULE
NONAME
37 38 1 0 0 
SMALL
USER_CHARGES


@<TRIPOS>ATOM
  1 S        0.7580     0.7840     0.3340 S.o2  1 <1>   1.4970 
  2 O        1.1630    -0.3180    -0.5130 O.2   1 <1>  -0.6500 
  3 O        1.2760     0.9320     1.6780 O.2   1 <1>  -0.6500 
  4 N        0.9230     2.2360    -0.4990 N.2   1 <1>  -0.6380 
  5 C       -1.0220     0.8790     0.3710 C.ar  1 <1>  -0.0090 
  6 C       -0.2170     2.7490    -0.7280 C.2   1 <1>   0.4140 
  7 C       -1.3940     2.0390    -0.2650 C.ar  1 <1>   0.0860 
  8 C       -1.9650     0.0170     0.9070 C.ar  1 <1>  -0.1500 
  9 N       -0.3280     3.9470    -1.3910 N.pl3 1 <1>  -0.8190 
 10 C       -2.7440     2.3570    -0.3730 C.ar  1 <1>  -0.1500 
 11 C       -3.3100     0.3350     0.7980 C.ar  1 <1>  -0.1500 
 12 C        0.8210     4.6730    -1.9950 C.3   1 <1>   0.2090 
 13 C       -3.6970     1.5040     0.1590 C.ar  1 <1>  -0.1500 
 14 C        1.5880     5.4380    -0.9170 C.3   1 <1>   0.0700 
 15 S        2.8550     6.4530    -1.7380 S.3   1 <1>  -0.4600 
 16 C        3.9540     7.0470    -0.4210 C.3   1 <1>   0.2300 
 17 C        4.7230     5.8480     0.1360 C.3   1 <1>  -0.2400 
 18 C        4.9040     8.0370    -1.0940 C.3   1 <1>  -0.2400 
 19 C        3.1090     7.7420     0.6490 C.3   1 <1>  -0.2400 
 20 H       -1.6540    -0.8880     1.4020 H     1 <1>   0.1500 
 21 H       -1.2540     4.3190    -1.6150 H     1 <1>   0.4000 
 22 H       -3.0500     3.2620    -0.8660 H     1 <1>   0.1500 
 23 H       -4.0540    -0.3260     1.2100 H     1 <1>   0.1500 
 24 H        0.4580     5.3620    -2.7380 H     1 <1>   0.0800 
 25 H        1.4840     3.9720    -2.4750 H     1 <1>   0.0800 
 26 H       -4.7440     1.7450     0.0780 H     1 <1>   0.1500 
 27 H        2.0830     4.7580    -0.2490 H     1 <1>   0.0800 
 28 H        0.9410     6.1050    -0.3790 H     1 <1>   0.0800 
 29 H        4.0650     5.1610     0.6340 H     1 <1>   0.0800 
 30 H        5.4580     6.1800     0.8470 H     1 <1>   0.0800 
 31 H        5.2280     5.3280    -0.6590 H     1 <1>   0.0800 
 32 H        5.4580     7.5490    -1.8750 H     1 <1>   0.0800 
 33 H        5.5990     8.4360    -0.3780 H     1 <1>   0.0800 
 34 H        4.3490     8.8510    -1.5250 H     1 <1>   0.0800 
 35 H        2.4790     7.0380     1.1590 H     1 <1>   0.0800 
 36 H        2.4970     8.5040     0.2010 H     1 <1>   0.0800 
 37 H        3.7500     8.2030     1.3780 H     1 <1>   0.0800 
@<TRIPOS>BOND
  1   1   2  2   
  2   1   3  2   
  3   1   4  1   
  4   1   5  1   
  5   4   6  2   
  6   5   7  ar  
  7   5   8  ar  
  8   6   7  1   
  9   6   9  1   
 10   7  10  ar  
 11   8  11  ar  
 12   8  20  1   
 13   9  12  1   
 14   9  21  1   
 15  10  13  ar  
 16  10  22  1   
 17  11  13  ar  
 18  11  23  1   
 19  12  14  1   
 20  12  24  1   
 21  12  25  1   
 22  13  26  1   
 23  14  15  1   
 24  14  27  1   
 25  14  28  1   
 26  15  16  1   
 27  16  17  1   
 28  16  18  1   
 29  16  19  1   
 30  17  29  1   
 31  17  30  1   
 32  17  31  1   
 33  18  32  1   
 34  18  33  1   
 35  18  34  1   
 36  19  35  1   
 37  19  36  1   
 38  19  37  1   
@<TRIPOS>SUBSTRUCTURE
  1 ****   6 GROUP 4 **** **** 0

# MOE 2024.06 (io_trps.svl 2023.06)
