@<TRIPOS>MOLECULE
NONAME
38 39 1 0 0 
SMALL
USER_CHARGES


@<TRIPOS>ATOM
  1 CL       0.1430     0.0060    -0.0940 Cl    1 <1>  -0.1770 
  2 C        1.6910    -0.7800     0.1140 C.ar  1 <1>   0.1770 
  3 C        1.7710    -2.1340     0.3880 C.ar  1 <1>   0.1900 
  4 C        2.8460    -0.0300     0.0030 C.ar  1 <1>  -0.1500 
  5 F        0.6820    -2.8480     0.4940 F     1 <1>  -0.1900 
  6 C        2.9930    -2.7560     0.5530 C.ar  1 <1>  -0.1500 
  7 C        4.1020    -0.6230     0.1630 C.ar  1 <1>   0.0530 
  8 C        4.1460    -1.9950     0.4400 C.ar  1 <1>  -0.1500 
  9 C        5.3130     0.1600     0.0470 C.2   1 <1>   0.0870 
 10 O        6.5000    -0.4100     0.2190 O.3   1 <1>  -0.2800 
 11 C        5.5090     1.4770    -0.2270 C.2   1 <1>  -0.1500 
 12 C        7.4420     0.4950     0.0650 C.2   1 <1>  -0.0400 
 13 C        6.8870     1.6970    -0.2150 C.2   1 <1>  -0.1500 
 14 C        8.8780     0.0360     0.2240 C.3   1 <1>   0.5230 
 15 N        9.8010     1.1300    -0.1450 N.4   1 <1>  -0.9060 
 16 C       11.2360     0.8230     0.0220 C.3   1 <1>   0.4230 
 17 C       11.9840     2.1430     0.3240 C.3   1 <1>   0.1200 
 18 C       11.7570     0.1090    -1.2330 C.3   1 <1>  -0.1600 
 19 O       11.1580     2.9930     1.0700 O.3   1 <1>  -0.6800 
 20 C       13.2210    -0.3360    -1.0960 C.3   1 <1>  -0.2400 
 21 H        2.7610     1.0190    -0.2090 H     1 <1>   0.1500 
 22 H        3.0370    -3.8090     0.7660 H     1 <1>   0.1500 
 23 H        5.0990    -2.4770     0.5680 H     1 <1>   0.1500 
 24 H        4.7670     2.2330    -0.4190 H     1 <1>   0.1500 
 25 H        7.3460     2.6530    -0.3970 H     1 <1>   0.1500 
 26 H        9.0430    -0.8170    -0.4150 H     1 <1>   0.0800 
 27 H        9.0420    -0.2650     1.2460 H     1 <1>   0.0800 
 28 H        9.6480     1.9370     0.4870 H     1 <1>   0.4500 
 29 H        9.6040     1.4640    -1.0910 H     1 <1>   0.4500 
 30 H       11.3640     0.1740     0.8740 H     1 <1>   0.0800 
 31 H       12.2500     2.6520    -0.5870 H     1 <1>   0.0800 
 32 H       12.8810     1.9460     0.8880 H     1 <1>   0.0800 
 33 H       11.6740     0.7580    -2.0890 H     1 <1>   0.0800 
 34 H       11.1640    -0.7700    -1.4200 H     1 <1>   0.0800 
 35 H       11.6490     3.7970     1.3580 H     1 <1>   0.4000 
 36 H       13.8820     0.5060    -0.9920 H     1 <1>   0.0800 
 37 H       13.5200    -0.8800    -1.9770 H     1 <1>   0.0800 
 38 H       13.3490    -0.9860    -0.2470 H     1 <1>   0.0800 
@<TRIPOS>BOND
  1   1   2  1   
  2   2   3  ar  
  3   2   4  ar  
  4   3   5  1   
  5   3   6  ar  
  6   4   7  ar  
  7   4  21  1   
  8   6   8  ar  
  9   6  22  1   
 10   7   8  ar  
 11   7   9  1   
 12   8  23  1   
 13   9  10  1   
 14   9  11  2   
 15  10  12  1   
 16  11  13  1   
 17  11  24  1   
 18  12  13  2   
 19  12  14  1   
 20  13  25  1   
 21  14  15  1   
 22  14  26  1   
 23  14  27  1   
 24  15  16  1   
 25  15  28  1   
 26  15  29  1   
 27  16  17  1   
 28  16  18  1   
 29  16  30  1   
 30  17  19  1   
 31  17  31  1   
 32  17  32  1   
 33  18  20  1   
 34  18  33  1   
 35  18  34  1   
 36  19  35  1   
 37  20  36  1   
 38  20  37  1   
 39  20  38  1   
@<TRIPOS>SUBSTRUCTURE
  1 ****  10 GROUP 4 **** **** 0

# MOE 2024.06 (io_trps.svl 2023.06)
