@<TRIPOS>MOLECULE
NONAME
26 26 1 0 0 
SMALL
USER_CHARGES


@<TRIPOS>ATOM
  1 S        0.1000    -0.0780    -0.3880 S.3   1 <1>  -0.0800 
  2 C        1.2420     1.2170    -0.1520 C.2   1 <1>   0.0960 
  3 C       -1.2380     1.0440    -0.2850 C.2   1 <1>  -0.1400 
  4 S        2.9750     0.7570    -0.1470 S.3   1 <1>  -0.2860 
  5 C        0.6440     2.4300    -0.0120 C.2   1 <1>  -0.0860 
  6 C       -0.8100     2.3190    -0.0820 C.2   1 <1>  -0.2330 
  7 C       -2.6340     0.4610    -0.4260 C.3   1 <1>   0.0200 
  8 C        3.0240    -1.0740    -0.3730 C.3   1 <1>   0.0700 
  9 C        1.3190     3.6950     0.1620 C.2   1 <1>   0.5960 
 10 C       -1.6780     3.4760     0.0650 C.2   1 <1>   1.0330 
 11 C       -3.0090    -0.3700     0.8040 C.3   1 <1>  -0.2400 
 12 C        4.4890    -1.5080    -0.3620 C.3   1 <1>  -0.2400 
 13 O        2.5120     3.8460     0.2750 O.2   1 <1>  -0.5700 
 14 O       -2.6430     3.6510    -0.6950 O.co2 1 <1>  -0.9000 
 15 O       -1.4440     4.3200     0.9440 O.co2 1 <1>  -0.9000 
 16 H       -2.6770    -0.1470    -1.3120 H     1 <1>   0.0800 
 17 H       -3.3500     1.2550    -0.5420 H     1 <1>   0.0800 
 18 H        2.5520    -1.2960    -1.3140 H     1 <1>   0.0800 
 19 H        2.4740    -1.5140     0.4400 H     1 <1>   0.0800 
 20 H        0.7270     4.5880     0.1710 H     1 <1>   0.0600 
 21 H       -2.3350    -1.1990     0.9190 H     1 <1>   0.0800 
 22 H       -4.0110    -0.7450     0.7030 H     1 <1>   0.0800 
 23 H       -2.9560     0.2470     1.6850 H     1 <1>   0.0800 
 24 H        5.0220    -1.0250    -1.1610 H     1 <1>   0.0800 
 25 H        4.5580    -2.5730    -0.4920 H     1 <1>   0.0800 
 26 H        4.9450    -1.2420     0.5750 H     1 <1>   0.0800 
@<TRIPOS>BOND
  1   1   2  1   
  2   1   3  1   
  3   2   4  1   
  4   2   5  2   
  5   3   6  2   
  6   3   7  1   
  7   4   8  1   
  8   5   6  1   
  9   5   9  1   
 10   6  10  1   
 11   7  11  1   
 12   7  16  1   
 13   7  17  1   
 14   8  12  1   
 15   8  18  1   
 16   8  19  1   
 17   9  13  2   
 18   9  20  1   
 19  10  14  ar  
 20  10  15  ar  
 21  11  21  1   
 22  11  22  1   
 23  11  23  1   
 24  12  24  1   
 25  12  25  1   
 26  12  26  1   
@<TRIPOS>SUBSTRUCTURE
  1 ****   5 GROUP 4 **** **** 0

# MOE 2024.06 (io_trps.svl 2023.06)
