@<TRIPOS>MOLECULE
NONAME
40 41 1 0 0 
SMALL
USER_CHARGES


@<TRIPOS>ATOM
  1 BR       5.0020    -1.8530     4.6930 Br    1 <1>  -0.1110 
  2 C        5.0460    -1.4960     2.8020 C.ar  1 <1>   0.1110 
  3 C        5.0170    -2.5610     1.9220 C.ar  1 <1>  -0.1500 
  4 C        5.1030    -0.1830     2.3730 C.ar  1 <1>  -0.1500 
  5 C        5.0480    -2.3030     0.5620 C.ar  1 <1>  -0.1500 
  6 C        5.1330     0.0640     1.0110 C.ar  1 <1>  -0.1500 
  7 C        5.1120    -0.9860     0.1020 C.ar  1 <1>   0.0830 
  8 O        5.1650    -0.6420    -1.2100 O.3   1 <1>  -0.3630 
  9 C        5.3410    -1.6040    -2.2430 C.3   1 <1>   0.2610 
 10 C        6.6690    -2.3860    -2.1370 C.2   1 <1>   0.5690 
 11 C        5.1770    -0.8800    -3.5850 C.3   1 <1>  -0.2400 
 12 O        6.5750    -3.5860    -2.2760 O.2   1 <1>  -0.5700 
 13 N        7.9000    -1.8000    -1.9090 N.am  1 <1>  -0.6600 
 14 C        8.1520    -0.3380    -1.7580 C.3   1 <1>   0.1400 
 15 C        9.1140    -2.6360    -1.6930 C.3   1 <1>   0.1400 
 16 C        8.6980    -0.0530    -0.3560 C.3   1 <1>  -0.1600 
 17 C        9.6680    -2.3790    -0.2880 C.3   1 <1>  -0.1600 
 18 C        9.9590    -0.8850    -0.0590 C.3   1 <1>  -0.0190 
 19 C       10.4860    -0.6350     1.3530 C.2   1 <1>   0.5690 
 20 O        9.7530    -0.7000     2.3060 O.2   1 <1>  -0.5700 
 21 N       11.7870    -0.3410     1.5350 N.am  1 <1>  -0.8000 
 22 H        4.9740    -3.5680     2.2950 H     1 <1>   0.1500 
 23 H        5.1260     0.6200     3.0870 H     1 <1>   0.1500 
 24 H        5.0240    -3.1380    -0.1130 H     1 <1>   0.1500 
 25 H        5.1780     1.0740     0.6460 H     1 <1>   0.1500 
 26 H        4.5330    -2.3070    -2.1500 H     1 <1>   0.0800 
 27 H        5.9530    -0.1520    -3.7260 H     1 <1>   0.0800 
 28 H        4.2180    -0.3970    -3.6280 H     1 <1>   0.0800 
 29 H        5.2350    -1.5960    -4.3850 H     1 <1>   0.0800 
 30 H        7.2620     0.2380    -1.9190 H     1 <1>   0.0800 
 31 H        8.8740    -0.0340    -2.4970 H     1 <1>   0.0800 
 32 H        9.8520    -2.3840    -2.4350 H     1 <1>   0.0800 
 33 H        8.8860    -3.6830    -1.7980 H     1 <1>   0.0800 
 34 H        7.9340    -0.2840     0.3670 H     1 <1>   0.0800 
 35 H        8.9240     0.9940    -0.2660 H     1 <1>   0.0800 
 36 H       10.5680    -2.9510    -0.1510 H     1 <1>   0.0800 
 37 H        8.9490    -2.7230     0.4360 H     1 <1>   0.0800 
 38 H       10.7220    -0.5850    -0.7540 H     1 <1>   0.0800 
 39 H       12.1250    -0.1820     2.4850 H     1 <1>   0.3700 
 40 H       12.4750    -0.2760     0.7880 H     1 <1>   0.3700 
@<TRIPOS>BOND
  1   1   2  1   
  2   2   3  ar  
  3   2   4  ar  
  4   3   5  ar  
  5   3  22  1   
  6   4   6  ar  
  7   4  23  1   
  8   5   7  ar  
  9   5  24  1   
 10   6   7  ar  
 11   6  25  1   
 12   7   8  1   
 13   8   9  1   
 14   9  10  1   
 15   9  11  1   
 16   9  26  1   
 17  10  12  2   
 18  10  13  am  
 19  11  27  1   
 20  11  28  1   
 21  11  29  1   
 22  13  14  1   
 23  13  15  1   
 24  14  16  1   
 25  14  30  1   
 26  14  31  1   
 27  15  17  1   
 28  15  32  1   
 29  15  33  1   
 30  16  18  1   
 31  16  34  1   
 32  16  35  1   
 33  17  18  1   
 34  17  36  1   
 35  17  37  1   
 36  18  19  1   
 37  18  38  1   
 38  19  20  2   
 39  19  21  am  
 40  21  39  1   
 41  21  40  1   
@<TRIPOS>SUBSTRUCTURE
  1 ****   7 GROUP 4 **** **** 0

# MOE 2024.06 (io_trps.svl 2023.06)
