@<TRIPOS>MOLECULE
NONAME
54 58 1 0 0 
SMALL
USER_CHARGES


@<TRIPOS>ATOM
  1 S       -0.4810    -0.1720    -0.7040 S.3   1 <1>  -0.0800 
  2 C       -1.9130     0.7550    -0.2520 C.ar  1 <1>   0.2970 
  3 C        0.5390     1.2770    -0.7160 C.ar  1 <1>   0.0400 
  4 N       -3.0550     0.1370    -0.0640 N.ar  1 <1>  -0.5670 
  5 C       -1.6150     2.1070    -0.1460 C.ar  1 <1>   0.0000 
  6 C        1.8820     1.4340    -0.9870 C.ar  1 <1>   0.4120 
  7 C       -0.2190     2.3880    -0.4150 C.ar  1 <1>   0.2560 
  8 C       -4.0460     0.9470     0.2810 C.ar  1 <1>   0.4100 
  9 C       -2.6770     2.9460     0.2020 C.ar  1 <1>  -0.1430 
 10 S        3.0120     0.0910    -1.3790 S.3   1 <1>  -0.3320 
 11 N        2.4510     2.6180    -0.9860 N.ar  1 <1>  -0.6200 
 12 N        0.3540     3.5890    -0.3930 N.ar  1 <1>  -0.5660 
 13 N       -5.2710     0.3390     0.4630 N.pl3 1 <1>  -0.8380 
 14 C       -3.9020     2.3400     0.4360 C.ar  1 <1>  -0.1430 
 15 C       -2.4770     4.4560     0.3300 C.3   1 <1>  -0.0170 
 16 C        2.4290    -1.4190    -0.4920 C.3   1 <1>   0.0700 
 17 C        1.6430     3.6260    -0.6840 C.ar  1 <1>   0.4700 
 18 C       -6.1630     0.2330    -0.7270 C.3   1 <1>   0.2090 
 19 C       -5.3540    -0.8570     1.3570 C.3   1 <1>   0.2090 
 20 C       -5.1200     3.1630     0.8640 C.3   1 <1>  -0.0170 
 21 C       -3.7900     5.2400     0.4250 C.3   1 <1>  -0.1600 
 22 C        3.6290    -2.3430    -0.2940 C.3   1 <1>  -0.0990 
 23 C       -6.0400    -1.1450    -1.4020 C.3   1 <1>   0.1200 
 24 C       -5.3020    -2.1740     0.5590 C.3   1 <1>   0.1200 
 25 C       -4.7540     4.5530     1.3900 C.3   1 <1>  -0.1600 
 26 C        3.1950    -3.6060     0.4080 C.2   1 <1>   0.6590 
 27 O       -6.2460    -2.1760    -0.4770 O.3   1 <1>  -0.5600 
 28 O        3.4000    -3.7780     1.5800 O.2   1 <1>  -0.5700 
 29 O        2.5580    -4.4960    -0.3420 O.3   1 <1>  -0.4300 
 30 C        2.0860    -5.7140     0.1960 C.3   1 <1>   0.0400 
 31 H       -1.9330     4.8250    -0.5200 H     1 <1>   0.0800 
 32 H       -1.8870     4.6450     1.2100 H     1 <1>   0.0800 
 33 H        1.6770    -1.8850    -1.1040 H     1 <1>   0.0800 
 34 H        2.0180    -1.1080     0.4530 H     1 <1>   0.0800 
 35 H        2.1000     4.6020    -0.6740 H     1 <1>   0.1500 
 36 H       -5.9090     0.9990    -1.4390 H     1 <1>   0.0800 
 37 H       -7.1820     0.3880    -0.4210 H     1 <1>   0.0800 
 38 H       -6.2740    -0.8170     1.9120 H     1 <1>   0.0800 
 39 H       -4.5410    -0.8370     2.0620 H     1 <1>   0.0800 
 40 H       -5.6610     2.6410     1.6340 H     1 <1>   0.0800 
 41 H       -5.7740     3.2650     0.0160 H     1 <1>   0.0800 
 42 H       -4.2420     5.2960    -0.5500 H     1 <1>   0.0800 
 43 H       -3.5860     6.2440     0.7570 H     1 <1>   0.0800 
 44 H        4.3740    -1.8490     0.3020 H     1 <1>   0.0800 
 45 H        4.0590    -2.6000    -1.2440 H     1 <1>   0.0800 
 46 H       -5.0610    -1.2610    -1.8350 H     1 <1>   0.0800 
 47 H       -6.7770    -1.2470    -2.1780 H     1 <1>   0.0800 
 48 H       -5.5180    -3.0060     1.2030 H     1 <1>   0.0800 
 49 H       -4.3230    -2.3120     0.1320 H     1 <1>   0.0800 
 50 H       -4.2890     4.4590     2.3570 H     1 <1>   0.0800 
 51 H       -5.6470     5.1430     1.5040 H     1 <1>   0.0800 
 52 H        1.6150    -6.2750    -0.5910 H     1 <1>   0.0800 
 53 H        1.3760    -5.4980     0.9760 H     1 <1>   0.0800 
 54 H        2.9200    -6.2640     0.5970 H     1 <1>   0.0800 
@<TRIPOS>BOND
  1   1   2  1   
  2   1   3  1   
  3   2   4  ar  
  4   2   5  ar  
  5   3   6  ar  
  6   3   7  ar  
  7   4   8  ar  
  8   5   7  1   
  9   5   9  ar  
 10   6  10  1   
 11   6  11  ar  
 12   7  12  ar  
 13   8  13  1   
 14   8  14  ar  
 15   9  14  ar  
 16   9  15  1   
 17  10  16  1   
 18  11  17  ar  
 19  12  17  ar  
 20  13  18  1   
 21  13  19  1   
 22  14  20  1   
 23  15  21  1   
 24  15  31  1   
 25  15  32  1   
 26  16  22  1   
 27  16  33  1   
 28  16  34  1   
 29  17  35  1   
 30  18  23  1   
 31  18  36  1   
 32  18  37  1   
 33  19  24  1   
 34  19  38  1   
 35  19  39  1   
 36  20  25  1   
 37  20  40  1   
 38  20  41  1   
 39  21  25  1   
 40  21  42  1   
 41  21  43  1   
 42  22  26  1   
 43  22  44  1   
 44  22  45  1   
 45  23  27  1   
 46  23  46  1   
 47  23  47  1   
 48  24  27  1   
 49  24  48  1   
 50  24  49  1   
 51  25  50  1   
 52  25  51  1   
 53  26  28  2   
 54  26  29  1   
 55  29  30  1   
 56  30  52  1   
 57  30  53  1   
 58  30  54  1   
@<TRIPOS>SUBSTRUCTURE
  1 ****   2 GROUP 4 **** **** 0

# MOE 2024.06 (io_trps.svl 2023.06)
