@<TRIPOS>MOLECULE
NONAME
45 47 1 0 0 
SMALL
USER_CHARGES


@<TRIPOS>ATOM
  1 BR       0.8390     0.2460     1.2080 Br    1 <1>  -0.1110 
  2 C        0.1830    -1.5050     0.7300 C.ar  1 <1>   0.1110 
  3 C        0.9110    -2.3140    -0.1260 C.ar  1 <1>   0.0820 
  4 C       -1.0250    -1.9060     1.2650 C.ar  1 <1>  -0.1500 
  5 O        2.0870    -1.9100    -0.6490 O.3   1 <1>  -0.5330 
  6 C        0.4170    -3.5740    -0.4500 C.ar  1 <1>   0.0830 
  7 C       -1.5320    -3.1550     0.9280 C.ar  1 <1>  -0.1430 
  8 O        1.1720    -4.3420    -1.2860 O.3   1 <1>  -0.3630 
  9 C       -0.8050    -3.9860     0.0800 C.ar  1 <1>  -0.1500 
 10 C       -2.8750    -3.5970     1.4820 C.3   1 <1>   0.4860 
 11 C        0.9130    -5.7180    -1.4660 C.3   1 <1>   0.0400 
 12 N       -3.9070    -3.4400     0.4210 N.4   1 <1>  -0.9590 
 13 C       -4.0540    -2.0000    -0.0200 C.3   1 <1>   0.3430 
 14 C       -5.2390    -4.0050     0.8530 C.3   1 <1>   0.3430 
 15 C       -5.1180    -1.8170    -1.1230 C.3   1 <1>   0.2090 
 16 C       -6.3250    -3.8750    -0.2370 C.3   1 <1>   0.2090 
 17 N       -6.4070    -2.4760    -0.7520 N.pl3 1 <1>  -0.8380 
 18 C       -7.5490    -1.7240    -0.4830 C.ar  1 <1>   0.1000 
 19 C       -8.7730    -2.1270    -1.0020 C.ar  1 <1>  -0.1500 
 20 C       -7.5050    -0.5730     0.3020 C.ar  1 <1>  -0.1500 
 21 C       -9.9120    -1.3950    -0.7320 C.ar  1 <1>   0.1770 
 22 C       -8.6520     0.1570     0.5670 C.ar  1 <1>  -0.1500 
 23 CL     -11.4410    -1.9200    -1.3890 Cl    1 <1>  -0.1770 
 24 C       -9.8680    -0.2550     0.0480 C.ar  1 <1>  -0.1500 
 25 H       -1.5430    -1.2370     1.9310 H     1 <1>   0.1500 
 26 H        2.4650    -2.6130    -1.2150 H     1 <1>   0.4500 
 27 H       -1.1920    -4.9570    -0.1690 H     1 <1>   0.1500 
 28 H       -3.1310    -3.0000     2.3430 H     1 <1>   0.0800 
 29 H       -2.8110    -4.6280     1.7900 H     1 <1>   0.0800 
 30 H        1.7000    -6.1280    -2.0740 H     1 <1>   0.0800 
 31 H       -0.0290    -5.8360    -1.9690 H     1 <1>   0.0800 
 32 H        0.9070    -6.2030    -0.5060 H     1 <1>   0.0800 
 33 H       -3.5870    -3.9650    -0.4010 H     1 <1>   0.4500 
 34 H       -3.1110    -1.6290    -0.3880 H     1 <1>   0.0800 
 35 H       -4.3390    -1.3930     0.8230 H     1 <1>   0.0800 
 36 H       -5.5860    -3.4810     1.7280 H     1 <1>   0.0800 
 37 H       -5.1320    -5.0450     1.1130 H     1 <1>   0.0800 
 38 H       -4.7610    -2.2420    -2.0450 H     1 <1>   0.0800 
 39 H       -5.2820    -0.7670    -1.2990 H     1 <1>   0.0800 
 40 H       -7.2760    -4.1660     0.1770 H     1 <1>   0.0800 
 41 H       -6.1070    -4.5400    -1.0540 H     1 <1>   0.0800 
 42 H       -8.8370    -3.0020    -1.6200 H     1 <1>   0.1500 
 43 H       -6.5730    -0.2430     0.7160 H     1 <1>   0.1500 
 44 H       -8.6030     1.0450     1.1740 H     1 <1>   0.1500 
 45 H      -10.7700     0.2980     0.2410 H     1 <1>   0.1500 
@<TRIPOS>BOND
  1   1   2  1   
  2   2   3  ar  
  3   2   4  ar  
  4   3   5  1   
  5   3   6  ar  
  6   4   7  ar  
  7   4  25  1   
  8   5  26  1   
  9   6   8  1   
 10   6   9  ar  
 11   7   9  ar  
 12   7  10  1   
 13   8  11  1   
 14   9  27  1   
 15  10  12  1   
 16  10  28  1   
 17  10  29  1   
 18  11  30  1   
 19  11  31  1   
 20  11  32  1   
 21  12  13  1   
 22  12  14  1   
 23  12  33  1   
 24  13  15  1   
 25  13  34  1   
 26  13  35  1   
 27  14  16  1   
 28  14  36  1   
 29  14  37  1   
 30  15  17  1   
 31  15  38  1   
 32  15  39  1   
 33  16  17  1   
 34  16  40  1   
 35  16  41  1   
 36  17  18  1   
 37  18  19  ar  
 38  18  20  ar  
 39  19  21  ar  
 40  19  42  1   
 41  20  22  ar  
 42  20  43  1   
 43  21  23  1   
 44  21  24  ar  
 45  22  24  ar  
 46  22  44  1   
 47  24  45  1   
@<TRIPOS>SUBSTRUCTURE
  1 ****  13 GROUP 4 **** **** 0

# MOE 2024.06 (io_trps.svl 2023.06)
