@<TRIPOS>MOLECULE
NONAME
41 43 1 0 0 
SMALL
USER_CHARGES


@<TRIPOS>ATOM
  1 O        0.2590     0.3610     0.0660 O.3   1 <1>  -0.3630 
  2 C       -0.9490     0.9580    -0.1000 C.ar  1 <1>   0.0830 
  3 C        1.4690     1.0580    -0.0780 C.3   1 <1>   0.1200 
  4 C       -2.0960     0.1400     0.0700 C.ar  1 <1>   0.0000 
  5 C       -1.0830     2.2920    -0.4200 C.ar  1 <1>  -0.1500 
  6 C        2.5970     0.0580     0.1750 C.3   1 <1>  -0.1600 
  7 C       -3.3740     0.7210    -0.0950 C.ar  1 <1>   0.0000 
  8 C       -2.0310    -1.2320     0.3990 C.ar  1 <1>  -0.1500 
  9 C       -2.3500     2.8570    -0.5810 C.ar  1 <1>  -0.1500 
 10 C        3.9600     0.7300     0.0270 C.3   1 <1>   0.3430 
 11 C       -3.4680     2.0870    -0.4220 C.ar  1 <1>  -0.1500 
 12 C       -4.5200    -0.0840     0.0710 C.ar  1 <1>  -0.1500 
 13 C       -3.1580    -1.9910     0.5550 C.ar  1 <1>  -0.1500 
 14 N        5.0450    -0.2360     0.3500 N.4   1 <1>  -0.9590 
 15 C       -4.4190    -1.4100     0.3890 C.ar  1 <1>  -0.1500 
 16 C        6.3790     0.4050     0.4440 C.3   1 <1>   0.3430 
 17 C        5.1970    -1.3390    -0.6340 C.3   1 <1>   0.3430 
 18 C        7.3630    -0.7500     0.3170 C.3   1 <1>  -0.1600 
 19 C        6.6010    -1.8750    -0.3900 C.3   1 <1>  -0.1600 
 20 H        1.4840     1.8580     0.6440 H     1 <1>   0.0800 
 21 H        1.5120     1.4530    -1.0790 H     1 <1>   0.0800 
 22 H       -0.2380     2.9390    -0.5550 H     1 <1>   0.1500 
 23 H        2.4980    -0.7430    -0.5360 H     1 <1>   0.0800 
 24 H        2.4890    -0.3290     1.1720 H     1 <1>   0.0800 
 25 H       -1.0650    -1.6840     0.5280 H     1 <1>   0.1500 
 26 H       -2.4320     3.9010    -0.8310 H     1 <1>   0.1500 
 27 H        4.0120     1.5690     0.7020 H     1 <1>   0.0800 
 28 H        4.0810     1.0980    -0.9800 H     1 <1>   0.0800 
 29 H       -4.4450     2.5180    -0.5460 H     1 <1>   0.1500 
 30 H       -5.4860     0.3690    -0.0580 H     1 <1>   0.1500 
 31 H       -3.0920    -3.0350     0.8050 H     1 <1>   0.1500 
 32 H        4.8490    -0.6670     1.2640 H     1 <1>   0.4500 
 33 H       -5.2970    -2.0180     0.5150 H     1 <1>   0.1500 
 34 H        6.5060     0.9370     1.3740 H     1 <1>   0.0800 
 35 H        6.5180     1.0850    -0.3820 H     1 <1>   0.0800 
 36 H        5.1310    -0.9470    -1.6360 H     1 <1>   0.0800 
 37 H        4.4480    -2.1040    -0.4990 H     1 <1>   0.0800 
 38 H        7.6800    -1.0690     1.2960 H     1 <1>   0.0800 
 39 H        8.2330    -0.4440    -0.2390 H     1 <1>   0.0800 
 40 H        7.0650    -2.1480    -1.3220 H     1 <1>   0.0800 
 41 H        6.5550    -2.7500     0.2360 H     1 <1>   0.0800 
@<TRIPOS>BOND
  1   1   2  1   
  2   1   3  1   
  3   2   4  ar  
  4   2   5  ar  
  5   3   6  1   
  6   3  20  1   
  7   3  21  1   
  8   4   7  ar  
  9   4   8  ar  
 10   5   9  ar  
 11   5  22  1   
 12   6  10  1   
 13   6  23  1   
 14   6  24  1   
 15   7  11  ar  
 16   7  12  ar  
 17   8  13  ar  
 18   8  25  1   
 19   9  11  ar  
 20   9  26  1   
 21  10  14  1   
 22  10  27  1   
 23  10  28  1   
 24  11  29  1   
 25  12  15  ar  
 26  12  30  1   
 27  13  15  ar  
 28  13  31  1   
 29  14  16  1   
 30  14  17  1   
 31  14  32  1   
 32  15  33  1   
 33  16  18  1   
 34  16  34  1   
 35  16  35  1   
 36  17  19  1   
 37  17  36  1   
 38  17  37  1   
 39  18  19  1   
 40  18  38  1   
 41  18  39  1   
 42  19  40  1   
 43  19  41  1   
@<TRIPOS>SUBSTRUCTURE
  1 ****   1 GROUP 4 **** **** 0

# MOE 2024.06 (io_trps.svl 2023.06)
