@<TRIPOS>MOLECULE
NONAME
44 44 1 0 0 
SMALL
USER_CHARGES


@<TRIPOS>ATOM
  1 O       -8.0750     4.1030     1.4010 O.co2 1 <1>  -0.9000 
  2 C       -7.0960     3.7460     0.7390 C.2   1 <1>   1.0330 
  3 O       -6.2810     4.6150     0.3680 O.co2 1 <1>  -0.9000 
  4 C       -6.8360     2.3510     0.4130 C.2   1 <1>  -0.2330 
  5 C       -5.8480     1.8600    -0.4810 C.2   1 <1>  -0.1810 
  6 C       -7.4430     1.2200     0.8710 C.2   1 <1>  -0.0400 
  7 C       -5.9600     0.5160    -0.4860 C.2   1 <1>  -0.0400 
  8 C       -4.8740     2.7150    -1.2660 C.3   1 <1>   0.5240 
  9 O       -6.9150     0.1440     0.3350 O.3   1 <1>  -0.2800 
 10 C       -8.5770     1.0200     1.8560 C.3   1 <1>  -0.0600 
 11 C       -5.2180    -0.5660    -1.2550 C.3   1 <1>   0.0200 
 12 N       -3.9990     3.4700    -0.3360 N.4   1 <1>  -0.9590 
 13 C       -3.9490    -1.0660    -0.5380 C.3   1 <1>  -0.0800 
 14 C       -3.1820     4.4700    -1.0530 C.3   1 <1>   0.3430 
 15 C       -3.2980     2.6150     0.6510 C.3   1 <1>   0.3430 
 16 C       -3.2540    -2.1430    -1.3810 C.3   1 <1>  -0.2400 
 17 C       -4.2530    -1.6240     0.8590 C.3   1 <1>  -0.2400 
 18 C       -2.6500     5.5180    -0.0850 C.3   1 <1>  -0.2400 
 19 C       -3.6780     3.0530     2.0600 C.3   1 <1>  -0.2400 
 20 H       -5.4390     3.4090    -1.8680 H     1 <1>   0.0800 
 21 H       -4.2800     2.0930    -1.9130 H     1 <1>   0.0800 
 22 H       -8.9140     1.9570     2.2570 H     1 <1>   0.0800 
 23 H       -8.2460     0.3980     2.6660 H     1 <1>   0.0800 
 24 H       -9.4020     0.5430     1.3610 H     1 <1>   0.0800 
 25 H       -4.9460    -0.1770    -2.2200 H     1 <1>   0.0800 
 26 H       -5.8920    -1.3880    -1.4210 H     1 <1>   0.0800 
 27 H       -4.7250     4.0210     0.1920 H     1 <1>   0.4500 
 28 H       -3.2680    -0.2410    -0.4310 H     1 <1>   0.0800 
 29 H       -3.7990     4.9680    -1.7850 H     1 <1>   0.0800 
 30 H       -2.3660     3.9870    -1.5650 H     1 <1>   0.0800 
 31 H       -2.2320     2.6880     0.5160 H     1 <1>   0.0800 
 32 H       -3.5900     1.5860     0.5240 H     1 <1>   0.0800 
 33 H       -3.8960    -2.9980    -1.5060 H     1 <1>   0.0800 
 34 H       -2.3470    -2.4670    -0.9020 H     1 <1>   0.0800 
 35 H       -3.0010    -1.7600    -2.3540 H     1 <1>   0.0800 
 36 H       -4.9680    -2.4260     0.7970 H     1 <1>   0.0800 
 37 H       -4.6610    -0.8580     1.4950 H     1 <1>   0.0800 
 38 H       -3.3560    -1.9990     1.3210 H     1 <1>   0.0800 
 39 H       -3.4640     5.9660     0.4590 H     1 <1>   0.0800 
 40 H       -2.1520     6.2930    -0.6380 H     1 <1>   0.0800 
 41 H       -1.9420     5.0920     0.6020 H     1 <1>   0.0800 
 42 H       -3.4310     4.0840     2.2330 H     1 <1>   0.0800 
 43 H       -3.1490     2.4520     2.7760 H     1 <1>   0.0800 
 44 H       -4.7310     2.9120     2.2260 H     1 <1>   0.0800 
@<TRIPOS>BOND
  1   1   2  ar  
  2   2   3  ar  
  3   2   4  1   
  4   4   5  1   
  5   4   6  2   
  6   5   7  2   
  7   5   8  1   
  8   6   9  1   
  9   6  10  1   
 10   7   9  1   
 11   7  11  1   
 12   8  12  1   
 13   8  20  1   
 14   8  21  1   
 15  10  22  1   
 16  10  23  1   
 17  10  24  1   
 18  11  13  1   
 19  11  25  1   
 20  11  26  1   
 21  12  14  1   
 22  12  15  1   
 23  12  27  1   
 24  13  16  1   
 25  13  17  1   
 26  13  28  1   
 27  14  18  1   
 28  14  29  1   
 29  14  30  1   
 30  15  19  1   
 31  15  31  1   
 32  15  32  1   
 33  16  33  1   
 34  16  34  1   
 35  16  35  1   
 36  17  36  1   
 37  17  37  1   
 38  17  38  1   
 39  18  39  1   
 40  18  40  1   
 41  18  41  1   
 42  19  42  1   
 43  19  43  1   
 44  19  44  1   
@<TRIPOS>SUBSTRUCTURE
  1 ****   5 GROUP 4 **** **** 0

# MOE 2024.06 (io_trps.svl 2023.06)
