@<TRIPOS>MOLECULE
NONAME
35 36 1 0 0 
SMALL
USER_CHARGES


@<TRIPOS>ATOM
  1 O       -0.3020    -0.4320    -0.7720 O.2   1 <1>  -0.5700 
  2 C       -0.9330    -1.3510    -0.3210 C.2   1 <1>   0.5690 
  3 N       -0.3050    -2.5090     0.0040 N.am  1 <1>  -0.4900 
  4 C       -2.4440    -1.2300    -0.0860 C.3   1 <1>  -0.0190 
  5 C       -0.8750    -3.6220     0.5260 C.2   1 <1>   0.5690 
  6 C       -3.1230    -2.6200    -0.0740 C.3   1 <1>  -0.1600 
  7 C       -3.1020    -0.2900    -1.1170 C.3   1 <1>  -0.0170 
  8 O       -0.2210    -4.6030     0.7520 O.2   1 <1>  -0.5700 
  9 C       -2.3620    -3.6050     0.8300 C.3   1 <1>  -0.0990 
 10 C       -4.5970    -0.1280    -0.8770 C.ar  1 <1>  -0.1440 
 11 C       -5.0550     0.6910     0.1450 C.ar  1 <1>  -0.1500 
 12 C       -5.5150    -0.7990    -1.6710 C.ar  1 <1>  -0.1500 
 13 C       -6.4120     0.8350     0.3780 C.ar  1 <1>  -0.1500 
 14 C       -6.8720    -0.6580    -1.4400 C.ar  1 <1>  -0.1500 
 15 C       -7.3310     0.1550    -0.4170 C.ar  1 <1>   0.0820 
 16 O       -8.6750     0.2350    -0.2580 O.3   1 <1>  -0.3630 
 17 C       -9.2490     1.0640     0.7260 C.3   1 <1>   0.1200 
 18 C      -10.7660     0.9380     0.6220 C.3   1 <1>  -0.2400 
 19 H        0.6950    -2.5500    -0.1730 H     1 <1>   0.3700 
 20 H       -2.5690    -0.7890     0.8870 H     1 <1>   0.0800 
 21 H       -3.1430    -3.0140    -1.0760 H     1 <1>   0.0800 
 22 H       -4.1410    -2.5380     0.2690 H     1 <1>   0.0800 
 23 H       -2.9310    -0.6670    -2.1110 H     1 <1>   0.0800 
 24 H       -2.6410     0.6820    -1.0650 H     1 <1>   0.0800 
 25 H       -2.4890    -3.3280     1.8610 H     1 <1>   0.0800 
 26 H       -2.7570    -4.5970     0.7030 H     1 <1>   0.0800 
 27 H       -4.3530     1.2230     0.7640 H     1 <1>   0.1500 
 28 H       -5.1810    -1.4340    -2.4720 H     1 <1>   0.1500 
 29 H       -6.7320     1.4760     1.1760 H     1 <1>   0.1500 
 30 H       -7.5860    -1.1770    -2.0520 H     1 <1>   0.1500 
 31 H       -8.9380     2.0770     0.5410 H     1 <1>   0.0800 
 32 H       -8.9050     0.7350     1.6910 H     1 <1>   0.0800 
 33 H      -11.0960     1.2520    -0.3520 H     1 <1>   0.0800 
 34 H      -11.2350     1.5600     1.3620 H     1 <1>   0.0800 
 35 H      -11.0640    -0.0820     0.7910 H     1 <1>   0.0800 
@<TRIPOS>BOND
  1   1   2  2   
  2   2   3  am  
  3   2   4  1   
  4   3   5  am  
  5   3  19  1   
  6   4   6  1   
  7   4   7  1   
  8   4  20  1   
  9   5   8  2   
 10   5   9  1   
 11   6   9  1   
 12   6  21  1   
 13   6  22  1   
 14   7  10  1   
 15   7  23  1   
 16   7  24  1   
 17   9  25  1   
 18   9  26  1   
 19  10  11  ar  
 20  10  12  ar  
 21  11  13  ar  
 22  11  27  1   
 23  12  14  ar  
 24  12  28  1   
 25  13  15  ar  
 26  13  29  1   
 27  14  15  ar  
 28  14  30  1   
 29  15  16  1   
 30  16  17  1   
 31  17  18  1   
 32  17  31  1   
 33  17  32  1   
 34  18  33  1   
 35  18  34  1   
 36  18  35  1   
@<TRIPOS>SUBSTRUCTURE
  1 ****  10 GROUP 4 **** **** 0

# MOE 2024.06 (io_trps.svl 2023.06)
