@<TRIPOS>MOLECULE
NONAME
39 39 1 0 0 
SMALL
USER_CHARGES


@<TRIPOS>ATOM
  1 O        1.8820    -5.2610    -0.0470 O.2   1 <1>  -0.5700 
  2 C        1.8500    -4.0520     0.0430 C.2   1 <1>   0.6340 
  3 O        0.6470    -3.4600     0.0570 O.3   1 <1>  -0.4300 
  4 C        3.0370    -3.2200     0.1370 C.ar  1 <1>   0.0860 
  5 C       -0.5330    -4.2300    -0.0370 C.3   1 <1>   0.1200 
  6 C        4.3120    -3.7900     0.1210 C.ar  1 <1>  -0.1500 
  7 C        2.9650    -1.8280     0.2460 C.ar  1 <1>  -0.1500 
  8 C       -1.7410    -3.2880     0.0240 C.3   1 <1>   0.3430 
  9 C        5.4550    -3.0160     0.2090 C.ar  1 <1>  -0.1500 
 10 C        4.1040    -1.0480     0.3350 C.ar  1 <1>  -0.1500 
 11 N       -3.0540    -4.0000    -0.2020 N.4   1 <1>  -0.9590 
 12 C        5.3520    -1.6410     0.3160 C.ar  1 <1>  -0.1500 
 13 C       -4.2040    -3.0750    -0.4380 C.3   1 <1>   0.5030 
 14 C       -3.2980    -5.0010     0.8960 C.3   1 <1>   0.2630 
 15 C       -4.4540    -2.1780     0.7790 C.3   1 <1>  -0.2400 
 16 C       -5.4590    -3.9010    -0.7380 C.3   1 <1>  -0.2400 
 17 C       -3.9070    -2.2110    -1.6680 C.3   1 <1>  -0.2400 
 18 H       -0.5350    -4.9260     0.7830 H     1 <1>   0.0800 
 19 H       -0.5050    -4.7600    -0.9740 H     1 <1>   0.0800 
 20 H        4.4090    -4.8590     0.0380 H     1 <1>   0.1500 
 21 H        2.0060    -1.3420     0.2630 H     1 <1>   0.1500 
 22 H       -1.6000    -2.5380    -0.7340 H     1 <1>   0.0800 
 23 H       -1.7550    -2.8010     0.9850 H     1 <1>   0.0800 
 24 H        6.4250    -3.4830     0.1940 H     1 <1>   0.1500 
 25 H        4.0220     0.0230     0.4180 H     1 <1>   0.1500 
 26 H       -2.9650    -4.5240    -1.0820 H     1 <1>   0.4500 
 27 H        6.2410    -1.0360     0.3850 H     1 <1>   0.1500 
 28 H       -3.4140    -4.5000     1.8430 H     1 <1>   0.0800 
 29 H       -2.4740    -5.6910     0.9710 H     1 <1>   0.0800 
 30 H       -4.1890    -5.5740     0.6980 H     1 <1>   0.0800 
 31 H       -4.6990    -2.7530     1.6520 H     1 <1>   0.0800 
 32 H       -5.2890    -1.5290     0.5810 H     1 <1>   0.0800 
 33 H       -3.6080    -1.5510     0.9910 H     1 <1>   0.0800 
 34 H       -5.2840    -4.5950    -1.5410 H     1 <1>   0.0800 
 35 H       -6.2620    -3.2510    -1.0390 H     1 <1>   0.0800 
 36 H       -5.8070    -4.4340     0.1280 H     1 <1>   0.0800 
 37 H       -3.6460    -2.8190    -2.5150 H     1 <1>   0.0800 
 38 H       -3.1250    -1.4980    -1.4820 H     1 <1>   0.0800 
 39 H       -4.7810    -1.6410    -1.9330 H     1 <1>   0.0800 
@<TRIPOS>BOND
  1   1   2  2   
  2   2   3  1   
  3   2   4  1   
  4   3   5  1   
  5   4   6  ar  
  6   4   7  ar  
  7   5   8  1   
  8   5  18  1   
  9   5  19  1   
 10   6   9  ar  
 11   6  20  1   
 12   7  10  ar  
 13   7  21  1   
 14   8  11  1   
 15   8  22  1   
 16   8  23  1   
 17   9  12  ar  
 18   9  24  1   
 19  10  12  ar  
 20  10  25  1   
 21  11  13  1   
 22  11  14  1   
 23  11  26  1   
 24  12  27  1   
 25  13  15  1   
 26  13  16  1   
 27  13  17  1   
 28  14  28  1   
 29  14  29  1   
 30  14  30  1   
 31  15  31  1   
 32  15  32  1   
 33  15  33  1   
 34  16  34  1   
 35  16  35  1   
 36  16  36  1   
 37  17  37  1   
 38  17  38  1   
 39  17  39  1   
@<TRIPOS>SUBSTRUCTURE
  1 ****   3 GROUP 4 **** **** 0

# MOE 2024.06 (io_trps.svl 2023.06)
