@<TRIPOS>MOLECULE
NONAME
40 41 1 0 0 
SMALL
USER_CHARGES


@<TRIPOS>ATOM
  1 F       -1.2550     1.9810    -1.7790 F     1 <1>  -0.3400 
  2 C       -0.3240     2.0950    -0.8380 C.3   1 <1>   1.1640 
  3 F        0.8440     1.9390    -1.4430 F     1 <1>  -0.3400 
  4 F       -0.4860     1.0470    -0.0420 F     1 <1>  -0.3400 
  5 C       -0.4800     3.4200    -0.0650 C.ar  1 <1>  -0.1440 
  6 C       -1.6410     3.7230     0.6610 C.ar  1 <1>  -0.1440 
  7 C        0.5590     4.3480    -0.0750 C.ar  1 <1>  -0.1500 
  8 C       -1.7190     4.9170     1.3690 C.ar  1 <1>  -0.1500 
  9 C       -2.8480     2.7880     0.7180 C.3   1 <1>   0.4870 
 10 C        0.4620     5.5380     0.6190 C.ar  1 <1>  -0.1500 
 11 C       -0.6770     5.8220     1.3450 C.ar  1 <1>  -0.1500 
 12 N       -4.0180     3.4610     0.0920 N.4   1 <1>  -0.9590 
 13 C       -5.2840     2.7340     0.3290 C.3   1 <1>   0.3430 
 14 C       -3.8320     3.7880    -1.3400 C.3   1 <1>   0.3430 
 15 C       -6.0400     3.4470     1.4460 C.3   1 <1>  -0.1600 
 16 C       -4.2380     5.2450    -1.5690 C.3   1 <1>  -0.1600 
 17 C       -6.7770     4.7260     1.0020 C.3   1 <1>  -0.1600 
 18 C       -5.6840     5.6110    -1.1800 C.3   1 <1>  -0.1600 
 19 C       -5.9340     5.8270     0.3300 C.3   1 <1>  -0.1600 
 20 H        1.4680     4.1580    -0.6240 H     1 <1>   0.1500 
 21 H       -2.5890     5.1620     1.9540 H     1 <1>   0.1500 
 22 H       -3.0650     2.5650     1.7500 H     1 <1>   0.0800 
 23 H       -2.6490     1.8580     0.2120 H     1 <1>   0.0800 
 24 H        1.2770     6.2430     0.6000 H     1 <1>   0.1500 
 25 H       -0.7440     6.7470     1.8940 H     1 <1>   0.1500 
 26 H       -4.1260     4.3740     0.5500 H     1 <1>   0.4500 
 27 H       -5.0810     1.7120     0.6100 H     1 <1>   0.0800 
 28 H       -5.8930     2.7270    -0.5620 H     1 <1>   0.0800 
 29 H       -4.4250     3.1330    -1.9590 H     1 <1>   0.0800 
 30 H       -2.7990     3.6760    -1.6230 H     1 <1>   0.0800 
 31 H       -5.3800     3.6620     2.2680 H     1 <1>   0.0800 
 32 H       -6.7840     2.7650     1.8200 H     1 <1>   0.0800 
 33 H       -4.1250     5.4360    -2.6230 H     1 <1>   0.0800 
 34 H       -3.5420     5.8980    -1.0700 H     1 <1>   0.0800 
 35 H       -7.2260     5.1540     1.8840 H     1 <1>   0.0800 
 36 H       -7.5950     4.4610     0.3530 H     1 <1>   0.0800 
 37 H       -6.3750     4.8940    -1.5900 H     1 <1>   0.0800 
 38 H       -5.9050     6.5460    -1.6690 H     1 <1>   0.0800 
 39 H       -5.0210     6.0090     0.8700 H     1 <1>   0.0800 
 40 H       -6.5070     6.7370     0.4160 H     1 <1>   0.0800 
@<TRIPOS>BOND
  1   1   2  1   
  2   2   3  1   
  3   2   4  1   
  4   2   5  1   
  5   5   6  ar  
  6   5   7  ar  
  7   6   8  ar  
  8   6   9  1   
  9   7  10  ar  
 10   7  20  1   
 11   8  11  ar  
 12   8  21  1   
 13   9  12  1   
 14   9  22  1   
 15   9  23  1   
 16  10  11  ar  
 17  10  24  1   
 18  11  25  1   
 19  12  13  1   
 20  12  14  1   
 21  12  26  1   
 22  13  15  1   
 23  13  27  1   
 24  13  28  1   
 25  14  16  1   
 26  14  29  1   
 27  14  30  1   
 28  15  17  1   
 29  15  31  1   
 30  15  32  1   
 31  16  18  1   
 32  16  33  1   
 33  16  34  1   
 34  17  19  1   
 35  17  35  1   
 36  17  36  1   
 37  18  19  1   
 38  18  37  1   
 39  18  38  1   
 40  19  39  1   
 41  19  40  1   
@<TRIPOS>SUBSTRUCTURE
  1 ****   6 GROUP 4 **** **** 0

# MOE 2024.06 (io_trps.svl 2023.06)
