@<TRIPOS>MOLECULE
NONAME
34 35 1 0 0 
SMALL
USER_CHARGES


@<TRIPOS>ATOM
  1 S        0.3640     0.3860     1.1320 S.2   1 <1>  -0.3800 
  2 C        1.0420    -0.9810     0.6270 C.2   1 <1>   0.5810 
  3 S        0.0000    -2.4100     0.4590 S.3   1 <1>  -0.3710 
  4 N        2.3450    -1.1160     0.3210 N.am  1 <1>  -0.6600 
  5 C       -1.7280    -1.9180     0.9260 C.3   1 <1>   0.0700 
  6 C        3.3300    -0.0150     0.3920 C.3   1 <1>   0.1400 
  7 C        2.9910    -2.3690    -0.1320 C.3   1 <1>   0.1400 
  8 C       -2.3960    -1.2380    -0.2710 C.3   1 <1>   0.1400 
  9 C        4.5730    -0.5550    -0.3050 C.3   1 <1>  -0.1600 
 10 C        4.4850    -2.0670    -0.1270 C.3   1 <1>  -0.1600 
 11 N       -3.8710    -1.2690    -0.1180 N.am  1 <1>  -0.6600 
 12 C       -4.6290    -0.2710     0.3880 C.2   1 <1>   0.5690 
 13 C       -4.6640    -2.4310    -0.5510 C.3   1 <1>   0.1400 
 14 O       -4.2250     0.7830     0.8120 O.2   1 <1>  -0.5700 
 15 C       -6.0840    -0.6450     0.3720 C.3   1 <1>  -0.0990 
 16 C       -6.1180    -1.9510    -0.4430 C.3   1 <1>  -0.1600 
 17 H       -1.6870    -1.2720     1.7840 H     1 <1>   0.0800 
 18 H       -2.2360    -2.8300     1.1780 H     1 <1>   0.0800 
 19 H        3.5420     0.2000     1.4260 H     1 <1>   0.0800 
 20 H        2.9580     0.8720    -0.0930 H     1 <1>   0.0800 
 21 H        2.6560    -2.5960    -1.1310 H     1 <1>   0.0800 
 22 H        2.7540    -3.1890     0.5250 H     1 <1>   0.0800 
 23 H       -2.1270    -1.7450    -1.1810 H     1 <1>   0.0800 
 24 H       -2.0640    -0.2160    -0.3380 H     1 <1>   0.0800 
 25 H        5.4760    -0.1430     0.1090 H     1 <1>   0.0800 
 26 H        4.5210    -0.3060    -1.3510 H     1 <1>   0.0800 
 27 H        5.0050    -2.6040    -0.9000 H     1 <1>   0.0800 
 28 H        4.8930    -2.3470     0.8290 H     1 <1>   0.0800 
 29 H       -4.4800    -3.2600     0.1120 H     1 <1>   0.0800 
 30 H       -4.4160    -2.7050    -1.5630 H     1 <1>   0.0800 
 31 H       -6.6680     0.1310    -0.0880 H     1 <1>   0.0800 
 32 H       -6.4130    -0.8060     1.3820 H     1 <1>   0.0800 
 33 H       -6.7430    -2.6960     0.0180 H     1 <1>   0.0800 
 34 H       -6.4930    -1.7510    -1.4310 H     1 <1>   0.0800 
@<TRIPOS>BOND
  1   1   2  2   
  2   2   3  1   
  3   2   4  am  
  4   3   5  1   
  5   4   6  1   
  6   4   7  1   
  7   5   8  1   
  8   5  17  1   
  9   5  18  1   
 10   6   9  1   
 11   6  19  1   
 12   6  20  1   
 13   7  10  1   
 14   7  21  1   
 15   7  22  1   
 16   8  11  1   
 17   8  23  1   
 18   8  24  1   
 19   9  10  1   
 20   9  25  1   
 21   9  26  1   
 22  10  27  1   
 23  10  28  1   
 24  11  12  am  
 25  11  13  1   
 26  12  14  2   
 27  12  15  1   
 28  13  16  1   
 29  13  29  1   
 30  13  30  1   
 31  15  16  1   
 32  15  31  1   
 33  15  32  1   
 34  16  33  1   
 35  16  34  1   
@<TRIPOS>SUBSTRUCTURE
  1 ****   5 GROUP 4 **** **** 0

# MOE 2024.06 (io_trps.svl 2023.06)
