@<TRIPOS>MOLECULE
NONAME
52 54 1 0 0 
SMALL
USER_CHARGES


@<TRIPOS>ATOM
  1 O       -5.5740    -2.5440     0.7060 O.3   1 <1>  -0.3630 
  2 C       -4.4280    -3.2420     0.8900 C.ar  1 <1>   0.0830 
  3 C       -5.8070    -1.9750    -0.5690 C.3   1 <1>   0.2000 
  4 C       -4.1250    -4.4160     0.1920 C.ar  1 <1>   0.0830 
  5 C       -3.5290    -2.7520     1.8220 C.ar  1 <1>  -0.1500 
  6 C       -5.0820    -0.6360    -0.6620 C.3   1 <1>  -0.1600 
  7 C       -7.2790    -1.5880    -0.6460 C.3   1 <1>  -0.1600 
  8 O       -4.9650    -4.9890    -0.7020 O.3   1 <1>  -0.3620 
  9 C       -2.9110    -5.0460     0.4030 C.ar  1 <1>  -0.1500 
 10 C       -2.3200    -3.3920     2.0360 C.ar  1 <1>  -0.1500 
 11 C       -5.9720     0.3580     0.0890 C.3   1 <1>  -0.1600 
 12 C       -7.3880    -0.2350     0.0670 C.3   1 <1>  -0.1600 
 13 C       -6.2020    -5.4560    -0.2110 C.3   1 <1>   0.1200 
 14 C       -2.0000    -4.5370     1.3190 C.ar  1 <1>  -0.1430 
 15 C       -6.9480    -6.1180    -1.3650 C.3   1 <1>  -0.2400 
 16 C       -0.6710    -5.2250     1.5180 C.3   1 <1>   0.4860 
 17 N        0.2060    -4.7450     0.4330 N.4   1 <1>  -0.9060 
 18 C        1.5450    -5.3550     0.3890 C.3   1 <1>   0.4230 
 19 C        2.3480    -4.6340    -0.6850 C.3   1 <1>  -0.1600 
 20 C        1.4420    -6.7730    -0.1660 C.3   1 <1>  -0.1600 
 21 C        1.9010    -5.2400    -2.0210 C.3   1 <1>  -0.1600 
 22 C        1.3140    -6.6170    -1.6870 C.3   1 <1>  -0.1600 
 23 H       -5.5220    -2.6670    -1.3420 H     1 <1>   0.0800 
 24 H       -3.7850    -1.8620     2.3710 H     1 <1>   0.1500 
 25 H       -5.0320    -0.3470    -1.6970 H     1 <1>   0.0800 
 26 H       -4.0830    -0.6790    -0.2680 H     1 <1>   0.0800 
 27 H       -7.9160    -2.3370    -0.2110 H     1 <1>   0.0800 
 28 H       -7.5470    -1.4610    -1.6800 H     1 <1>   0.0800 
 29 H       -2.7050    -5.9400    -0.1590 H     1 <1>   0.1500 
 30 H       -1.6420    -2.9810     2.7670 H     1 <1>   0.1500 
 31 H       -5.9420     1.3320    -0.3690 H     1 <1>   0.0800 
 32 H       -5.6380     0.4410     1.1090 H     1 <1>   0.0800 
 33 H       -7.7290    -0.3830     1.0780 H     1 <1>   0.0800 
 34 H       -8.0790     0.4130    -0.4430 H     1 <1>   0.0800 
 35 H       -6.7670    -4.6270     0.1760 H     1 <1>   0.0800 
 36 H       -6.0100    -6.1610     0.5790 H     1 <1>   0.0800 
 37 H       -7.1230    -5.4030    -2.1490 H     1 <1>   0.0800 
 38 H       -7.8960    -6.4870    -1.0200 H     1 <1>   0.0800 
 39 H       -6.3770    -6.9430    -1.7510 H     1 <1>   0.0800 
 40 H       -0.8020    -6.2930     1.4620 H     1 <1>   0.0800 
 41 H       -0.2590    -4.9710     2.4820 H     1 <1>   0.0800 
 42 H        0.2820    -3.7270     0.5070 H     1 <1>   0.4500 
 43 H       -0.2570    -4.9260    -0.4640 H     1 <1>   0.4500 
 44 H        2.0280    -5.3160     1.3540 H     1 <1>   0.0800 
 45 H        3.3900    -4.8650    -0.5380 H     1 <1>   0.0800 
 46 H        2.2390    -3.5640    -0.6560 H     1 <1>   0.0800 
 47 H        0.6440    -7.3560     0.2580 H     1 <1>   0.0800 
 48 H        2.3680    -7.2820     0.0440 H     1 <1>   0.0800 
 49 H        2.7350    -5.3260    -2.6990 H     1 <1>   0.0800 
 50 H        1.1510    -4.6220    -2.4860 H     1 <1>   0.0800 
 51 H        0.2810    -6.6610    -1.9890 H     1 <1>   0.0800 
 52 H        1.8490    -7.4020    -2.1980 H     1 <1>   0.0800 
@<TRIPOS>BOND
  1   1   2  1   
  2   1   3  1   
  3   2   4  ar  
  4   2   5  ar  
  5   3   6  1   
  6   3   7  1   
  7   3  23  1   
  8   4   8  1   
  9   4   9  ar  
 10   5  10  ar  
 11   5  24  1   
 12   6  11  1   
 13   6  25  1   
 14   6  26  1   
 15   7  12  1   
 16   7  27  1   
 17   7  28  1   
 18   8  13  1   
 19   9  14  ar  
 20   9  29  1   
 21  10  14  ar  
 22  10  30  1   
 23  11  12  1   
 24  11  31  1   
 25  11  32  1   
 26  12  33  1   
 27  12  34  1   
 28  13  15  1   
 29  13  35  1   
 30  13  36  1   
 31  14  16  1   
 32  15  37  1   
 33  15  38  1   
 34  15  39  1   
 35  16  17  1   
 36  16  40  1   
 37  16  41  1   
 38  17  18  1   
 39  17  42  1   
 40  17  43  1   
 41  18  19  1   
 42  18  20  1   
 43  18  44  1   
 44  19  21  1   
 45  19  45  1   
 46  19  46  1   
 47  20  22  1   
 48  20  47  1   
 49  20  48  1   
 50  21  22  1   
 51  21  49  1   
 52  21  50  1   
 53  22  51  1   
 54  22  52  1   
@<TRIPOS>SUBSTRUCTURE
  1 ****   9 GROUP 4 **** **** 0

# MOE 2024.06 (io_trps.svl 2023.06)
