@<TRIPOS>MOLECULE
NONAME
36 36 1 0 0 
SMALL
USER_CHARGES


@<TRIPOS>ATOM
  1 S        0.1790     0.2100    -0.6520 S.o2  1 <1>   1.3330 
  2 O       -0.3980     1.5290    -0.5720 O.2   1 <1>  -0.6500 
  3 O        1.2920    -0.0720    -1.5210 O.2   1 <1>  -0.6500 
  4 N       -1.0410    -0.8670    -1.1970 N.am  1 <1>  -0.7570 
  5 C        0.5380    -0.4220     0.9930 C.3   1 <1>  -0.0550 
  6 C       -2.3870    -0.9330    -0.8800 C.ar  1 <1>   0.1990 
  7 C        1.6500     0.3390     1.7370 C.3   1 <1>  -0.2400 
  8 C       -3.1750    -1.8980    -1.4960 C.ar  1 <1>  -0.1500 
  9 C       -3.0010    -0.0840     0.0370 C.ar  1 <1>  -0.1500 
 10 C       -4.5220    -2.0080    -1.2110 C.ar  1 <1>  -0.1500 
 11 C       -4.3480    -0.1980     0.3220 C.ar  1 <1>  -0.1500 
 12 C       -5.1510    -1.1590    -0.2990 C.ar  1 <1>   0.0860 
 13 C       -6.5690    -1.2780    -0.0220 C.2   1 <1>   0.5440 
 14 O       -7.1380    -2.3450    -0.1540 O.2   1 <1>  -0.5700 
 15 N       -7.2960    -0.1910     0.3810 N.am  1 <1>  -0.7300 
 16 C       -8.7440    -0.1830     0.6770 C.3   1 <1>   0.1400 
 17 C       -9.4190     0.8930    -0.1730 C.3   1 <1>  -0.1600 
 18 C      -10.9260     0.9530     0.0980 C.3   1 <1>  -0.2400 
 19 H       -0.6950    -1.3950    -1.9930 H     1 <1>   0.4200 
 20 H        0.8250    -1.4530     0.9130 H     1 <1>   0.0800 
 21 H       -0.3560    -0.3820     1.5840 H     1 <1>   0.0800 
 22 H        2.5690     0.2900     1.1780 H     1 <1>   0.0800 
 23 H        1.8120    -0.0920     2.7090 H     1 <1>   0.0800 
 24 H        1.3760     1.3730     1.8570 H     1 <1>   0.0800 
 25 H       -2.7290    -2.5700    -2.2060 H     1 <1>   0.1500 
 26 H       -2.4330     0.6780     0.5350 H     1 <1>   0.1500 
 27 H       -5.1110    -2.7670    -1.6990 H     1 <1>   0.1500 
 28 H       -4.7850     0.4690     1.0440 H     1 <1>   0.1500 
 29 H       -6.8460     0.7250     0.3930 H     1 <1>   0.3700 
 30 H       -8.8890     0.0220     1.7240 H     1 <1>   0.0800 
 31 H       -9.1730    -1.1470     0.4570 H     1 <1>   0.0800 
 32 H       -9.2580     0.6710    -1.2140 H     1 <1>   0.0800 
 33 H       -8.9840     1.8520     0.0460 H     1 <1>   0.0800 
 34 H      -11.3860     0.0080    -0.1340 H     1 <1>   0.0800 
 35 H      -11.3800     1.7120    -0.5140 H     1 <1>   0.0800 
 36 H      -11.1160     1.1880     1.1310 H     1 <1>   0.0800 
@<TRIPOS>BOND
  1   1   2  2   
  2   1   3  2   
  3   1   4  am  
  4   1   5  1   
  5   4   6  1   
  6   4  19  1   
  7   5   7  1   
  8   5  20  1   
  9   5  21  1   
 10   6   8  ar  
 11   6   9  ar  
 12   7  22  1   
 13   7  23  1   
 14   7  24  1   
 15   8  10  ar  
 16   8  25  1   
 17   9  11  ar  
 18   9  26  1   
 19  10  12  ar  
 20  10  27  1   
 21  11  12  ar  
 22  11  28  1   
 23  12  13  1   
 24  13  14  2   
 25  13  15  am  
 26  15  16  1   
 27  15  29  1   
 28  16  17  1   
 29  16  30  1   
 30  16  31  1   
 31  17  18  1   
 32  17  32  1   
 33  17  33  1   
 34  18  34  1   
 35  18  35  1   
 36  18  36  1   
@<TRIPOS>SUBSTRUCTURE
  1 ****  11 GROUP 4 **** **** 0

# MOE 2024.06 (io_trps.svl 2023.06)
