@<TRIPOS>MOLECULE
NONAME
32 33 1 0 0 
SMALL
USER_CHARGES


@<TRIPOS>ATOM
  1 BR      -0.1260     0.1590    -0.1360 Br    1 <1>  -0.1110 
  2 C        1.0430    -1.3650    -0.0240 C.ar  1 <1>   0.1110 
  3 C        2.1840    -1.3840    -0.8000 C.ar  1 <1>  -0.1500 
  4 C        0.7140    -2.3970     0.8300 C.ar  1 <1>  -0.1500 
  5 C        3.0470    -2.4740    -0.7300 C.ar  1 <1>  -0.0090 
  6 C        1.5620    -3.4850     0.9030 C.ar  1 <1>  -0.1500 
  7 S        4.5520    -2.5190    -1.7300 S.o2  1 <1>   1.6670 
  8 C        2.7220    -3.5270     0.1260 C.ar  1 <1>   0.0830 
  9 O        4.8150    -1.2100    -2.2730 O.2   1 <1>  -0.6500 
 10 O        4.6020    -3.6790    -2.5880 O.2   1 <1>  -0.6500 
 11 N        5.8330    -2.7620    -0.5800 N.pl3 1 <1>  -0.7020 
 12 O        3.5750    -4.5820     0.1740 O.3   1 <1>  -0.3630 
 13 C        6.2080    -2.0110     0.4130 C.cat 1 <1>   0.6040 
 14 C        6.6750    -3.9670    -0.7070 C.3   1 <1>   0.3290 
 15 C        3.1390    -5.8470     0.6340 C.3   1 <1>   0.0400 
 16 N        7.2240    -2.5170     1.0560 N.pl3 1 <1>  -0.7940 
 17 C        5.5720    -0.6990     0.8130 C.3   1 <1>  -0.1350 
 18 C        7.6640    -3.8030     0.4630 C.3   1 <1>   0.3290 
 19 H        2.3880    -0.5510    -1.4520 H     1 <1>   0.1500 
 20 H       -0.1850    -2.3460     1.4200 H     1 <1>   0.1500 
 21 H        1.3040    -4.2860     1.5720 H     1 <1>   0.1500 
 22 H        7.1880    -3.9770    -1.6540 H     1 <1>   0.0800 
 23 H        6.0880    -4.8640    -0.6000 H     1 <1>   0.0800 
 24 H        3.9020    -6.5710     0.4120 H     1 <1>   0.0800 
 25 H        2.2290    -6.1150     0.1230 H     1 <1>   0.0800 
 26 H        2.9810    -5.8030     1.6980 H     1 <1>   0.0800 
 27 H        7.7050    -2.1170     1.8700 H     1 <1>   0.4500 
 28 H        4.5650    -0.8620     1.1490 H     1 <1>   0.0800 
 29 H        5.5650    -0.0190    -0.0200 H     1 <1>   0.0800 
 30 H        6.1260    -0.2430     1.6130 H     1 <1>   0.0800 
 31 H        8.6800    -3.7400     0.1080 H     1 <1>   0.0800 
 32 H        7.5670    -4.6090     1.1710 H     1 <1>   0.0800 
@<TRIPOS>BOND
  1   1   2  1   
  2   2   3  ar  
  3   2   4  ar  
  4   3   5  ar  
  5   3  19  1   
  6   4   6  ar  
  7   4  20  1   
  8   5   7  1   
  9   5   8  ar  
 10   6   8  ar  
 11   6  21  1   
 12   7   9  2   
 13   7  10  2   
 14   7  11  1   
 15   8  12  1   
 16  11  13  ar  
 17  11  14  1   
 18  12  15  1   
 19  13  16  ar  
 20  13  17  1   
 21  14  18  1   
 22  14  22  1   
 23  14  23  1   
 24  15  24  1   
 25  15  25  1   
 26  15  26  1   
 27  16  18  1   
 28  16  27  1   
 29  17  28  1   
 30  17  29  1   
 31  17  30  1   
 32  18  31  1   
 33  18  32  1   
@<TRIPOS>SUBSTRUCTURE
  1 ****   5 GROUP 4 **** **** 0

# MOE 2024.06 (io_trps.svl 2023.06)
