@<TRIPOS>MOLECULE
NONAME
30 31 1 0 0 
SMALL
USER_CHARGES


@<TRIPOS>ATOM
  1 O        0.0110    -0.3460     0.8560 O.2   1 <1>  -0.5700 
  2 C        0.1070    -1.5140     0.5250 C.2   1 <1>   0.4140 
  3 C        1.3050    -2.1500     0.1270 C.3   1 <1>  -0.7150 
  4 C       -1.2230    -2.2410     0.5020 C.3   1 <1>  -0.0990 
  5 C        1.2380    -3.4120    -0.5040 C.2   1 <1>   0.4140 
  6 C        2.5460    -1.5220     0.3740 C.2   1 <1>   0.4140 
  7 C       -1.0570    -3.7560     0.3990 C.3   1 <1>   0.0640 
  8 O        2.1960    -4.0650    -0.8790 O.2   1 <1>  -0.5700 
  9 C       -0.0980    -4.0800    -0.7430 C.3   1 <1>  -0.0990 
 10 O        2.7680    -0.7970     1.3280 O.2   1 <1>  -0.5700 
 11 C        3.7370    -1.7070    -0.5410 C.3   1 <1>  -0.1790 
 12 C       -2.4030    -4.4640     0.2330 C.ar  1 <1>  -0.1440 
 13 C       -3.2020    -4.2440    -0.8810 C.ar  1 <1>  -0.1500 
 14 C       -2.8410    -5.3480     1.2090 C.ar  1 <1>  -0.1500 
 15 C       -4.4170    -4.8950    -1.0160 C.ar  1 <1>  -0.1500 
 16 C       -4.0550    -6.0000     1.0760 C.ar  1 <1>  -0.1500 
 17 C       -4.8440    -5.7740    -0.0380 C.ar  1 <1>  -0.1500 
 18 H       -1.7850    -1.8640    -0.3300 H     1 <1>   0.0800 
 19 H       -1.7600    -2.0050     1.4020 H     1 <1>   0.0800 
 20 H       -0.5930    -4.0920     1.3110 H     1 <1>   0.0800 
 21 H        0.0410    -5.1440    -0.7960 H     1 <1>   0.0800 
 22 H       -0.4850    -3.7400    -1.6840 H     1 <1>   0.0800 
 23 H        3.4050    -1.8910    -1.5450 H     1 <1>   0.0800 
 24 H        4.3210    -2.5380    -0.1960 H     1 <1>   0.0800 
 25 H        4.3400    -0.8190    -0.5330 H     1 <1>   0.0800 
 26 H       -2.8830    -3.5630    -1.6490 H     1 <1>   0.1500 
 27 H       -2.2370    -5.5320     2.0790 H     1 <1>   0.1500 
 28 H       -5.0280    -4.7160    -1.8830 H     1 <1>   0.1500 
 29 H       -4.3840    -6.6830     1.8390 H     1 <1>   0.1500 
 30 H       -5.7880    -6.2800    -0.1420 H     1 <1>   0.1500 
@<TRIPOS>BOND
  1   1   2  2   
  2   2   3  1   
  3   2   4  1   
  4   3   5  1   
  5   3   6  1   
  6   4   7  1   
  7   4  18  1   
  8   4  19  1   
  9   5   8  2   
 10   5   9  1   
 11   6  10  2   
 12   6  11  1   
 13   7   9  1   
 14   7  12  1   
 15   7  20  1   
 16   9  21  1   
 17   9  22  1   
 18  11  23  1   
 19  11  24  1   
 20  11  25  1   
 21  12  13  ar  
 22  12  14  ar  
 23  13  15  ar  
 24  13  26  1   
 25  14  16  ar  
 26  14  27  1   
 27  15  17  ar  
 28  15  28  1   
 29  16  17  ar  
 30  16  29  1   
 31  17  30  1   
@<TRIPOS>SUBSTRUCTURE
  1 ****   7 GROUP 4 **** **** 0

# MOE 2024.06 (io_trps.svl 2023.06)
