@<TRIPOS>MOLECULE
NONAME
27 28 1 0 0 
SMALL
USER_CHARGES


@<TRIPOS>ATOM
  1 O        0.2550    -0.2880    -0.8230 O.2   1 <1>  -0.5700 
  2 C        0.1830    -1.2250    -0.0680 C.2   1 <1>   0.6300 
  3 N       -1.0070    -1.7010     0.3980 N.am  1 <1>  -0.5470 
  4 C        1.4540    -1.9180     0.3960 C.3   1 <1>  -0.1000 
  5 C       -2.2850    -1.2020     0.1110 C.ar  1 <1>   0.1170 
  6 C        2.3060    -2.6790    -0.5750 C.3   1 <1>  -0.1950 
  7 C        1.5560    -3.4220     0.4800 C.3   1 <1>  -0.2000 
  8 C       -2.6940     0.0850     0.4860 C.ar  1 <1>   0.0730 
  9 C       -3.1710    -2.0280    -0.5700 C.ar  1 <1>  -0.1500 
 10 C        3.8310    -2.5800    -0.5200 C.3   1 <1>  -0.1450 
 11 C       -1.8440     0.9610     1.2400 C.1   1 <1>   0.4840 
 12 C       -3.9740     0.5090     0.1450 C.ar  1 <1>  -0.1500 
 13 C       -4.4420    -1.5940    -0.8950 C.ar  1 <1>  -0.1500 
 14 N       -1.2090     1.6560     1.8870 N.1   1 <1>  -0.5570 
 15 C       -4.8440    -0.3190    -0.5400 C.ar  1 <1>  -0.1500 
 16 H       -0.9510    -2.5660     0.9340 H     1 <1>   0.3700 
 17 H        1.9640    -1.3340     1.1410 H     1 <1>   0.1000 
 18 H        1.9380    -2.7430    -1.5860 H     1 <1>   0.1000 
 19 H        0.7410    -4.0460     0.1560 H     1 <1>   0.1000 
 20 H        2.1020    -3.8550     1.3010 H     1 <1>   0.1000 
 21 H       -2.8600    -3.0160    -0.8580 H     1 <1>   0.1500 
 22 H        4.1760    -2.5070     0.4960 H     1 <1>   0.0800 
 23 H        4.1580    -1.7080    -1.0580 H     1 <1>   0.0800 
 24 H        4.2720    -3.4500    -0.9730 H     1 <1>   0.0800 
 25 H       -4.2970     1.4990     0.4210 H     1 <1>   0.1500 
 26 H       -5.1160    -2.2420    -1.4280 H     1 <1>   0.1500 
 27 H       -5.8320     0.0250    -0.7960 H     1 <1>   0.1500 
@<TRIPOS>BOND
  1   1   2  2   
  2   2   3  am  
  3   2   4  1   
  4   3   5  1   
  5   3  16  1   
  6   4   6  1   
  7   4   7  1   
  8   4  17  1   
  9   5   8  ar  
 10   5   9  ar  
 11   6   7  1   
 12   6  10  1   
 13   6  18  1   
 14   7  19  1   
 15   7  20  1   
 16   8  11  1   
 17   8  12  ar  
 18   9  13  ar  
 19   9  21  1   
 20  10  22  1   
 21  10  23  1   
 22  10  24  1   
 23  11  14  3   
 24  12  15  ar  
 25  12  25  1   
 26  13  15  ar  
 27  13  26  1   
 28  15  27  1   
@<TRIPOS>SUBSTRUCTURE
  1 ****   3 GROUP 4 **** **** 0

# MOE 2024.06 (io_trps.svl 2023.06)
