@<TRIPOS>MOLECULE
NONAME
37 38 1 0 0 
SMALL
USER_CHARGES


@<TRIPOS>ATOM
  1 BR      -0.1170    -1.3760     1.2340 Br    1 <1>  -0.1110 
  2 C        1.7220    -1.5790     0.6990 C.ar  1 <1>   0.1110 
  3 C        2.5700    -2.3180     1.5000 C.ar  1 <1>  -0.1500 
  4 C        2.1430    -0.9790    -0.4710 C.ar  1 <1>  -0.1500 
  5 C        3.8950    -2.4660     1.1190 C.ar  1 <1>  -0.1440 
  6 C        3.4650    -1.1280    -0.8520 C.ar  1 <1>  -0.1500 
  7 C        4.3450    -1.8700    -0.0600 C.ar  1 <1>   0.0830 
  8 C        4.8410    -3.2770     1.9930 C.3   1 <1>  -0.0960 
  9 O        5.6530    -2.0470    -0.3870 O.3   1 <1>  -0.3630 
 10 C        6.2250    -1.4300    -1.5350 C.3   1 <1>   0.1810 
 11 C        7.7090    -1.7510    -1.6550 C.2   1 <1>   0.5690 
 12 O        8.3760    -1.1210    -2.4400 O.2   1 <1>  -0.5700 
 13 N        8.2490    -2.7260    -0.8770 N.am  1 <1>  -0.7300 
 14 C        9.6830    -3.1220    -0.8670 C.3   1 <1>   0.1400 
 15 C       10.5360    -2.1320    -0.0630 C.3   1 <1>   0.2000 
 16 O       11.8150    -2.6500     0.0990 O.3   1 <1>  -0.5600 
 17 C       10.0630    -1.8790     1.3640 C.3   1 <1>  -0.1600 
 18 C       12.4540    -2.0100     1.1560 C.3   1 <1>   0.1200 
 19 C       11.3500    -1.5380     2.0990 C.3   1 <1>  -0.1600 
 20 H        2.1920    -2.7640     2.4020 H     1 <1>   0.1500 
 21 H        1.4510    -0.4120    -1.0670 H     1 <1>   0.1500 
 22 H        3.7840    -0.6590    -1.7630 H     1 <1>   0.1500 
 23 H        4.3410    -3.6420     2.8720 H     1 <1>   0.0800 
 24 H        5.6690    -2.6640     2.3010 H     1 <1>   0.0800 
 25 H        5.2180    -4.1180     1.4390 H     1 <1>   0.0800 
 26 H        6.1000    -0.3670    -1.4480 H     1 <1>   0.0800 
 27 H        5.7140    -1.7930    -2.4080 H     1 <1>   0.0800 
 28 H        7.6390    -3.1770    -0.1900 H     1 <1>   0.3700 
 29 H       10.0480    -3.1510    -1.8800 H     1 <1>   0.0800 
 30 H        9.7730    -4.1050    -0.4390 H     1 <1>   0.0800 
 31 H       10.6290    -1.2040    -0.6020 H     1 <1>   0.0800 
 32 H        9.6320    -2.7770     1.7690 H     1 <1>   0.0800 
 33 H        9.3380    -1.0850     1.4040 H     1 <1>   0.0800 
 34 H       13.0100    -1.1790     0.7560 H     1 <1>   0.0800 
 35 H       13.1230    -2.7100     1.6270 H     1 <1>   0.0800 
 36 H       11.4080    -2.0420     3.0470 H     1 <1>   0.0800 
 37 H       11.4380    -0.4780     2.2580 H     1 <1>   0.0800 
@<TRIPOS>BOND
  1   1   2  1   
  2   2   3  ar  
  3   2   4  ar  
  4   3   5  ar  
  5   3  20  1   
  6   4   6  ar  
  7   4  21  1   
  8   5   7  ar  
  9   5   8  1   
 10   6   7  ar  
 11   6  22  1   
 12   7   9  1   
 13   8  23  1   
 14   8  24  1   
 15   8  25  1   
 16   9  10  1   
 17  10  11  1   
 18  10  26  1   
 19  10  27  1   
 20  11  12  2   
 21  11  13  am  
 22  13  14  1   
 23  13  28  1   
 24  14  15  1   
 25  14  29  1   
 26  14  30  1   
 27  15  16  1   
 28  15  17  1   
 29  15  31  1   
 30  16  18  1   
 31  17  19  1   
 32  17  32  1   
 33  17  33  1   
 34  18  19  1   
 35  18  34  1   
 36  18  35  1   
 37  19  36  1   
 38  19  37  1   
@<TRIPOS>SUBSTRUCTURE
  1 ****   9 GROUP 4 **** **** 0

# MOE 2024.06 (io_trps.svl 2023.06)
