@<TRIPOS>MOLECULE
NONAME
42 44 1 0 0 
SMALL
USER_CHARGES


@<TRIPOS>ATOM
  1 O       -0.3090    -0.3710     0.6740 O.2   1 <1>  -0.5700 
  2 C       -1.4060    -0.9010     0.6030 C.2   1 <1>   0.6900 
  3 N       -1.5000    -2.2340     0.2310 N.am  1 <1>  -0.4200 
  4 N       -2.5470    -0.1750     0.8880 N.am  1 <1>  -0.4230 
  5 C       -2.7330    -2.8490     0.0730 C.2   1 <1>   0.7160 
  6 C       -0.2500    -3.0010    -0.0520 C.3   1 <1>   0.0600 
  7 C       -3.8130    -0.7820     0.7890 C.2   1 <1>   0.0630 
  8 C       -2.4940     1.2510     1.3040 C.3   1 <1>   0.0600 
  9 O       -2.7780    -3.9940    -0.3440 O.2   1 <1>  -0.5700 
 10 C       -3.9250    -2.1150     0.3880 C.2   1 <1>  -0.0860 
 11 C       -5.0610    -0.3040     1.0170 C.2   1 <1>  -0.3020 
 12 C       -5.2770    -2.4130     0.3960 C.2   1 <1>  -0.2050 
 13 N       -5.9640    -1.2950     0.7780 N.pl3 1 <1>   0.0480 
 14 C       -5.9100    -3.6600     0.0580 C.ar  1 <1>   0.0530 
 15 C       -7.4320    -1.1250     0.8660 C.3   1 <1>   0.0960 
 16 C       -5.8120    -4.1830    -1.2280 C.ar  1 <1>  -0.1500 
 17 C       -6.6520    -4.3730     0.9970 C.ar  1 <1>  -0.1500 
 18 C       -8.0540    -1.1520    -0.5270 C.3   1 <1>   0.1200 
 19 C       -6.4470    -5.3620    -1.5730 C.ar  1 <1>  -0.1500 
 20 C       -7.2920    -5.5510     0.6590 C.ar  1 <1>  -0.1500 
 21 O       -9.4050    -0.8440    -0.3990 O.3   1 <1>  -0.5600 
 22 C       -7.1930    -6.0470    -0.6300 C.ar  1 <1>  -0.1500 
 23 C      -10.1100    -0.9060    -1.5970 C.3   1 <1>   0.0400 
 24 H        0.5500    -2.6620     0.5830 H     1 <1>   0.0800 
 25 H        0.0320    -2.8580    -1.0800 H     1 <1>   0.0800 
 26 H       -0.3990    -4.0520     0.1290 H     1 <1>   0.0800 
 27 H       -1.4800     1.6060     1.3490 H     1 <1>   0.0800 
 28 H       -2.9400     1.3560     2.2770 H     1 <1>   0.0800 
 29 H       -3.0390     1.8500     0.5970 H     1 <1>   0.0800 
 30 H       -5.3540     0.6800     1.3330 H     1 <1>   0.1500 
 31 H       -7.6430    -0.1810     1.3340 H     1 <1>   0.0800 
 32 H       -7.8440    -1.9140     1.4660 H     1 <1>   0.0800 
 33 H       -5.2250    -3.6570    -1.9590 H     1 <1>   0.1500 
 34 H       -6.7200    -3.9980     2.0010 H     1 <1>   0.1500 
 35 H       -7.9630    -2.1330    -0.9620 H     1 <1>   0.0800 
 36 H       -7.5940    -0.4150    -1.1610 H     1 <1>   0.0800 
 37 H       -6.3570    -5.7480    -2.5730 H     1 <1>   0.1500 
 38 H       -7.8630    -6.0860     1.3970 H     1 <1>   0.1500 
 39 H       -7.6880    -6.9650    -0.8950 H     1 <1>   0.1500 
 40 H      -11.1360    -0.6490    -1.3950 H     1 <1>   0.0800 
 41 H      -10.0580    -1.9070    -1.9890 H     1 <1>   0.0800 
 42 H       -9.6900    -0.2020    -2.2950 H     1 <1>   0.0800 
@<TRIPOS>BOND
  1   1   2  2   
  2   2   3  am  
  3   2   4  am  
  4   3   5  am  
  5   3   6  1   
  6   4   7  1   
  7   4   8  1   
  8   5   9  2   
  9   5  10  1   
 10   6  24  1   
 11   6  25  1   
 12   6  26  1   
 13   7  10  1   
 14   7  11  2   
 15   8  27  1   
 16   8  28  1   
 17   8  29  1   
 18  10  12  2   
 19  11  13  1   
 20  11  30  1   
 21  12  13  1   
 22  12  14  1   
 23  13  15  1   
 24  14  16  ar  
 25  14  17  ar  
 26  15  18  1   
 27  15  31  1   
 28  15  32  1   
 29  16  19  ar  
 30  16  33  1   
 31  17  20  ar  
 32  17  34  1   
 33  18  21  1   
 34  18  35  1   
 35  18  36  1   
 36  19  22  ar  
 37  19  37  1   
 38  20  22  ar  
 39  20  38  1   
 40  21  23  1   
 41  22  39  1   
 42  23  40  1   
 43  23  41  1   
 44  23  42  1   
@<TRIPOS>SUBSTRUCTURE
  1 ****  12 GROUP 4 **** **** 0

# MOE 2024.06 (io_trps.svl 2023.06)
