@<TRIPOS>MOLECULE
NONAME
45 48 1 0 0 
SMALL
USER_CHARGES


@<TRIPOS>ATOM
  1 O        0.9970     0.1700    -0.2030 O.2   1 <1>  -0.5700 
  2 C        1.9450    -0.5770    -0.1470 C.2   1 <1>   0.5690 
  3 N        3.2330    -0.1260    -0.1860 N.am  1 <1>  -0.5470 
  4 C        1.6870    -2.0960    -0.0280 C.3   1 <1>   0.0610 
  5 C        3.8080     1.1210    -0.2860 C.ar  1 <1>   0.4270 
  6 C        2.9940    -2.9370     0.0330 C.3   1 <1>  -0.1600 
  7 C        0.8640    -2.5850    -1.2460 C.3   1 <1>  -0.1600 
  8 C        0.8730    -2.3900     1.2580 C.3   1 <1>  -0.1600 
  9 N        5.1310     1.0610    -0.2840 N.ar  1 <1>  -0.6200 
 10 C        3.0960     2.3150    -0.3770 C.ar  1 <1>  -0.1500 
 11 C        2.6840    -4.4400     0.1520 C.3   1 <1>  -0.0800 
 12 C        0.5430    -4.0880    -1.1340 C.3   1 <1>  -0.0800 
 13 C        0.5530    -3.8910     1.3820 C.3   1 <1>  -0.0800 
 14 C        5.7690     2.2140    -0.3760 C.ar  1 <1>   0.1670 
 15 C        3.7650     3.5140    -0.4730 C.ar  1 <1>  -0.1430 
 16 C        1.8590    -4.8840    -1.0700 C.3   1 <1>  -0.1600 
 17 C        1.8680    -4.6880     1.4340 C.3   1 <1>  -0.1600 
 18 C       -0.2630    -4.3360     0.1540 C.3   1 <1>  -0.1600 
 19 C        5.1430     3.4460    -0.4710 C.ar  1 <1>  -0.1500 
 20 C        7.2810     2.1300    -0.3730 C.3   1 <1>  -0.0970 
 21 C        3.0390     4.8420    -0.5760 C.3   1 <1>  -0.0970 
 22 H        3.9540    -0.8370    -0.1320 H     1 <1>   0.3700 
 23 H        3.5850    -2.6380     0.8820 H     1 <1>   0.0800 
 24 H        3.5790    -2.7730    -0.8560 H     1 <1>   0.0800 
 25 H        1.4120    -2.3980    -2.1530 H     1 <1>   0.0800 
 26 H       -0.0570    -2.0300    -1.3070 H     1 <1>   0.0800 
 27 H       -0.0470    -1.8310     1.2390 H     1 <1>   0.0800 
 28 H        1.4280    -2.0640     2.1210 H     1 <1>   0.0800 
 29 H        2.0240     2.3030    -0.3740 H     1 <1>   0.1500 
 30 H        3.6020    -5.0010     0.1920 H     1 <1>   0.0800 
 31 H       -0.0320    -4.4020    -1.9880 H     1 <1>   0.0800 
 32 H       -0.0160    -4.0680     2.2800 H     1 <1>   0.0800 
 33 H        1.6440    -5.9360    -1.0020 H     1 <1>   0.0800 
 34 H        2.4250    -4.7250    -1.9710 H     1 <1>   0.0800 
 35 H        2.4410    -4.3920     2.2950 H     1 <1>   0.0800 
 36 H        1.6530    -5.7380     1.5310 H     1 <1>   0.0800 
 37 H       -1.1890    -3.7900     0.1150 H     1 <1>   0.0800 
 38 H       -0.5040    -5.3820     0.2370 H     1 <1>   0.0800 
 39 H        5.7240     4.3470    -0.5430 H     1 <1>   0.1500 
 40 H        7.6120     1.6680     0.5380 H     1 <1>   0.0800 
 41 H        7.7250     3.1050    -0.4510 H     1 <1>   0.0800 
 42 H        7.6080     1.5320    -1.2040 H     1 <1>   0.0800 
 43 H        1.9730     4.6960    -0.5620 H     1 <1>   0.0800 
 44 H        3.3050     5.3360    -1.4930 H     1 <1>   0.0800 
 45 H        3.3090     5.4730     0.2520 H     1 <1>   0.0800 
@<TRIPOS>BOND
  1   1   2  2   
  2   2   3  am  
  3   2   4  1   
  4   3   5  1   
  5   3  22  1   
  6   4   6  1   
  7   4   7  1   
  8   4   8  1   
  9   5   9  ar  
 10   5  10  ar  
 11   6  11  1   
 12   6  23  1   
 13   6  24  1   
 14   7  12  1   
 15   7  25  1   
 16   7  26  1   
 17   8  13  1   
 18   8  27  1   
 19   8  28  1   
 20   9  14  ar  
 21  10  15  ar  
 22  10  29  1   
 23  11  16  1   
 24  11  17  1   
 25  11  30  1   
 26  12  16  1   
 27  12  18  1   
 28  12  31  1   
 29  13  17  1   
 30  13  18  1   
 31  13  32  1   
 32  14  19  ar  
 33  14  20  1   
 34  15  19  ar  
 35  15  21  1   
 36  16  33  1   
 37  16  34  1   
 38  17  35  1   
 39  17  36  1   
 40  18  37  1   
 41  18  38  1   
 42  19  39  1   
 43  20  40  1   
 44  20  41  1   
 45  20  42  1   
 46  21  43  1   
 47  21  44  1   
 48  21  45  1   
@<TRIPOS>SUBSTRUCTURE
  1 ****   2 GROUP 4 **** **** 0

# MOE 2024.06 (io_trps.svl 2023.06)
