@<TRIPOS>MOLECULE
NONAME
41 42 1 0 0 
SMALL
USER_CHARGES


@<TRIPOS>ATOM
  1 S        1.2180    -0.4040    -0.6460 S.3   1 <1>  -0.3320 
  2 C        2.3810     0.8210    -0.0050 C.ar  1 <1>   0.1020 
  3 C        0.0290     0.5090    -1.7230 C.3   1 <1>  -0.0100 
  4 C        2.3170     2.1580    -0.3650 C.ar  1 <1>  -0.1500 
  5 C        3.3500     0.3690     0.8720 C.ar  1 <1>  -0.1500 
  6 C        3.2420     3.0430     0.1620 C.ar  1 <1>  -0.1500 
  7 C        4.2700     1.2620     1.3930 C.ar  1 <1>  -0.1500 
  8 C        4.2290     2.6050     1.0380 C.ar  1 <1>   0.1000 
  9 N        5.1620     3.4900     1.5610 N.pl3 1 <1>  -0.8690 
 10 C        6.0700     4.1710     0.6280 C.3   1 <1>   0.2890 
 11 C        7.4070     3.4210     0.6310 C.3   1 <1>  -0.1600 
 12 C        6.1920     5.6180     1.0970 C.3   1 <1>  -0.2400 
 13 C        8.3900     3.9370    -0.4290 C.3   1 <1>  -0.0170 
 14 C        9.6550     3.0940    -0.4310 C.ar  1 <1>  -0.1430 
 15 C       10.7300     3.4460     0.3730 C.ar  1 <1>  -0.1500 
 16 C        9.7440     1.9670    -1.2350 C.ar  1 <1>  -0.1500 
 17 C       11.8830     2.6810     0.3710 C.ar  1 <1>  -0.1500 
 18 C       10.8960     1.1990    -1.2410 C.ar  1 <1>  -0.1500 
 19 C       11.9640     1.5610    -0.4360 C.ar  1 <1>   0.0830 
 20 O       13.0880     0.8300    -0.4330 O.3   1 <1>  -0.5330 
 21 H       -0.6830    -0.2050    -2.0970 H     1 <1>   0.0800 
 22 H        0.5840     0.9520    -2.5300 H     1 <1>   0.0800 
 23 H       -0.4580     1.2550    -1.1220 H     1 <1>   0.0800 
 24 H        1.5680     2.5210    -1.0390 H     1 <1>   0.1500 
 25 H        3.3800    -0.6710     1.1410 H     1 <1>   0.1500 
 26 H        3.2010     4.0850    -0.0960 H     1 <1>   0.1500 
 27 H        5.0240     0.9170     2.0740 H     1 <1>   0.1500 
 28 H        5.6840     3.1140     2.3560 H     1 <1>   0.4000 
 29 H        5.6490     4.1510    -0.3640 H     1 <1>   0.0800 
 30 H        7.2140     2.3820     0.4290 H     1 <1>   0.0800 
 31 H        7.8640     3.4950     1.6020 H     1 <1>   0.0800 
 32 H        6.6530     5.6630     2.0670 H     1 <1>   0.0800 
 33 H        5.2140     6.0620     1.1530 H     1 <1>   0.0800 
 34 H        6.7790     6.1920     0.4050 H     1 <1>   0.0800 
 35 H        8.6510     4.9610    -0.2320 H     1 <1>   0.0800 
 36 H        7.9320     3.8960    -1.4020 H     1 <1>   0.0800 
 37 H       10.6740     4.3150     1.0040 H     1 <1>   0.1500 
 38 H        8.9150     1.6830    -1.8600 H     1 <1>   0.1500 
 39 H       12.7210     2.9470     0.9900 H     1 <1>   0.1500 
 40 H       10.9550     0.3290    -1.8680 H     1 <1>   0.1500 
 41 H       13.0520     0.0710    -1.0400 H     1 <1>   0.4500 
@<TRIPOS>BOND
  1   1   2  1   
  2   1   3  1   
  3   2   4  ar  
  4   2   5  ar  
  5   3  21  1   
  6   3  22  1   
  7   3  23  1   
  8   4   6  ar  
  9   4  24  1   
 10   5   7  ar  
 11   5  25  1   
 12   6   8  ar  
 13   6  26  1   
 14   7   8  ar  
 15   7  27  1   
 16   8   9  1   
 17   9  10  1   
 18   9  28  1   
 19  10  11  1   
 20  10  12  1   
 21  10  29  1   
 22  11  13  1   
 23  11  30  1   
 24  11  31  1   
 25  12  32  1   
 26  12  33  1   
 27  12  34  1   
 28  13  14  1   
 29  13  35  1   
 30  13  36  1   
 31  14  15  ar  
 32  14  16  ar  
 33  15  17  ar  
 34  15  37  1   
 35  16  18  ar  
 36  16  38  1   
 37  17  19  ar  
 38  17  39  1   
 39  18  19  ar  
 40  18  40  1   
 41  19  20  1   
 42  20  41  1   
@<TRIPOS>SUBSTRUCTURE
  1 ****  11 GROUP 4 **** **** 0

# MOE 2024.06 (io_trps.svl 2023.06)
