@<TRIPOS>MOLECULE
NONAME
43 45 1 0 0 
SMALL
USER_CHARGES


@<TRIPOS>ATOM
  1 F        0.3560    -0.5330    -0.6520 F     1 <1>  -0.3400 
  2 C       -0.9020    -0.8890    -0.4140 C.3   1 <1>   1.1640 
  3 F       -1.2500    -0.2770     0.7110 F     1 <1>  -0.3400 
  4 F       -1.6280    -0.3390    -1.3790 F     1 <1>  -0.3400 
  5 C       -1.0970    -2.4110    -0.3330 C.ar  1 <1>  -0.1440 
  6 C       -2.3670    -2.9270    -0.0980 C.ar  1 <1>  -0.1500 
  7 C       -0.0370    -3.3010    -0.4870 C.ar  1 <1>  -0.1500 
  8 C       -2.5860    -4.2940    -0.0180 C.ar  1 <1>   0.1170 
  9 C       -0.2460    -4.6670    -0.4080 C.ar  1 <1>  -0.1500 
 10 N       -3.8300    -4.8930     0.2150 N.am  1 <1>  -0.5470 
 11 C       -1.5130    -5.1790    -0.1720 C.ar  1 <1>   0.1000 
 12 C       -5.1080    -4.4390     0.4140 C.2   1 <1>   0.5440 
 13 N       -1.7360    -6.5650    -0.0880 N.pl3 1 <1>  -0.8380 
 14 O       -5.3600    -3.2550     0.3110 O.2   1 <1>  -0.5700 
 15 C       -6.1600    -5.3840     0.7270 C.ar  1 <1>   0.0860 
 16 C       -1.0590    -7.2870     1.0210 C.3   1 <1>   0.2090 
 17 C       -1.7150    -7.3110    -1.3720 C.3   1 <1>   0.2090 
 18 C       -5.8910    -6.5940     1.3690 C.ar  1 <1>   0.1600 
 19 C       -7.4880    -5.1320     0.4050 C.ar  1 <1>  -0.1500 
 20 C       -1.7720    -8.6230     1.2540 C.3   1 <1>  -0.1600 
 21 C       -2.4420    -8.6460    -1.1830 C.3   1 <1>  -0.1600 
 22 N       -6.7770    -7.5280     1.6760 N.ar  1 <1>  -0.6200 
 23 C       -8.4300    -6.0860     0.7210 C.ar  1 <1>  -0.1500 
 24 C       -1.8360    -9.4630    -0.0310 C.3   1 <1>  -0.1600 
 25 C       -8.0280    -7.2530     1.3460 C.ar  1 <1>   0.1600 
 26 H       -3.1970    -2.2530     0.0240 H     1 <1>   0.1500 
 27 H        0.9620    -2.9410    -0.6710 H     1 <1>   0.1500 
 28 H        0.5790    -5.3440    -0.5300 H     1 <1>   0.1500 
 29 H       -3.6890    -5.9090     0.2030 H     1 <1>   0.3700 
 30 H       -1.0950    -6.6890     1.9160 H     1 <1>   0.0800 
 31 H       -0.0280    -7.4580     0.7650 H     1 <1>   0.0800 
 32 H       -0.6960    -7.4830    -1.6740 H     1 <1>   0.0800 
 33 H       -2.2050    -6.7290    -2.1360 H     1 <1>   0.0800 
 34 H       -4.8740    -6.8050     1.6510 H     1 <1>   0.1500 
 35 H       -7.7640    -4.2100    -0.0800 H     1 <1>   0.1500 
 36 H       -2.7680    -8.4260     1.6090 H     1 <1>   0.0800 
 37 H       -1.2550    -9.1730     2.0200 H     1 <1>   0.0800 
 38 H       -2.3880    -9.2130    -2.0960 H     1 <1>   0.0800 
 39 H       -3.4800    -8.4490    -0.9810 H     1 <1>   0.0800 
 40 H       -9.4680    -5.9290     0.4860 H     1 <1>   0.1500 
 41 H       -2.4280   -10.3460     0.1400 H     1 <1>   0.0800 
 42 H       -0.8420    -9.7760    -0.3020 H     1 <1>   0.0800 
 43 H       -8.7710    -7.9960     1.5870 H     1 <1>   0.1500 
@<TRIPOS>BOND
  1   1   2  1   
  2   2   3  1   
  3   2   4  1   
  4   2   5  1   
  5   5   6  ar  
  6   5   7  ar  
  7   6   8  ar  
  8   6  26  1   
  9   7   9  ar  
 10   7  27  1   
 11   8  10  1   
 12   8  11  ar  
 13   9  11  ar  
 14   9  28  1   
 15  10  12  am  
 16  10  29  1   
 17  11  13  1   
 18  12  14  2   
 19  12  15  1   
 20  13  16  1   
 21  13  17  1   
 22  15  18  ar  
 23  15  19  ar  
 24  16  20  1   
 25  16  30  1   
 26  16  31  1   
 27  17  21  1   
 28  17  32  1   
 29  17  33  1   
 30  18  22  ar  
 31  18  34  1   
 32  19  23  ar  
 33  19  35  1   
 34  20  24  1   
 35  20  36  1   
 36  20  37  1   
 37  21  24  1   
 38  21  38  1   
 39  21  39  1   
 40  22  25  ar  
 41  23  25  ar  
 42  23  40  1   
 43  24  41  1   
 44  24  42  1   
 45  25  43  1   
@<TRIPOS>SUBSTRUCTURE
  1 ****  10 GROUP 4 **** **** 0

# MOE 2024.06 (io_trps.svl 2023.06)
