@<TRIPOS>MOLECULE
NONAME
54 56 1 0 0 
SMALL
USER_CHARGES


@<TRIPOS>ATOM
  1 F       -2.5550    -2.3990     3.2880 F     1 <1>  -0.1900 
  2 C       -2.1310    -2.7320     2.0980 C.ar  1 <1>   0.1900 
  3 C       -2.2450    -4.0490     1.6960 C.ar  1 <1>  -0.1500 
  4 C       -1.5880    -1.7550     1.2880 C.ar  1 <1>  -0.1500 
  5 C       -1.7960    -4.4100     0.4320 C.ar  1 <1>  -0.1440 
  6 C       -1.1460    -2.1150     0.0260 C.ar  1 <1>  -0.1500 
  7 C       -1.2530    -3.4330    -0.3950 C.ar  1 <1>  -0.1500 
  8 C       -1.9070    -5.8630    -0.0410 C.3   1 <1>   0.3400 
  9 C       -3.3840    -6.1800    -0.2730 C.2   1 <1>  -0.1240 
 10 C       -1.2240    -6.7780     0.9920 C.2   1 <1>  -0.1240 
 11 C       -4.0290    -7.0210     0.5690 C.2   1 <1>  -0.0380 
 12 C       -4.0130    -5.5510    -1.3860 C.2   1 <1>   0.4950 
 13 C       -1.9990    -7.6250     1.7310 C.2   1 <1>  -0.0380 
 14 C        0.1980    -6.5870     1.0800 C.2   1 <1>   0.7060 
 15 N       -3.3670    -7.6860     1.5690 N.pl3 1 <1>  -0.6000 
 16 C       -5.5210    -7.2910     0.4320 C.3   1 <1>  -0.0220 
 17 O       -3.4320    -4.8860    -2.2100 O.2   1 <1>  -0.5700 
 18 C       -5.5020    -5.7780    -1.5960 C.3   1 <1>  -0.0990 
 19 C       -1.4920    -8.5880     2.7950 C.3   1 <1>  -0.1020 
 20 O        0.8800    -6.9540     2.0170 O.2   1 <1>  -0.5700 
 21 O        0.8200    -5.9580     0.0740 O.3   1 <1>  -0.4300 
 22 C       -6.2520    -6.1370    -0.2940 C.3   1 <1>   0.0000 
 23 C        2.2030    -5.6620     0.1190 C.3   1 <1>   0.1200 
 24 C       -6.3280    -4.9000     0.6230 C.3   1 <1>  -0.2400 
 25 C       -7.6870    -6.5690    -0.6340 C.3   1 <1>  -0.2400 
 26 C        2.5630    -4.8400    -1.1150 C.3   1 <1>   0.1200 
 27 O        3.9290    -4.5660    -1.0830 O.3   1 <1>  -0.5600 
 28 C        4.3790    -3.8130    -2.1620 C.3   1 <1>   0.0400 
 29 H       -2.6780    -4.7740     2.3630 H     1 <1>   0.1500 
 30 H       -1.5160    -0.7410     1.6370 H     1 <1>   0.1500 
 31 H       -0.7240    -1.3740    -0.6300 H     1 <1>   0.1500 
 32 H       -0.9160    -3.6950    -1.3840 H     1 <1>   0.1500 
 33 H       -1.4090    -5.9840    -0.9870 H     1 <1>   0.0800 
 34 H       -3.9010    -8.3080     2.1880 H     1 <1>   0.4000 
 35 H       -5.9560    -7.4250     1.4070 H     1 <1>   0.0800 
 36 H       -5.6470    -8.2100    -0.1130 H     1 <1>   0.0800 
 37 H       -5.6060    -6.5750    -2.3090 H     1 <1>   0.0800 
 38 H       -5.9280    -4.8930    -2.0330 H     1 <1>   0.0800 
 39 H       -1.5790    -8.1350     3.7660 H     1 <1>   0.0800 
 40 H       -0.4680    -8.8640     2.6330 H     1 <1>   0.0800 
 41 H       -2.0660    -9.4970     2.7830 H     1 <1>   0.0800 
 42 H        2.7490    -6.5890     0.1340 H     1 <1>   0.0800 
 43 H        2.4020    -5.0980     1.0150 H     1 <1>   0.0800 
 44 H       -5.3480    -4.5540     0.9020 H     1 <1>   0.0800 
 45 H       -6.8660    -5.1310     1.5250 H     1 <1>   0.0800 
 46 H       -6.8360    -4.0920     0.1270 H     1 <1>   0.0800 
 47 H       -7.6850    -7.4310    -1.2780 H     1 <1>   0.0800 
 48 H       -8.2110    -5.7750    -1.1370 H     1 <1>   0.0800 
 49 H       -8.2300    -6.8170     0.2610 H     1 <1>   0.0800 
 50 H        2.0250    -3.9080    -1.1100 H     1 <1>   0.0800 
 51 H        2.3470    -5.3990    -2.0090 H     1 <1>   0.0800 
 52 H        5.4370    -3.6570    -2.0430 H     1 <1>   0.0800 
 53 H        3.8710    -2.8640    -2.1710 H     1 <1>   0.0800 
 54 H        4.1930    -4.3530    -3.0750 H     1 <1>   0.0800 
@<TRIPOS>BOND
  1   1   2  1   
  2   2   3  ar  
  3   2   4  ar  
  4   3   5  ar  
  5   3  29  1   
  6   4   6  ar  
  7   4  30  1   
  8   5   7  ar  
  9   5   8  1   
 10   6   7  ar  
 11   6  31  1   
 12   7  32  1   
 13   8   9  1   
 14   8  10  1   
 15   8  33  1   
 16   9  11  2   
 17   9  12  1   
 18  10  13  2   
 19  10  14  1   
 20  11  15  1   
 21  11  16  1   
 22  12  17  2   
 23  12  18  1   
 24  13  15  1   
 25  13  19  1   
 26  14  20  2   
 27  14  21  1   
 28  15  34  1   
 29  16  22  1   
 30  16  35  1   
 31  16  36  1   
 32  18  22  1   
 33  18  37  1   
 34  18  38  1   
 35  19  39  1   
 36  19  40  1   
 37  19  41  1   
 38  21  23  1   
 39  22  24  1   
 40  22  25  1   
 41  23  26  1   
 42  23  42  1   
 43  23  43  1   
 44  24  44  1   
 45  24  45  1   
 46  24  46  1   
 47  25  47  1   
 48  25  48  1   
 49  25  49  1   
 50  26  27  1   
 51  26  50  1   
 52  26  51  1   
 53  27  28  1   
 54  28  52  1   
 55  28  53  1   
 56  28  54  1   
@<TRIPOS>SUBSTRUCTURE
  1 ****   8 GROUP 4 **** **** 0

# MOE 2024.06 (io_trps.svl 2023.06)
