@<TRIPOS>MOLECULE
NONAME
47 49 1 0 0 
SMALL
USER_CHARGES


@<TRIPOS>ATOM
  1 O       -0.1900     1.2280    -2.0920 O.2   1 <1>  -0.5700 
  2 C       -0.1500     2.3620    -1.6540 C.2   1 <1>   0.5440 
  3 N       -1.3280     2.9760    -1.2880 N.am  1 <1>  -0.6600 
  4 C        1.1320     3.0230    -1.5060 C.ar  1 <1>   0.0860 
  5 C       -2.6630     2.3730    -1.5900 C.3   1 <1>   0.1400 
  6 C       -1.4180     4.0780    -0.2780 C.3   1 <1>   0.1400 
  7 C        2.1860     2.3850    -0.8570 C.ar  1 <1>  -0.1500 
  8 C        1.3540     4.3080    -2.0030 C.ar  1 <1>  -0.1500 
  9 C       -3.3350     1.8580    -0.3070 C.3   1 <1>   0.2090 
 10 C       -2.1120     3.5970     1.0110 C.3   1 <1>   0.2090 
 11 C        3.4150     3.0120    -0.6840 C.ar  1 <1>   0.0820 
 12 C        2.5720     4.9410    -1.8400 C.ar  1 <1>  -0.1500 
 13 N       -3.4240     2.9290     0.7340 N.pl3 1 <1>  -0.8380 
 14 O        4.4770     2.4500    -0.0530 O.3   1 <1>  -0.3630 
 15 C        3.5990     4.2930    -1.1780 C.ar  1 <1>  -0.1500 
 16 C       -4.5800     3.6860     0.7670 C.ar  1 <1>   0.4100 
 17 C        4.4590     1.1450     0.4810 C.3   1 <1>   0.2000 
 18 N       -4.4990     4.9480     0.3600 N.ar  1 <1>  -0.6200 
 19 C       -5.7650     3.1020     1.2080 C.ar  1 <1>  -0.1500 
 20 C        3.7920     1.1830     1.8590 C.3   1 <1>  -0.2400 
 21 C        5.9100     0.6860     0.5870 C.3   1 <1>  -0.2400 
 22 C       -5.6270     5.6380     0.3910 C.ar  1 <1>   0.1600 
 23 C       -6.9300     3.8310     1.2350 C.ar  1 <1>  -0.1500 
 24 C       -6.8480     5.1410     0.8100 C.ar  1 <1>  -0.1500 
 25 H       -2.5640     1.5650    -2.2930 H     1 <1>   0.0800 
 26 H       -3.2930     3.1220    -2.0370 H     1 <1>   0.0800 
 27 H       -1.9850     4.8920    -0.6960 H     1 <1>   0.0800 
 28 H       -0.4430     4.4510    -0.0250 H     1 <1>   0.0800 
 29 H        2.0090     1.3910    -0.4940 H     1 <1>   0.1500 
 30 H        0.5560     4.8100    -2.5230 H     1 <1>   0.1500 
 31 H       -2.7650     1.0320     0.0820 H     1 <1>   0.0800 
 32 H       -4.3200     1.4980    -0.5460 H     1 <1>   0.0800 
 33 H       -2.2660     4.4360     1.6670 H     1 <1>   0.0800 
 34 H       -1.4680     2.9010     1.5180 H     1 <1>   0.0800 
 35 H        2.7250     5.9330    -2.2280 H     1 <1>   0.1500 
 36 H        4.5510     4.7730    -1.0430 H     1 <1>   0.1500 
 37 H        3.9340     0.4950    -0.1970 H     1 <1>   0.0800 
 38 H       -5.7460     2.0790     1.5300 H     1 <1>   0.1500 
 39 H        4.3300     1.8450     2.5130 H     1 <1>   0.0800 
 40 H        3.7920     0.1990     2.2910 H     1 <1>   0.0800 
 41 H        2.7740     1.5160     1.7810 H     1 <1>   0.0800 
 42 H        6.4650     1.3410     1.2340 H     1 <1>   0.0800 
 43 H        6.3630     0.6810    -0.3880 H     1 <1>   0.0800 
 44 H        5.9530    -0.3110     0.9870 H     1 <1>   0.0800 
 45 H       -5.5750     6.6620     0.0640 H     1 <1>   0.1500 
 46 H       -7.8590     3.4030     1.5710 H     1 <1>   0.1500 
 47 H       -7.7200     5.7690     0.8050 H     1 <1>   0.1500 
@<TRIPOS>BOND
  1   1   2  2   
  2   2   3  am  
  3   2   4  1   
  4   3   5  1   
  5   3   6  1   
  6   4   7  ar  
  7   4   8  ar  
  8   5   9  1   
  9   5  25  1   
 10   5  26  1   
 11   6  10  1   
 12   6  27  1   
 13   6  28  1   
 14   7  11  ar  
 15   7  29  1   
 16   8  12  ar  
 17   8  30  1   
 18   9  13  1   
 19   9  31  1   
 20   9  32  1   
 21  10  13  1   
 22  10  33  1   
 23  10  34  1   
 24  11  14  1   
 25  11  15  ar  
 26  12  15  ar  
 27  12  35  1   
 28  13  16  1   
 29  14  17  1   
 30  15  36  1   
 31  16  18  ar  
 32  16  19  ar  
 33  17  20  1   
 34  17  21  1   
 35  17  37  1   
 36  18  22  ar  
 37  19  23  ar  
 38  19  38  1   
 39  20  39  1   
 40  20  40  1   
 41  20  41  1   
 42  21  42  1   
 43  21  43  1   
 44  21  44  1   
 45  22  24  ar  
 46  22  45  1   
 47  23  24  ar  
 48  23  46  1   
 49  24  47  1   
@<TRIPOS>SUBSTRUCTURE
  1 ****   6 GROUP 4 **** **** 0

# MOE 2024.06 (io_trps.svl 2023.06)
