@<TRIPOS>MOLECULE
NONAME
38 39 1 0 0 
SMALL
USER_CHARGES


@<TRIPOS>ATOM
  1 O       -0.1520     0.5580    -0.8130 O.3   1 <1>  -0.5600 
  2 C        0.5660    -0.5560    -0.3750 C.3   1 <1>   0.4800 
  3 C       -1.1670     0.9820     0.0650 C.3   1 <1>   0.2000 
  4 O        1.7140    -0.6150    -1.1900 O.3   1 <1>  -0.3630 
  5 C       -0.3160    -1.8240    -0.5150 C.3   1 <1>   0.2000 
  6 C       -1.8880    -0.2250     0.7380 C.3   1 <1>   0.2000 
  7 C       -2.0950     1.9290    -0.7280 C.3   1 <1>   0.1200 
  8 C        2.7800    -1.2520    -0.6510 C.ar  1 <1>   0.0830 
  9 O       -0.3000    -2.3090    -1.8320 O.3   1 <1>  -0.6800 
 10 C       -1.7740    -1.5030    -0.1160 C.3   1 <1>   0.2000 
 11 O       -3.2340     0.0510     0.9760 O.3   1 <1>  -0.6800 
 12 O       -2.9330     1.2220    -1.5940 O.3   1 <1>  -0.6800 
 13 C        3.4530    -0.7600     0.4730 C.ar  1 <1>   0.0830 
 14 C        3.1950    -2.4340    -1.2400 C.ar  1 <1>  -0.1500 
 15 O       -2.3330    -2.5630     0.5950 O.3   1 <1>  -0.6800 
 16 O        3.1090     0.4050     1.0770 O.3   1 <1>  -0.3630 
 17 C        4.5080    -1.4800     1.0090 C.ar  1 <1>  -0.1500 
 18 C        4.2600    -3.1410    -0.7070 C.ar  1 <1>  -0.1500 
 19 C        3.3080     1.5820     0.3240 C.3   1 <1>   0.0400 
 20 C        4.9130    -2.6660     0.4190 C.ar  1 <1>  -0.1500 
 21 H        0.8600    -0.3950     0.6480 H     1 <1>   0.0800 
 22 H       -0.6800     1.5550     0.8340 H     1 <1>   0.0800 
 23 H        0.0770    -2.5960     0.1220 H     1 <1>   0.0800 
 24 H       -1.4320    -0.4040     1.6960 H     1 <1>   0.0800 
 25 H       -1.5020     2.6170    -1.3060 H     1 <1>   0.0800 
 26 H       -2.7180     2.4880    -0.0520 H     1 <1>   0.0800 
 27 H       -0.2260    -1.5490    -2.4450 H     1 <1>   0.4000 
 28 H       -2.3530    -1.3640    -1.0130 H     1 <1>   0.0800 
 29 H       -3.6330     0.3350     0.1190 H     1 <1>   0.4000 
 30 H       -3.2660     1.8090    -2.3030 H     1 <1>   0.4000 
 31 H        2.6760    -2.8000    -2.1090 H     1 <1>   0.1500 
 32 H       -3.2030    -2.2730     0.9410 H     1 <1>   0.4000 
 33 H        5.0110    -1.1060     1.8820 H     1 <1>   0.1500 
 34 H        4.5770    -4.0610    -1.1670 H     1 <1>   0.1500 
 35 H        3.1430     2.4260     0.9690 H     1 <1>   0.0800 
 36 H        2.6120     1.6070    -0.4950 H     1 <1>   0.0800 
 37 H        4.3180     1.5930    -0.0450 H     1 <1>   0.0800 
 38 H        5.7370    -3.2200     0.8360 H     1 <1>   0.1500 
@<TRIPOS>BOND
  1   1   2  1   
  2   1   3  1   
  3   2   4  1   
  4   2   5  1   
  5   2  21  1   
  6   3   6  1   
  7   3   7  1   
  8   3  22  1   
  9   4   8  1   
 10   5   9  1   
 11   5  10  1   
 12   5  23  1   
 13   6  10  1   
 14   6  11  1   
 15   6  24  1   
 16   7  12  1   
 17   7  25  1   
 18   7  26  1   
 19   8  13  ar  
 20   8  14  ar  
 21   9  27  1   
 22  10  15  1   
 23  10  28  1   
 24  11  29  1   
 25  12  30  1   
 26  13  16  1   
 27  13  17  ar  
 28  14  18  ar  
 29  14  31  1   
 30  15  32  1   
 31  16  19  1   
 32  17  20  ar  
 33  17  33  1   
 34  18  20  ar  
 35  18  34  1   
 36  19  35  1   
 37  19  36  1   
 38  19  37  1   
 39  20  38  1   
@<TRIPOS>SUBSTRUCTURE
  1 ****   2 GROUP 4 **** **** 0

# MOE 2024.06 (io_trps.svl 2023.06)
