@<TRIPOS>MOLECULE
NONAME
45 47 1 0 0 
SMALL
USER_CHARGES


@<TRIPOS>ATOM
  1 S       -0.9710    -0.2260    -0.1800 S.3   1 <1>  -0.0800 
  2 C       -1.5550     1.3540     0.3220 C.2   1 <1>  -0.1400 
  3 C       -0.4320     0.4130    -1.7220 C.2   1 <1>  -0.1100 
  4 C       -1.3300     2.2660    -0.6430 C.2   1 <1>  -0.1500 
  5 C       -2.1950     1.4660     1.7000 C.3   1 <1>   0.0810 
  6 C       -0.6920     1.7300    -1.8070 C.2   1 <1>  -0.1500 
  7 C       -3.2820     0.4290     1.9800 C.2   1 <1>   0.5690 
  8 O       -3.2410    -0.1260     3.0510 O.2   1 <1>  -0.5700 
  9 N       -4.2850     0.1300     1.0820 N.am  1 <1>  -0.6600 
 10 C       -5.1120    -1.1050     1.2720 C.3   1 <1>   0.1400 
 11 C       -4.5560     0.8850    -0.1820 C.3   1 <1>   0.1400 
 12 C       -6.6070    -0.8280     1.0440 C.3   1 <1>   0.3430 
 13 C       -6.0660     1.0990    -0.4100 C.3   1 <1>   0.3430 
 14 N       -6.8560    -0.1760    -0.2930 N.4   1 <1>  -0.9590 
 15 C       -8.2970     0.0400    -0.6160 C.3   1 <1>   0.4230 
 16 C       -9.0370     0.8410     0.4690 C.3   1 <1>  -0.1600 
 17 C       -8.9850    -1.3080    -0.8700 C.3   1 <1>  -0.1600 
 18 C      -10.5060     1.0550     0.0730 C.3   1 <1>  -0.1600 
 19 C      -10.4540    -1.1020    -1.2670 C.3   1 <1>  -0.1600 
 20 C      -11.2050    -0.2820    -0.2090 C.3   1 <1>  -0.1600 
 21 H        0.0340    -0.2740    -2.4070 H     1 <1>   0.1500 
 22 H       -1.5770     3.3130    -0.5930 H     1 <1>   0.1500 
 23 H       -2.6120     2.4460     1.8300 H     1 <1>   0.0800 
 24 H       -1.4210     1.3460     2.4360 H     1 <1>   0.0800 
 25 H       -0.4540     2.3580    -2.6480 H     1 <1>   0.1500 
 26 H       -4.9870    -1.4980     2.2670 H     1 <1>   0.0800 
 27 H       -4.7740    -1.8630     0.5870 H     1 <1>   0.0800 
 28 H       -4.1320     0.3460    -1.0120 H     1 <1>   0.0800 
 29 H       -4.0870     1.8520    -0.1460 H     1 <1>   0.0800 
 30 H       -6.9550    -0.1860     1.8360 H     1 <1>   0.0800 
 31 H       -7.1460    -1.7580     1.1110 H     1 <1>   0.0800 
 32 H       -6.2130     1.5330    -1.3850 H     1 <1>   0.0800 
 33 H       -6.4190     1.8080     0.3210 H     1 <1>   0.0800 
 34 H       -6.4910    -0.8190    -1.0070 H     1 <1>   0.4500 
 35 H       -8.3580     0.6030    -1.5340 H     1 <1>   0.0800 
 36 H       -8.5810     1.8050     0.6050 H     1 <1>   0.0800 
 37 H       -9.0220     0.3160     1.4060 H     1 <1>   0.0800 
 38 H       -8.9600    -1.9170     0.0160 H     1 <1>   0.0800 
 39 H       -8.4850    -1.8330    -1.6650 H     1 <1>   0.0800 
 40 H      -10.5610     1.6770    -0.8050 H     1 <1>   0.0800 
 41 H      -11.0250     1.5670     0.8660 H     1 <1>   0.0800 
 42 H      -10.9360    -2.0580    -1.3860 H     1 <1>   0.0800 
 43 H      -10.5080    -0.5920    -2.2150 H     1 <1>   0.0800 
 44 H      -12.2110    -0.0960    -0.5480 H     1 <1>   0.0800 
 45 H      -11.2730    -0.8510     0.7030 H     1 <1>   0.0800 
@<TRIPOS>BOND
  1   1   2  1   
  2   1   3  1   
  3   2   4  2   
  4   2   5  1   
  5   3   6  2   
  6   3  21  1   
  7   4   6  1   
  8   4  22  1   
  9   5   7  1   
 10   5  23  1   
 11   5  24  1   
 12   6  25  1   
 13   7   8  2   
 14   7   9  am  
 15   9  10  1   
 16   9  11  1   
 17  10  12  1   
 18  10  26  1   
 19  10  27  1   
 20  11  13  1   
 21  11  28  1   
 22  11  29  1   
 23  12  14  1   
 24  12  30  1   
 25  12  31  1   
 26  13  14  1   
 27  13  32  1   
 28  13  33  1   
 29  14  15  1   
 30  14  34  1   
 31  15  16  1   
 32  15  17  1   
 33  15  35  1   
 34  16  18  1   
 35  16  36  1   
 36  16  37  1   
 37  17  19  1   
 38  17  38  1   
 39  17  39  1   
 40  18  20  1   
 41  18  40  1   
 42  18  41  1   
 43  19  20  1   
 44  19  42  1   
 45  19  43  1   
 46  20  44  1   
 47  20  45  1   
@<TRIPOS>SUBSTRUCTURE
  1 ****  11 GROUP 4 **** **** 0

# MOE 2024.06 (io_trps.svl 2023.06)
