@<TRIPOS>MOLECULE
NONAME
42 43 1 0 0 
SMALL
USER_CHARGES


@<TRIPOS>ATOM
  1 O        0.3370    -0.2740     0.4430 O.2   1 <1>  -0.5700 
  2 C        0.8620    -1.3600     0.2740 C.2   1 <1>   0.5440 
  3 N        0.0620    -2.4840     0.2230 N.am  1 <1>  -0.6600 
  4 C        2.3020    -1.4360     0.1210 C.ar  1 <1>   0.0860 
  5 C       -1.3850    -2.3830     0.5790 C.3   1 <1>   0.1400 
  6 C        0.5350    -3.7800    -0.3530 C.3   1 <1>   0.1400 
  7 C        3.0780    -2.2980     0.8990 C.ar  1 <1>  -0.1500 
  8 C        2.9650    -0.6410    -0.8120 C.ar  1 <1>  -0.1500 
  9 C       -1.9510    -3.7590     0.9450 C.3   1 <1>  -0.1600 
 10 C       -0.6010    -4.4790    -1.1080 C.3   1 <1>  -0.1600 
 11 C        4.4490    -2.3790     0.7420 C.ar  1 <1>  -0.1500 
 12 C        4.3350    -0.7160    -0.9770 C.ar  1 <1>  -0.1500 
 13 C       -1.8090    -4.7750    -0.2020 C.3   1 <1>  -0.1600 
 14 C        5.0890    -1.5850    -0.2060 C.ar  1 <1>   0.0830 
 15 O        6.4220    -1.6020    -0.4280 O.3   1 <1>  -0.3630 
 16 C        7.2940    -2.4100     0.3320 C.3   1 <1>   0.1200 
 17 C        8.7410    -2.1750    -0.1290 C.3   1 <1>  -0.0800 
 18 C        9.6960    -3.1090     0.6260 C.3   1 <1>  -0.2400 
 19 C        9.1740    -0.7160     0.0770 C.3   1 <1>  -0.2400 
 20 H       -1.9220    -1.9750    -0.2600 H     1 <1>   0.0800 
 21 H       -1.5030    -1.7100     1.4110 H     1 <1>   0.0800 
 22 H        0.8810    -4.4130     0.4450 H     1 <1>   0.0800 
 23 H        1.3530    -3.6050    -1.0310 H     1 <1>   0.0800 
 24 H        2.5880    -2.9060     1.6400 H     1 <1>   0.1500 
 25 H        2.3880     0.0440    -1.4110 H     1 <1>   0.1500 
 26 H       -2.9880    -3.6620     1.2160 H     1 <1>   0.0800 
 27 H       -1.4240    -4.1160     1.8130 H     1 <1>   0.0800 
 28 H       -0.2400    -5.3960    -1.5390 H     1 <1>   0.0800 
 29 H       -0.9060    -3.8400    -1.9180 H     1 <1>   0.0800 
 30 H        5.0020    -3.0590     1.3620 H     1 <1>   0.1500 
 31 H        4.8320    -0.0980    -1.7030 H     1 <1>   0.1500 
 32 H       -2.7010    -4.7660    -0.8060 H     1 <1>   0.0800 
 33 H       -1.7140    -5.7600     0.2210 H     1 <1>   0.0800 
 34 H        7.0150    -3.4380     0.1800 H     1 <1>   0.0800 
 35 H        7.1830    -2.1470     1.3690 H     1 <1>   0.0800 
 36 H        8.8000    -2.4120    -1.1780 H     1 <1>   0.0800 
 37 H        9.6690    -2.9070     1.6830 H     1 <1>   0.0800 
 38 H       10.7040    -2.9700     0.2770 H     1 <1>   0.0800 
 39 H        9.4230    -4.1360     0.4630 H     1 <1>   0.0800 
 40 H        9.1120    -0.4440     1.1150 H     1 <1>   0.0800 
 41 H        8.5400    -0.0550    -0.4880 H     1 <1>   0.0800 
 42 H       10.1860    -0.5750    -0.2580 H     1 <1>   0.0800 
@<TRIPOS>BOND
  1   1   2  2   
  2   2   3  am  
  3   2   4  1   
  4   3   5  1   
  5   3   6  1   
  6   4   7  ar  
  7   4   8  ar  
  8   5   9  1   
  9   5  20  1   
 10   5  21  1   
 11   6  10  1   
 12   6  22  1   
 13   6  23  1   
 14   7  11  ar  
 15   7  24  1   
 16   8  12  ar  
 17   8  25  1   
 18   9  13  1   
 19   9  26  1   
 20   9  27  1   
 21  10  13  1   
 22  10  28  1   
 23  10  29  1   
 24  11  14  ar  
 25  11  30  1   
 26  12  14  ar  
 27  12  31  1   
 28  13  32  1   
 29  13  33  1   
 30  14  15  1   
 31  15  16  1   
 32  16  17  1   
 33  16  34  1   
 34  16  35  1   
 35  17  18  1   
 36  17  19  1   
 37  17  36  1   
 38  18  37  1   
 39  18  38  1   
 40  18  39  1   
 41  19  40  1   
 42  19  41  1   
 43  19  42  1   
@<TRIPOS>SUBSTRUCTURE
  1 ****   7 GROUP 4 **** **** 0

# MOE 2024.06 (io_trps.svl 2023.06)
