@<TRIPOS>MOLECULE
NONAME
34 35 1 0 0 
SMALL
USER_CHARGES


@<TRIPOS>ATOM
  1 CL      -0.9930    -0.5470     0.1280 Cl    1 <1>  -0.1770 
  2 C       -0.2330    -2.1070    -0.1050 C.ar  1 <1>   0.1770 
  3 C        1.1470    -2.2220    -0.2100 C.ar  1 <1>  -0.1440 
  4 C       -1.0680    -3.2070    -0.1780 C.ar  1 <1>  -0.1500 
  5 C        1.6970    -3.4990    -0.3720 C.ar  1 <1>   0.1170 
  6 C        2.0290    -0.9740    -0.1450 C.3   1 <1>  -0.0960 
  7 C       -0.5220    -4.4640    -0.3540 C.ar  1 <1>  -0.1500 
  8 N        3.0750    -3.7310    -0.4770 N.am  1 <1>  -0.5470 
  9 C        0.8510    -4.6010    -0.4490 C.ar  1 <1>  -0.1500 
 10 C        4.0440    -3.4630     0.4390 C.2   1 <1>   0.6900 
 11 O        3.7830    -2.9970     1.5300 O.2   1 <1>  -0.5700 
 12 N        5.3230    -3.7400     0.0930 N.am  1 <1>  -0.7300 
 13 C        6.4970    -3.5050     0.9490 C.3   1 <1>   0.2200 
 14 C        7.3290    -2.3810     0.3430 C.3   1 <1>  -0.1600 
 15 C        7.4200    -4.7130     0.8550 C.3   1 <1>  -0.1600 
 16 C        8.1600    -3.0300    -0.7690 C.3   1 <1>  -0.1600 
 17 C        8.2260    -4.5270    -0.4360 C.3   1 <1>  -0.1600 
 18 H       -2.1320    -3.0750    -0.0950 H     1 <1>   0.1500 
 19 H        1.5320    -0.1200    -0.5640 H     1 <1>   0.0800 
 20 H        2.9410    -1.1130    -0.6960 H     1 <1>   0.0800 
 21 H        2.2780    -0.7630     0.8800 H     1 <1>   0.0800 
 22 H       -1.1600    -5.3280    -0.4110 H     1 <1>   0.1500 
 23 H        3.3590    -4.3800    -1.2010 H     1 <1>   0.3700 
 24 H        1.2730    -5.5810    -0.5740 H     1 <1>   0.1500 
 25 H        5.5520    -3.9530    -0.8730 H     1 <1>   0.3700 
 26 H        6.1980    -3.2950     1.9630 H     1 <1>   0.0800 
 27 H        7.9930    -2.0060     1.1020 H     1 <1>   0.0800 
 28 H        6.7180    -1.5680    -0.0090 H     1 <1>   0.0800 
 29 H        6.8780    -5.6430     0.8810 H     1 <1>   0.0800 
 30 H        8.0940    -4.6880     1.6930 H     1 <1>   0.0800 
 31 H        9.1440    -2.5940    -0.8160 H     1 <1>   0.0800 
 32 H        7.6740    -2.8900    -1.7190 H     1 <1>   0.0800 
 33 H        7.7810    -5.0970    -1.2330 H     1 <1>   0.0800 
 34 H        9.2430    -4.8550    -0.3020 H     1 <1>   0.0800 
@<TRIPOS>BOND
  1   1   2  1   
  2   2   3  ar  
  3   2   4  ar  
  4   3   5  ar  
  5   3   6  1   
  6   4   7  ar  
  7   4  18  1   
  8   5   8  1   
  9   5   9  ar  
 10   6  19  1   
 11   6  20  1   
 12   6  21  1   
 13   7   9  ar  
 14   7  22  1   
 15   8  10  am  
 16   8  23  1   
 17   9  24  1   
 18  10  11  2   
 19  10  12  am  
 20  12  13  1   
 21  12  25  1   
 22  13  14  1   
 23  13  15  1   
 24  13  26  1   
 25  14  16  1   
 26  14  27  1   
 27  14  28  1   
 28  15  17  1   
 29  15  29  1   
 30  15  30  1   
 31  16  17  1   
 32  16  31  1   
 33  16  32  1   
 34  17  33  1   
 35  17  34  1   
@<TRIPOS>SUBSTRUCTURE
  1 ****   8 GROUP 4 **** **** 0

# MOE 2024.06 (io_trps.svl 2023.06)
