@<TRIPOS>MOLECULE
NONAME
46 48 1 0 0 
SMALL
USER_CHARGES


@<TRIPOS>ATOM
  1 O        0.8130     0.3210    -0.6840 O.2   1 <1>  -0.5700 
  2 C        0.5060     1.4370    -0.3550 C.2   1 <1>   0.6590 
  3 O       -0.7140     1.7540     0.0460 O.3   1 <1>  -0.4300 
  4 C        1.5110     2.5760    -0.3810 C.3   1 <1>  -0.0190 
  5 C       -1.7420     0.7920     0.1230 C.3   1 <1>   0.1200 
  6 C        2.7400     2.1550    -1.2100 C.3   1 <1>   0.3430 
  7 C        1.9050     3.0340     1.0380 C.3   1 <1>  -0.1600 
  8 C       -3.0030     1.4880     0.6250 C.3   1 <1>  -0.2400 
  9 N        4.0140     2.7800    -0.7210 N.4   1 <1>  -0.9590 
 10 C        2.9260     4.1890     0.9860 C.3   1 <1>  -0.1600 
 11 C        3.8300     4.1820    -0.2540 C.3   1 <1>   0.3430 
 12 C        5.1210     2.6410    -1.7060 C.3   1 <1>   0.4860 
 13 C        6.4170     2.9680    -0.9960 C.ar  1 <1>  -0.1440 
 14 C        6.9360     2.0750    -0.0230 C.ar  1 <1>   0.0000 
 15 C        7.0590     4.1440    -1.2870 C.ar  1 <1>  -0.1500 
 16 C        8.0950     2.4640     0.6870 C.ar  1 <1>   0.0000 
 17 C        6.3690     0.8140     0.2860 C.ar  1 <1>  -0.1500 
 18 C        8.2230     4.5030    -0.6050 C.ar  1 <1>  -0.1500 
 19 C        8.7220     3.6830     0.3650 C.ar  1 <1>  -0.1500 
 20 C        8.6010     1.6210     1.6970 C.ar  1 <1>  -0.1500 
 21 C        6.8860     0.0140     1.2670 C.ar  1 <1>  -0.1500 
 22 C        8.0110     0.4250     1.9860 C.ar  1 <1>  -0.1500 
 23 H        1.0340     3.3970    -0.8860 H     1 <1>   0.0800 
 24 H       -1.4340     0.0140     0.8010 H     1 <1>   0.0800 
 25 H       -1.8960     0.3760    -0.8590 H     1 <1>   0.0800 
 26 H        2.5650     2.4220    -2.2400 H     1 <1>   0.0800 
 27 H        2.8510     1.0830    -1.1690 H     1 <1>   0.0800 
 28 H        2.3340     2.2000     1.5690 H     1 <1>   0.0800 
 29 H        1.0310     3.3470     1.5860 H     1 <1>   0.0800 
 30 H       -2.8350     1.9050     1.6010 H     1 <1>   0.0800 
 31 H       -3.8050     0.7750     0.6930 H     1 <1>   0.0800 
 32 H       -3.2960     2.2660    -0.0560 H     1 <1>   0.0800 
 33 H        4.3260     2.2620     0.1130 H     1 <1>   0.4500 
 34 H        3.5390     4.1580     1.8710 H     1 <1>   0.0800 
 35 H        2.4040     5.1300     1.0080 H     1 <1>   0.0800 
 36 H        3.3750     4.7660    -1.0380 H     1 <1>   0.0800 
 37 H        4.7800     4.6310    -0.0050 H     1 <1>   0.0800 
 38 H        4.9700     3.3110    -2.5360 H     1 <1>   0.0800 
 39 H        5.1660     1.6320    -2.0840 H     1 <1>   0.0800 
 40 H        6.6910     4.8250    -2.0370 H     1 <1>   0.1500 
 41 H        5.5200     0.4510    -0.2600 H     1 <1>   0.1500 
 42 H        8.7170     5.4300    -0.8490 H     1 <1>   0.1500 
 43 H        9.6150     3.9570     0.9000 H     1 <1>   0.1500 
 44 H        9.4740     1.9380     2.2410 H     1 <1>   0.1500 
 45 H        6.4470    -0.9430     1.4980 H     1 <1>   0.1500 
 46 H        8.4040    -0.2150     2.7590 H     1 <1>   0.1500 
@<TRIPOS>BOND
  1   1   2  2   
  2   2   3  1   
  3   2   4  1   
  4   3   5  1   
  5   4   6  1   
  6   4   7  1   
  7   4  23  1   
  8   5   8  1   
  9   5  24  1   
 10   5  25  1   
 11   6   9  1   
 12   6  26  1   
 13   6  27  1   
 14   7  10  1   
 15   7  28  1   
 16   7  29  1   
 17   8  30  1   
 18   8  31  1   
 19   8  32  1   
 20   9  11  1   
 21   9  12  1   
 22   9  33  1   
 23  10  11  1   
 24  10  34  1   
 25  10  35  1   
 26  11  36  1   
 27  11  37  1   
 28  12  13  1   
 29  12  38  1   
 30  12  39  1   
 31  13  14  ar  
 32  13  15  ar  
 33  14  16  ar  
 34  14  17  ar  
 35  15  18  ar  
 36  15  40  1   
 37  16  19  ar  
 38  16  20  ar  
 39  17  21  ar  
 40  17  41  1   
 41  18  19  ar  
 42  18  42  1   
 43  19  43  1   
 44  20  22  ar  
 45  20  44  1   
 46  21  22  ar  
 47  21  45  1   
 48  22  46  1   
@<TRIPOS>SUBSTRUCTURE
  1 ****   9 GROUP 4 **** **** 0

# MOE 2024.06 (io_trps.svl 2023.06)
