@<TRIPOS>MOLECULE
NONAME
43 45 1 0 0 
SMALL
USER_CHARGES


@<TRIPOS>ATOM
  1 S        0.5700    -0.4190     0.0820 S.3   1 <1>  -0.0800 
  2 C       -0.7090    -1.2400    -0.7920 C.2   1 <1>  -0.1100 
  3 C       -0.1220    -0.8880     1.6220 C.2   1 <1>  -0.1100 
  4 C       -1.5870    -1.8050     0.0600 C.2   1 <1>  -0.1810 
  5 C       -1.2440    -1.6090     1.4410 C.2   1 <1>  -0.1500 
  6 C       -2.8220    -2.5820    -0.3470 C.3   1 <1>   0.5240 
  7 N       -3.9210    -1.6140    -0.5930 N.4   1 <1>  -0.9590 
  8 C       -4.3210    -0.8750     0.6660 C.3   1 <1>   0.3430 
  9 C       -5.1140    -2.2790    -1.2380 C.3   1 <1>   0.3430 
 10 C       -5.4850     0.1090     0.4360 C.3   1 <1>   0.2090 
 11 C       -6.2830    -1.3020    -1.4810 C.3   1 <1>   0.2090 
 12 N       -6.6270    -0.5830    -0.2250 N.pl3 1 <1>  -0.8380 
 13 C       -7.8510     0.0850    -0.2170 C.ar  1 <1>   0.1000 
 14 C       -8.9510    -0.4060     0.4960 C.ar  1 <1>  -0.1430 
 15 C       -7.9830     1.2630    -0.9440 C.ar  1 <1>  -0.1500 
 16 C      -10.1620     0.2810     0.4550 C.ar  1 <1>  -0.1430 
 17 C       -8.8350    -1.6950     1.3110 C.3   1 <1>  -0.0970 
 18 C       -9.1800     1.9470    -0.9740 C.ar  1 <1>  -0.1500 
 19 C      -10.2660     1.4550    -0.2770 C.ar  1 <1>  -0.1500 
 20 C      -11.4000    -0.2130     1.1930 C.3   1 <1>  -0.0970 
 21 H       -0.6520    -1.2020    -1.8670 H     1 <1>   0.1500 
 22 H        0.3980    -0.5730     2.5110 H     1 <1>   0.1500 
 23 H       -1.8360    -2.0170     2.2430 H     1 <1>   0.1500 
 24 H       -3.0930    -3.2840     0.4250 H     1 <1>   0.0800 
 25 H       -2.6080    -3.1290    -1.2500 H     1 <1>   0.0800 
 26 H       -3.5520    -0.9090    -1.2420 H     1 <1>   0.4500 
 27 H       -3.4780    -0.3280     1.0550 H     1 <1>   0.0800 
 28 H       -4.6300    -1.5830     1.4170 H     1 <1>   0.0800 
 29 H       -5.4750    -3.0680    -0.5990 H     1 <1>   0.0800 
 30 H       -4.8280    -2.7210    -2.1790 H     1 <1>   0.0800 
 31 H       -5.1560     0.9330    -0.1730 H     1 <1>   0.0800 
 32 H       -5.8140     0.5060     1.3820 H     1 <1>   0.0800 
 33 H       -7.1460    -1.8490    -1.8210 H     1 <1>   0.0800 
 34 H       -6.0190    -0.5920    -2.2460 H     1 <1>   0.0800 
 35 H       -7.1450     1.6480    -1.4920 H     1 <1>   0.1500 
 36 H       -9.2810    -2.5060     0.7660 H     1 <1>   0.0800 
 37 H       -9.3370    -1.5910     2.2550 H     1 <1>   0.0800 
 38 H       -7.8140    -1.9450     1.5240 H     1 <1>   0.0800 
 39 H       -9.2730     2.8580    -1.5380 H     1 <1>   0.1500 
 40 H      -11.1960     1.9940    -0.3100 H     1 <1>   0.1500 
 41 H      -11.2610    -0.1070     2.2530 H     1 <1>   0.0800 
 42 H      -11.5830    -1.2470     0.9620 H     1 <1>   0.0800 
 43 H      -12.2700     0.3490     0.9070 H     1 <1>   0.0800 
@<TRIPOS>BOND
  1   1   2  1   
  2   1   3  1   
  3   2   4  2   
  4   2  21  1   
  5   3   5  2   
  6   3  22  1   
  7   4   5  1   
  8   4   6  1   
  9   5  23  1   
 10   6   7  1   
 11   6  24  1   
 12   6  25  1   
 13   7   8  1   
 14   7   9  1   
 15   7  26  1   
 16   8  10  1   
 17   8  27  1   
 18   8  28  1   
 19   9  11  1   
 20   9  29  1   
 21   9  30  1   
 22  10  12  1   
 23  10  31  1   
 24  10  32  1   
 25  11  12  1   
 26  11  33  1   
 27  11  34  1   
 28  12  13  1   
 29  13  14  ar  
 30  13  15  ar  
 31  14  16  ar  
 32  14  17  1   
 33  15  18  ar  
 34  15  35  1   
 35  16  19  ar  
 36  16  20  1   
 37  17  36  1   
 38  17  37  1   
 39  17  38  1   
 40  18  19  ar  
 41  18  39  1   
 42  19  40  1   
 43  20  41  1   
 44  20  42  1   
 45  20  43  1   
@<TRIPOS>SUBSTRUCTURE
  1 ****  10 GROUP 4 **** **** 0

# MOE 2024.06 (io_trps.svl 2023.06)
