@<TRIPOS>MOLECULE
NONAME
38 39 1 0 0 
SMALL
USER_CHARGES


@<TRIPOS>ATOM
  1 CL      -1.7410     1.4690    -2.9410 Cl    1 <1>  -0.1770 
  2 C       -0.8960     2.2810    -1.6460 C.ar  1 <1>   0.1770 
  3 C        0.1200     1.6210    -0.9840 C.ar  1 <1>  -0.1500 
  4 C       -1.2660     3.5650    -1.2990 C.ar  1 <1>  -0.1500 
  5 C        0.7990     2.2610     0.0400 C.ar  1 <1>  -0.1440 
  6 C       -0.6010     4.2210    -0.2760 C.ar  1 <1>  -0.1440 
  7 C        0.4570     3.5730     0.3720 C.ar  1 <1>   0.0830 
  8 C        1.8940     1.5030     0.7790 C.3   1 <1>  -0.0960 
  9 C       -1.0760     5.6150     0.1150 C.3   1 <1>  -0.0960 
 10 O        1.1530     4.2010     1.3520 O.3   1 <1>  -0.3630 
 11 C        2.0360     5.2410     0.9830 C.3   1 <1>   0.1200 
 12 C        3.3730     4.6480     0.5310 C.3   1 <1>  -0.1600 
 13 C        4.3870     5.7540     0.2060 C.3   1 <1>  -0.1600 
 14 C        5.7220     5.1620    -0.2610 C.3   1 <1>   0.0960 
 15 N        6.6780     6.2400    -0.5750 N.pl3 1 <1>   0.0480 
 16 C        6.9000     6.8290    -1.7720 C.2   1 <1>   0.0360 
 17 C        7.5180     6.8640     0.2710 C.2   1 <1>  -0.3020 
 18 N        7.8000     7.7580    -1.7440 N.2   1 <1>  -0.5650 
 19 C        8.1910     7.7820    -0.4560 C.2   1 <1>   0.0770 
 20 H        0.3670     0.6160    -1.2720 H     1 <1>   0.1500 
 21 H       -2.0750     4.0370    -1.8270 H     1 <1>   0.1500 
 22 H        1.6970     0.4460     0.7620 H     1 <1>   0.0800 
 23 H        1.9430     1.8130     1.8070 H     1 <1>   0.0800 
 24 H        2.8460     1.6830     0.3140 H     1 <1>   0.0800 
 25 H       -2.1340     5.7090    -0.0500 H     1 <1>   0.0800 
 26 H       -0.5700     6.3580    -0.4740 H     1 <1>   0.0800 
 27 H       -0.8880     5.8010     1.1570 H     1 <1>   0.0800 
 28 H        2.1730     5.8630     1.8490 H     1 <1>   0.0800 
 29 H        1.5920     5.8240     0.1970 H     1 <1>   0.0800 
 30 H        3.2090     4.0480    -0.3480 H     1 <1>   0.0800 
 31 H        3.7600     4.0230     1.3160 H     1 <1>   0.0800 
 32 H        4.5530     6.3550     1.0830 H     1 <1>   0.0800 
 33 H        3.9890     6.3850    -0.5710 H     1 <1>   0.0800 
 34 H        5.5770     4.5620    -1.1410 H     1 <1>   0.0800 
 35 H        6.1460     4.5420     0.5100 H     1 <1>   0.0800 
 36 H        6.3660     6.5370    -2.6590 H     1 <1>   0.1500 
 37 H        7.5910     6.6290     1.3170 H     1 <1>   0.1500 
 38 H        8.9480     8.4690    -0.1160 H     1 <1>   0.1500 
@<TRIPOS>BOND
  1   1   2  1   
  2   2   3  ar  
  3   2   4  ar  
  4   3   5  ar  
  5   3  20  1   
  6   4   6  ar  
  7   4  21  1   
  8   5   7  ar  
  9   5   8  1   
 10   6   7  ar  
 11   6   9  1   
 12   7  10  1   
 13   8  22  1   
 14   8  23  1   
 15   8  24  1   
 16   9  25  1   
 17   9  26  1   
 18   9  27  1   
 19  10  11  1   
 20  11  12  1   
 21  11  28  1   
 22  11  29  1   
 23  12  13  1   
 24  12  30  1   
 25  12  31  1   
 26  13  14  1   
 27  13  32  1   
 28  13  33  1   
 29  14  15  1   
 30  14  34  1   
 31  14  35  1   
 32  15  16  1   
 33  15  17  1   
 34  16  18  2   
 35  16  36  1   
 36  17  19  2   
 37  17  37  1   
 38  18  19  1   
 39  19  38  1   
@<TRIPOS>SUBSTRUCTURE
  1 ****  12 GROUP 4 **** **** 0

# MOE 2024.06 (io_trps.svl 2023.06)
