@<TRIPOS>MOLECULE
NONAME
50 52 1 0 0 
SMALL
USER_CHARGES


@<TRIPOS>ATOM
  1 S       -0.2570     0.0300     1.4460 S.o2  1 <1>   1.4470 
  2 O        0.2960    -1.0710     2.2060 O.2   1 <1>  -0.6500 
  3 O       -0.9980     1.0630     2.1370 O.2   1 <1>  -0.6500 
  4 N        1.0510     0.7810     0.6690 N.am  1 <1>  -0.8490 
  5 C       -1.2510    -0.5980     0.0630 C.ar  1 <1>  -0.0090 
  6 C        1.9510    -0.1950     0.0490 C.3   1 <1>   0.1960 
  7 C        1.7670     1.6760     1.5810 C.3   1 <1>   0.1960 
  8 C       -1.6750    -1.9220     0.0200 C.ar  1 <1>  -0.1500 
  9 C       -1.6120     0.2350    -0.9900 C.ar  1 <1>  -0.1500 
 10 C        3.0360     0.5200    -0.7590 C.3   1 <1>  -0.1600 
 11 C        2.8550     2.4430     0.8260 C.3   1 <1>  -0.1600 
 12 C       -2.4260    -2.4010    -1.0400 C.ar  1 <1>  -0.1500 
 13 C       -2.3630    -0.2350    -2.0540 C.ar  1 <1>  -0.1500 
 14 C        3.8400     1.4840     0.1300 C.3   1 <1>  -0.0190 
 15 C       -2.7700    -1.5560    -2.0790 C.ar  1 <1>  -0.1500 
 16 C        4.9310     2.2110    -0.6700 C.2   1 <1>   0.5690 
 17 O        4.6860     3.3300    -1.0620 O.2   1 <1>  -0.5700 
 18 N        6.1490     1.6200    -0.9320 N.am  1 <1>  -0.6600 
 19 C        7.2240     2.4220    -1.5790 C.3   1 <1>   0.1400 
 20 C        6.5080     0.2020    -0.6340 C.3   1 <1>   0.1400 
 21 C        7.9900     3.2100    -0.5100 C.3   1 <1>  -0.1600 
 22 C        7.8690     0.0470     0.0630 C.3   1 <1>  -0.1600 
 23 C        8.9090     2.3600     0.3850 C.3   1 <1>  -0.1600 
 24 C        8.2250     1.1610     1.0620 C.3   1 <1>  -0.1600 
 25 H        1.3920    -0.8360    -0.6130 H     1 <1>   0.0800 
 26 H        2.4070    -0.8110     0.8080 H     1 <1>   0.0800 
 27 H        2.2020     1.1070     2.3870 H     1 <1>   0.0800 
 28 H        1.0800     2.3890     2.0070 H     1 <1>   0.0800 
 29 H       -1.4130    -2.5870     0.8260 H     1 <1>   0.1500 
 30 H       -1.2980     1.2660    -0.9750 H     1 <1>   0.1500 
 31 H        2.5720     1.0690    -1.5610 H     1 <1>   0.0800 
 32 H        3.6880    -0.2110    -1.1990 H     1 <1>   0.0800 
 33 H        3.3900     3.0750     1.5120 H     1 <1>   0.0800 
 34 H        2.3820     3.0800     0.0980 H     1 <1>   0.0800 
 35 H       -2.7430    -3.4300    -1.0540 H     1 <1>   0.1500 
 36 H       -2.6310     0.4270    -2.8590 H     1 <1>   0.1500 
 37 H        4.3180     0.9280     0.9140 H     1 <1>   0.0800 
 38 H       -3.3550    -1.9260    -2.9040 H     1 <1>   0.1500 
 39 H        6.7830     3.1130    -2.2770 H     1 <1>   0.0800 
 40 H        7.8910     1.7850    -2.1320 H     1 <1>   0.0800 
 41 H        6.5210    -0.3510    -1.5580 H     1 <1>   0.0800 
 42 H        5.7660    -0.2510    -0.0070 H     1 <1>   0.0800 
 43 H        7.2840     3.7470     0.0990 H     1 <1>   0.0800 
 44 H        8.5960     3.9450    -1.0080 H     1 <1>   0.0800 
 45 H        8.6410    -0.0350    -0.6820 H     1 <1>   0.0800 
 46 H        7.8560    -0.8930     0.5860 H     1 <1>   0.0800 
 47 H        9.3090     3.0010     1.1510 H     1 <1>   0.0800 
 48 H        9.7440     2.0100    -0.1980 H     1 <1>   0.0800 
 49 H        8.9160     0.7570     1.7820 H     1 <1>   0.0800 
 50 H        7.3510     1.4830     1.6020 H     1 <1>   0.0800 
@<TRIPOS>BOND
  1   1   2  2   
  2   1   3  2   
  3   1   4  am  
  4   1   5  1   
  5   4   6  1   
  6   4   7  1   
  7   5   8  ar  
  8   5   9  ar  
  9   6  10  1   
 10   6  25  1   
 11   6  26  1   
 12   7  11  1   
 13   7  27  1   
 14   7  28  1   
 15   8  12  ar  
 16   8  29  1   
 17   9  13  ar  
 18   9  30  1   
 19  10  14  1   
 20  10  31  1   
 21  10  32  1   
 22  11  14  1   
 23  11  33  1   
 24  11  34  1   
 25  12  15  ar  
 26  12  35  1   
 27  13  15  ar  
 28  13  36  1   
 29  14  16  1   
 30  14  37  1   
 31  15  38  1   
 32  16  17  2   
 33  16  18  am  
 34  18  19  1   
 35  18  20  1   
 36  19  21  1   
 37  19  39  1   
 38  19  40  1   
 39  20  22  1   
 40  20  41  1   
 41  20  42  1   
 42  21  23  1   
 43  21  43  1   
 44  21  44  1   
 45  22  24  1   
 46  22  45  1   
 47  22  46  1   
 48  23  24  1   
 49  23  47  1   
 50  23  48  1   
 51  24  49  1   
 52  24  50  1   
@<TRIPOS>SUBSTRUCTURE
  1 ****  10 GROUP 4 **** **** 0

# MOE 2024.06 (io_trps.svl 2023.06)
