@<TRIPOS>MOLECULE
NONAME
49 51 1 0 0 
SMALL
USER_CHARGES


@<TRIPOS>ATOM
  1 O        0.4010     0.9160     1.2780 O.2   1 <1>  -0.5700 
  2 C        0.2540     1.8030     0.4590 C.2   1 <1>   0.5440 
  3 N        1.3260     2.1730    -0.3320 N.am  1 <1>  -0.6600 
  4 C       -1.0420     2.4440     0.3450 C.ar  1 <1>   0.0860 
  5 C        1.3680     3.4350    -1.1220 C.3   1 <1>   0.1400 
  6 C        2.6000     1.4010    -0.3250 C.3   1 <1>   0.1400 
  7 C       -1.6190     3.0890     1.4370 C.ar  1 <1>  -0.1500 
  8 C       -1.7550     2.4370    -0.8540 C.ar  1 <1>  -0.1500 
  9 C        2.5020     4.3260    -0.6070 C.3   1 <1>  -0.1600 
 10 C        3.7350     2.2820     0.2010 C.3   1 <1>  -0.1600 
 11 C       -2.8480     3.7160     1.3360 C.ar  1 <1>  -0.1500 
 12 C       -2.9850     3.0620    -0.9630 C.ar  1 <1>  -0.1500 
 13 C        3.8570     3.5890    -0.6040 C.3   1 <1>  -0.0190 
 14 C       -3.5320     3.7040     0.1330 C.ar  1 <1>  -0.1500 
 15 C        5.0040     4.4530    -0.0750 C.2   1 <1>   0.5690 
 16 O        4.7700     5.3250     0.7260 O.2   1 <1>  -0.5700 
 17 N        6.2590     4.1680    -0.5410 N.am  1 <1>  -0.5470 
 18 C        7.5060     4.7600    -0.2810 C.ar  1 <1>   0.1170 
 19 C        7.6500     6.0420     0.2390 C.ar  1 <1>  -0.1500 
 20 C        8.6550     4.0350    -0.5750 C.ar  1 <1>  -0.1500 
 21 C        8.9030     6.5850     0.4670 C.ar  1 <1>  -0.1430 
 22 C        9.9150     4.5660    -0.3560 C.ar  1 <1>  -0.1430 
 23 C       10.0330     5.8420     0.1670 C.ar  1 <1>  -0.1500 
 24 C        9.0420     7.9840     1.0390 C.3   1 <1>  -0.0970 
 25 C       11.1650     3.7670    -0.6770 C.3   1 <1>  -0.0970 
 26 H        0.4400     3.9740    -1.0430 H     1 <1>   0.0800 
 27 H        1.5300     3.1950    -2.1590 H     1 <1>   0.0800 
 28 H        2.8170     1.0790    -1.3290 H     1 <1>   0.0800 
 29 H        2.5130     0.5210     0.2900 H     1 <1>   0.0800 
 30 H       -1.0890     3.0910     2.3740 H     1 <1>   0.1500 
 31 H       -1.3350     1.9310    -1.7050 H     1 <1>   0.1500 
 32 H        2.2590     4.6460     0.3930 H     1 <1>   0.0800 
 33 H        2.5710     5.2070    -1.2200 H     1 <1>   0.0800 
 34 H        4.6570     1.7320     0.1560 H     1 <1>   0.0800 
 35 H        3.5430     2.5100     1.2360 H     1 <1>   0.0800 
 36 H       -3.2740     4.2090     2.1930 H     1 <1>   0.1500 
 37 H       -3.5190     3.0460    -1.8970 H     1 <1>   0.1500 
 38 H        4.0870     3.3360    -1.6230 H     1 <1>   0.0800 
 39 H       -4.4890     4.1910     0.0520 H     1 <1>   0.1500 
 40 H        6.3120     3.3590    -1.1520 H     1 <1>   0.3700 
 41 H        6.7780     6.6250     0.4650 H     1 <1>   0.1500 
 42 H        8.5630     3.0430    -0.9750 H     1 <1>   0.1500 
 43 H       11.0080     6.2610     0.3410 H     1 <1>   0.1500 
 44 H        8.1360     8.2820     1.5350 H     1 <1>   0.0800 
 45 H        9.2500     8.6810     0.2480 H     1 <1>   0.0800 
 46 H        9.8450     8.0150     1.7540 H     1 <1>   0.0800 
 47 H       10.9270     2.8980    -1.2640 H     1 <1>   0.0800 
 48 H       11.6370     3.4490     0.2350 H     1 <1>   0.0800 
 49 H       11.8570     4.3730    -1.2330 H     1 <1>   0.0800 
@<TRIPOS>BOND
  1   1   2  2   
  2   2   3  am  
  3   2   4  1   
  4   3   5  1   
  5   3   6  1   
  6   4   7  ar  
  7   4   8  ar  
  8   5   9  1   
  9   5  26  1   
 10   5  27  1   
 11   6  10  1   
 12   6  28  1   
 13   6  29  1   
 14   7  11  ar  
 15   7  30  1   
 16   8  12  ar  
 17   8  31  1   
 18   9  13  1   
 19   9  32  1   
 20   9  33  1   
 21  10  13  1   
 22  10  34  1   
 23  10  35  1   
 24  11  14  ar  
 25  11  36  1   
 26  12  14  ar  
 27  12  37  1   
 28  13  15  1   
 29  13  38  1   
 30  14  39  1   
 31  15  16  2   
 32  15  17  am  
 33  17  18  1   
 34  17  40  1   
 35  18  19  ar  
 36  18  20  ar  
 37  19  21  ar  
 38  19  41  1   
 39  20  22  ar  
 40  20  42  1   
 41  21  23  ar  
 42  21  24  1   
 43  22  23  ar  
 44  22  25  1   
 45  23  43  1   
 46  24  44  1   
 47  24  45  1   
 48  24  46  1   
 49  25  47  1   
 50  25  48  1   
 51  25  49  1   
@<TRIPOS>SUBSTRUCTURE
  1 ****  13 GROUP 4 **** **** 0

# MOE 2024.06 (io_trps.svl 2023.06)
