@<TRIPOS>MOLECULE
NONAME
46 48 1 0 0 
SMALL
USER_CHARGES


@<TRIPOS>ATOM
  1 O       -2.5350     4.3950     1.3010 O.2   1 <1>  -0.5750 
  2 C       -3.4980     5.0770     1.0600 C.2   1 <1>   0.6550 
  3 O       -4.0560     5.8090     2.0190 O.3   1 <1>  -0.4360 
  4 C       -4.1100     5.0330    -0.3490 C.3   1 <1>   0.4090 
  5 C       -5.2840     6.5030     1.9310 C.3   1 <1>   0.0310 
  6 N       -5.0980     3.9200    -0.5560 N.pl3 1 <1>  -0.7680 
  7 C       -4.9600     2.6350    -0.2170 C.cat 1 <1>   1.0690 
  8 C       -6.2960     4.0370    -1.2480 C.ar  1 <1>   0.3020 
  9 N       -3.9320     2.1410     0.4190 N.pl3 1 <1>  -0.8400 
 10 N       -6.0060     1.9140    -0.6210 N.pl3 1 <1>  -0.7680 
 11 C       -6.8670     2.7770    -1.2890 C.ar  1 <1>   0.3020 
 12 C       -6.9280     5.1250    -1.8420 C.ar  1 <1>  -0.1170 
 13 C       -6.3320     0.4920    -0.2930 C.3   1 <1>   0.3470 
 14 C       -8.0890     2.5760    -1.9260 C.ar  1 <1>  -0.1170 
 15 C       -8.1410     4.9250    -2.4720 C.ar  1 <1>  -0.1580 
 16 C       -5.3530    -0.5220    -0.9200 C.3   1 <1>   0.1020 
 17 C       -8.7190     3.6560    -2.5130 C.ar  1 <1>  -0.1580 
 18 N       -4.0380    -0.5550    -0.2420 N.3   1 <1>  -0.8130 
 19 C       -3.0080    -1.1190    -1.1440 C.3   1 <1>   0.1020 
 20 C       -4.0760    -1.3750     0.9940 C.3   1 <1>   0.1020 
 21 C       -1.6430    -1.2250    -0.4410 C.3   1 <1>   0.1120 
 22 C       -2.6830    -1.4730     1.6440 C.3   1 <1>   0.1120 
 23 O       -1.7560    -1.9770     0.7310 O.3   1 <1>  -0.5650 
 24 H       -3.3060     4.9050    -1.0530 H     1 <1>   0.0710 
 25 H       -4.5690     5.9790    -0.5640 H     1 <1>   0.0710 
 26 H       -5.5130     6.8970     2.9070 H     1 <1>   0.0710 
 27 H       -6.0600     5.8210     1.6290 H     1 <1>   0.0710 
 28 H       -5.1860     7.3140     1.2320 H     1 <1>   0.0710 
 29 H       -3.7980     1.1170     0.4140 H     1 <1>   0.4440 
 30 H       -3.1510     2.6920     0.7920 H     1 <1>   0.4440 
 31 H       -6.4880     6.1050    -1.8160 H     1 <1>   0.1420 
 32 H       -7.3180     0.2660    -0.6570 H     1 <1>   0.0710 
 33 H       -6.3550     0.3650     0.7750 H     1 <1>   0.0710 
 34 H       -8.5370     1.6000    -1.9650 H     1 <1>   0.1420 
 35 H       -8.6530     5.7510    -2.9400 H     1 <1>   0.1420 
 36 H       -5.2260    -0.2630    -1.9580 H     1 <1>   0.0710 
 37 H       -5.7910    -1.5060    -0.8870 H     1 <1>   0.0710 
 38 H       -9.6660     3.5240    -3.0120 H     1 <1>   0.1420 
 39 H       -2.9040    -0.4920    -2.0130 H     1 <1>   0.0710 
 40 H       -3.3030    -2.1020    -1.4740 H     1 <1>   0.0710 
 41 H       -4.4150    -2.3720     0.7670 H     1 <1>   0.0710 
 42 H       -4.7590    -0.9440     1.7040 H     1 <1>   0.0710 
 43 H       -1.2640    -0.2500    -0.1890 H     1 <1>   0.0710 
 44 H       -0.9320    -1.7190    -1.0780 H     1 <1>   0.0710 
 45 H       -2.7100    -2.1430     2.4850 H     1 <1>   0.0710 
 46 H       -2.3450    -0.5080     1.9810 H     1 <1>   0.0710 
@<TRIPOS>BOND
  1   1   2  2   
  2   2   3  1   
  3   2   4  1   
  4   3   5  1   
  5   4   6  1   
  6   4  24  1   
  7   4  25  1   
  8   5  26  1   
  9   5  27  1   
 10   5  28  1   
 11   6   7  ar  
 12   6   8  1   
 13   7   9  ar  
 14   7  10  ar  
 15   8  11  ar  
 16   8  12  ar  
 17   9  29  1   
 18   9  30  1   
 19  10  11  1   
 20  10  13  1   
 21  11  14  ar  
 22  12  15  ar  
 23  12  31  1   
 24  13  16  1   
 25  13  32  1   
 26  13  33  1   
 27  14  17  ar  
 28  14  34  1   
 29  15  17  ar  
 30  15  35  1   
 31  16  18  1   
 32  16  36  1   
 33  16  37  1   
 34  17  38  1   
 35  18  19  1   
 36  18  20  1   
 37  19  21  1   
 38  19  39  1   
 39  19  40  1   
 40  20  22  1   
 41  20  41  1   
 42  20  42  1   
 43  21  23  1   
 44  21  43  1   
 45  21  44  1   
 46  22  23  1   
 47  22  45  1   
 48  22  46  1   
@<TRIPOS>SUBSTRUCTURE
  1 ****   7 GROUP 4 **** **** 0

# MOE 2024.06 (io_trps.svl 2023.06)
