@<TRIPOS>MOLECULE
NONAME
35 35 1 0 0 
SMALL
USER_CHARGES


@<TRIPOS>ATOM
  1 P        0.2490     0.2770    -0.2610 P.3   1 <1>   1.5180 
  2 O        0.9410     0.3110    -1.5410 O.2   1 <1>  -0.7000 
  3 O       -1.2080     0.9320    -0.3030 O.3   1 <1>  -0.5510 
  4 O        0.9910     1.0930     0.8990 O.3   1 <1>  -0.5510 
  5 N       -0.0550    -1.2420     0.4390 N.pl3 1 <1>  -0.7760 
  6 C       -1.3680     2.1990    -0.8820 C.3   1 <1>   0.1200 
  7 C        2.3960     1.1050     1.0130 C.3   1 <1>   0.1200 
  8 C        0.4480    -2.5080     0.1510 C.ar  1 <1>   0.1000 
  9 C       -2.8160     2.7220    -0.8260 C.3   1 <1>   1.0200 
 10 C        3.0660    -0.2190     1.4520 C.3   1 <1>   1.0200 
 11 C        0.4670    -3.4680     1.1560 C.ar  1 <1>  -0.1500 
 12 C        0.9280    -2.8570    -1.1070 C.ar  1 <1>  -0.1500 
 13 F       -2.9210     3.9230    -1.3800 F     1 <1>  -0.3400 
 14 F       -3.6730     1.9370    -1.4670 F     1 <1>  -0.3400 
 15 F       -3.2680     2.8420     0.4160 F     1 <1>  -0.3400 
 16 F        2.4140    -0.8220     2.4390 F     1 <1>  -0.3400 
 17 F        4.2990    -0.0100     1.8940 F     1 <1>  -0.3400 
 18 F        3.1700    -1.0940     0.4660 F     1 <1>  -0.3400 
 19 C        0.9590    -4.7370     0.9150 C.ar  1 <1>  -0.1500 
 20 C        1.4230    -4.1250    -1.3540 C.ar  1 <1>  -0.1500 
 21 C        1.4420    -5.0760    -0.3380 C.ar  1 <1>   0.0830 
 22 O        1.9110    -6.3440    -0.4910 O.3   1 <1>  -0.3630 
 23 C        2.4850    -6.7550    -1.7120 C.3   1 <1>   0.0400 
 24 H       -0.5350    -1.1450     1.3270 H     1 <1>   0.4000 
 25 H       -1.0600     2.1390    -1.9110 H     1 <1>   0.0800 
 26 H       -0.7320     2.8910    -0.3610 H     1 <1>   0.0800 
 27 H        2.6340     1.8500     1.7500 H     1 <1>   0.0800 
 28 H        2.8120     1.4170     0.0720 H     1 <1>   0.0800 
 29 H        0.1010    -3.2220     2.1360 H     1 <1>   0.1500 
 30 H        0.9170    -2.1410    -1.9070 H     1 <1>   0.1500 
 31 H        0.9740    -5.4740     1.6970 H     1 <1>   0.1500 
 32 H        1.7860    -4.3510    -2.3380 H     1 <1>   0.1500 
 33 H        2.8090    -7.7740    -1.6030 H     1 <1>   0.0800 
 34 H        3.3280    -6.1230    -1.9310 H     1 <1>   0.0800 
 35 H        1.7410    -6.6880    -2.4860 H     1 <1>   0.0800 
@<TRIPOS>BOND
  1   1   2  2   
  2   1   3  1   
  3   1   4  1   
  4   1   5  1   
  5   3   6  1   
  6   4   7  1   
  7   5   8  1   
  8   5  24  1   
  9   6   9  1   
 10   6  25  1   
 11   6  26  1   
 12   7  10  1   
 13   7  27  1   
 14   7  28  1   
 15   8  11  ar  
 16   8  12  ar  
 17   9  13  1   
 18   9  14  1   
 19   9  15  1   
 20  10  16  1   
 21  10  17  1   
 22  10  18  1   
 23  11  19  ar  
 24  11  29  1   
 25  12  20  ar  
 26  12  30  1   
 27  19  21  ar  
 28  19  31  1   
 29  20  21  ar  
 30  20  32  1   
 31  21  22  1   
 32  22  23  1   
 33  23  33  1   
 34  23  34  1   
 35  23  35  1   
@<TRIPOS>SUBSTRUCTURE
  1 ****   5 GROUP 4 **** **** 0

# MOE 2024.06 (io_trps.svl 2023.06)
