@<TRIPOS>MOLECULE
NONAME
38 39 1 0 0 
SMALL
USER_CHARGES


@<TRIPOS>ATOM
  1 F        0.4530     0.1760     1.8330 F     1 <1>  -0.1900 
  2 C        0.5240     1.2150     1.0450 C.ar  1 <1>   0.1900 
  3 C        1.6110     2.0620     1.1540 C.ar  1 <1>  -0.1500 
  4 C       -0.4910     1.4290     0.1330 C.ar  1 <1>  -0.1500 
  5 C        1.6880     3.1690     0.3220 C.ar  1 <1>  -0.1440 
  6 C       -0.4080     2.5320    -0.7000 C.ar  1 <1>  -0.1500 
  7 C        0.6750     3.3940    -0.6040 C.ar  1 <1>  -0.1500 
  8 C        2.8710     4.1180     0.4270 C.3   1 <1>   0.3530 
  9 N        4.0930     3.4070     0.0040 N.pl3 1 <1>  -0.8690 
 10 C        5.2990     3.4130     0.6210 C.2   1 <1>  -0.0500 
 11 C        6.4270     2.7230     0.2230 C.2   1 <1>   0.0290 
 12 C        7.6230     2.8380     1.0030 C.2   1 <1>   0.4950 
 13 C        6.4550     1.8880    -0.9460 C.2   1 <1>   0.4950 
 14 O        7.7120     3.5380     1.9860 O.2   1 <1>  -0.5700 
 15 C        8.8900     2.0840     0.6320 C.3   1 <1>  -0.0990 
 16 O        5.5240     1.7350    -1.7060 O.2   1 <1>  -0.5700 
 17 C        7.7130     1.1270    -1.3340 C.3   1 <1>  -0.0990 
 18 C        8.6130     0.7880    -0.1390 C.3   1 <1>   0.0000 
 19 C        7.9350    -0.2520     0.7720 C.3   1 <1>  -0.2400 
 20 C        9.9390     0.1960    -0.6430 C.3   1 <1>  -0.2400 
 21 H        2.3840     1.8550     1.8720 H     1 <1>   0.1500 
 22 H       -1.3200     0.7470     0.0780 H     1 <1>   0.1500 
 23 H       -1.1840     2.7200    -1.4220 H     1 <1>   0.1500 
 24 H        0.7260     4.2450    -1.2620 H     1 <1>   0.1500 
 25 H        2.9790     4.4590     1.4430 H     1 <1>   0.0800 
 26 H        2.7230     4.9750    -0.2070 H     1 <1>   0.0800 
 27 H        3.9660     2.8280    -0.8460 H     1 <1>   0.4000 
 28 H        5.3660     4.0210     1.5120 H     1 <1>   0.1500 
 29 H        9.5000     2.7440     0.0420 H     1 <1>   0.0800 
 30 H        9.4370     1.8610     1.5310 H     1 <1>   0.0800 
 31 H        7.4280     0.2200    -1.8390 H     1 <1>   0.0800 
 32 H        8.2520     1.7310    -2.0430 H     1 <1>   0.0800 
 33 H        8.5690    -0.4910     1.6080 H     1 <1>   0.0800 
 34 H        7.7450    -1.1620     0.2290 H     1 <1>   0.0800 
 35 H        6.9960     0.1010     1.1600 H     1 <1>   0.0800 
 36 H       10.4500     0.8900    -1.2870 H     1 <1>   0.0800 
 37 H        9.7630    -0.7090    -1.1980 H     1 <1>   0.0800 
 38 H       10.5880    -0.0370     0.1830 H     1 <1>   0.0800 
@<TRIPOS>BOND
  1   1   2  1   
  2   2   3  ar  
  3   2   4  ar  
  4   3   5  ar  
  5   3  21  1   
  6   4   6  ar  
  7   4  22  1   
  8   5   7  ar  
  9   5   8  1   
 10   6   7  ar  
 11   6  23  1   
 12   7  24  1   
 13   8   9  1   
 14   8  25  1   
 15   8  26  1   
 16   9  10  1   
 17   9  27  1   
 18  10  11  2   
 19  10  28  1   
 20  11  12  1   
 21  11  13  1   
 22  12  14  2   
 23  12  15  1   
 24  13  16  2   
 25  13  17  1   
 26  15  18  1   
 27  15  29  1   
 28  15  30  1   
 29  17  18  1   
 30  17  31  1   
 31  17  32  1   
 32  18  19  1   
 33  18  20  1   
 34  19  33  1   
 35  19  34  1   
 36  19  35  1   
 37  20  36  1   
 38  20  37  1   
 39  20  38  1   
@<TRIPOS>SUBSTRUCTURE
  1 ****   9 GROUP 4 **** **** 0

# MOE 2024.06 (io_trps.svl 2023.06)
