@<TRIPOS>MOLECULE
NONAME
35 36 1 0 0 
SMALL
USER_CHARGES


@<TRIPOS>ATOM
  1 O        0.2510    -0.5070    -0.4550 O.2   1 <1>  -0.5700 
  2 C        0.5740    -1.6100    -0.0510 C.2   1 <1>   0.6900 
  3 N       -0.1590    -2.7330    -0.1670 N.am  1 <1>  -0.5390 
  4 N        1.7260    -1.9220     0.5750 N.am  1 <1>  -0.5390 
  5 C        0.5600    -3.8090     0.3850 C.2   1 <1>   0.1230 
  6 C        1.7230    -3.2740     0.8440 C.2   1 <1>  -0.0290 
  7 C        0.0840    -5.1710     0.4000 C.2   1 <1>   0.7060 
  8 C        2.9070    -3.9360     1.5380 C.3   1 <1>   0.2340 
  9 O        0.7360    -6.1000     0.8370 O.2   1 <1>  -0.5700 
 10 O       -1.1340    -5.4090    -0.1010 O.3   1 <1>  -0.4300 
 11 N        4.1320    -3.7410     0.7400 N.pl3 1 <1>   0.3140 
 12 C       -1.6780    -6.7100    -0.1290 C.3   1 <1>   0.1200 
 13 N        4.9080    -2.6510     0.9070 N.2   1 <1>  -0.7070 
 14 C        4.6220    -4.5480    -0.2300 C.2   1 <1>  -0.3320 
 15 C       -3.0650    -6.6280    -0.7590 C.3   1 <1>  -0.2400 
 16 C        5.8690    -2.7920     0.0520 C.2   1 <1>   0.1080 
 17 C        5.7460    -3.9600    -0.6900 C.2   1 <1>  -0.1500 
 18 C        3.9880    -5.8540    -0.6820 C.3   1 <1>  -0.0600 
 19 C        6.9790    -1.7780    -0.0950 C.3   1 <1>  -0.0590 
 20 H       -1.0690    -2.7600    -0.6250 H     1 <1>   0.3700 
 21 H        2.5070    -1.2650     0.6780 H     1 <1>   0.3700 
 22 H        2.7480    -4.9870     1.6790 H     1 <1>   0.0800 
 23 H        3.0590    -3.4840     2.5000 H     1 <1>   0.0800 
 24 H       -1.7340    -7.0800     0.8810 H     1 <1>   0.0800 
 25 H       -1.0270    -7.3410    -0.7110 H     1 <1>   0.0800 
 26 H       -3.7020    -5.9880    -0.1750 H     1 <1>   0.0800 
 27 H       -3.5050    -7.6080    -0.7940 H     1 <1>   0.0800 
 28 H       -2.9960    -6.2490    -1.7630 H     1 <1>   0.0800 
 29 H        6.4170    -4.2960    -1.4600 H     1 <1>   0.1500 
 30 H        2.9970    -5.6760    -1.0610 H     1 <1>   0.0800 
 31 H        3.9290    -6.5470     0.1380 H     1 <1>   0.0800 
 32 H        4.5760    -6.2990    -1.4640 H     1 <1>   0.0800 
 33 H        6.5610    -0.8300    -0.3770 H     1 <1>   0.0800 
 34 H        7.6800    -2.0940    -0.8440 H     1 <1>   0.0800 
 35 H        7.4900    -1.6690     0.8440 H     1 <1>   0.0800 
@<TRIPOS>BOND
  1   1   2  2   
  2   2   3  am  
  3   2   4  am  
  4   3   5  1   
  5   3  20  1   
  6   4   6  1   
  7   4  21  1   
  8   5   6  2   
  9   5   7  1   
 10   6   8  1   
 11   7   9  2   
 12   7  10  1   
 13   8  11  1   
 14   8  22  1   
 15   8  23  1   
 16  10  12  1   
 17  11  13  1   
 18  11  14  1   
 19  12  15  1   
 20  12  24  1   
 21  12  25  1   
 22  13  16  2   
 23  14  17  2   
 24  14  18  1   
 25  15  26  1   
 26  15  27  1   
 27  15  28  1   
 28  16  17  1   
 29  16  19  1   
 30  17  29  1   
 31  18  30  1   
 32  18  31  1   
 33  18  32  1   
 34  19  33  1   
 35  19  34  1   
 36  19  35  1   
@<TRIPOS>SUBSTRUCTURE
  1 ****   6 GROUP 4 **** **** 0

# MOE 2024.06 (io_trps.svl 2023.06)
