@<TRIPOS>MOLECULE
NONAME
46 48 1 0 0 
SMALL
USER_CHARGES


@<TRIPOS>ATOM
  1 CL       0.0830     0.3230     0.8130 Cl    1 <1>  -0.1770 
  2 C        1.8180     0.3650     0.6260 C.ar  1 <1>   0.1770 
  3 C        2.4720    -0.7300     0.0960 C.ar  1 <1>  -0.1500 
  4 C        2.5160     1.4940     1.0130 C.ar  1 <1>  -0.1500 
  5 C        3.8480    -0.6890    -0.0520 C.ar  1 <1>  -0.1500 
  6 C        3.8910     1.5240     0.8630 C.ar  1 <1>  -0.1500 
  7 C        4.5790     0.4360     0.3250 C.ar  1 <1>   0.1170 
  8 N        5.9780     0.4800     0.1610 N.am  1 <1>  -0.4770 
  9 C        6.8810    -0.5380     0.2860 C.2   1 <1>   0.5690 
 10 C        6.6670     1.7320    -0.2160 C.3   1 <1>   0.1400 
 11 O        6.6520    -1.6840     0.5800 O.2   1 <1>  -0.5700 
 12 C        8.2790    -0.0700    -0.0060 C.3   1 <1>  -0.0990 
 13 C        8.0540     1.2820    -0.7000 C.3   1 <1>  -0.0190 
 14 C        9.1550     2.3040    -0.4510 C.2   1 <1>   0.5690 
 15 O        8.8470     3.4070    -0.0730 O.2   1 <1>  -0.5700 
 16 N       10.4450     1.9180    -0.6960 N.am  1 <1>  -0.5470 
 17 C       11.6600     2.6060    -0.5440 C.ar  1 <1>   0.1170 
 18 C       12.7750     2.1480    -1.2360 C.ar  1 <1>  -0.1500 
 19 C       11.8130     3.7160     0.2800 C.ar  1 <1>  -0.1500 
 20 C       14.0000     2.7780    -1.1140 C.ar  1 <1>  -0.1500 
 21 C       13.0370     4.3480     0.4010 C.ar  1 <1>  -0.1500 
 22 C       14.1460     3.8870    -0.2940 C.ar  1 <1>  -0.1430 
 23 C       15.5040     4.5740    -0.1710 C.3   1 <1>   0.0630 
 24 C       16.0170     4.5150     1.2720 C.3   1 <1>  -0.2400 
 25 C       15.4300     6.0230    -0.6630 C.3   1 <1>  -0.2400 
 26 H        1.9120    -1.6000    -0.1950 H     1 <1>   0.1500 
 27 H        1.9850     2.3320     1.4270 H     1 <1>   0.1500 
 28 H        4.3580    -1.5420    -0.4650 H     1 <1>   0.1500 
 29 H        4.4300     2.4000     1.1740 H     1 <1>   0.1500 
 30 H        6.7440     2.3590     0.6570 H     1 <1>   0.0800 
 31 H        6.1300     2.2520    -0.9910 H     1 <1>   0.0800 
 32 H        8.7930    -0.7720    -0.6350 H     1 <1>   0.0800 
 33 H        8.8000     0.0460     0.9280 H     1 <1>   0.0800 
 34 H        7.9860     1.1210    -1.7610 H     1 <1>   0.0800 
 35 H       10.5530     0.9840    -1.0850 H     1 <1>   0.3700 
 36 H       12.6900     1.2930    -1.8800 H     1 <1>   0.1500 
 37 H       10.9770     4.0970     0.8370 H     1 <1>   0.1500 
 38 H       14.8440     2.4010    -1.6650 H     1 <1>   0.1500 
 39 H       13.1210     5.2060     1.0440 H     1 <1>   0.1500 
 40 H       16.2130     4.0530    -0.7920 H     1 <1>   0.0800 
 41 H       15.3700     5.0640     1.9310 H     1 <1>   0.0800 
 42 H       17.0060     4.9330     1.3330 H     1 <1>   0.0800 
 43 H       16.0560     3.4930     1.6030 H     1 <1>   0.0800 
 44 H       14.7710     6.6050    -0.0450 H     1 <1>   0.0800 
 45 H       15.0610     6.0460    -1.6730 H     1 <1>   0.0800 
 46 H       16.4060     6.4730    -0.6440 H     1 <1>   0.0800 
@<TRIPOS>BOND
  1   1   2  1   
  2   2   3  ar  
  3   2   4  ar  
  4   3   5  ar  
  5   3  26  1   
  6   4   6  ar  
  7   4  27  1   
  8   5   7  ar  
  9   5  28  1   
 10   6   7  ar  
 11   6  29  1   
 12   7   8  1   
 13   8   9  am  
 14   8  10  1   
 15   9  11  2   
 16   9  12  1   
 17  10  13  1   
 18  10  30  1   
 19  10  31  1   
 20  12  13  1   
 21  12  32  1   
 22  12  33  1   
 23  13  14  1   
 24  13  34  1   
 25  14  15  2   
 26  14  16  am  
 27  16  17  1   
 28  16  35  1   
 29  17  18  ar  
 30  17  19  ar  
 31  18  20  ar  
 32  18  36  1   
 33  19  21  ar  
 34  19  37  1   
 35  20  22  ar  
 36  20  38  1   
 37  21  22  ar  
 38  21  39  1   
 39  22  23  1   
 40  23  24  1   
 41  23  25  1   
 42  23  40  1   
 43  24  41  1   
 44  24  42  1   
 45  24  43  1   
 46  25  44  1   
 47  25  45  1   
 48  25  46  1   
@<TRIPOS>SUBSTRUCTURE
  1 ****  14 GROUP 4 **** **** 0

# MOE 2024.06 (io_trps.svl 2023.06)
