@<TRIPOS>MOLECULE
NONAME
52 53 1 0 0 
SMALL
USER_CHARGES


@<TRIPOS>ATOM
  1 S       -0.3010    -0.0700    -0.2440 S.3   1 <1>  -0.3320 
  2 C        0.5230     1.4490     0.2940 C.ar  1 <1>   0.1020 
  3 C        0.9140    -1.4460    -0.0500 C.3   1 <1>   0.2080 
  4 C       -0.2210     2.5380     0.7800 C.ar  1 <1>   0.0860 
  5 C        1.9070     1.4980     0.2080 C.ar  1 <1>  -0.1500 
  6 C        0.1450    -2.7420    -0.2080 C.2   1 <1>  -0.2880 
  7 C       -1.6710     2.5760     0.8980 C.2   1 <1>   0.5440 
  8 C        0.5070     3.6580     1.1910 C.ar  1 <1>  -0.1500 
  9 C        2.5900     2.6260     0.6190 C.ar  1 <1>  -0.1500 
 10 C        0.0030    -3.6740     0.7400 C.2   1 <1>  -0.3000 
 11 O       -2.2050     3.2000     1.7950 O.2   1 <1>  -0.5700 
 12 N       -2.4890     1.9440     0.0050 N.am  1 <1>  -0.7300 
 13 C        1.8860     3.7080     1.1140 C.ar  1 <1>  -0.1500 
 14 C       -3.9190     1.7140     0.2230 C.3   1 <1>   0.2200 
 15 C       -4.2830     0.3280    -0.2920 C.3   1 <1>  -0.1600 
 16 C       -4.7080     2.7730    -0.5350 C.3   1 <1>  -0.1600 
 17 C       -5.7830     0.0440    -0.1480 C.3   1 <1>   0.5030 
 18 C       -6.2200     2.5660    -0.3950 C.3   1 <1>   0.5030 
 19 N       -6.5930     1.1640    -0.6580 N.4   1 <1>  -0.9060 
 20 C       -6.1740    -0.2720     1.2990 C.3   1 <1>  -0.2400 
 21 C       -6.1580    -1.1590    -1.0120 C.3   1 <1>  -0.2400 
 22 C       -6.9470     3.3890    -1.4560 C.3   1 <1>  -0.2400 
 23 C       -6.7370     3.0000     0.9800 C.3   1 <1>  -0.2400 
 24 H        1.3520    -1.3560     0.9290 H     1 <1>   0.0800 
 25 H        1.6630    -1.3400    -0.8140 H     1 <1>   0.0800 
 26 H        2.4710     0.6740    -0.1820 H     1 <1>   0.1500 
 27 H       -0.2900    -2.8420    -1.1880 H     1 <1>   0.1500 
 28 H       -0.0250     4.5090     1.5810 H     1 <1>   0.1500 
 29 H        3.6640     2.6660     0.5550 H     1 <1>   0.1500 
 30 H       -0.5490    -4.5880     0.6040 H     1 <1>   0.1500 
 31 H        0.4210    -3.6050     1.7300 H     1 <1>   0.1500 
 32 H       -2.0270     1.3220    -0.6660 H     1 <1>   0.3700 
 33 H        2.4120     4.5890     1.4400 H     1 <1>   0.1500 
 34 H       -4.1230     1.7810     1.2790 H     1 <1>   0.0800 
 35 H       -3.7250    -0.4130     0.2540 H     1 <1>   0.0800 
 36 H       -3.9990     0.2510    -1.3270 H     1 <1>   0.0800 
 37 H       -4.4290     2.7450    -1.5730 H     1 <1>   0.0800 
 38 H       -4.4440     3.7460    -0.1550 H     1 <1>   0.0800 
 39 H       -7.5540     1.0300    -0.3400 H     1 <1>   0.4500 
 40 H       -6.6100     1.0630    -1.6740 H     1 <1>   0.4500 
 41 H       -5.8180     0.4650     1.9910 H     1 <1>   0.0800 
 42 H       -5.7280    -1.2050     1.5970 H     1 <1>   0.0800 
 43 H       -7.2390    -0.3730     1.4040 H     1 <1>   0.0800 
 44 H       -5.9300    -0.9850    -2.0490 H     1 <1>   0.0800 
 45 H       -7.2030    -1.3980    -0.9160 H     1 <1>   0.0800 
 46 H       -5.5970    -2.0230    -0.6990 H     1 <1>   0.0800 
 47 H       -6.6410     3.1090    -2.4490 H     1 <1>   0.0800 
 48 H       -6.7140     4.4330    -1.3300 H     1 <1>   0.0800 
 49 H       -8.0140     3.2810    -1.3710 H     1 <1>   0.0800 
 50 H       -6.1730     2.5730     1.7850 H     1 <1>   0.0800 
 51 H       -7.7770     2.7580     1.1030 H     1 <1>   0.0800 
 52 H       -6.6370     4.0680     1.0790 H     1 <1>   0.0800 
@<TRIPOS>BOND
  1   1   2  1   
  2   1   3  1   
  3   2   4  ar  
  4   2   5  ar  
  5   3   6  1   
  6   3  24  1   
  7   3  25  1   
  8   4   7  1   
  9   4   8  ar  
 10   5   9  ar  
 11   5  26  1   
 12   6  10  2   
 13   6  27  1   
 14   7  11  2   
 15   7  12  am  
 16   8  13  ar  
 17   8  28  1   
 18   9  13  ar  
 19   9  29  1   
 20  10  30  1   
 21  10  31  1   
 22  12  14  1   
 23  12  32  1   
 24  13  33  1   
 25  14  15  1   
 26  14  16  1   
 27  14  34  1   
 28  15  17  1   
 29  15  35  1   
 30  15  36  1   
 31  16  18  1   
 32  16  37  1   
 33  16  38  1   
 34  17  19  1   
 35  17  20  1   
 36  17  21  1   
 37  18  19  1   
 38  18  22  1   
 39  18  23  1   
 40  19  39  1   
 41  19  40  1   
 42  20  41  1   
 43  20  42  1   
 44  20  43  1   
 45  21  44  1   
 46  21  45  1   
 47  21  46  1   
 48  22  47  1   
 49  22  48  1   
 50  22  49  1   
 51  23  50  1   
 52  23  51  1   
 53  23  52  1   
@<TRIPOS>SUBSTRUCTURE
  1 ****  12 GROUP 4 **** **** 0

# MOE 2024.06 (io_trps.svl 2023.06)
