@<TRIPOS>MOLECULE
NONAME
34 37 1 0 0 
SMALL
USER_CHARGES


@<TRIPOS>ATOM
  1 CL      -0.5810     0.3480    -0.5270 Cl    1 <1>  -0.1770 
  2 C        0.9270     1.1710    -0.1900 C.ar  1 <1>   0.1770 
  3 C        0.9290     2.5290     0.1120 C.ar  1 <1>   0.1170 
  4 C        2.0990     0.4430    -0.2430 C.ar  1 <1>  -0.1500 
  5 N       -0.2650     3.2690     0.1720 N.am  1 <1>  -0.2370 
  6 C        2.1520     3.1460     0.3540 C.ar  1 <1>  -0.1500 
  7 C        3.3060     1.0740     0.0050 C.ar  1 <1>  -0.1500 
  8 C       -1.2430     3.1270     1.1400 C.2   1 <1>   0.5690 
  9 C       -0.7130     4.1480    -0.7980 C.2   1 <1>   0.5690 
 10 C        3.3480     2.4340     0.3080 C.ar  1 <1>  -0.1440 
 11 O       -1.1220     2.6630     2.2430 O.2   1 <1>  -0.5700 
 12 C       -2.5220     3.6590     0.5540 C.3   1 <1>  -0.0190 
 13 O       -0.2050     4.3880    -1.8620 O.2   1 <1>  -0.5700 
 14 C       -1.9320     4.8310    -0.2380 C.3   1 <1>  -0.0190 
 15 C        4.6960     3.1270     0.5750 C.3   1 <1>   1.1640 
 16 C       -3.9080     4.2130     0.9830 C.3   1 <1>   0.0580 
 17 C       -3.1850     5.6300    -0.6480 C.3   1 <1>   0.0580 
 18 F        5.5470     2.3490     1.2320 F     1 <1>  -0.3400 
 19 F        4.5740     4.2350     1.2960 F     1 <1>  -0.3400 
 20 F        5.3020     3.4780    -0.5510 F     1 <1>  -0.3400 
 21 C       -4.7390     3.9550    -0.2680 C.2   1 <1>  -0.2880 
 22 C       -3.7860     5.7270     0.7700 C.3   1 <1>  -0.1600 
 23 C       -4.2740     4.7450    -1.2380 C.2   1 <1>  -0.2880 
 24 H        2.0650    -0.6060    -0.4790 H     1 <1>   0.1500 
 25 H        2.1560     4.2000     0.5780 H     1 <1>   0.1500 
 26 H        4.2170     0.4970    -0.0400 H     1 <1>   0.1500 
 27 H       -2.7540     2.8520    -0.1250 H     1 <1>   0.0800 
 28 H       -1.4400     5.5100     0.4410 H     1 <1>   0.0800 
 29 H       -4.3300     3.8730     1.9130 H     1 <1>   0.0800 
 30 H       -3.0260     6.5820    -1.1250 H     1 <1>   0.0800 
 31 H       -5.5140     3.2060    -0.2730 H     1 <1>   0.1500 
 32 H       -3.1580     6.2070     1.5020 H     1 <1>   0.0800 
 33 H       -4.7490     6.2140     0.7690 H     1 <1>   0.0800 
 34 H       -4.5510     4.8330    -2.2760 H     1 <1>   0.1500 
@<TRIPOS>BOND
  1   1   2  1   
  2   2   3  ar  
  3   2   4  ar  
  4   3   5  1   
  5   3   6  ar  
  6   4   7  ar  
  7   4  24  1   
  8   5   8  am  
  9   5   9  am  
 10   6  10  ar  
 11   6  25  1   
 12   7  10  ar  
 13   7  26  1   
 14   8  11  2   
 15   8  12  1   
 16   9  13  2   
 17   9  14  1   
 18  10  15  1   
 19  12  14  1   
 20  12  16  1   
 21  12  27  1   
 22  14  17  1   
 23  14  28  1   
 24  15  18  1   
 25  15  19  1   
 26  15  20  1   
 27  16  21  1   
 28  16  22  1   
 29  16  29  1   
 30  17  22  1   
 31  17  23  1   
 32  17  30  1   
 33  21  23  2   
 34  21  31  1   
 35  22  32  1   
 36  22  33  1   
 37  23  34  1   
@<TRIPOS>SUBSTRUCTURE
  1 ****   5 GROUP 4 **** **** 0

# MOE 2024.06 (io_trps.svl 2023.06)
