@<TRIPOS>MOLECULE
NONAME
44 44 1 0 0 
SMALL
USER_CHARGES


@<TRIPOS>ATOM
  1 S        0.8350    -0.0980     1.6600 S.o2  1 <1>   1.2120 
  2 O        2.2660     0.1350     1.6770 O.2   1 <1>  -0.6500 
  3 O        0.1640    -0.0100     2.9350 O.2   1 <1>  -0.6500 
  4 C        0.5340    -1.6250     0.8140 C.2   1 <1>  -0.0340 
  5 C        0.1680     1.1560     0.5540 C.3   1 <1>  -0.0550 
  6 S       -0.9700    -2.4320     1.2710 S.o2  1 <1>   1.2120 
  7 C        1.3850    -2.1210    -0.1050 C.2   1 <1>   0.2000 
  8 C       -1.3520     1.1120     0.3200 C.3   1 <1>  -0.1600 
  9 O       -0.6470    -3.6690     1.9500 O.2   1 <1>  -0.6500 
 10 O       -1.9040    -1.5100     1.8730 O.2   1 <1>  -0.6500 
 11 C       -1.7010    -2.8860    -0.3180 C.3   1 <1>  -0.0550 
 12 N        1.3450    -3.3890    -0.6390 N.pl3 1 <1>  -0.8690 
 13 N        2.4500    -1.4380    -0.6410 N.pl3 1 <1>  -0.8690 
 14 C       -1.8160     2.2790    -0.5580 C.3   1 <1>  -0.1600 
 15 C       -3.1450    -3.4240    -0.2640 C.3   1 <1>  -0.1600 
 16 C        2.5320    -3.6370    -1.4910 C.3   1 <1>   0.2090 
 17 C        3.3180    -2.3340    -1.4280 C.3   1 <1>   0.2090 
 18 C       -3.3250     2.2070    -0.8030 C.3   1 <1>  -0.2400 
 19 C       -4.1990    -2.3080    -0.2250 C.3   1 <1>  -0.1600 
 20 C       -5.6130    -2.8920    -0.2700 C.3   1 <1>  -0.2400 
 21 H        0.4130     2.1190     0.9610 H     1 <1>   0.0800 
 22 H        0.6640     1.0810    -0.3950 H     1 <1>   0.0800 
 23 H       -1.6210     0.1900    -0.1610 H     1 <1>   0.0800 
 24 H       -1.8590     1.1550     1.2710 H     1 <1>   0.0800 
 25 H       -1.6680    -2.0510    -0.9900 H     1 <1>   0.0800 
 26 H       -1.1060    -3.6610    -0.7580 H     1 <1>   0.0800 
 27 H        1.2100    -4.1330     0.0630 H     1 <1>   0.4000 
 28 H        2.9620    -0.8510     0.0440 H     1 <1>   0.4000 
 29 H       -1.5820     3.2130    -0.0750 H     1 <1>   0.0800 
 30 H       -1.3020     2.2530    -1.5040 H     1 <1>   0.0800 
 31 H       -3.3140    -4.0190    -1.1460 H     1 <1>   0.0800 
 32 H       -3.2560    -4.0700     0.5910 H     1 <1>   0.0800 
 33 H        3.1150    -4.4570    -1.1100 H     1 <1>   0.0800 
 34 H        2.2250    -3.8460    -2.5010 H     1 <1>   0.0800 
 35 H        3.4820    -1.9340    -2.4130 H     1 <1>   0.0800 
 36 H        4.2610    -2.4800    -0.9290 H     1 <1>   0.0800 
 37 H       -3.8600     2.2490     0.1300 H     1 <1>   0.0800 
 38 H       -3.5840     1.2920    -1.3080 H     1 <1>   0.0800 
 39 H       -3.6390     3.0350    -1.4140 H     1 <1>   0.0800 
 40 H       -4.0970    -1.7270     0.6760 H     1 <1>   0.0800 
 41 H       -4.0650    -1.6460    -1.0640 H     1 <1>   0.0800 
 42 H       -5.7780    -3.5390     0.5740 H     1 <1>   0.0800 
 43 H       -5.7620    -3.4550    -1.1750 H     1 <1>   0.0800 
 44 H       -6.3390    -2.0990    -0.2370 H     1 <1>   0.0800 
@<TRIPOS>BOND
  1   1   2  2   
  2   1   3  2   
  3   1   4  1   
  4   1   5  1   
  5   4   6  1   
  6   4   7  2   
  7   5   8  1   
  8   5  21  1   
  9   5  22  1   
 10   6   9  2   
 11   6  10  2   
 12   6  11  1   
 13   7  12  1   
 14   7  13  1   
 15   8  14  1   
 16   8  23  1   
 17   8  24  1   
 18  11  15  1   
 19  11  25  1   
 20  11  26  1   
 21  12  16  1   
 22  12  27  1   
 23  13  17  1   
 24  13  28  1   
 25  14  18  1   
 26  14  29  1   
 27  14  30  1   
 28  15  19  1   
 29  15  31  1   
 30  15  32  1   
 31  16  17  1   
 32  16  33  1   
 33  16  34  1   
 34  17  35  1   
 35  17  36  1   
 36  18  37  1   
 37  18  38  1   
 38  18  39  1   
 39  19  20  1   
 40  19  40  1   
 41  19  41  1   
 42  20  42  1   
 43  20  43  1   
 44  20  44  1   
@<TRIPOS>SUBSTRUCTURE
  1 ****   4 GROUP 4 **** **** 0

# MOE 2024.06 (io_trps.svl 2023.06)
