@<TRIPOS>MOLECULE
NONAME
51 54 1 0 0 
SMALL
USER_CHARGES


@<TRIPOS>ATOM
  1 S       -1.0640    -0.3500    -0.8480 S.3   1 <1>  -0.0800 
  2 C       -1.3670     1.1250     0.0430 C.2   1 <1>  -0.1400 
  3 C        0.1500     0.4400    -1.8160 C.2   1 <1>  -0.1100 
  4 C       -0.5680     2.1340    -0.3810 C.2   1 <1>  -0.0540 
  5 C       -2.4510     1.0550     1.1010 C.3   1 <1>  -0.0600 
  6 C        0.3160     1.7350    -1.4610 C.2   1 <1>  -0.0860 
  7 C       -0.5580     3.4790     0.1560 C.ar  1 <1>   0.0540 
  8 C        1.2490     2.6410    -2.0940 C.2   1 <1>   0.7160 
  9 C       -0.7580     4.5880    -0.6610 C.ar  1 <1>  -0.1500 
 10 C       -0.3310     3.7010     1.5120 C.ar  1 <1>  -0.1500 
 11 O        1.0600     2.9640    -3.2520 O.2   1 <1>  -0.5700 
 12 N        2.3490     3.1480    -1.4370 N.am  1 <1>  -0.6600 
 13 C       -0.7190     5.8720    -0.1470 C.ar  1 <1>  -0.1500 
 14 C       -0.2930     4.9810     2.0330 C.ar  1 <1>  -0.1500 
 15 C        2.7430     2.7550    -0.0480 C.3   1 <1>   0.1400 
 16 C        3.1280     4.2730    -2.0450 C.3   1 <1>   0.1400 
 17 C       -0.4840     6.0710     1.2020 C.ar  1 <1>  -0.1500 
 18 C        3.1420     3.9860     0.7770 C.3   1 <1>   0.1400 
 19 C        4.4570     4.5560    -1.3220 C.3   1 <1>   0.1400 
 20 N        4.2890     4.7220     0.1580 N.am  1 <1>  -0.6600 
 21 C        5.1540     5.4470     0.9490 C.2   1 <1>   0.5690 
 22 O        4.9330     5.5710     2.1350 O.2   1 <1>  -0.5700 
 23 C        6.3980     6.1610     0.3610 C.3   1 <1>   0.2610 
 24 O        7.1460     5.3580    -0.5270 O.3   1 <1>  -0.5600 
 25 C        7.4160     6.6550     1.3900 C.3   1 <1>  -0.1600 
 26 C        8.5190     5.5820    -0.4100 C.3   1 <1>   0.1200 
 27 C        8.6960     6.7200     0.5840 C.3   1 <1>  -0.1600 
 28 H        0.6360    -0.1430    -2.5790 H     1 <1>   0.1500 
 29 H       -2.1640     0.3670     1.8760 H     1 <1>   0.0800 
 30 H       -3.3690     0.7160     0.6570 H     1 <1>   0.0800 
 31 H       -2.6200     2.0220     1.5360 H     1 <1>   0.0800 
 32 H       -0.9430     4.4410    -1.7110 H     1 <1>   0.1500 
 33 H       -0.1780     2.8580     2.1610 H     1 <1>   0.1500 
 34 H       -0.8710     6.7160    -0.7970 H     1 <1>   0.1500 
 35 H       -0.1120     5.1340     3.0830 H     1 <1>   0.1500 
 36 H        3.5790     2.0790    -0.0970 H     1 <1>   0.0800 
 37 H        1.9420     2.2430     0.4510 H     1 <1>   0.0800 
 38 H        2.5220     5.1620    -2.0200 H     1 <1>   0.0800 
 39 H        3.3340     4.0460    -3.0770 H     1 <1>   0.0800 
 40 H       -0.4520     7.0690     1.6030 H     1 <1>   0.1500 
 41 H        3.4080     3.6690     1.7710 H     1 <1>   0.0800 
 42 H        2.3000     4.6510     0.8550 H     1 <1>   0.0800 
 43 H        4.8900     5.4450    -1.7450 H     1 <1>   0.0800 
 44 H        5.1370     3.7420    -1.5050 H     1 <1>   0.0800 
 45 H        6.0540     7.0040    -0.2100 H     1 <1>   0.0800 
 46 H        7.5120     5.9300     2.1800 H     1 <1>   0.0800 
 47 H        7.1330     7.6030     1.8120 H     1 <1>   0.0800 
 48 H        8.9220     5.8190    -1.3800 H     1 <1>   0.0800 
 49 H        8.9640     4.6740    -0.0390 H     1 <1>   0.0800 
 50 H        9.5750     6.5940     1.1900 H     1 <1>   0.0800 
 51 H        8.7610     7.6530     0.0520 H     1 <1>   0.0800 
@<TRIPOS>BOND
  1   1   2  1   
  2   1   3  1   
  3   2   4  2   
  4   2   5  1   
  5   3   6  2   
  6   3  28  1   
  7   4   6  1   
  8   4   7  1   
  9   5  29  1   
 10   5  30  1   
 11   5  31  1   
 12   6   8  1   
 13   7   9  ar  
 14   7  10  ar  
 15   8  11  2   
 16   8  12  am  
 17   9  13  ar  
 18   9  32  1   
 19  10  14  ar  
 20  10  33  1   
 21  12  15  1   
 22  12  16  1   
 23  13  17  ar  
 24  13  34  1   
 25  14  17  ar  
 26  14  35  1   
 27  15  18  1   
 28  15  36  1   
 29  15  37  1   
 30  16  19  1   
 31  16  38  1   
 32  16  39  1   
 33  17  40  1   
 34  18  20  1   
 35  18  41  1   
 36  18  42  1   
 37  19  20  1   
 38  19  43  1   
 39  19  44  1   
 40  20  21  am  
 41  21  22  2   
 42  21  23  1   
 43  23  24  1   
 44  23  25  1   
 45  23  45  1   
 46  24  26  1   
 47  25  27  1   
 48  25  46  1   
 49  25  47  1   
 50  26  27  1   
 51  26  48  1   
 52  26  49  1   
 53  27  50  1   
 54  27  51  1   
@<TRIPOS>SUBSTRUCTURE
  1 ****  15 GROUP 4 **** **** 0

# MOE 2024.06 (io_trps.svl 2023.06)
