@<TRIPOS>MOLECULE
NONAME
46 48 1 0 0 
SMALL
USER_CHARGES


@<TRIPOS>ATOM
  1 CL      -1.0150     0.9270    -0.9130 Cl    1 <1>  -0.1770 
  2 C       -2.5510     1.5480    -0.3620 C.ar  1 <1>   0.1770 
  3 C       -3.7030     0.8300    -0.6130 C.ar  1 <1>  -0.1500 
  4 C       -2.5840     2.7510     0.3180 C.ar  1 <1>  -0.1500 
  5 C       -4.9280     1.3190    -0.1770 C.ar  1 <1>   0.1170 
  6 C       -3.7990     3.2490     0.7580 C.ar  1 <1>  -0.1500 
  7 N       -6.1320     0.6330    -0.3950 N.am  1 <1>  -0.5470 
  8 C       -4.9720     2.5380     0.5130 C.ar  1 <1>   0.0830 
  9 C       -6.5320    -0.3220    -1.2820 C.2   1 <1>   0.5690 
 10 O       -6.2030     2.9780     0.9150 O.3   1 <1>  -0.3630 
 11 O       -5.7930    -0.8840    -2.0540 O.2   1 <1>  -0.5700 
 12 C       -8.0250    -0.6660    -1.2780 C.3   1 <1>   0.1710 
 13 C       -6.3650     4.1970     1.6060 C.3   1 <1>   0.0400 
 14 N       -8.8750     0.3630    -0.6050 N.3   1 <1>  -0.8100 
 15 C      -10.2140    -0.1700    -0.2700 C.3   1 <1>   0.1100 
 16 C       -9.0260     1.5830    -1.4420 C.3   1 <1>   0.1100 
 17 C      -11.0870     0.8750     0.4530 C.3   1 <1>   0.2090 
 18 C       -9.8700     2.6620    -0.7380 C.3   1 <1>   0.2090 
 19 N      -11.2080     2.1250    -0.3490 N.pl3 1 <1>  -0.8380 
 20 C      -12.1770     3.0240     0.0520 C.ar  1 <1>   0.4100 
 21 N      -11.7750     4.1280     0.6720 N.ar  1 <1>  -0.6200 
 22 C      -13.5170     2.7360    -0.1980 C.ar  1 <1>  -0.1500 
 23 C      -12.7320     4.9570     1.0540 C.ar  1 <1>   0.1600 
 24 C      -14.5020     3.6070     0.2040 C.ar  1 <1>  -0.1500 
 25 C      -14.0850     4.7520     0.8520 C.ar  1 <1>  -0.1500 
 26 H       -3.6390    -0.1020    -1.1420 H     1 <1>   0.1500 
 27 H       -1.6680     3.2860     0.4980 H     1 <1>   0.1500 
 28 H       -3.8080     4.1840     1.2850 H     1 <1>   0.1500 
 29 H       -6.9330     1.0320     0.1130 H     1 <1>   0.3700 
 30 H       -8.1270    -1.6030    -0.7620 H     1 <1>   0.0800 
 31 H       -8.3530    -0.8090    -2.2930 H     1 <1>   0.0800 
 32 H       -7.4130     4.3290     1.8090 H     1 <1>   0.0800 
 33 H       -6.0100     5.0010     0.9860 H     1 <1>   0.0800 
 34 H       -5.8180     4.1510     2.5310 H     1 <1>   0.0800 
 35 H      -10.1050    -1.0280     0.3710 H     1 <1>   0.0800 
 36 H      -10.7190    -0.4820    -1.1670 H     1 <1>   0.0800 
 37 H       -9.5020     1.3310    -2.3740 H     1 <1>   0.0800 
 38 H       -8.0600     2.0000    -1.6640 H     1 <1>   0.0800 
 39 H      -10.6440     1.1100     1.4060 H     1 <1>   0.0800 
 40 H      -12.0640     0.4630     0.6320 H     1 <1>   0.0800 
 41 H      -10.0020     3.5030    -1.3960 H     1 <1>   0.0800 
 42 H       -9.3500     3.0030     0.1400 H     1 <1>   0.0800 
 43 H      -13.7600     1.8280    -0.7140 H     1 <1>   0.1500 
 44 H      -12.4190     5.8550     1.5580 H     1 <1>   0.1500 
 45 H      -15.5440     3.4080     0.0230 H     1 <1>   0.1500 
 46 H      -14.8000     5.4770     1.1940 H     1 <1>   0.1500 
@<TRIPOS>BOND
  1   1   2  1   
  2   2   3  ar  
  3   2   4  ar  
  4   3   5  ar  
  5   3  26  1   
  6   4   6  ar  
  7   4  27  1   
  8   5   7  1   
  9   5   8  ar  
 10   6   8  ar  
 11   6  28  1   
 12   7   9  am  
 13   7  29  1   
 14   8  10  1   
 15   9  11  2   
 16   9  12  1   
 17  10  13  1   
 18  12  14  1   
 19  12  30  1   
 20  12  31  1   
 21  13  32  1   
 22  13  33  1   
 23  13  34  1   
 24  14  15  1   
 25  14  16  1   
 26  15  17  1   
 27  15  35  1   
 28  15  36  1   
 29  16  18  1   
 30  16  37  1   
 31  16  38  1   
 32  17  19  1   
 33  17  39  1   
 34  17  40  1   
 35  18  19  1   
 36  18  41  1   
 37  18  42  1   
 38  19  20  1   
 39  20  21  ar  
 40  20  22  ar  
 41  21  23  ar  
 42  22  24  ar  
 43  22  43  1   
 44  23  25  ar  
 45  23  44  1   
 46  24  25  ar  
 47  24  45  1   
 48  25  46  1   
@<TRIPOS>SUBSTRUCTURE
  1 ****  16 GROUP 4 **** **** 0

# MOE 2024.06 (io_trps.svl 2023.06)
