@<TRIPOS>MOLECULE
NONAME
38 38 1 0 0 
SMALL
USER_CHARGES


@<TRIPOS>ATOM
  1 S       -1.1150    -0.1650    -0.8610 S.3   1 <1>  -0.4600 
  2 C        0.2530    -0.1840     0.3230 C.3   1 <1>   0.1500 
  3 C       -2.5620    -0.5940     0.1390 C.3   1 <1>   0.0700 
  4 C        1.3930     0.6120    -0.3060 C.3   1 <1>  -0.2400 
  5 C        0.6360    -1.6410     0.5750 C.3   1 <1>  -0.2400 
  6 C       -3.7930    -0.5060    -0.7610 C.3   1 <1>  -0.1600 
  7 C       -5.0600    -0.8560     0.0180 C.3   1 <1>   0.1200 
  8 O       -6.1580    -0.7580    -0.8560 O.3   1 <1>  -0.3630 
  9 C       -7.3640    -1.0430    -0.3160 C.ar  1 <1>   0.0820 
 10 C       -7.8440    -2.3510    -0.3520 C.ar  1 <1>  -0.1440 
 11 C       -8.1190    -0.0230     0.2600 C.ar  1 <1>  -0.1440 
 12 C       -9.0700    -2.6350     0.2260 C.ar  1 <1>  -0.1500 
 13 C       -7.0520    -3.4670    -1.0170 C.3   1 <1>  -0.0970 
 14 C       -9.3430    -0.3300     0.8320 C.ar  1 <1>  -0.1500 
 15 C       -7.6300     1.4190     0.2680 C.3   1 <1>  -0.0970 
 16 C       -9.8150    -1.6310     0.8180 C.ar  1 <1>  -0.1500 
 17 H       -0.0920     0.2930     1.2240 H     1 <1>   0.0800 
 18 H       -2.6120     0.1090     0.9520 H     1 <1>   0.0800 
 19 H       -2.4140    -1.5920     0.5120 H     1 <1>   0.0800 
 20 H        1.6970     0.1620    -1.2340 H     1 <1>   0.0800 
 21 H        2.2370     0.6410     0.3590 H     1 <1>   0.0800 
 22 H        1.0740     1.6210    -0.4990 H     1 <1>   0.0800 
 23 H        0.9030    -2.1210    -0.3500 H     1 <1>   0.0800 
 24 H       -0.1840    -2.1740     1.0200 H     1 <1>   0.0800 
 25 H        1.4760    -1.6900     1.2440 H     1 <1>   0.0800 
 26 H       -3.6810    -1.1900    -1.5830 H     1 <1>   0.0800 
 27 H       -3.8790     0.4950    -1.1470 H     1 <1>   0.0800 
 28 H       -5.2130    -0.1730     0.8340 H     1 <1>   0.0800 
 29 H       -5.0150    -1.8630     0.3940 H     1 <1>   0.0800 
 30 H       -9.4540    -3.6400     0.2150 H     1 <1>   0.1500 
 31 H       -6.6050    -3.1120    -1.9280 H     1 <1>   0.0800 
 32 H       -7.6910    -4.2970    -1.2580 H     1 <1>   0.0800 
 33 H       -6.2750    -3.8090    -0.3580 H     1 <1>   0.0800 
 34 H       -9.9370     0.4410     1.2880 H     1 <1>   0.1500 
 35 H       -7.1630     1.6560    -0.6710 H     1 <1>   0.0800 
 36 H       -6.9170     1.5600     1.0580 H     1 <1>   0.0800 
 37 H       -8.4500     2.0980     0.4150 H     1 <1>   0.0800 
 38 H      -10.7670    -1.8610     1.2650 H     1 <1>   0.1500 
@<TRIPOS>BOND
  1   1   2  1   
  2   1   3  1   
  3   2   4  1   
  4   2   5  1   
  5   2  17  1   
  6   3   6  1   
  7   3  18  1   
  8   3  19  1   
  9   4  20  1   
 10   4  21  1   
 11   4  22  1   
 12   5  23  1   
 13   5  24  1   
 14   5  25  1   
 15   6   7  1   
 16   6  26  1   
 17   6  27  1   
 18   7   8  1   
 19   7  28  1   
 20   7  29  1   
 21   8   9  1   
 22   9  10  ar  
 23   9  11  ar  
 24  10  12  ar  
 25  10  13  1   
 26  11  14  ar  
 27  11  15  1   
 28  12  16  ar  
 29  12  30  1   
 30  13  31  1   
 31  13  32  1   
 32  13  33  1   
 33  14  16  ar  
 34  14  34  1   
 35  15  35  1   
 36  15  36  1   
 37  15  37  1   
 38  16  38  1   
@<TRIPOS>SUBSTRUCTURE
  1 ****   7 GROUP 4 **** **** 0

# MOE 2024.06 (io_trps.svl 2023.06)
