@<TRIPOS>MOLECULE
NONAME
48 50 1 0 0 
SMALL
USER_CHARGES


@<TRIPOS>ATOM
  1 O       -0.6810     0.2850    -1.0100 O.2   1 <1>  -0.5700 
  2 C       -1.7830     0.4920    -0.5630 C.2   1 <1>   0.5690 
  3 N       -2.1930     1.5860     0.1460 N.am  1 <1>  -0.4770 
  4 C       -2.9130    -0.4790    -0.7670 C.3   1 <1>  -0.0990 
  5 C       -1.4560     2.7350     0.4930 C.ar  1 <1>   0.1170 
  6 C       -3.6250     1.4690     0.4860 C.3   1 <1>   0.1400 
  7 C       -4.1520     0.3760    -0.4460 C.3   1 <1>  -0.0190 
  8 C       -1.6690     3.3790     1.7090 C.ar  1 <1>  -0.1500 
  9 C       -0.5060     3.2680    -0.3740 C.ar  1 <1>  -0.1500 
 10 C       -5.3320    -0.3630     0.1790 C.2   1 <1>   0.5690 
 11 C       -0.9650     4.5230     2.0440 C.ar  1 <1>  -0.1500 
 12 C        0.2010     4.4110    -0.0430 C.ar  1 <1>  -0.1500 
 13 O       -5.0830    -1.3050     0.8930 O.2   1 <1>  -0.5700 
 14 N       -6.6280     0.0400    -0.0370 N.am  1 <1>  -0.6600 
 15 C       -0.0290     5.0420     1.1660 C.ar  1 <1>  -0.1500 
 16 C       -7.7780    -0.7890     0.4560 C.3   1 <1>   0.1400 
 17 C       -7.0700     1.3080    -0.7060 C.3   1 <1>   0.1400 
 18 C       -8.6960     0.0230     1.3800 C.3   1 <1>   0.1400 
 19 C       -7.9990     2.1270     0.2070 C.3   1 <1>   0.1400 
 20 N       -9.1240     1.2890     0.7140 N.am  1 <1>  -0.6600 
 21 C      -10.4460     1.5980     0.5290 C.2   1 <1>   0.7800 
 22 O      -11.3470     0.8770     0.9110 O.2   1 <1>  -0.5700 
 23 O      -10.7330     2.7360    -0.1050 O.3   1 <1>  -0.4300 
 24 C      -12.0700     3.1180    -0.3310 C.3   1 <1>   0.1200 
 25 C      -12.0620     4.4490    -1.0750 C.3   1 <1>  -0.2400 
 26 H       -2.7830    -1.2930    -0.0770 H     1 <1>   0.0800 
 27 H       -2.9290    -0.8520    -1.7740 H     1 <1>   0.0800 
 28 H       -4.1340     2.4040     0.3310 H     1 <1>   0.0800 
 29 H       -3.7160     1.1650     1.5150 H     1 <1>   0.0800 
 30 H       -4.4590     0.8310    -1.3680 H     1 <1>   0.0800 
 31 H       -2.3810     2.9830     2.4070 H     1 <1>   0.1500 
 32 H       -0.3170     2.7840    -1.3150 H     1 <1>   0.1500 
 33 H       -1.1410     5.0080     2.9880 H     1 <1>   0.1500 
 34 H        0.9310     4.8060    -0.7270 H     1 <1>   0.1500 
 35 H        0.5210     5.9300     1.4240 H     1 <1>   0.1500 
 36 H       -7.4280    -1.6570     0.9880 H     1 <1>   0.0800 
 37 H       -8.3490    -1.1370    -0.3880 H     1 <1>   0.0800 
 38 H       -7.6000     1.0600    -1.6100 H     1 <1>   0.0800 
 39 H       -6.2340     1.9240    -0.9730 H     1 <1>   0.0800 
 40 H       -8.1690     0.2600     2.2870 H     1 <1>   0.0800 
 41 H       -9.5520    -0.5750     1.6430 H     1 <1>   0.0800 
 42 H       -8.3700     2.9760    -0.3390 H     1 <1>   0.0800 
 43 H       -7.4370     2.4970     1.0460 H     1 <1>   0.0800 
 44 H      -12.5640     3.2100     0.6220 H     1 <1>   0.0800 
 45 H      -12.5500     2.3510    -0.9140 H     1 <1>   0.0800 
 46 H      -11.5730     5.2020    -0.4840 H     1 <1>   0.0800 
 47 H      -13.0720     4.7650    -1.2620 H     1 <1>   0.0800 
 48 H      -11.5560     4.3440    -2.0180 H     1 <1>   0.0800 
@<TRIPOS>BOND
  1   1   2  2   
  2   2   3  am  
  3   2   4  1   
  4   3   5  1   
  5   3   6  1   
  6   4   7  1   
  7   4  26  1   
  8   4  27  1   
  9   5   8  ar  
 10   5   9  ar  
 11   6   7  1   
 12   6  28  1   
 13   6  29  1   
 14   7  10  1   
 15   7  30  1   
 16   8  11  ar  
 17   8  31  1   
 18   9  12  ar  
 19   9  32  1   
 20  10  13  2   
 21  10  14  am  
 22  11  15  ar  
 23  11  33  1   
 24  12  15  ar  
 25  12  34  1   
 26  14  16  1   
 27  14  17  1   
 28  15  35  1   
 29  16  18  1   
 30  16  36  1   
 31  16  37  1   
 32  17  19  1   
 33  17  38  1   
 34  17  39  1   
 35  18  20  1   
 36  18  40  1   
 37  18  41  1   
 38  19  20  1   
 39  19  42  1   
 40  19  43  1   
 41  20  21  am  
 42  21  22  2   
 43  21  23  1   
 44  23  24  1   
 45  24  25  1   
 46  24  44  1   
 47  24  45  1   
 48  25  46  1   
 49  25  47  1   
 50  25  48  1   
@<TRIPOS>SUBSTRUCTURE
  1 ****   6 GROUP 4 **** **** 0

# MOE 2024.06 (io_trps.svl 2023.06)
