@<TRIPOS>MOLECULE
NONAME
37 39 1 0 0 
SMALL
USER_CHARGES


@<TRIPOS>ATOM
  1 O       -0.5030    -0.2060     1.4260 O.2   1 <1>  -0.5700 
  2 C       -0.9390    -1.2660     1.0530 C.2   1 <1>   0.6300 
  3 N       -0.2010    -2.2240     0.4170 N.am  1 <1>  -0.5470 
  4 C       -2.4000    -1.5910     1.3130 C.3   1 <1>  -0.1000 
  5 C        1.1410    -2.2580     0.0080 C.ar  1 <1>   0.1170 
  6 C       -3.2910    -2.1100     0.2150 C.3   1 <1>  -0.0600 
  7 C       -3.4910    -0.7320     0.7490 C.3   1 <1>  -0.1950 
  8 C        1.9440    -1.1240    -0.0810 C.ar  1 <1>  -0.1500 
  9 C        1.6960    -3.4850    -0.3400 C.ar  1 <1>  -0.1500 
 10 C       -4.5050    -2.9980     0.3500 C.2   1 <1>  -0.1900 
 11 C       -3.3700     0.4010    -0.2630 C.3   1 <1>  -0.0650 
 12 C        3.2600    -1.2150    -0.4980 C.ar  1 <1>  -0.1500 
 13 C        3.0110    -3.5810    -0.7590 C.ar  1 <1>  -0.1500 
 14 C       -5.7600    -2.6630     0.0280 C.2   1 <1>  -0.2880 
 15 C       -4.7210     0.6650    -0.9480 C.3   1 <1>  -0.1600 
 16 C        3.7960    -2.4440    -0.8380 C.ar  1 <1>  -0.1500 
 17 C       -6.3220    -1.3710    -0.5750 C.3   1 <1>  -0.0220 
 18 C       -5.4180    -0.5790    -1.5490 C.3   1 <1>  -0.1600 
 19 H       -0.7220    -3.0750     0.2230 H     1 <1>   0.3700 
 20 H       -2.5480    -1.9830     2.3020 H     1 <1>   0.1000 
 21 H       -2.8230    -2.2300    -0.7470 H     1 <1>   0.1000 
 22 H       -4.2980    -0.5540     1.4390 H     1 <1>   0.1000 
 23 H        1.5470    -0.1590     0.1730 H     1 <1>   0.1500 
 24 H        1.1000    -4.3760    -0.2810 H     1 <1>   0.1500 
 25 H       -4.2580    -3.9680     0.7470 H     1 <1>   0.1500 
 26 H       -2.6290     0.1580    -1.0060 H     1 <1>   0.0800 
 27 H       -3.0420     1.2930     0.2420 H     1 <1>   0.0800 
 28 H        3.8650    -0.3280    -0.5580 H     1 <1>   0.1500 
 29 H        3.4270    -4.5380    -1.0220 H     1 <1>   0.1500 
 30 H       -6.5560    -3.3700     0.1960 H     1 <1>   0.1500 
 31 H       -4.5430     1.3700    -1.7420 H     1 <1>   0.0800 
 32 H       -5.3840     1.1460    -0.2500 H     1 <1>   0.0800 
 33 H        4.8200    -2.5150    -1.1630 H     1 <1>   0.1500 
 34 H       -6.6760    -0.7350     0.2170 H     1 <1>   0.0800 
 35 H       -7.1920    -1.6610    -1.1390 H     1 <1>   0.0800 
 36 H       -4.7050    -1.2310    -2.0220 H     1 <1>   0.0800 
 37 H       -6.0580    -0.2160    -2.3350 H     1 <1>   0.0800 
@<TRIPOS>BOND
  1   1   2  2   
  2   2   3  am  
  3   2   4  1   
  4   3   5  1   
  5   3  19  1   
  6   4   6  1   
  7   4   7  1   
  8   4  20  1   
  9   5   8  ar  
 10   5   9  ar  
 11   6   7  1   
 12   6  10  1   
 13   6  21  1   
 14   7  11  1   
 15   7  22  1   
 16   8  12  ar  
 17   8  23  1   
 18   9  13  ar  
 19   9  24  1   
 20  10  14  2   
 21  10  25  1   
 22  11  15  1   
 23  11  26  1   
 24  11  27  1   
 25  12  16  ar  
 26  12  28  1   
 27  13  16  ar  
 28  13  29  1   
 29  14  17  1   
 30  14  30  1   
 31  15  18  1   
 32  15  31  1   
 33  15  32  1   
 34  16  33  1   
 35  17  18  1   
 36  17  34  1   
 37  17  35  1   
 38  18  36  1   
 39  18  37  1   
@<TRIPOS>SUBSTRUCTURE
  1 ****   2 GROUP 4 **** **** 0

# MOE 2024.06 (io_trps.svl 2023.06)
