@<TRIPOS>MOLECULE
NONAME
38 38 1 0 0 
SMALL
USER_CHARGES


@<TRIPOS>ATOM
  1 BR       0.2580    -0.1670    -1.8240 Br    1 <1>  -0.1110 
  2 C       -1.1970     0.5820    -0.8000 C.ar  1 <1>   0.1110 
  3 C       -1.0290     1.8040    -0.1630 C.ar  1 <1>   0.0820 
  4 C       -2.3770    -0.1350    -0.7370 C.ar  1 <1>  -0.1500 
  5 O        0.1690     2.4360    -0.2830 O.3   1 <1>  -0.3630 
  6 C       -2.1030     2.3120     0.5650 C.ar  1 <1>  -0.1500 
  7 C       -3.4370     0.3810    -0.0090 C.ar  1 <1>  -0.1430 
  8 C        0.3980     3.7020     0.2770 C.3   1 <1>   0.1200 
  9 C       -3.2920     1.6020     0.6360 C.ar  1 <1>  -0.1500 
 10 C       -4.7490    -0.3790     0.0820 C.3   1 <1>  -0.0960 
 11 C        1.8410     4.0840    -0.0650 C.3   1 <1>  -0.1600 
 12 C        2.2260     5.4790     0.4180 C.3   1 <1>   0.3430 
 13 N        1.4670     6.5010    -0.3380 N.4   1 <1>  -0.9060 
 14 C        1.7290     7.9030     0.0840 C.3   1 <1>   0.3430 
 15 C        0.4940     8.7520    -0.2520 C.3   1 <1>   0.1200 
 16 O       -0.6470     7.9610    -0.0620 O.3   1 <1>  -0.5600 
 17 C       -1.8470     8.6430    -0.2680 C.3   1 <1>   0.0400 
 18 H       -2.4570    -1.0760    -1.2490 H     1 <1>   0.1500 
 19 H       -2.0380     3.2490     1.0830 H     1 <1>   0.1500 
 20 H        0.2560     3.6320     1.3420 H     1 <1>   0.0800 
 21 H       -0.3130     4.3860    -0.1540 H     1 <1>   0.0800 
 22 H       -4.1150     2.0050     1.2010 H     1 <1>   0.1500 
 23 H       -4.5970    -1.4240    -0.1200 H     1 <1>   0.0800 
 24 H       -5.4470     0.0140    -0.6350 H     1 <1>   0.0800 
 25 H       -5.1700    -0.2820     1.0670 H     1 <1>   0.0800 
 26 H        1.9980     4.0100    -1.1270 H     1 <1>   0.0800 
 27 H        2.4930     3.3730     0.4110 H     1 <1>   0.0800 
 28 H        3.2840     5.6270     0.2660 H     1 <1>   0.0800 
 29 H        2.0190     5.5680     1.4740 H     1 <1>   0.0800 
 30 H        0.4450     6.3980    -0.1860 H     1 <1>   0.4500 
 31 H        1.6030     6.3950    -1.3500 H     1 <1>   0.4500 
 32 H        2.6090     8.3000    -0.3960 H     1 <1>   0.0800 
 33 H        1.8800     7.9390     1.1510 H     1 <1>   0.0800 
 34 H        0.5240     9.0730    -1.2800 H     1 <1>   0.0800 
 35 H        0.4440     9.6160     0.3900 H     1 <1>   0.0800 
 36 H       -2.6610     7.9570    -0.1070 H     1 <1>   0.0800 
 37 H       -1.8840     9.0120    -1.2790 H     1 <1>   0.0800 
 38 H       -1.9220     9.4580     0.4330 H     1 <1>   0.0800 
@<TRIPOS>BOND
  1   1   2  1   
  2   2   3  ar  
  3   2   4  ar  
  4   3   5  1   
  5   3   6  ar  
  6   4   7  ar  
  7   4  18  1   
  8   5   8  1   
  9   6   9  ar  
 10   6  19  1   
 11   7   9  ar  
 12   7  10  1   
 13   8  11  1   
 14   8  20  1   
 15   8  21  1   
 16   9  22  1   
 17  10  23  1   
 18  10  24  1   
 19  10  25  1   
 20  11  12  1   
 21  11  26  1   
 22  11  27  1   
 23  12  13  1   
 24  12  28  1   
 25  12  29  1   
 26  13  14  1   
 27  13  30  1   
 28  13  31  1   
 29  14  15  1   
 30  14  32  1   
 31  14  33  1   
 32  15  16  1   
 33  15  34  1   
 34  15  35  1   
 35  16  17  1   
 36  17  36  1   
 37  17  37  1   
 38  17  38  1   
@<TRIPOS>SUBSTRUCTURE
  1 ****   8 GROUP 4 **** **** 0

# MOE 2024.06 (io_trps.svl 2023.06)
