@<TRIPOS>MOLECULE
NONAME
39 40 1 0 0 
SMALL
USER_CHARGES


@<TRIPOS>ATOM
  1 I       -0.0290     0.3750     0.2450 I     1 <1>  -0.0810 
  2 C        0.8820    -1.5700     0.1650 C.ar  1 <1>   0.0810 
  3 C        0.0680    -2.7190     0.1590 C.ar  1 <1>  -0.1710 
  4 C        2.2510    -1.6020     0.1250 C.ar  1 <1>  -0.1500 
  5 O       -1.1860    -2.6000     0.2090 O.3   1 <1>  -0.8290 
  6 C        0.7690    -3.9620     0.1020 C.ar  1 <1>   0.0830 
  7 C        2.9400    -2.8200     0.0690 C.ar  1 <1>   0.0280 
  8 O        0.1860    -5.2060     0.0880 O.3   1 <1>  -0.3630 
  9 C        2.1450    -3.9810     0.0630 C.ar  1 <1>  -0.1500 
 10 C        4.3640    -2.8070     0.0550 C.2   1 <1>  -0.1780 
 11 C       -1.2120    -5.3250    -0.0390 C.3   1 <1>   0.0400 
 12 C        5.2950    -3.7040    -0.4060 C.2   1 <1>   0.0790 
 13 C        4.9590    -4.9050    -1.1030 C.1   1 <1>   0.4920 
 14 C        6.7050    -3.5030    -0.2410 C.2   1 <1>   0.6160 
 15 N        4.6890    -5.8770    -1.6380 N.1   1 <1>  -0.5570 
 16 O        7.5180    -3.9650    -1.0230 O.2   1 <1>  -0.5700 
 17 N        7.1940    -2.7700     0.8110 N.am  1 <1>  -0.7300 
 18 C        8.6430    -2.5550     1.1010 C.3   1 <1>   0.1400 
 19 C        9.3110    -1.6210     0.0800 C.3   1 <1>   0.2000 
 20 O       10.5670    -1.2590     0.5480 O.3   1 <1>  -0.5600 
 21 C        8.6070    -0.2870    -0.1390 C.3   1 <1>  -0.1600 
 22 C       11.0050    -0.1160    -0.1120 C.3   1 <1>   0.1200 
 23 C        9.7460     0.6460    -0.5200 C.3   1 <1>  -0.1600 
 24 H        2.7970    -0.6790     0.1320 H     1 <1>   0.1500 
 25 H        2.6090    -4.9450     0.0400 H     1 <1>   0.1500 
 26 H        4.7520    -1.8980     0.4780 H     1 <1>   0.1500 
 27 H       -1.4600    -6.3640    -0.1270 H     1 <1>   0.0800 
 28 H       -1.5240    -4.7860    -0.9160 H     1 <1>   0.0800 
 29 H       -1.6710    -4.9010     0.8360 H     1 <1>   0.0800 
 30 H        6.5550    -2.4840     1.5550 H     1 <1>   0.3700 
 31 H        8.7430    -2.1270     2.0830 H     1 <1>   0.0800 
 32 H        9.1510    -3.5040     1.0850 H     1 <1>   0.0800 
 33 H        9.4510    -2.1340    -0.8580 H     1 <1>   0.0800 
 34 H        7.8560    -0.3600    -0.9060 H     1 <1>   0.0800 
 35 H        8.1510     0.0410     0.7780 H     1 <1>   0.0800 
 36 H       11.6280     0.4510     0.5580 H     1 <1>   0.0800 
 37 H       11.5720    -0.4240    -0.9740 H     1 <1>   0.0800 
 38 H        9.6780     1.5860     0.0000 H     1 <1>   0.0800 
 39 H        9.7620     0.8310    -1.5800 H     1 <1>   0.0800 
@<TRIPOS>BOND
  1   1   2  1   
  2   2   3  ar  
  3   2   4  ar  
  4   3   5  1   
  5   3   6  ar  
  6   4   7  ar  
  7   4  24  1   
  8   6   8  1   
  9   6   9  ar  
 10   7   9  ar  
 11   7  10  1   
 12   8  11  1   
 13   9  25  1   
 14  10  12  2   
 15  10  26  1   
 16  11  27  1   
 17  11  28  1   
 18  11  29  1   
 19  12  13  1   
 20  12  14  1   
 21  13  15  3   
 22  14  16  2   
 23  14  17  am  
 24  17  18  1   
 25  17  30  1   
 26  18  19  1   
 27  18  31  1   
 28  18  32  1   
 29  19  20  1   
 30  19  21  1   
 31  19  33  1   
 32  20  22  1   
 33  21  23  1   
 34  21  34  1   
 35  21  35  1   
 36  22  23  1   
 37  22  36  1   
 38  22  37  1   
 39  23  38  1   
 40  23  39  1   
@<TRIPOS>SUBSTRUCTURE
  1 ****  10 GROUP 4 **** **** 0

# MOE 2024.06 (io_trps.svl 2023.06)
