@<TRIPOS>MOLECULE
NONAME
45 47 1 0 0 
SMALL
USER_CHARGES


@<TRIPOS>ATOM
  1 O       -1.1750    -0.4840     1.6520 O.3   1 <1>  -0.1650 
  2 C       -1.8450     0.5870     1.1570 C.ar  1 <1>   0.0830 
  3 C       -0.9330    -1.5740     0.8830 C.ar  1 <1>   0.0830 
  4 C       -2.8400     0.4530     0.1960 C.ar  1 <1>  -0.1500 
  5 C       -1.5300     1.8410     1.6510 C.ar  1 <1>  -0.1500 
  6 C       -1.1970    -2.8290     1.4090 C.ar  1 <1>  -0.1500 
  7 C       -0.4250    -1.4520    -0.4040 C.ar  1 <1>  -0.1500 
  8 C       -3.5150     1.5700    -0.2740 C.ar  1 <1>  -0.1430 
  9 C       -2.1930     2.9590     1.1780 C.ar  1 <1>  -0.1500 
 10 C       -0.9760    -3.9600     0.6420 C.ar  1 <1>  -0.1500 
 11 C       -0.2040    -2.5850    -1.1680 C.ar  1 <1>  -0.1500 
 12 C       -3.1810     2.8250     0.2170 C.ar  1 <1>  -0.1500 
 13 C       -4.6140     1.4120    -1.3050 C.3   1 <1>   0.4860 
 14 C       -0.4820    -3.8370    -0.6460 C.ar  1 <1>  -0.1500 
 15 N       -5.9260     1.4890    -0.6100 N.4   1 <1>  -0.9590 
 16 C       -6.1010     0.3780     0.3830 C.3   1 <1>   0.3430 
 17 C       -7.0690     1.5720    -1.5550 C.3   1 <1>   0.3430 
 18 C       -7.5470     0.2820     0.9130 C.3   1 <1>  -0.0800 
 19 C       -8.3330     1.9900    -0.7930 C.3   1 <1>  -0.1600 
 20 C       -8.3370     1.5840     0.6940 C.3   1 <1>  -0.1600 
 21 C       -7.5500    -0.0990     2.3990 C.3   1 <1>  -0.2400 
 22 H       -3.0810    -0.5290    -0.1740 H     1 <1>   0.1500 
 23 H       -0.7620     1.9380     2.3990 H     1 <1>   0.1500 
 24 H       -1.5740    -2.9170     2.4120 H     1 <1>   0.1500 
 25 H       -0.1970    -0.4790    -0.8020 H     1 <1>   0.1500 
 26 H       -1.9370     3.9330     1.5600 H     1 <1>   0.1500 
 27 H       -1.1830    -4.9350     1.0480 H     1 <1>   0.1500 
 28 H        0.1910    -2.4950    -2.1660 H     1 <1>   0.1500 
 29 H       -3.6790     3.7110    -0.1380 H     1 <1>   0.1500 
 30 H       -4.5140     0.4660    -1.8110 H     1 <1>   0.0800 
 31 H       -4.5330     2.2010    -2.0350 H     1 <1>   0.0800 
 32 H       -0.3090    -4.7170    -1.2410 H     1 <1>   0.1500 
 33 H       -5.9190     2.3570    -0.0610 H     1 <1>   0.4500 
 34 H       -5.4330     0.5460     1.2140 H     1 <1>   0.0800 
 35 H       -5.8320    -0.5660    -0.0640 H     1 <1>   0.0800 
 36 H       -7.2270     0.6060    -2.0090 H     1 <1>   0.0800 
 37 H       -6.8680     2.2860    -2.3380 H     1 <1>   0.0800 
 38 H       -8.0430    -0.5080     0.3740 H     1 <1>   0.0800 
 39 H       -9.1780     1.5410    -1.2860 H     1 <1>   0.0800 
 40 H       -8.4610     3.0560    -0.8680 H     1 <1>   0.0800 
 41 H       -7.8910     2.3710     1.2800 H     1 <1>   0.0800 
 42 H       -9.3530     1.4680     1.0330 H     1 <1>   0.0800 
 43 H       -7.0660     0.6580     2.9920 H     1 <1>   0.0800 
 44 H       -7.0380    -1.0330     2.5520 H     1 <1>   0.0800 
 45 H       -8.5600    -0.2120     2.7540 H     1 <1>   0.0800 
@<TRIPOS>BOND
  1   1   2  1   
  2   1   3  1   
  3   2   4  ar  
  4   2   5  ar  
  5   3   6  ar  
  6   3   7  ar  
  7   4   8  ar  
  8   4  22  1   
  9   5   9  ar  
 10   5  23  1   
 11   6  10  ar  
 12   6  24  1   
 13   7  11  ar  
 14   7  25  1   
 15   8  12  ar  
 16   8  13  1   
 17   9  12  ar  
 18   9  26  1   
 19  10  14  ar  
 20  10  27  1   
 21  11  14  ar  
 22  11  28  1   
 23  12  29  1   
 24  13  15  1   
 25  13  30  1   
 26  13  31  1   
 27  14  32  1   
 28  15  16  1   
 29  15  17  1   
 30  15  33  1   
 31  16  18  1   
 32  16  34  1   
 33  16  35  1   
 34  17  19  1   
 35  17  36  1   
 36  17  37  1   
 37  18  20  1   
 38  18  21  1   
 39  18  38  1   
 40  19  20  1   
 41  19  39  1   
 42  19  40  1   
 43  20  41  1   
 44  20  42  1   
 45  21  43  1   
 46  21  44  1   
 47  21  45  1   
@<TRIPOS>SUBSTRUCTURE
  1 ****   4 GROUP 4 **** **** 0

# MOE 2024.06 (io_trps.svl 2023.06)
