@<TRIPOS>MOLECULE
NONAME
41 42 1 0 0 
SMALL
USER_CHARGES


@<TRIPOS>ATOM
  1 O        0.9380    -7.4650    -0.2470 O.3   1 <1>  -0.3630 
  2 C       -0.2820    -6.8820    -0.1000 C.ar  1 <1>   0.0830 
  3 C        2.1040    -6.8710     0.2720 C.3   1 <1>   0.1200 
  4 C       -1.3820    -7.5350    -0.6420 C.ar  1 <1>  -0.1440 
  5 C       -0.4690    -5.6730     0.5620 C.ar  1 <1>  -0.1500 
  6 C        3.2850    -7.7730    -0.0720 C.3   1 <1>   0.0960 
  7 C       -2.6420    -6.9740    -0.5150 C.ar  1 <1>  -0.1500 
  8 C       -1.2160    -8.8600    -1.3730 C.3   1 <1>  -0.0960 
  9 C       -1.7340    -5.1270     0.6790 C.ar  1 <1>  -0.1500 
 10 N        4.5290    -7.1750     0.4420 N.pl3 1 <1>   0.0480 
 11 C       -2.8490    -5.7650     0.1430 C.ar  1 <1>  -0.1430 
 12 C        5.3780    -6.3450    -0.2040 C.2   1 <1>   0.0360 
 13 C        5.0570    -7.3130     1.6720 C.2   1 <1>  -0.3020 
 14 C       -4.2800    -5.1930     0.2500 C.3   1 <1>   0.1430 
 15 N        6.3810    -5.9560     0.5130 N.2   1 <1>  -0.5650 
 16 C        6.1820    -6.5670     1.6960 C.2   1 <1>   0.0770 
 17 C       -4.8460    -4.9570    -1.1590 C.3   1 <1>  -0.2400 
 18 C       -4.3440    -3.8550     1.0050 C.3   1 <1>  -0.2400 
 19 C       -5.1780    -6.1900     1.0000 C.3   1 <1>  -0.2400 
 20 H        1.9920    -6.7820     1.3390 H     1 <1>   0.0800 
 21 H        2.2210    -5.9030    -0.1820 H     1 <1>   0.0800 
 22 H        0.3530    -5.1370     0.9950 H     1 <1>   0.1500 
 23 H        3.3650    -7.8820    -1.1380 H     1 <1>   0.0800 
 24 H        3.1530    -8.7400     0.3790 H     1 <1>   0.0800 
 25 H       -3.4800    -7.4930    -0.9410 H     1 <1>   0.1500 
 26 H       -0.5610    -8.7290    -2.2150 H     1 <1>   0.0800 
 27 H       -2.1600    -9.2310    -1.7270 H     1 <1>   0.0800 
 28 H       -0.7870    -9.5890    -0.7100 H     1 <1>   0.0800 
 29 H       -1.8230    -4.1930     1.2000 H     1 <1>   0.1500 
 30 H        5.2170    -6.0430    -1.2240 H     1 <1>   0.1500 
 31 H        4.6190    -7.9180     2.4450 H     1 <1>   0.1500 
 32 H        6.8700    -6.4340     2.5150 H     1 <1>   0.1500 
 33 H       -4.9160    -5.8770    -1.7080 H     1 <1>   0.0800 
 34 H       -4.2040    -4.2870    -1.7040 H     1 <1>   0.0800 
 35 H       -5.8280    -4.5230    -1.1060 H     1 <1>   0.0800 
 36 H       -3.7510    -3.1100     0.5040 H     1 <1>   0.0800 
 37 H       -3.9830    -3.9710     2.0110 H     1 <1>   0.0800 
 38 H       -5.3560    -3.4960     1.0540 H     1 <1>   0.0800 
 39 H       -4.7690    -6.3890     1.9750 H     1 <1>   0.0800 
 40 H       -5.2510    -7.1210     0.4700 H     1 <1>   0.0800 
 41 H       -6.1700    -5.7940     1.1180 H     1 <1>   0.0800 
@<TRIPOS>BOND
  1   1   2  1   
  2   1   3  1   
  3   2   4  ar  
  4   2   5  ar  
  5   3   6  1   
  6   3  20  1   
  7   3  21  1   
  8   4   7  ar  
  9   4   8  1   
 10   5   9  ar  
 11   5  22  1   
 12   6  10  1   
 13   6  23  1   
 14   6  24  1   
 15   7  11  ar  
 16   7  25  1   
 17   8  26  1   
 18   8  27  1   
 19   8  28  1   
 20   9  11  ar  
 21   9  29  1   
 22  10  12  1   
 23  10  13  1   
 24  11  14  1   
 25  12  15  2   
 26  12  30  1   
 27  13  16  2   
 28  13  31  1   
 29  14  17  1   
 30  14  18  1   
 31  14  19  1   
 32  15  16  1   
 33  16  32  1   
 34  17  33  1   
 35  17  34  1   
 36  17  35  1   
 37  18  36  1   
 38  18  37  1   
 39  18  38  1   
 40  19  39  1   
 41  19  40  1   
 42  19  41  1   
@<TRIPOS>SUBSTRUCTURE
  1 ****   2 GROUP 4 **** **** 0

# MOE 2024.06 (io_trps.svl 2023.06)
