@<TRIPOS>MOLECULE
NONAME
42 43 1 0 0 
SMALL
USER_CHARGES


@<TRIPOS>ATOM
  1 O       -0.1180     0.5710     1.0940 O.2   1 <1>  -0.5700 
  2 C        0.0130     1.4840     0.3130 C.2   1 <1>   0.5690 
  3 N        1.2160     1.8480    -0.2390 N.am  1 <1>  -0.5470 
  4 C       -1.2650     2.2560    -0.0620 C.3   1 <1>   0.4040 
  5 C        2.4910     1.2780    -0.0770 C.ar  1 <1>   0.1170 
  6 N       -2.5320     1.4740     0.2030 N.4   1 <1>  -0.9590 
  7 C        3.6080     2.0740    -0.3060 C.ar  1 <1>  -0.1500 
  8 C        2.6920    -0.0520     0.2820 C.ar  1 <1>  -0.1500 
  9 C       -2.6740     0.3150    -0.7260 C.3   1 <1>   0.3430 
 10 C       -3.7480     2.3340     0.2450 C.3   1 <1>   0.3430 
 11 C        4.8880     1.5660    -0.1790 C.ar  1 <1>  -0.1500 
 12 C        3.9700    -0.5640     0.4120 C.ar  1 <1>  -0.1500 
 13 C       -3.8640    -0.5430    -0.2980 C.3   1 <1>  -0.1600 
 14 C       -4.9520     1.5010     0.6860 C.3   1 <1>  -0.1600 
 15 C        5.0760     0.2360     0.1840 C.ar  1 <1>   0.0830 
 16 C       -5.1590     0.2780    -0.2190 C.3   1 <1>  -0.0800 
 17 O        6.2940    -0.3470     0.3330 O.3   1 <1>  -0.3620 
 18 C       -6.3140    -0.5860     0.2990 C.3   1 <1>  -0.2400 
 19 C        7.4820     0.3910     0.1470 C.3   1 <1>   0.0400 
 20 H        1.2360     2.6880    -0.8170 H     1 <1>   0.3700 
 21 H       -1.2180     2.5290    -1.1020 H     1 <1>   0.0800 
 22 H       -1.2770     3.1590     0.5230 H     1 <1>   0.0800 
 23 H       -2.3960     1.0520     1.1390 H     1 <1>   0.4500 
 24 H        3.4860     3.1050    -0.5850 H     1 <1>   0.1500 
 25 H        1.8570    -0.7040     0.4620 H     1 <1>   0.1500 
 26 H       -1.7780    -0.2880    -0.7060 H     1 <1>   0.0800 
 27 H       -2.8290     0.6660    -1.7330 H     1 <1>   0.0800 
 28 H       -3.9380     2.7470    -0.7330 H     1 <1>   0.0800 
 29 H       -3.6050     3.1480     0.9380 H     1 <1>   0.0800 
 30 H        5.7240     2.2140    -0.3630 H     1 <1>   0.1500 
 31 H        4.1190    -1.5920     0.6930 H     1 <1>   0.1500 
 32 H       -3.6480    -0.9940     0.6560 H     1 <1>   0.0800 
 33 H       -3.9890    -1.3420    -1.0080 H     1 <1>   0.0800 
 34 H       -5.8320     2.1200     0.6570 H     1 <1>   0.0800 
 35 H       -4.8120     1.1890     1.7070 H     1 <1>   0.0800 
 36 H       -5.4140     0.6190    -1.2100 H     1 <1>   0.0800 
 37 H       -6.1080    -0.9540     1.2890 H     1 <1>   0.0800 
 38 H       -6.4720    -1.4300    -0.3510 H     1 <1>   0.0800 
 39 H       -7.2250    -0.0150     0.3310 H     1 <1>   0.0800 
 40 H        8.3130    -0.2670     0.3260 H     1 <1>   0.0800 
 41 H        7.5010     1.2040     0.8510 H     1 <1>   0.0800 
 42 H        7.5130     0.7530    -0.8650 H     1 <1>   0.0800 
@<TRIPOS>BOND
  1   1   2  2   
  2   2   3  am  
  3   2   4  1   
  4   3   5  1   
  5   3  20  1   
  6   4   6  1   
  7   4  21  1   
  8   4  22  1   
  9   5   7  ar  
 10   5   8  ar  
 11   6   9  1   
 12   6  10  1   
 13   6  23  1   
 14   7  11  ar  
 15   7  24  1   
 16   8  12  ar  
 17   8  25  1   
 18   9  13  1   
 19   9  26  1   
 20   9  27  1   
 21  10  14  1   
 22  10  28  1   
 23  10  29  1   
 24  11  15  ar  
 25  11  30  1   
 26  12  15  ar  
 27  12  31  1   
 28  13  16  1   
 29  13  32  1   
 30  13  33  1   
 31  14  16  1   
 32  14  34  1   
 33  14  35  1   
 34  15  17  1   
 35  16  18  1   
 36  16  36  1   
 37  17  19  1   
 38  18  37  1   
 39  18  38  1   
 40  18  39  1   
 41  19  40  1   
 42  19  41  1   
 43  19  42  1   
@<TRIPOS>SUBSTRUCTURE
  1 ****   2 GROUP 4 **** **** 0

# MOE 2024.06 (io_trps.svl 2023.06)
