@<TRIPOS>MOLECULE
NONAME
43 45 1 0 0 
SMALL
USER_CHARGES


@<TRIPOS>ATOM
  1 BR      -2.5320     1.7250     3.5720 Br    1 <1>  -0.1110 
  2 C       -2.8100     1.7210     1.6690 C.ar  1 <1>   0.1110 
  3 C       -3.8730     1.0020     1.1580 C.ar  1 <1>  -0.1500 
  4 C       -1.9440     2.4360     0.8660 C.ar  1 <1>  -0.1500 
  5 C       -4.0840     1.0020    -0.2150 C.ar  1 <1>  -0.1440 
  6 C       -2.1530     2.4260    -0.5010 C.ar  1 <1>  -0.1500 
  7 C       -3.2150     1.7120    -1.0370 C.ar  1 <1>  -0.1500 
  8 C       -5.2520     0.2400    -0.8110 C.3   1 <1>   0.4870 
  9 N       -6.5100     0.9540    -0.4730 N.4   1 <1>  -0.9590 
 10 C       -7.7140     0.1760    -0.8690 C.3   1 <1>   0.4860 
 11 C       -6.5700     2.3330    -1.0440 C.3   1 <1>   0.3430 
 12 C       -8.9720     0.9200    -0.4530 C.ar  1 <1>  -0.1430 
 13 C       -7.7120     3.1200    -0.3940 C.3   1 <1>  -0.0170 
 14 C       -8.9820     2.2920    -0.2430 C.ar  1 <1>  -0.1430 
 15 C      -10.1450     0.2030    -0.2890 C.ar  1 <1>  -0.1500 
 16 C      -10.1600     2.9220     0.1260 C.ar  1 <1>  -0.1500 
 17 C      -11.3290     0.8170     0.0790 C.ar  1 <1>   0.0830 
 18 C      -11.3450     2.2070     0.2920 C.ar  1 <1>   0.0830 
 19 O      -12.3780    -0.0490     0.1910 O.3   1 <1>  -0.3630 
 20 O      -12.4990     2.8370     0.6590 O.3   1 <1>  -0.3620 
 21 C      -13.6950     0.3500     0.4970 C.3   1 <1>   0.0400 
 22 C      -12.5810     4.2300     0.8690 C.3   1 <1>   0.0400 
 23 H       -4.5060     0.4580     1.8370 H     1 <1>   0.1500 
 24 H       -1.1260     2.9840     1.3020 H     1 <1>   0.1500 
 25 H       -1.4850     2.9720    -1.1470 H     1 <1>   0.1500 
 26 H       -3.3480     1.7190    -2.1070 H     1 <1>   0.1500 
 27 H       -5.2680    -0.7580    -0.4030 H     1 <1>   0.0800 
 28 H       -5.1370     0.1700    -1.8810 H     1 <1>   0.0800 
 29 H       -6.5490     1.0570     0.5480 H     1 <1>   0.4500 
 30 H       -7.7030    -0.7910    -0.3930 H     1 <1>   0.0800 
 31 H       -7.7290     0.0320    -1.9370 H     1 <1>   0.0800 
 32 H       -6.7370     2.2770    -2.1080 H     1 <1>   0.0800 
 33 H       -5.6430     2.8560    -0.8730 H     1 <1>   0.0800 
 34 H       -7.9150     3.9930    -0.9880 H     1 <1>   0.0800 
 35 H       -7.3960     3.4570     0.5780 H     1 <1>   0.0800 
 36 H      -10.1670    -0.8620    -0.4470 H     1 <1>   0.1500 
 37 H      -10.1380     3.9830     0.2850 H     1 <1>   0.1500 
 38 H      -14.3210    -0.5230     0.4890 H     1 <1>   0.0800 
 39 H      -14.0310     1.0480    -0.2490 H     1 <1>   0.0800 
 40 H      -13.7060     0.7980     1.4750 H     1 <1>   0.0800 
 41 H      -13.5940     4.4670     1.1380 H     1 <1>   0.0800 
 42 H      -12.3180     4.7390    -0.0410 H     1 <1>   0.0800 
 43 H      -11.9200     4.5030     1.6730 H     1 <1>   0.0800 
@<TRIPOS>BOND
  1   1   2  1   
  2   2   3  ar  
  3   2   4  ar  
  4   3   5  ar  
  5   3  23  1   
  6   4   6  ar  
  7   4  24  1   
  8   5   7  ar  
  9   5   8  1   
 10   6   7  ar  
 11   6  25  1   
 12   7  26  1   
 13   8   9  1   
 14   8  27  1   
 15   8  28  1   
 16   9  10  1   
 17   9  11  1   
 18   9  29  1   
 19  10  12  1   
 20  10  30  1   
 21  10  31  1   
 22  11  13  1   
 23  11  32  1   
 24  11  33  1   
 25  12  14  ar  
 26  12  15  ar  
 27  13  14  1   
 28  13  34  1   
 29  13  35  1   
 30  14  16  ar  
 31  15  17  ar  
 32  15  36  1   
 33  16  18  ar  
 34  16  37  1   
 35  17  18  ar  
 36  17  19  1   
 37  18  20  1   
 38  19  21  1   
 39  20  22  1   
 40  21  38  1   
 41  21  39  1   
 42  21  40  1   
 43  22  41  1   
 44  22  42  1   
 45  22  43  1   
@<TRIPOS>SUBSTRUCTURE
  1 ****   9 GROUP 4 **** **** 0

# MOE 2024.06 (io_trps.svl 2023.06)
