@<TRIPOS>MOLECULE
NONAME
36 36 1 0 0 
SMALL
USER_CHARGES


@<TRIPOS>ATOM
  1 O        4.8780    -4.1010    -1.4100 O.2   1 <1>  -0.5700 
  2 C        4.9320    -3.0280    -0.8680 C.2   1 <1>   0.6590 
  3 O        6.0800    -2.3650    -0.7880 O.3   1 <1>  -0.4300 
  4 C        3.6350    -2.4610    -0.2460 C.3   1 <1>   0.4840 
  5 C        6.3420    -1.2340     0.0150 C.3   1 <1>   0.1200 
  6 N        2.6360    -3.5710     0.0110 N.4   1 <1>  -0.9060 
  7 C        2.9960    -1.3890    -1.1460 C.3   1 <1>  -0.1600 
  8 C        7.8280    -0.9030    -0.1110 C.3   1 <1>  -0.1600 
  9 C        1.2050    -3.2570    -0.1700 C.3   1 <1>   0.4230 
 10 C        1.7220    -0.7910    -0.5200 C.3   1 <1>  -0.1600 
 11 C        8.1970     0.3200     0.7380 C.3   1 <1>  -0.1600 
 12 C        0.9290    -1.8260     0.2990 C.3   1 <1>  -0.1600 
 13 C        0.3990    -4.2820     0.6170 C.3   1 <1>  -0.2400 
 14 C        9.6870     0.6450     0.6070 C.3   1 <1>  -0.2400 
 15 H        3.8880    -2.0020     0.6930 H     1 <1>   0.0800 
 16 H        6.0990    -1.4670     1.0370 H     1 <1>   0.0800 
 17 H        5.7490    -0.4070    -0.3360 H     1 <1>   0.0800 
 18 H        2.7830    -3.9570     0.9480 H     1 <1>   0.4500 
 19 H        2.8990    -4.3290    -0.6420 H     1 <1>   0.4500 
 20 H        2.7600    -1.8310    -2.1000 H     1 <1>   0.0800 
 21 H        3.6970    -0.5960    -1.3380 H     1 <1>   0.0800 
 22 H        8.0610    -0.7040    -1.1430 H     1 <1>   0.0800 
 23 H        8.4090    -1.7500     0.2130 H     1 <1>   0.0800 
 24 H        0.9500    -3.3300    -1.2160 H     1 <1>   0.0800 
 25 H        1.1020    -0.3990    -1.3100 H     1 <1>   0.0800 
 26 H        1.9780     0.0380     0.1200 H     1 <1>   0.0800 
 27 H        7.9710     0.1300     1.7740 H     1 <1>   0.0800 
 28 H        7.6240     1.1740     0.4200 H     1 <1>   0.0800 
 29 H        1.1780    -1.7370     1.3430 H     1 <1>   0.0800 
 30 H       -0.1230    -1.6120     0.2060 H     1 <1>   0.0800 
 31 H        0.6100    -4.2240     1.6700 H     1 <1>   0.0800 
 32 H        0.6010    -5.2780     0.2620 H     1 <1>   0.0800 
 33 H       -0.6520    -4.0940     0.4790 H     1 <1>   0.0800 
 34 H       10.2870    -0.1840     0.9410 H     1 <1>   0.0800 
 35 H        9.9310     1.5050     1.2070 H     1 <1>   0.0800 
 36 H        9.9380     0.8630    -0.4170 H     1 <1>   0.0800 
@<TRIPOS>BOND
  1   1   2  2   
  2   2   3  1   
  3   2   4  1   
  4   3   5  1   
  5   4   6  1   
  6   4   7  1   
  7   4  15  1   
  8   5   8  1   
  9   5  16  1   
 10   5  17  1   
 11   6   9  1   
 12   6  18  1   
 13   6  19  1   
 14   7  10  1   
 15   7  20  1   
 16   7  21  1   
 17   8  11  1   
 18   8  22  1   
 19   8  23  1   
 20   9  12  1   
 21   9  13  1   
 22   9  24  1   
 23  10  12  1   
 24  10  25  1   
 25  10  26  1   
 26  11  14  1   
 27  11  27  1   
 28  11  28  1   
 29  12  29  1   
 30  12  30  1   
 31  13  31  1   
 32  13  32  1   
 33  13  33  1   
 34  14  34  1   
 35  14  35  1   
 36  14  36  1   
@<TRIPOS>SUBSTRUCTURE
  1 ****   4 GROUP 4 **** **** 0

# MOE 2024.06 (io_trps.svl 2023.06)
