@<TRIPOS>MOLECULE
NONAME
55 58 1 0 0 
SMALL
USER_CHARGES


@<TRIPOS>ATOM
  1 O       -8.1830    -2.0690    -1.9680 O.2   1 <1>  -0.5700 
  2 C       -7.4500    -1.4190    -1.2400 C.2   1 <1>   0.6160 
  3 N       -8.0200    -0.4140    -0.4610 N.am  1 <1>  -0.2860 
  4 C       -6.0450    -1.7290    -1.2270 C.2   1 <1>  -0.1360 
  5 C       -7.3660     0.8110    -0.2190 C.ar  1 <1>   0.1170 
  6 C       -9.3850    -0.5100    -0.1410 C.2   1 <1>  -0.0290 
  7 C       -5.0580    -1.3070    -0.4000 C.2   1 <1>  -0.1780 
  8 C       -6.7910     1.5370    -1.2580 C.ar  1 <1>  -0.1500 
  9 C       -7.2920     1.3210     1.0730 C.ar  1 <1>  -0.1500 
 10 C       -9.8920    -1.3970     0.7290 C.2   1 <1>  -0.2880 
 11 C      -10.3120     0.4170    -0.9240 C.3   1 <1>  -0.0220 
 12 C       -3.6610    -1.6560    -0.4400 C.ar  1 <1>   0.0280 
 13 C       -6.1530     2.7380    -1.0060 C.ar  1 <1>  -0.1500 
 14 C       -6.6550     2.5220     1.3280 C.ar  1 <1>  -0.1500 
 15 C      -11.3840    -1.5470     0.9560 C.3   1 <1>   0.5610 
 16 C      -11.7930     0.1840    -0.5430 C.3   1 <1>   0.4230 
 17 C       -3.1860    -2.7940    -1.0920 C.ar  1 <1>  -0.1500 
 18 C       -2.7250    -0.8410     0.1960 C.ar  1 <1>  -0.1500 
 19 C       -6.0800     3.2390     0.2830 C.ar  1 <1>   0.0830 
 20 N      -12.0590    -1.2680    -0.3320 N.4   1 <1>  -0.9590 
 21 C      -11.8730    -0.3970     1.8280 C.3   1 <1>  -0.1600 
 22 C      -12.1080     0.7610     0.8440 C.3   1 <1>  -0.1600 
 23 C       -1.8380    -3.1010    -1.1130 C.ar  1 <1>  -0.1500 
 24 C       -1.3760    -1.1430     0.1790 C.ar  1 <1>  -0.1500 
 25 O       -5.4350     4.4240     0.4400 O.3   1 <1>  -0.3630 
 26 C      -11.6400    -2.1790    -1.4560 C.3   1 <1>   0.2630 
 27 C       -0.9290    -2.2760    -0.4770 C.ar  1 <1>  -0.1500 
 28 C       -5.2970     5.0170     1.7130 C.3   1 <1>   0.0400 
 29 H       -5.7960    -2.4090    -2.0190 H     1 <1>   0.1500 
 30 H       -5.2930    -0.6260     0.3980 H     1 <1>   0.1500 
 31 H       -6.8380     1.1640    -2.2660 H     1 <1>   0.1500 
 32 H       -7.7310     0.7680     1.8840 H     1 <1>   0.1500 
 33 H       -9.2890    -2.0720     1.3110 H     1 <1>   0.1500 
 34 H      -10.0470     1.4450    -0.7540 H     1 <1>   0.0800 
 35 H      -10.1860     0.2300    -1.9760 H     1 <1>   0.0800 
 36 H       -5.7060     3.2970    -1.8090 H     1 <1>   0.1500 
 37 H       -6.6140     2.8830     2.3380 H     1 <1>   0.1500 
 38 H      -11.6380    -2.5200     1.3480 H     1 <1>   0.0800 
 39 H      -12.4430     0.6060    -1.2930 H     1 <1>   0.0800 
 40 H       -3.8740    -3.4550    -1.5850 H     1 <1>   0.1500 
 41 H       -3.0570     0.0450     0.7070 H     1 <1>   0.1500 
 42 H      -13.0650    -1.3770    -0.1690 H     1 <1>   0.4500 
 43 H      -12.7920    -0.6740     2.3150 H     1 <1>   0.0800 
 44 H      -11.1480    -0.1460     2.5840 H     1 <1>   0.0800 
 45 H      -11.4880     1.6110     1.0740 H     1 <1>   0.0800 
 46 H      -13.1360     1.0790     0.8800 H     1 <1>   0.0800 
 47 H       -1.4950    -3.9840    -1.6230 H     1 <1>   0.1500 
 48 H       -0.6730    -0.4980     0.6760 H     1 <1>   0.1500 
 49 H      -10.5770    -2.1100    -1.6320 H     1 <1>   0.0800 
 50 H      -12.1530    -1.9130    -2.3650 H     1 <1>   0.0800 
 51 H      -11.8740    -3.2020    -1.2150 H     1 <1>   0.0800 
 52 H        0.1210    -2.5130    -0.4920 H     1 <1>   0.1500 
 53 H       -4.7550     5.9380     1.5940 H     1 <1>   0.0800 
 54 H       -4.7450     4.3500     2.3510 H     1 <1>   0.0800 
 55 H       -6.2740     5.2180     2.1140 H     1 <1>   0.0800 
@<TRIPOS>BOND
  1   1   2  2   
  2   2   3  am  
  3   2   4  1   
  4   3   5  1   
  5   3   6  1   
  6   4   7  2   
  7   4  29  1   
  8   5   8  ar  
  9   5   9  ar  
 10   6  10  2   
 11   6  11  1   
 12   7  12  1   
 13   7  30  1   
 14   8  13  ar  
 15   8  31  1   
 16   9  14  ar  
 17   9  32  1   
 18  10  15  1   
 19  10  33  1   
 20  11  16  1   
 21  11  34  1   
 22  11  35  1   
 23  12  17  ar  
 24  12  18  ar  
 25  13  19  ar  
 26  13  36  1   
 27  14  19  ar  
 28  14  37  1   
 29  15  20  1   
 30  15  21  1   
 31  15  38  1   
 32  16  20  1   
 33  16  22  1   
 34  16  39  1   
 35  17  23  ar  
 36  17  40  1   
 37  18  24  ar  
 38  18  41  1   
 39  19  25  1   
 40  20  26  1   
 41  20  42  1   
 42  21  22  1   
 43  21  43  1   
 44  21  44  1   
 45  22  45  1   
 46  22  46  1   
 47  23  27  ar  
 48  23  47  1   
 49  24  27  ar  
 50  24  48  1   
 51  25  28  1   
 52  26  49  1   
 53  26  50  1   
 54  26  51  1   
 55  27  52  1   
 56  28  53  1   
 57  28  54  1   
 58  28  55  1   
@<TRIPOS>SUBSTRUCTURE
  1 ****   5 GROUP 4 **** **** 0

# MOE 2024.06 (io_trps.svl 2023.06)
