@<TRIPOS>MOLECULE
NONAME
61 64 1 0 0 
SMALL
USER_CHARGES


@<TRIPOS>ATOM
  1 O       -0.6260    -0.7870     1.3320 O.2   1 <1>  -0.5700 
  2 C       -1.2670    -1.7610     0.9950 C.2   1 <1>   0.6900 
  3 N       -0.6500    -2.7910     0.2930 N.am  1 <1>  -0.4200 
  4 N       -2.6170    -1.8370     1.3010 N.am  1 <1>  -0.4360 
  5 C       -1.3750    -3.8780    -0.1770 C.2   1 <1>   0.7030 
  6 C        0.8160    -2.6930     0.0050 C.3   1 <1>   0.0600 
  7 C       -3.3280    -2.9240     0.8300 C.2   1 <1>   0.4260 
  8 C       -3.2870    -0.7590     2.0880 C.3   1 <1>   0.0600 
  9 O       -0.8300    -4.7520    -0.8280 O.2   1 <1>  -0.5700 
 10 C       -2.7790    -3.9350     0.1160 C.2   1 <1>   0.2770 
 11 N       -4.6520    -3.1770     0.9700 N.pl3 1 <1>  -0.7000 
 12 N       -3.8190    -4.8290    -0.1780 N.pl3 1 <1>  -0.7640 
 13 C       -4.9260    -4.3230     0.3580 C.cat 1 <1>   0.6560 
 14 C       -3.6320    -6.0890    -0.9450 C.3   1 <1>   0.3540 
 15 C       -6.3510    -4.8980     0.3220 C.3   1 <1>   0.2540 
 16 C       -3.1630    -7.1940     0.0040 C.3   1 <1>  -0.1600 
 17 N       -7.3790    -3.8440     0.5290 N.3   1 <1>  -0.8100 
 18 C       -2.9830    -8.5280    -0.7350 C.3   1 <1>  -0.1600 
 19 C       -8.6790    -4.4440     0.9320 C.3   1 <1>   0.1100 
 20 C       -7.5800    -3.0320    -0.7050 C.3   1 <1>   0.1100 
 21 C       -2.5150    -9.6250     0.2250 C.3   1 <1>  -0.2400 
 22 C       -9.7800    -3.3850     1.1380 C.3   1 <1>   0.2090 
 23 C       -8.6490    -1.9390    -0.5220 C.3   1 <1>   0.2090 
 24 N       -9.9320    -2.5450    -0.0820 N.pl3 1 <1>  -0.8380 
 25 C      -11.0450    -1.7150    -0.1300 C.ar  1 <1>   0.1000 
 26 C      -12.0070    -1.9170    -1.1110 C.ar  1 <1>  -0.1500 
 27 C      -11.2260    -0.6780     0.7790 C.ar  1 <1>  -0.1500 
 28 C      -13.1240    -1.1060    -1.1860 C.ar  1 <1>  -0.1500 
 29 C      -12.3410     0.1360     0.7090 C.ar  1 <1>  -0.1500 
 30 C      -13.2930    -0.0760    -0.2750 C.ar  1 <1>  -0.1500 
 31 H        0.9710    -2.0890    -0.8730 H     1 <1>   0.0800 
 32 H        1.2440    -3.6670    -0.1590 H     1 <1>   0.0800 
 33 H        1.3300    -2.2370     0.8340 H     1 <1>   0.0800 
 34 H       -2.5670    -0.2230     2.6840 H     1 <1>   0.0800 
 35 H       -4.0200    -1.1800     2.7520 H     1 <1>   0.0800 
 36 H       -3.7630    -0.0640     1.4190 H     1 <1>   0.0800 
 37 H       -5.3810    -2.6230     1.4280 H     1 <1>   0.4500 
 38 H       -2.9030    -5.9400    -1.7250 H     1 <1>   0.0800 
 39 H       -4.5580    -6.3790    -1.4110 H     1 <1>   0.0800 
 40 H       -6.4240    -5.6250     1.1120 H     1 <1>   0.0800 
 41 H       -6.5250    -5.4010    -0.6130 H     1 <1>   0.0800 
 42 H       -3.8840    -7.3230     0.7920 H     1 <1>   0.0800 
 43 H       -2.2210    -6.9110     0.4410 H     1 <1>   0.0800 
 44 H       -2.2510    -8.4150    -1.5180 H     1 <1>   0.0800 
 45 H       -3.9130    -8.8310    -1.1860 H     1 <1>   0.0800 
 46 H       -8.5570    -4.9880     1.8520 H     1 <1>   0.0800 
 47 H       -9.0170    -5.1340     0.1770 H     1 <1>   0.0800 
 48 H       -7.8920    -3.6680    -1.5170 H     1 <1>   0.0800 
 49 H       -6.6570    -2.5570    -0.9900 H     1 <1>   0.0800 
 50 H       -1.5720    -9.3610     0.6710 H     1 <1>   0.0800 
 51 H       -2.3890   -10.5510    -0.3090 H     1 <1>   0.0800 
 52 H       -3.2370    -9.7820     1.0070 H     1 <1>   0.0800 
 53 H       -9.5300    -2.7630     1.9790 H     1 <1>   0.0800 
 54 H      -10.7170    -3.8730     1.3480 H     1 <1>   0.0800 
 55 H       -8.8050    -1.4240    -1.4550 H     1 <1>   0.0800 
 56 H       -8.3180    -1.2220     0.2080 H     1 <1>   0.0800 
 57 H      -11.8660    -2.7190    -1.8120 H     1 <1>   0.1500 
 58 H      -10.4880    -0.5130     1.5400 H     1 <1>   0.1500 
 59 H      -13.8610    -1.2740    -1.9510 H     1 <1>   0.1500 
 60 H      -12.4710     0.9350     1.4170 H     1 <1>   0.1500 
 61 H      -14.1610     0.5560    -0.3310 H     1 <1>   0.1500 
@<TRIPOS>BOND
  1   1   2  2   
  2   2   3  am  
  3   2   4  am  
  4   3   5  am  
  5   3   6  1   
  6   4   7  1   
  7   4   8  1   
  8   5   9  2   
  9   5  10  1   
 10   6  31  1   
 11   6  32  1   
 12   6  33  1   
 13   7  10  2   
 14   7  11  1   
 15   8  34  1   
 16   8  35  1   
 17   8  36  1   
 18  10  12  1   
 19  11  13  ar  
 20  11  37  1   
 21  12  13  ar  
 22  12  14  1   
 23  13  15  1   
 24  14  16  1   
 25  14  38  1   
 26  14  39  1   
 27  15  17  1   
 28  15  40  1   
 29  15  41  1   
 30  16  18  1   
 31  16  42  1   
 32  16  43  1   
 33  17  19  1   
 34  17  20  1   
 35  18  21  1   
 36  18  44  1   
 37  18  45  1   
 38  19  22  1   
 39  19  46  1   
 40  19  47  1   
 41  20  23  1   
 42  20  48  1   
 43  20  49  1   
 44  21  50  1   
 45  21  51  1   
 46  21  52  1   
 47  22  24  1   
 48  22  53  1   
 49  22  54  1   
 50  23  24  1   
 51  23  55  1   
 52  23  56  1   
 53  24  25  1   
 54  25  26  ar  
 55  25  27  ar  
 56  26  28  ar  
 57  26  57  1   
 58  27  29  ar  
 59  27  58  1   
 60  28  30  ar  
 61  28  59  1   
 62  29  30  ar  
 63  29  60  1   
 64  30  61  1   
@<TRIPOS>SUBSTRUCTURE
  1 ****  13 GROUP 4 **** **** 0

# MOE 2024.06 (io_trps.svl 2023.06)
