@<TRIPOS>MOLECULE
NONAME
30 31 1 0 0 
SMALL
USER_CHARGES


@<TRIPOS>ATOM
  1 F        0.9070    -0.3900     1.9580 F     1 <1>  -0.3400 
  2 C        1.8930     0.4480     1.6600 C.3   1 <1>   1.1640 
  3 F        1.3300     1.6310     1.4510 F     1 <1>  -0.3400 
  4 F        2.6210     0.5700     2.7640 F     1 <1>  -0.3400 
  5 C        2.7340    -0.0110     0.4570 C.ar  1 <1>  -0.1440 
  6 C        4.0180     0.4900     0.2680 C.ar  1 <1>  -0.1500 
  7 C        2.2350    -0.9210    -0.4690 C.ar  1 <1>  -0.1500 
  8 C        4.8180     0.1000    -0.8070 C.ar  1 <1>   0.0860 
  9 C        3.0040    -1.3150    -1.5490 C.ar  1 <1>  -0.1500 
 10 C        6.1610     0.6220    -0.9850 C.2   1 <1>   0.5440 
 11 C        4.2770    -0.8070    -1.7150 C.ar  1 <1>  -0.1500 
 12 O        6.4850     1.0630    -2.0710 O.2   1 <1>  -0.5700 
 13 N        7.0840     0.6240     0.0390 N.am  1 <1>  -0.6600 
 14 C        8.3810     1.3610    -0.0640 C.3   1 <1>   0.1400 
 15 C        7.0230    -0.2860     1.2230 C.3   1 <1>   0.1400 
 16 C        9.5660     0.3940     0.0880 C.3   1 <1>   0.1200 
 17 C        8.2930    -1.1520     1.3070 C.3   1 <1>   0.1200 
 18 O        9.4420    -0.3560     1.2640 O.3   1 <1>  -0.5600 
 19 H        4.4230     1.2080     0.9620 H     1 <1>   0.1500 
 20 H        1.2430    -1.3290    -0.3600 H     1 <1>   0.1500 
 21 H        2.6080    -2.0160    -2.2650 H     1 <1>   0.1500 
 22 H        4.8710    -1.1080    -2.5610 H     1 <1>   0.1500 
 23 H        8.4290     2.1020     0.7140 H     1 <1>   0.0800 
 24 H        8.4580     1.8720    -1.0080 H     1 <1>   0.0800 
 25 H        6.1670    -0.9340     1.1640 H     1 <1>   0.0800 
 26 H        6.9380     0.3030     2.1190 H     1 <1>   0.0800 
 27 H       10.4890     0.9440     0.1430 H     1 <1>   0.0800 
 28 H        9.6130    -0.2790    -0.7510 H     1 <1>   0.0800 
 29 H        8.3280    -1.8510     0.4900 H     1 <1>   0.0800 
 30 H        8.3080    -1.7000     2.2320 H     1 <1>   0.0800 
@<TRIPOS>BOND
  1   1   2  1   
  2   2   3  1   
  3   2   4  1   
  4   2   5  1   
  5   5   6  ar  
  6   5   7  ar  
  7   6   8  ar  
  8   6  19  1   
  9   7   9  ar  
 10   7  20  1   
 11   8  10  1   
 12   8  11  ar  
 13   9  11  ar  
 14   9  21  1   
 15  10  12  2   
 16  10  13  am  
 17  11  22  1   
 18  13  14  1   
 19  13  15  1   
 20  14  16  1   
 21  14  23  1   
 22  14  24  1   
 23  15  17  1   
 24  15  25  1   
 25  15  26  1   
 26  16  18  1   
 27  16  27  1   
 28  16  28  1   
 29  17  18  1   
 30  17  29  1   
 31  17  30  1   
@<TRIPOS>SUBSTRUCTURE
  1 ****   6 GROUP 4 **** **** 0

# MOE 2024.06 (io_trps.svl 2023.06)
