@<TRIPOS>MOLECULE
NONAME
39 41 1 0 0 
SMALL
USER_CHARGES


@<TRIPOS>ATOM
  1 O        0.7290     1.8000     1.2570 O.3   1 <1>  -0.6800 
  2 C        0.4450     1.3490    -0.0270 C.3   1 <1>   0.2000 
  3 C        1.6660     1.5880    -0.9210 C.3   1 <1>   0.0960 
  4 C       -0.7910     2.0830    -0.5580 C.3   1 <1>   0.0960 
  5 N        2.8110     0.8040    -0.4340 N.pl3 1 <1>   0.3140 
  6 N       -2.0150     1.6530     0.1470 N.pl3 1 <1>   0.0480 
  7 N        2.8580    -0.5240    -0.6390 N.2   1 <1>  -0.7070 
  8 C        3.8830     1.2310     0.2730 C.2   1 <1>  -0.3320 
  9 C       -2.7380     0.5110    -0.1130 C.ar  1 <1>  -0.1520 
 10 C       -2.6750     2.3520     1.1180 C.2   1 <1>  -0.3020 
 11 C        3.9550    -0.9110    -0.0700 C.2   1 <1>   0.1080 
 12 C        4.6410     0.1430     0.5190 C.2   1 <1>  -0.1500 
 13 C        4.1410     2.6690     0.6920 C.3   1 <1>  -0.0600 
 14 C       -3.8600     0.5060     0.7110 C.ar  1 <1>   0.0000 
 15 C       -2.5100    -0.5420    -1.0060 C.ar  1 <1>  -0.1500 
 16 C       -3.7950     1.6850     1.4820 C.2   1 <1>  -0.1500 
 17 C        4.4000    -2.3540    -0.0700 C.3   1 <1>  -0.0590 
 18 C       -4.7690    -0.5540     0.6450 C.ar  1 <1>  -0.1500 
 19 C       -3.4120    -1.5800    -1.0620 C.ar  1 <1>  -0.1500 
 20 C       -4.5430    -1.5860    -0.2360 C.ar  1 <1>  -0.1500 
 21 H        1.3710     1.1920     1.6820 H     1 <1>   0.4000 
 22 H        0.2380     0.2920     0.0220 H     1 <1>   0.0800 
 23 H        1.9210     2.6300    -0.9420 H     1 <1>   0.0800 
 24 H        1.4520     1.2640    -1.9220 H     1 <1>   0.0800 
 25 H       -0.9230     1.8670    -1.6020 H     1 <1>   0.0800 
 26 H       -0.6690     3.1440    -0.4430 H     1 <1>   0.0800 
 27 H       -2.3000     3.2860     1.4970 H     1 <1>   0.1500 
 28 H        5.5730     0.0740     1.0510 H     1 <1>   0.1500 
 29 H        4.2470     3.2970    -0.1750 H     1 <1>   0.0800 
 30 H        5.0470     2.7290     1.2680 H     1 <1>   0.0800 
 31 H        3.3290     3.0360     1.2950 H     1 <1>   0.0800 
 32 H       -1.6410    -0.5400    -1.6380 H     1 <1>   0.1500 
 33 H       -4.5260     1.9640     2.2190 H     1 <1>   0.1500 
 34 H        4.5350    -2.6870    -1.0820 H     1 <1>   0.0800 
 35 H        3.6470    -2.9600     0.3990 H     1 <1>   0.0800 
 36 H        5.3250    -2.4620     0.4650 H     1 <1>   0.0800 
 37 H       -5.6310    -0.5430     1.2860 H     1 <1>   0.1500 
 38 H       -3.2550    -2.3990    -1.7400 H     1 <1>   0.1500 
 39 H       -5.2330    -2.4080    -0.2990 H     1 <1>   0.1500 
@<TRIPOS>BOND
  1   1   2  1   
  2   1  21  1   
  3   2   3  1   
  4   2   4  1   
  5   2  22  1   
  6   3   5  1   
  7   3  23  1   
  8   3  24  1   
  9   4   6  1   
 10   4  25  1   
 11   4  26  1   
 12   5   7  1   
 13   5   8  1   
 14   6   9  1   
 15   6  10  1   
 16   7  11  2   
 17   8  12  2   
 18   8  13  1   
 19   9  14  ar  
 20   9  15  ar  
 21  10  16  2   
 22  10  27  1   
 23  11  12  1   
 24  11  17  1   
 25  12  28  1   
 26  13  29  1   
 27  13  30  1   
 28  13  31  1   
 29  14  16  1   
 30  14  18  ar  
 31  15  19  ar  
 32  15  32  1   
 33  16  33  1   
 34  17  34  1   
 35  17  35  1   
 36  17  36  1   
 37  18  20  ar  
 38  18  37  1   
 39  19  20  ar  
 40  19  38  1   
 41  20  39  1   
@<TRIPOS>SUBSTRUCTURE
  1 ****   2 GROUP 4 **** **** 0

# MOE 2024.06 (io_trps.svl 2023.06)
