@<TRIPOS>MOLECULE
NONAME
50 51 1 0 0 
SMALL
USER_CHARGES


@<TRIPOS>ATOM
  1 S        0.1010    -0.0020    -0.4750 S.o2  1 <1>   1.4470 
  2 O        0.3890     0.8470     0.6620 O.2   1 <1>  -0.6500 
  3 O        0.1620     0.5700    -1.8020 O.2   1 <1>  -0.6500 
  4 N        1.2400    -1.2560    -0.4270 N.am  1 <1>  -0.8490 
  5 C       -1.4840    -0.8580    -0.2540 C.ar  1 <1>  -0.0090 
  6 C        2.5450    -0.7810    -0.9570 C.3   1 <1>   0.2570 
  7 C        1.3890    -1.8390     0.9140 C.3   1 <1>   0.1160 
  8 C       -2.4410    -0.3840     0.6350 C.ar  1 <1>  -0.1500 
  9 C       -1.7810    -2.0070    -0.9750 C.ar  1 <1>  -0.1500 
 10 C        3.7110    -1.7910    -1.0460 C.2   1 <1>   0.5690 
 11 C       -3.6550    -1.0290     0.8110 C.ar  1 <1>  -0.1440 
 12 C       -2.9860    -2.6660    -0.8140 C.ar  1 <1>  -0.1500 
 13 O        3.4620    -2.9750    -1.1260 O.2   1 <1>  -0.5700 
 14 N        5.0150    -1.3470    -1.0340 N.am  1 <1>  -0.6600 
 15 C       -3.9330    -2.1810     0.0830 C.ar  1 <1>   0.0830 
 16 C       -4.6720    -0.4720     1.7970 C.3   1 <1>  -0.0970 
 17 C        5.4510     0.0740    -1.1400 C.3   1 <1>   0.1400 
 18 C        6.1530    -2.2970    -0.8910 C.3   1 <1>   0.1400 
 19 O       -5.1330    -2.7850     0.2860 O.3   1 <1>  -0.3630 
 20 C        6.2190     0.4610     0.1280 C.3   1 <1>  -0.1600 
 21 C        6.9480    -1.9450     0.3710 C.3   1 <1>  -0.1600 
 22 C       -5.5100    -3.9460    -0.4190 C.3   1 <1>   0.0400 
 23 C        7.4130    -0.4790     0.3640 C.3   1 <1>  -0.0800 
 24 C        8.1210    -0.1310     1.6780 C.3   1 <1>  -0.2400 
 25 H        2.8630     0.0430    -0.3440 H     1 <1>   0.0800 
 26 H        2.3980    -0.4090    -1.9550 H     1 <1>   0.0800 
 27 H        0.4290    -2.1500     1.2910 H     1 <1>   0.0800 
 28 H        1.8130    -1.1200     1.5960 H     1 <1>   0.0800 
 29 H        2.0240    -2.7070     0.8800 H     1 <1>   0.0800 
 30 H       -2.2260     0.5090     1.1980 H     1 <1>   0.1500 
 31 H       -1.0530    -2.3900    -1.6720 H     1 <1>   0.1500 
 32 H       -3.1650    -3.5500    -1.3940 H     1 <1>   0.1500 
 33 H       -4.3070     0.4180     2.2760 H     1 <1>   0.0800 
 34 H       -4.8860    -1.2070     2.5520 H     1 <1>   0.0800 
 35 H       -5.5850    -0.2350     1.2810 H     1 <1>   0.0800 
 36 H        4.6190     0.7390    -1.2840 H     1 <1>   0.0800 
 37 H        6.0970     0.1750    -1.9950 H     1 <1>   0.0800 
 38 H        6.7850    -2.2250    -1.7590 H     1 <1>   0.0800 
 39 H        5.8000    -3.3130    -0.8200 H     1 <1>   0.0800 
 40 H        5.5470     0.4230     0.9670 H     1 <1>   0.0800 
 41 H        6.5690     1.4730     0.0320 H     1 <1>   0.0800 
 42 H        7.8020    -2.5960     0.4390 H     1 <1>   0.0800 
 43 H        6.3260    -2.1310     1.2290 H     1 <1>   0.0800 
 44 H       -6.4950    -4.2280    -0.0940 H     1 <1>   0.0800 
 45 H       -4.8120    -4.7330    -0.1950 H     1 <1>   0.0800 
 46 H       -5.5220    -3.7270    -1.4720 H     1 <1>   0.0800 
 47 H        8.1150    -0.3490    -0.4440 H     1 <1>   0.0800 
 48 H        7.4520    -0.2460     2.5120 H     1 <1>   0.0800 
 49 H        8.4710     0.8860     1.6570 H     1 <1>   0.0800 
 50 H        8.9690    -0.7760     1.8270 H     1 <1>   0.0800 
@<TRIPOS>BOND
  1   1   2  2   
  2   1   3  2   
  3   1   4  am  
  4   1   5  1   
  5   4   6  1   
  6   4   7  1   
  7   5   8  ar  
  8   5   9  ar  
  9   6  10  1   
 10   6  25  1   
 11   6  26  1   
 12   7  27  1   
 13   7  28  1   
 14   7  29  1   
 15   8  11  ar  
 16   8  30  1   
 17   9  12  ar  
 18   9  31  1   
 19  10  13  2   
 20  10  14  am  
 21  11  15  ar  
 22  11  16  1   
 23  12  15  ar  
 24  12  32  1   
 25  14  17  1   
 26  14  18  1   
 27  15  19  1   
 28  16  33  1   
 29  16  34  1   
 30  16  35  1   
 31  17  20  1   
 32  17  36  1   
 33  17  37  1   
 34  18  21  1   
 35  18  38  1   
 36  18  39  1   
 37  19  22  1   
 38  20  23  1   
 39  20  40  1   
 40  20  41  1   
 41  21  23  1   
 42  21  42  1   
 43  21  43  1   
 44  22  44  1   
 45  22  45  1   
 46  22  46  1   
 47  23  24  1   
 48  23  47  1   
 49  24  48  1   
 50  24  49  1   
 51  24  50  1   
@<TRIPOS>SUBSTRUCTURE
  1 ****   4 GROUP 4 **** **** 0

# MOE 2024.06 (io_trps.svl 2023.06)
