@<TRIPOS>MOLECULE
NONAME
52 54 1 0 0 
SMALL
USER_CHARGES


@<TRIPOS>ATOM
  1 CL       2.2570    -0.1620     2.5490 Cl    1 <1>  -0.1770 
  2 C        3.4020    -1.2910     1.8670 C.ar  1 <1>   0.1770 
  3 C        4.7390    -0.9450     1.8000 C.ar  1 <1>  -0.1500 
  4 C        2.9550    -2.5150     1.4030 C.ar  1 <1>  -0.1500 
  5 C        5.6420    -1.8430     1.2580 C.ar  1 <1>  -0.1500 
  6 C        3.8650    -3.4070     0.8630 C.ar  1 <1>  -0.1500 
  7 C        5.2160    -3.0790     0.7850 C.ar  1 <1>   0.1000 
  8 N        6.1460    -3.9600     0.2460 N.pl3 1 <1>  -0.8380 
  9 C        6.0700    -4.1840    -1.2270 C.3   1 <1>   0.2090 
 10 C        6.4440    -5.1830     1.0490 C.3   1 <1>   0.2090 
 11 C        7.3230    -4.9260    -1.7390 C.3   1 <1>   0.3430 
 12 C        7.6890    -5.9140     0.5030 C.3   1 <1>   0.3430 
 13 N        7.5960    -6.2030    -0.9770 N.4   1 <1>  -0.9590 
 14 C        8.8440    -6.8810    -1.4180 C.3   1 <1>   0.3430 
 15 C        8.7020    -7.4880    -2.8160 C.3   1 <1>  -0.1600 
 16 C       10.0010    -8.1810    -3.2440 C.3   1 <1>   0.1400 
 17 N       10.3200    -9.3090    -2.3370 N.am  1 <1>  -0.7300 
 18 C       11.0970    -9.2040    -1.2280 C.2   1 <1>   0.6900 
 19 O       11.3390    -8.1020    -0.7730 O.2   1 <1>  -0.5700 
 20 N       11.5340   -10.3490    -0.6350 N.am  1 <1>  -0.5470 
 21 C       12.3290   -10.5340     0.5050 C.ar  1 <1>   0.1170 
 22 C       12.1680   -11.7030     1.2480 C.ar  1 <1>  -0.1500 
 23 C       13.2840    -9.6030     0.9140 C.ar  1 <1>  -0.1500 
 24 C       12.9310   -11.9370     2.3800 C.ar  1 <1>  -0.1500 
 25 C       14.0530    -9.8220     2.0440 C.ar  1 <1>  -0.1500 
 26 C       13.8600   -10.9880     2.7580 C.ar  1 <1>   0.1900 
 27 F       14.5830   -11.2020     3.8260 F     1 <1>  -0.1900 
 28 H        5.0620     0.0120     2.1670 H     1 <1>   0.1500 
 29 H        1.9090    -2.7580     1.4680 H     1 <1>   0.1500 
 30 H        6.6850    -1.5920     1.1980 H     1 <1>   0.1500 
 31 H        3.5250    -4.3590     0.5010 H     1 <1>   0.1500 
 32 H        5.9920    -3.2310    -1.7240 H     1 <1>   0.0800 
 33 H        5.1870    -4.7520    -1.4630 H     1 <1>   0.0800 
 34 H        5.5950    -5.8440     1.0330 H     1 <1>   0.0800 
 35 H        6.6200    -4.8970     2.0730 H     1 <1>   0.0800 
 36 H        8.1670    -4.2630    -1.6390 H     1 <1>   0.0800 
 37 H        7.1960    -5.1410    -2.7860 H     1 <1>   0.0800 
 38 H        7.8250    -6.8330     1.0480 H     1 <1>   0.0800 
 39 H        8.5490    -5.2920     0.6920 H     1 <1>   0.0800 
 40 H        6.8070    -6.8440    -1.1200 H     1 <1>   0.4500 
 41 H        9.0740    -7.6760    -0.7260 H     1 <1>   0.0800 
 42 H        9.6720    -6.1890    -1.4010 H     1 <1>   0.0800 
 43 H        8.4920    -6.7170    -3.5340 H     1 <1>   0.0800 
 44 H        7.9010    -8.2060    -2.8340 H     1 <1>   0.0800 
 45 H       10.8170    -7.4750    -3.2380 H     1 <1>   0.0800 
 46 H        9.9000    -8.5570    -4.2490 H     1 <1>   0.0800 
 47 H       10.2260   -10.2330    -2.7620 H     1 <1>   0.3700 
 48 H       11.1690   -11.2050    -1.0410 H     1 <1>   0.3700 
 49 H       11.4400   -12.4340     0.9460 H     1 <1>   0.1500 
 50 H       13.4350    -8.7010     0.3470 H     1 <1>   0.1500 
 51 H       12.8120   -12.8340     2.9610 H     1 <1>   0.1500 
 52 H       14.7880    -9.1060     2.3660 H     1 <1>   0.1500 
@<TRIPOS>BOND
  1   1   2  1   
  2   2   3  ar  
  3   2   4  ar  
  4   3   5  ar  
  5   3  28  1   
  6   4   6  ar  
  7   4  29  1   
  8   5   7  ar  
  9   5  30  1   
 10   6   7  ar  
 11   6  31  1   
 12   7   8  1   
 13   8   9  1   
 14   8  10  1   
 15   9  11  1   
 16   9  32  1   
 17   9  33  1   
 18  10  12  1   
 19  10  34  1   
 20  10  35  1   
 21  11  13  1   
 22  11  36  1   
 23  11  37  1   
 24  12  13  1   
 25  12  38  1   
 26  12  39  1   
 27  13  14  1   
 28  13  40  1   
 29  14  15  1   
 30  14  41  1   
 31  14  42  1   
 32  15  16  1   
 33  15  43  1   
 34  15  44  1   
 35  16  17  1   
 36  16  45  1   
 37  16  46  1   
 38  17  18  am  
 39  17  47  1   
 40  18  19  2   
 41  18  20  am  
 42  20  21  1   
 43  20  48  1   
 44  21  22  ar  
 45  21  23  ar  
 46  22  24  ar  
 47  22  49  1   
 48  23  25  ar  
 49  23  50  1   
 50  24  26  ar  
 51  24  51  1   
 52  25  26  ar  
 53  25  52  1   
 54  26  27  1   
@<TRIPOS>SUBSTRUCTURE
  1 ****  12 GROUP 4 **** **** 0

# MOE 2024.06 (io_trps.svl 2023.06)
