@<TRIPOS>MOLECULE
NONAME
38 41 1 0 0 
SMALL
USER_CHARGES


@<TRIPOS>ATOM
  1 BR       0.3740     0.2110    -1.2770 Br    1 <1>  -0.1110 
  2 C       -0.7690    -1.3180    -1.0350 C.ar  1 <1>   0.1110 
  3 C       -2.1290    -1.1170    -0.9110 C.ar  1 <1>  -0.1500 
  4 C       -0.1950    -2.5740    -0.9930 C.ar  1 <1>  -0.1500 
  5 C       -2.9660    -2.2150    -0.7350 C.ar  1 <1>   0.1170 
  6 C       -1.0240    -3.6680    -0.8170 C.ar  1 <1>  -0.1500 
  7 N       -4.3620    -2.0450    -0.6030 N.am  1 <1>  -0.2370 
  8 C       -2.3930    -3.4860    -0.6900 C.ar  1 <1>  -0.1500 
  9 C       -5.1590    -1.2340    -1.4000 C.2   1 <1>   0.5690 
 10 C       -5.1660    -2.6530     0.3500 C.2   1 <1>   0.5690 
 11 O       -4.8160    -0.3860    -2.1820 O.2   1 <1>  -0.5700 
 12 C       -6.5860    -1.6270    -1.1490 C.3   1 <1>  -0.0190 
 13 O       -4.8990    -3.5700     1.0820 O.2   1 <1>  -0.5700 
 14 C       -6.4740    -1.9200     0.3490 C.3   1 <1>  -0.0190 
 15 C       -8.0060    -1.0250    -1.2560 C.3   1 <1>   0.1960 
 16 C       -7.9390    -2.0610     0.7860 C.3   1 <1>   0.1960 
 17 C       -8.3400    -0.7120     0.1950 C.2   1 <1>  -0.2760 
 18 C       -8.8730    -2.2750    -1.3290 C.2   1 <1>  -0.2880 
 19 C       -8.7850    -2.9080    -0.1560 C.2   1 <1>  -0.2880 
 20 C       -8.8240     0.4010     0.7670 C.2   1 <1>  -0.2760 
 21 C       -9.1030     0.5520     2.2560 C.3   1 <1>  -0.1020 
 22 C       -9.1660     1.6720     0.0020 C.3   1 <1>  -0.1020 
 23 H       -2.5260    -0.1190    -0.9550 H     1 <1>   0.1500 
 24 H        0.8690    -2.6900    -1.0930 H     1 <1>   0.1500 
 25 H       -0.6070    -4.6600    -0.7780 H     1 <1>   0.1500 
 26 H       -3.0230    -4.3470    -0.5510 H     1 <1>   0.1500 
 27 H       -6.6310    -2.5570    -1.6950 H     1 <1>   0.0800 
 28 H       -6.1710    -1.0180     0.8640 H     1 <1>   0.0800 
 29 H       -8.1850    -0.2800    -2.0100 H     1 <1>   0.0800 
 30 H       -8.1240    -2.1830     1.8370 H     1 <1>   0.0800 
 31 H       -9.3930    -2.5300    -2.2360 H     1 <1>   0.1500 
 32 H       -9.2070    -3.8380     0.1810 H     1 <1>   0.1500 
 33 H      -10.1450     0.7670     2.4120 H     1 <1>   0.0800 
 34 H       -8.5200     1.3600     2.6600 H     1 <1>   0.0800 
 35 H       -8.8630    -0.3380     2.8040 H     1 <1>   0.0800 
 36 H       -8.5820     2.4950     0.3740 H     1 <1>   0.0800 
 37 H      -10.2080     1.9060     0.1270 H     1 <1>   0.0800 
 38 H       -8.9720     1.5740    -1.0480 H     1 <1>   0.0800 
@<TRIPOS>BOND
  1   1   2  1   
  2   2   3  ar  
  3   2   4  ar  
  4   3   5  ar  
  5   3  23  1   
  6   4   6  ar  
  7   4  24  1   
  8   5   7  1   
  9   5   8  ar  
 10   6   8  ar  
 11   6  25  1   
 12   7   9  am  
 13   7  10  am  
 14   8  26  1   
 15   9  11  2   
 16   9  12  1   
 17  10  13  2   
 18  10  14  1   
 19  12  14  1   
 20  12  15  1   
 21  12  27  1   
 22  14  16  1   
 23  14  28  1   
 24  15  17  1   
 25  15  18  1   
 26  15  29  1   
 27  16  17  1   
 28  16  19  1   
 29  16  30  1   
 30  17  20  2   
 31  18  19  2   
 32  18  31  1   
 33  19  32  1   
 34  20  21  1   
 35  20  22  1   
 36  21  33  1   
 37  21  34  1   
 38  21  35  1   
 39  22  36  1   
 40  22  37  1   
 41  22  38  1   
@<TRIPOS>SUBSTRUCTURE
  1 ****   7 GROUP 4 **** **** 0

# MOE 2024.06 (io_trps.svl 2023.06)
