@<TRIPOS>MOLECULE
NONAME
40 41 1 0 0 
SMALL
USER_CHARGES


@<TRIPOS>ATOM
  1 O       -0.1330    -0.6270    -1.5290 O.2   1 <1>  -0.5700 
  2 C       -0.0870    -1.7060    -0.9680 C.2   1 <1>   0.5440 
  3 N        1.1380    -2.1890    -0.5670 N.am  1 <1>  -0.6600 
  4 C       -1.3130    -2.4390    -0.7240 C.ar  1 <1>   0.0860 
  5 C        2.3950    -1.4480    -0.8170 C.3   1 <1>   0.1400 
  6 C        1.3400    -3.2400     0.4560 C.3   1 <1>   0.1400 
  7 C       -2.4150    -1.8060    -0.1540 C.ar  1 <1>  -0.1500 
  8 C       -1.4400    -3.7890    -1.0490 C.ar  1 <1>  -0.1500 
  9 C        3.4650    -2.2160    -0.0480 C.3   1 <1>  -0.1600 
 10 C        2.7030    -2.9300     1.0640 C.3   1 <1>  -0.1600 
 11 C       -3.5970    -2.4890     0.1050 C.ar  1 <1>   0.0830 
 12 C       -2.6070    -4.4870    -0.7980 C.ar  1 <1>  -0.1500 
 13 O       -4.6830    -1.8820     0.6660 O.3   1 <1>  -0.3630 
 14 C       -3.6960    -3.8460    -0.2140 C.ar  1 <1>   0.0830 
 15 C       -4.7320    -0.4860     0.8600 C.3   1 <1>   0.0400 
 16 O       -4.8640    -4.4890     0.0570 O.3   1 <1>  -0.3630 
 17 C       -5.0730    -5.8430    -0.2690 C.3   1 <1>   0.1200 
 18 C       -6.4920    -6.2210     0.1550 C.3   1 <1>  -0.1600 
 19 C       -6.8010    -7.6870    -0.1660 C.3   1 <1>  -0.2400 
 20 H        2.2950    -0.4470    -0.4320 H     1 <1>   0.0800 
 21 H        2.6080    -1.4080    -1.8710 H     1 <1>   0.0800 
 22 H        1.3600    -4.2020    -0.0260 H     1 <1>   0.0800 
 23 H        0.5620    -3.2180     1.2000 H     1 <1>   0.0800 
 24 H       -2.3120    -0.7630     0.0790 H     1 <1>   0.1500 
 25 H       -0.6090    -4.2910    -1.5120 H     1 <1>   0.1500 
 26 H        4.2300    -1.5610     0.3310 H     1 <1>   0.0800 
 27 H        3.9160    -2.9380    -0.7070 H     1 <1>   0.0800 
 28 H        3.2040    -3.8200     1.4000 H     1 <1>   0.0800 
 29 H        2.5690    -2.2650     1.9000 H     1 <1>   0.0800 
 30 H       -2.6500    -5.5250    -1.0660 H     1 <1>   0.1500 
 31 H       -5.7060    -0.2380     1.2420 H     1 <1>   0.0800 
 32 H       -4.5730     0.0040    -0.0840 H     1 <1>   0.0800 
 33 H       -3.9780    -0.2060     1.5750 H     1 <1>   0.0800 
 34 H       -4.3470    -6.4350     0.2600 H     1 <1>   0.0800 
 35 H       -4.9510    -5.9580    -1.3320 H     1 <1>   0.0800 
 36 H       -7.1930    -5.5880    -0.3600 H     1 <1>   0.0800 
 37 H       -6.5970    -6.0590     1.2140 H     1 <1>   0.0800 
 38 H       -6.7180    -7.8670    -1.2240 H     1 <1>   0.0800 
 39 H       -7.8040    -7.9250     0.1420 H     1 <1>   0.0800 
 40 H       -6.1200    -8.3390     0.3530 H     1 <1>   0.0800 
@<TRIPOS>BOND
  1   1   2  2   
  2   2   3  am  
  3   2   4  1   
  4   3   5  1   
  5   3   6  1   
  6   4   7  ar  
  7   4   8  ar  
  8   5   9  1   
  9   5  20  1   
 10   5  21  1   
 11   6  10  1   
 12   6  22  1   
 13   6  23  1   
 14   7  11  ar  
 15   7  24  1   
 16   8  12  ar  
 17   8  25  1   
 18   9  10  1   
 19   9  26  1   
 20   9  27  1   
 21  10  28  1   
 22  10  29  1   
 23  11  13  1   
 24  11  14  ar  
 25  12  14  ar  
 26  12  30  1   
 27  13  15  1   
 28  14  16  1   
 29  15  31  1   
 30  15  32  1   
 31  15  33  1   
 32  16  17  1   
 33  17  18  1   
 34  17  34  1   
 35  17  35  1   
 36  18  19  1   
 37  18  36  1   
 38  18  37  1   
 39  19  38  1   
 40  19  39  1   
 41  19  40  1   
@<TRIPOS>SUBSTRUCTURE
  1 ****   4 GROUP 4 **** **** 0

# MOE 2024.06 (io_trps.svl 2023.06)
