@<TRIPOS>MOLECULE
NONAME
38 38 1 0 0 
SMALL
USER_CHARGES


@<TRIPOS>ATOM
  1 S        0.5170    -1.0510    -0.3600 S.o2  1 <1>   1.3330 
  2 O        0.4680    -2.3000     0.3560 O.2   1 <1>  -0.6500 
  3 O        1.2650    -0.9250    -1.5840 O.2   1 <1>  -0.6500 
  4 N        1.1610     0.0400     0.7940 N.am  1 <1>  -0.7570 
  5 C       -1.1440    -0.4660    -0.6050 C.3   1 <1>  -0.1350 
  6 C        1.9790     1.1210     0.4730 C.ar  1 <1>   0.1990 
  7 C        1.4460     2.4180     0.4120 C.ar  1 <1>  -0.1430 
  8 C        3.3500     0.9200     0.2410 C.ar  1 <1>  -0.1430 
  9 C        2.2780     3.4800     0.0910 C.ar  1 <1>  -0.1500 
 10 C       -0.0300     2.7240     0.7090 C.3   1 <1>   0.0630 
 11 C        4.1490     2.0090    -0.0720 C.ar  1 <1>  -0.1500 
 12 C        4.0180    -0.4630     0.3220 C.3   1 <1>   0.0630 
 13 C        3.6210     3.2810    -0.1530 C.ar  1 <1>  -0.1500 
 14 C       -0.7190     3.3610    -0.5040 C.3   1 <1>  -0.2400 
 15 C       -0.1640     3.6290     1.9390 C.3   1 <1>  -0.2400 
 16 C        5.0300    -0.5110     1.4720 C.3   1 <1>  -0.2400 
 17 C        4.6920    -0.8390    -1.0040 C.3   1 <1>  -0.2400 
 18 H        1.4990    -0.5200     1.5710 H     1 <1>   0.4200 
 19 H       -1.1300     0.5010    -1.0640 H     1 <1>   0.0800 
 20 H       -1.6760    -1.1400    -1.2480 H     1 <1>   0.0800 
 21 H       -1.6590    -0.4050     0.3320 H     1 <1>   0.0800 
 22 H        1.8900     4.4800     0.0320 H     1 <1>   0.1500 
 23 H       -0.5580     1.8190     0.9390 H     1 <1>   0.0800 
 24 H        5.2000     1.8780    -0.2580 H     1 <1>   0.1500 
 25 H        3.2890    -1.2270     0.5170 H     1 <1>   0.0800 
 26 H        4.2550     4.1140    -0.4020 H     1 <1>   0.1500 
 27 H       -0.3230     4.3410    -0.7020 H     1 <1>   0.0800 
 28 H       -1.7760     3.4520    -0.3270 H     1 <1>   0.0800 
 29 H       -0.5660     2.7530    -1.3770 H     1 <1>   0.0800 
 30 H        0.3270     3.1720     2.7810 H     1 <1>   0.0800 
 31 H       -1.2010     3.7720     2.1860 H     1 <1>   0.0800 
 32 H        0.2820     4.5910     1.7640 H     1 <1>   0.0800 
 33 H        5.8380     0.1760     1.3030 H     1 <1>   0.0800 
 34 H        5.4360    -1.5020     1.5680 H     1 <1>   0.0800 
 35 H        4.5460    -0.2480     2.3960 H     1 <1>   0.0800 
 36 H        5.5150    -0.1860    -1.2260 H     1 <1>   0.0800 
 37 H        3.9760    -0.7730    -1.8050 H     1 <1>   0.0800 
 38 H        5.0570    -1.8490    -0.9600 H     1 <1>   0.0800 
@<TRIPOS>BOND
  1   1   2  2   
  2   1   3  2   
  3   1   4  am  
  4   1   5  1   
  5   4   6  1   
  6   4  18  1   
  7   5  19  1   
  8   5  20  1   
  9   5  21  1   
 10   6   7  ar  
 11   6   8  ar  
 12   7   9  ar  
 13   7  10  1   
 14   8  11  ar  
 15   8  12  1   
 16   9  13  ar  
 17   9  22  1   
 18  10  14  1   
 19  10  15  1   
 20  10  23  1   
 21  11  13  ar  
 22  11  24  1   
 23  12  16  1   
 24  12  17  1   
 25  12  25  1   
 26  13  26  1   
 27  14  27  1   
 28  14  28  1   
 29  14  29  1   
 30  15  30  1   
 31  15  31  1   
 32  15  32  1   
 33  16  33  1   
 34  16  34  1   
 35  16  35  1   
 36  17  36  1   
 37  17  37  1   
 38  17  38  1   
@<TRIPOS>SUBSTRUCTURE
  1 ****   6 GROUP 4 **** **** 0

# MOE 2024.06 (io_trps.svl 2023.06)
