@<TRIPOS>MOLECULE
NONAME
49 51 1 0 0 
SMALL
USER_CHARGES


@<TRIPOS>ATOM
  1 F        0.9530     0.0830     0.1450 F     1 <1>  -0.3400 
  2 C        1.9820     0.5980    -0.5170 C.3   1 <1>   1.1640 
  3 F        1.6750     1.8700    -0.7440 F     1 <1>  -0.3400 
  4 F        1.9930     0.0040    -1.7060 F     1 <1>  -0.3400 
  5 C        3.2980     0.4490     0.2590 C.ar  1 <1>  -0.1440 
  6 C        4.2960    -0.4220    -0.1620 C.ar  1 <1>  -0.1500 
  7 C        3.5100     1.1920     1.4170 C.ar  1 <1>  -0.1500 
  8 C        5.4840    -0.5570     0.5420 C.ar  1 <1>   0.1000 
  9 C        4.6910     1.0670     2.1290 C.ar  1 <1>  -0.1500 
 10 N        6.4510    -1.4370     0.0800 N.pl3 1 <1>  -0.8380 
 11 C        5.6710     0.1980     1.6930 C.ar  1 <1>  -0.1500 
 12 C        6.7430    -2.6160     0.9480 C.3   1 <1>   0.2090 
 13 C        7.7000    -0.8180    -0.4530 C.3   1 <1>   0.2090 
 14 C        7.6560    -3.6270     0.2270 C.3   1 <1>   0.1100 
 15 C        8.5920    -1.8690    -1.1420 C.3   1 <1>   0.1100 
 16 N        8.9150    -3.0040    -0.2410 N.3   1 <1>  -0.8100 
 17 C        9.7770    -4.0070    -0.9370 C.3   1 <1>   0.1710 
 18 C       11.2110    -3.5340    -1.1980 C.2   1 <1>   0.5690 
 19 O       11.8390    -4.0080    -2.1140 O.2   1 <1>  -0.5700 
 20 N       11.7210    -2.5820    -0.3790 N.am  1 <1>  -0.7300 
 21 C       13.0360    -1.9380    -0.4840 C.3   1 <1>   0.2200 
 22 C       13.6580    -1.8700     0.9050 C.3   1 <1>  -0.1600 
 23 C       12.8330    -0.4730    -0.8470 C.3   1 <1>  -0.1600 
 24 C       13.0200    -0.6550     1.5900 C.3   1 <1>  -0.1600 
 25 C       12.4710     0.2320     0.4640 C.3   1 <1>  -0.1600 
 26 H        4.1790    -1.0200    -1.0480 H     1 <1>   0.1500 
 27 H        2.7540     1.8740     1.7700 H     1 <1>   0.1500 
 28 H        4.8450     1.6470     3.0220 H     1 <1>   0.1500 
 29 H        6.5890     0.0990     2.2420 H     1 <1>   0.1500 
 30 H        5.8180    -3.0960     1.2150 H     1 <1>   0.0800 
 31 H        7.2260    -2.2890     1.8520 H     1 <1>   0.0800 
 32 H        8.2500    -0.3620     0.3510 H     1 <1>   0.0800 
 33 H        7.4400    -0.0510    -1.1610 H     1 <1>   0.0800 
 34 H        7.1180    -4.0400    -0.6100 H     1 <1>   0.0800 
 35 H        7.8860    -4.4290     0.9070 H     1 <1>   0.0800 
 36 H        9.4990    -1.3890    -1.4640 H     1 <1>   0.0800 
 37 H        8.0790    -2.2310    -2.0170 H     1 <1>   0.0800 
 38 H        9.3310    -4.2850    -1.8750 H     1 <1>   0.0800 
 39 H        9.8460    -4.8920    -0.3310 H     1 <1>   0.0800 
 40 H       11.0850    -2.2000     0.3250 H     1 <1>   0.3700 
 41 H       13.6590    -2.4590    -1.1930 H     1 <1>   0.0800 
 42 H       14.7140    -1.6960     0.7950 H     1 <1>   0.0800 
 43 H       13.5170    -2.7830     1.4580 H     1 <1>   0.0800 
 44 H       12.0870    -0.3440    -1.6120 H     1 <1>   0.0800 
 45 H       13.7670    -0.0810    -1.2100 H     1 <1>   0.0800 
 46 H       13.7460    -0.1290     2.1870 H     1 <1>   0.0800 
 47 H       12.2130    -0.9740     2.2260 H     1 <1>   0.0800 
 48 H       11.4000     0.3060     0.5540 H     1 <1>   0.0800 
 49 H       12.8920     1.2220     0.4990 H     1 <1>   0.0800 
@<TRIPOS>BOND
  1   1   2  1   
  2   2   3  1   
  3   2   4  1   
  4   2   5  1   
  5   5   6  ar  
  6   5   7  ar  
  7   6   8  ar  
  8   6  26  1   
  9   7   9  ar  
 10   7  27  1   
 11   8  10  1   
 12   8  11  ar  
 13   9  11  ar  
 14   9  28  1   
 15  10  12  1   
 16  10  13  1   
 17  11  29  1   
 18  12  14  1   
 19  12  30  1   
 20  12  31  1   
 21  13  15  1   
 22  13  32  1   
 23  13  33  1   
 24  14  16  1   
 25  14  34  1   
 26  14  35  1   
 27  15  16  1   
 28  15  36  1   
 29  15  37  1   
 30  16  17  1   
 31  17  18  1   
 32  17  38  1   
 33  17  39  1   
 34  18  19  2   
 35  18  20  am  
 36  20  21  1   
 37  20  40  1   
 38  21  22  1   
 39  21  23  1   
 40  21  41  1   
 41  22  24  1   
 42  22  42  1   
 43  22  43  1   
 44  23  25  1   
 45  23  44  1   
 46  23  45  1   
 47  24  25  1   
 48  24  46  1   
 49  24  47  1   
 50  25  48  1   
 51  25  49  1   
@<TRIPOS>SUBSTRUCTURE
  1 ****  13 GROUP 4 **** **** 0

# MOE 2024.06 (io_trps.svl 2023.06)
