@<TRIPOS>MOLECULE
NONAME
37 38 1 0 0 
SMALL
USER_CHARGES


@<TRIPOS>ATOM
  1 BR      -0.2960     0.4590     2.0110 Br    1 <1>  -0.1110 
  2 C       -1.7320     1.0650     0.8810 C.ar  1 <1>   0.1110 
  3 C       -2.9880     0.5200     1.0550 C.ar  1 <1>  -0.1500 
  4 C       -1.4650     2.0290    -0.0710 C.ar  1 <1>  -0.1500 
  5 C       -4.0350     0.9450     0.2460 C.ar  1 <1>   0.1170 
  6 C       -2.5050     2.4580    -0.8770 C.ar  1 <1>  -0.1500 
  7 N       -5.3070     0.3850     0.4480 N.am  1 <1>  -0.5470 
  8 C       -3.7730     1.9220    -0.7160 C.ar  1 <1>  -0.1500 
  9 C       -6.3940     0.3020    -0.3810 C.2   1 <1>   0.5690 
 10 O       -6.4000     0.7150    -1.5140 O.2   1 <1>  -0.5700 
 11 C       -7.6540    -0.3680     0.1690 C.3   1 <1>  -0.0190 
 12 C       -7.8780    -1.7490    -0.4670 C.3   1 <1>  -0.1600 
 13 C       -8.9090     0.4940    -0.0450 C.3   1 <1>  -0.1600 
 14 C       -9.1720    -2.3980     0.0330 C.3   1 <1>   0.1960 
 15 C      -10.1620    -0.2230     0.4610 C.3   1 <1>   0.1960 
 16 N      -10.3180    -1.5170    -0.2130 N.am  1 <1>  -0.8490 
 17 S      -11.7860    -2.2700     0.1740 S.o2  1 <1>   1.3330 
 18 O      -11.6860    -3.6720    -0.1600 O.2   1 <1>  -0.6500 
 19 O      -12.1430    -1.8740     1.5180 O.2   1 <1>  -0.6500 
 20 C      -12.9170    -1.5200    -0.9770 C.3   1 <1>  -0.1350 
 21 H       -3.1390    -0.2290     1.8090 H     1 <1>   0.1500 
 22 H       -0.4730     2.4300    -0.1790 H     1 <1>   0.1500 
 23 H       -2.3310     3.2080    -1.6290 H     1 <1>   0.1500 
 24 H       -5.4210    -0.0730     1.3480 H     1 <1>   0.3700 
 25 H       -4.5650     2.2760    -1.3500 H     1 <1>   0.1500 
 26 H       -7.5300    -0.5050     1.2290 H     1 <1>   0.0800 
 27 H       -7.0470    -2.3940    -0.2440 H     1 <1>   0.0800 
 28 H       -7.9340    -1.6490    -1.5380 H     1 <1>   0.0800 
 29 H       -9.0340     0.7100    -1.0930 H     1 <1>   0.0800 
 30 H       -8.8000     1.4310     0.4710 H     1 <1>   0.0800 
 31 H       -9.1010    -2.6180     1.0860 H     1 <1>   0.0800 
 32 H       -9.3070    -3.3280    -0.4950 H     1 <1>   0.0800 
 33 H      -11.0220     0.3950     0.2650 H     1 <1>   0.0800 
 34 H      -10.0940    -0.3710     1.5270 H     1 <1>   0.0800 
 35 H      -12.5920    -1.7060    -1.9820 H     1 <1>   0.0800 
 36 H      -12.9660    -0.4620    -0.8180 H     1 <1>   0.0800 
 37 H      -13.8970    -1.9350    -0.8490 H     1 <1>   0.0800 
@<TRIPOS>BOND
  1   1   2  1   
  2   2   3  ar  
  3   2   4  ar  
  4   3   5  ar  
  5   3  21  1   
  6   4   6  ar  
  7   4  22  1   
  8   5   7  1   
  9   5   8  ar  
 10   6   8  ar  
 11   6  23  1   
 12   7   9  am  
 13   7  24  1   
 14   8  25  1   
 15   9  10  2   
 16   9  11  1   
 17  11  12  1   
 18  11  13  1   
 19  11  26  1   
 20  12  14  1   
 21  12  27  1   
 22  12  28  1   
 23  13  15  1   
 24  13  29  1   
 25  13  30  1   
 26  14  16  1   
 27  14  31  1   
 28  14  32  1   
 29  15  16  1   
 30  15  33  1   
 31  15  34  1   
 32  16  17  am  
 33  17  18  2   
 34  17  19  2   
 35  17  20  1   
 36  20  35  1   
 37  20  36  1   
 38  20  37  1   
@<TRIPOS>SUBSTRUCTURE
  1 ****  11 GROUP 4 **** **** 0

# MOE 2024.06 (io_trps.svl 2023.06)
