@<TRIPOS>MOLECULE
NONAME
38 40 1 0 0 
SMALL
USER_CHARGES


@<TRIPOS>ATOM
  1 O       -8.9330     2.7980     0.3410 O.3   1 <1>  -0.2800 
  2 C       -9.9860     3.2650    -0.3190 C.2   1 <1>   0.0870 
  3 C       -7.9270     3.6340     0.2030 C.2   1 <1>  -0.0400 
  4 C      -11.2330     2.5290    -0.3280 C.ar  1 <1>   0.0530 
  5 C       -9.6350     4.4440    -0.8990 C.2   1 <1>  -0.1500 
  6 C       -8.3020     4.6850    -0.5630 C.2   1 <1>  -0.1500 
  7 C       -6.6280     3.2660     0.8910 C.3   1 <1>   0.5230 
  8 C      -12.3550     3.0140    -1.0000 C.ar  1 <1>  -0.1500 
  9 C      -11.3630     1.3080     0.3340 C.ar  1 <1>  -0.1500 
 10 N       -5.6160     4.3200     0.6480 N.4   1 <1>  -0.9060 
 11 C      -13.5490     2.3160    -1.0120 C.ar  1 <1>  -0.1500 
 12 C      -12.5540     0.6040     0.3260 C.ar  1 <1>  -0.1500 
 13 C       -4.3040     4.0600     1.2640 C.3   1 <1>   0.4230 
 14 C      -13.6510     1.1070    -0.3480 C.ar  1 <1>  -0.1500 
 15 C       -3.4450     5.3030     1.0720 C.3   1 <1>  -0.1600 
 16 C       -3.5570     3.0080     0.4490 C.3   1 <1>  -0.1600 
 17 C       -2.9110     5.2280    -0.3640 C.3   1 <1>  -0.1600 
 18 C       -2.9860     3.7490    -0.7670 C.3   1 <1>  -0.1600 
 19 H      -10.2470     5.0880    -1.5060 H     1 <1>   0.1500 
 20 H       -7.7510     5.5510    -0.8840 H     1 <1>   0.1500 
 21 H       -6.2860     2.3190     0.5070 H     1 <1>   0.0800 
 22 H       -6.8100     3.1600     1.9480 H     1 <1>   0.0800 
 23 H      -12.3000     3.9510    -1.5230 H     1 <1>   0.1500 
 24 H      -10.5220     0.9000     0.8630 H     1 <1>   0.1500 
 25 H       -5.9890     5.2100     0.9910 H     1 <1>   0.4500 
 26 H       -5.4750     4.4180    -0.3630 H     1 <1>   0.4500 
 27 H      -14.4000     2.7110    -1.5380 H     1 <1>   0.1500 
 28 H      -12.6280    -0.3360     0.8440 H     1 <1>   0.1500 
 29 H       -4.4030     3.7920     2.3050 H     1 <1>   0.0800 
 30 H      -14.5790     0.5620    -0.3560 H     1 <1>   0.1500 
 31 H       -2.6090     5.2420     1.7490 H     1 <1>   0.0800 
 32 H       -3.9690     6.2220     1.2740 H     1 <1>   0.0800 
 33 H       -4.1540     2.1580     0.1710 H     1 <1>   0.0800 
 34 H       -2.7320     2.6500     1.0430 H     1 <1>   0.0800 
 35 H       -1.8980     5.5930    -0.4130 H     1 <1>   0.0800 
 36 H       -3.5160     5.8230    -1.0270 H     1 <1>   0.0800 
 37 H       -3.6290     3.6310    -1.6220 H     1 <1>   0.0800 
 38 H       -2.0110     3.3670    -1.0230 H     1 <1>   0.0800 
@<TRIPOS>BOND
  1   1   2  1   
  2   1   3  1   
  3   2   4  1   
  4   2   5  2   
  5   3   6  2   
  6   3   7  1   
  7   4   8  ar  
  8   4   9  ar  
  9   5   6  1   
 10   5  19  1   
 11   6  20  1   
 12   7  10  1   
 13   7  21  1   
 14   7  22  1   
 15   8  11  ar  
 16   8  23  1   
 17   9  12  ar  
 18   9  24  1   
 19  10  13  1   
 20  10  25  1   
 21  10  26  1   
 22  11  14  ar  
 23  11  27  1   
 24  12  14  ar  
 25  12  28  1   
 26  13  15  1   
 27  13  16  1   
 28  13  29  1   
 29  14  30  1   
 30  15  17  1   
 31  15  31  1   
 32  15  32  1   
 33  16  18  1   
 34  16  33  1   
 35  16  34  1   
 36  17  18  1   
 37  17  35  1   
 38  17  36  1   
 39  18  37  1   
 40  18  38  1   
@<TRIPOS>SUBSTRUCTURE
  1 ****   3 GROUP 4 **** **** 0

# MOE 2024.06 (io_trps.svl 2023.06)
