@<TRIPOS>MOLECULE
NONAME
41 42 1 0 0 
SMALL
USER_CHARGES


@<TRIPOS>ATOM
  1 O       -1.3660    -8.7170    -0.6560 O.3   1 <1>  -0.5600 
  2 C       -0.4620    -9.2360     0.2740 C.3   1 <1>   0.1200 
  3 C       -1.3760    -7.3200    -0.6980 C.3   1 <1>   0.1200 
  4 C        0.9680    -8.7690    -0.0550 C.3   1 <1>   0.1100 
  5 C        0.0240    -6.7870    -1.0550 C.3   1 <1>   0.1100 
  6 N        1.0530    -7.2890    -0.1140 N.3   1 <1>  -0.8100 
  7 C        2.3880    -6.8090    -0.4880 C.3   1 <1>   0.1100 
  8 C        3.3290    -6.8870     0.7220 C.3   1 <1>   0.3430 
  9 N        4.6540    -6.2840     0.4170 N.4   1 <1>  -0.9060 
 10 C        5.6160    -6.3730     1.5310 C.3   1 <1>   0.4860 
 11 C        6.9340    -5.8410     1.0160 C.ar  1 <1>  -0.1440 
 12 C        7.5800    -6.4800    -0.0390 C.ar  1 <1>   0.0820 
 13 C        7.5040    -4.7180     1.5980 C.ar  1 <1>  -0.1500 
 14 O        6.9720    -7.5720    -0.5800 O.3   1 <1>  -0.3620 
 15 C        8.7970    -5.9850    -0.5000 C.ar  1 <1>  -0.1500 
 16 C        8.7130    -4.2320     1.1320 C.ar  1 <1>  -0.1500 
 17 C        7.6650    -8.4150    -1.4810 C.3   1 <1>   0.0400 
 18 C        9.3580    -4.8650     0.0860 C.ar  1 <1>  -0.1500 
 19 H       -0.5270   -10.3090     0.2280 H     1 <1>   0.0800 
 20 H       -0.7540    -8.9120     1.2580 H     1 <1>   0.0800 
 21 H       -1.6920    -6.9470     0.2610 H     1 <1>   0.0800 
 22 H       -2.0920    -7.0200    -1.4410 H     1 <1>   0.0800 
 23 H        1.2540    -9.1950    -1.0020 H     1 <1>   0.0800 
 24 H        1.6330    -9.1470     0.7010 H     1 <1>   0.0800 
 25 H        0.0000    -5.7110    -1.0250 H     1 <1>   0.0800 
 26 H        0.2600    -7.0910    -2.0610 H     1 <1>   0.0800 
 27 H        2.3120    -5.7800    -0.7940 H     1 <1>   0.0800 
 28 H        2.7690    -7.3900    -1.3110 H     1 <1>   0.0800 
 29 H        3.4540    -7.9200     1.0010 H     1 <1>   0.0800 
 30 H        2.8700    -6.3620     1.5430 H     1 <1>   0.0800 
 31 H        4.5750    -5.3010     0.1350 H     1 <1>   0.4500 
 32 H        5.1220    -6.7760    -0.3630 H     1 <1>   0.4500 
 33 H        5.7410    -7.3990     1.8370 H     1 <1>   0.0800 
 34 H        5.2780    -5.7910     2.3730 H     1 <1>   0.0800 
 35 H        7.0240    -4.2090     2.4170 H     1 <1>   0.1500 
 36 H        9.3240    -6.4500    -1.3130 H     1 <1>   0.1500 
 37 H        9.1570    -3.3610     1.5850 H     1 <1>   0.1500 
 38 H        7.0410    -9.2630    -1.7020 H     1 <1>   0.0800 
 39 H        8.5780    -8.7490    -1.0190 H     1 <1>   0.0800 
 40 H        7.8720    -7.8720    -2.3860 H     1 <1>   0.0800 
 41 H       10.3000    -4.4840    -0.2720 H     1 <1>   0.1500 
@<TRIPOS>BOND
  1   1   2  1   
  2   1   3  1   
  3   2   4  1   
  4   2  19  1   
  5   2  20  1   
  6   3   5  1   
  7   3  21  1   
  8   3  22  1   
  9   4   6  1   
 10   4  23  1   
 11   4  24  1   
 12   5   6  1   
 13   5  25  1   
 14   5  26  1   
 15   6   7  1   
 16   7   8  1   
 17   7  27  1   
 18   7  28  1   
 19   8   9  1   
 20   8  29  1   
 21   8  30  1   
 22   9  10  1   
 23   9  31  1   
 24   9  32  1   
 25  10  11  1   
 26  10  33  1   
 27  10  34  1   
 28  11  12  ar  
 29  11  13  ar  
 30  12  14  1   
 31  12  15  ar  
 32  13  16  ar  
 33  13  35  1   
 34  14  17  1   
 35  15  18  ar  
 36  15  36  1   
 37  16  18  ar  
 38  16  37  1   
 39  17  38  1   
 40  17  39  1   
 41  17  40  1   
 42  18  41  1   
@<TRIPOS>SUBSTRUCTURE
  1 ****   9 GROUP 4 **** **** 0

# MOE 2024.06 (io_trps.svl 2023.06)
