@<TRIPOS>MOLECULE
NONAME
49 51 1 0 0 
SMALL
USER_CHARGES


@<TRIPOS>ATOM
  1 F        0.7070    -1.2100     2.2530 F     1 <1>  -0.1900 
  2 C       -0.4470    -1.2900     1.6360 C.ar  1 <1>   0.1900 
  3 C       -0.4820    -1.7980     0.3340 C.ar  1 <1>   0.1170 
  4 C       -1.5700    -0.8610     2.3140 C.ar  1 <1>  -0.1500 
  5 N        0.7100    -2.2180    -0.2880 N.am  1 <1>  -0.5470 
  6 C       -1.7270    -1.8700    -0.2920 C.ar  1 <1>  -0.1500 
  7 C       -2.7760    -0.9510     1.6480 C.ar  1 <1>   0.1900 
  8 C        1.0470    -2.4720    -1.5860 C.2   1 <1>   0.5690 
  9 C       -2.8760    -1.4460     0.3600 C.ar  1 <1>  -0.1500 
 10 F       -3.8620    -0.5530     2.2570 F     1 <1>  -0.1900 
 11 O        0.2810    -2.3920    -2.5160 O.2   1 <1>  -0.5700 
 12 C        2.5010    -2.8690    -1.8450 C.3   1 <1>   0.1710 
 13 N        3.4400    -2.4360    -0.7680 N.3   1 <1>  -0.8100 
 14 C        4.7280    -3.1580    -0.8680 C.3   1 <1>   0.1100 
 15 C        3.6920    -0.9730    -0.8340 C.3   1 <1>   0.1100 
 16 C        5.7240    -2.7500     0.2370 C.3   1 <1>   0.2090 
 17 C        4.6480    -0.4850     0.2720 C.3   1 <1>   0.2090 
 18 N        5.9140    -1.2730     0.3090 N.pl3 1 <1>  -0.8380 
 19 C        7.0600    -0.7210    -0.2630 C.ar  1 <1>   0.1000 
 20 C        8.1110    -0.2510     0.5320 C.ar  1 <1>  -0.1430 
 21 C        7.1650    -0.6360    -1.6460 C.ar  1 <1>  -0.1500 
 22 C        9.2480     0.2870    -0.0680 C.ar  1 <1>  -0.1430 
 23 C        7.9640    -0.3560     2.0510 C.3   1 <1>  -0.0970 
 24 C        8.2880    -0.0990    -2.2400 C.ar  1 <1>  -0.1500 
 25 C        9.3260     0.3600    -1.4510 C.ar  1 <1>  -0.1500 
 26 C       10.4300     0.8060     0.7400 C.3   1 <1>  -0.0970 
 27 H       -1.5120    -0.4750     3.3140 H     1 <1>   0.1500 
 28 H        1.5370    -2.2600     0.3220 H     1 <1>   0.3700 
 29 H       -1.8070    -2.2590    -1.2910 H     1 <1>   0.1500 
 30 H       -3.8360    -1.5000    -0.1230 H     1 <1>   0.1500 
 31 H        2.8120    -2.4630    -2.7920 H     1 <1>   0.0800 
 32 H        2.5220    -3.9410    -1.9240 H     1 <1>   0.0800 
 33 H        5.1800    -2.9700    -1.8260 H     1 <1>   0.0800 
 34 H        4.5510    -4.2170    -0.7890 H     1 <1>   0.0800 
 35 H        2.7640    -0.4370    -0.7370 H     1 <1>   0.0800 
 36 H        4.1150    -0.7180    -1.7900 H     1 <1>   0.0800 
 37 H        6.6740    -3.2220     0.0560 H     1 <1>   0.0800 
 38 H        5.3580    -3.0990     1.1860 H     1 <1>   0.0800 
 39 H        4.1580    -0.5720     1.2260 H     1 <1>   0.0800 
 40 H        4.8810     0.5530     0.1130 H     1 <1>   0.0800 
 41 H        6.3610    -0.9940    -2.2560 H     1 <1>   0.1500 
 42 H        7.0300     0.0840     2.3510 H     1 <1>   0.0800 
 43 H        8.7470     0.1410     2.5870 H     1 <1>   0.0800 
 44 H        7.9570    -1.3920     2.3350 H     1 <1>   0.0800 
 45 H        8.3580    -0.0390    -3.3110 H     1 <1>   0.1500 
 46 H       10.1970     0.7750    -1.9260 H     1 <1>   0.1500 
 47 H       10.8070     0.0280     1.3790 H     1 <1>   0.0800 
 48 H       10.1230     1.6420     1.3410 H     1 <1>   0.0800 
 49 H       11.2290     1.1280     0.0970 H     1 <1>   0.0800 
@<TRIPOS>BOND
  1   1   2  1   
  2   2   3  ar  
  3   2   4  ar  
  4   3   5  1   
  5   3   6  ar  
  6   4   7  ar  
  7   4  27  1   
  8   5   8  am  
  9   5  28  1   
 10   6   9  ar  
 11   6  29  1   
 12   7   9  ar  
 13   7  10  1   
 14   8  11  2   
 15   8  12  1   
 16   9  30  1   
 17  12  13  1   
 18  12  31  1   
 19  12  32  1   
 20  13  14  1   
 21  13  15  1   
 22  14  16  1   
 23  14  33  1   
 24  14  34  1   
 25  15  17  1   
 26  15  35  1   
 27  15  36  1   
 28  16  18  1   
 29  16  37  1   
 30  16  38  1   
 31  17  18  1   
 32  17  39  1   
 33  17  40  1   
 34  18  19  1   
 35  19  20  ar  
 36  19  21  ar  
 37  20  22  ar  
 38  20  23  1   
 39  21  24  ar  
 40  21  41  1   
 41  22  25  ar  
 42  22  26  1   
 43  23  42  1   
 44  23  43  1   
 45  23  44  1   
 46  24  25  ar  
 47  24  45  1   
 48  25  46  1   
 49  26  47  1   
 50  26  48  1   
 51  26  49  1   
@<TRIPOS>SUBSTRUCTURE
  1 ****  15 GROUP 4 **** **** 0

# MOE 2024.06 (io_trps.svl 2023.06)
