@<TRIPOS>MOLECULE
NONAME
27 27 1 0 0 
SMALL
USER_CHARGES


@<TRIPOS>ATOM
  1 BR      -0.4610    -0.6190     0.0880 Br    1 <1>  -0.1110 
  2 C        1.3860    -1.1290    -0.1510 C.ar  1 <1>   0.1110 
  3 C        1.8570    -2.3450     0.3240 C.ar  1 <1>   0.1660 
  4 C        2.2170    -0.2480    -0.8060 C.ar  1 <1>  -0.1500 
  5 N        3.1160    -2.7340     0.1820 N.ar  1 <1>  -0.6200 
  6 C        0.9330    -3.3080     1.0440 C.3   1 <1>  -0.0960 
  7 C        3.5240    -0.6570    -0.9510 C.ar  1 <1>  -0.1500 
  8 C        3.9300    -1.8950    -0.4470 C.ar  1 <1>   0.4270 
  9 N        5.2130    -2.3890    -0.5430 N.am  1 <1>  -0.5470 
 10 C        6.3670    -1.8920    -1.0680 C.2   1 <1>   0.5690 
 11 O        6.4560    -0.8160    -1.6010 O.2   1 <1>  -0.5700 
 12 C        7.6090    -2.7590    -0.9680 C.3   1 <1>  -0.0990 
 13 C        8.1810    -2.7930     0.4590 C.3   1 <1>  -0.1600 
 14 C        9.4360    -3.6680     0.5340 C.3   1 <1>  -0.2400 
 15 H        1.8620     0.6960    -1.1780 H     1 <1>   0.1500 
 16 H        0.5390    -2.8460     1.9310 H     1 <1>   0.0800 
 17 H        1.4640    -4.1980     1.3300 H     1 <1>   0.0800 
 18 H        0.1200    -3.5890     0.4000 H     1 <1>   0.0800 
 19 H        4.2230    -0.0170    -1.4530 H     1 <1>   0.1500 
 20 H        5.2730    -3.3050    -0.1080 H     1 <1>   0.3700 
 21 H        8.3510    -2.3660    -1.6410 H     1 <1>   0.0800 
 22 H        7.3660    -3.7540    -1.2930 H     1 <1>   0.0800 
 23 H        7.4410    -3.1740     1.1420 H     1 <1>   0.0800 
 24 H        8.4280    -1.7890     0.7650 H     1 <1>   0.0800 
 25 H        9.2090    -4.6810     0.2520 H     1 <1>   0.0800 
 26 H        9.8210    -3.6710     1.5390 H     1 <1>   0.0800 
 27 H       10.2000    -3.2870    -0.1210 H     1 <1>   0.0800 
@<TRIPOS>BOND
  1   1   2  1   
  2   2   3  ar  
  3   2   4  ar  
  4   3   5  ar  
  5   3   6  1   
  6   4   7  ar  
  7   4  15  1   
  8   5   8  ar  
  9   6  16  1   
 10   6  17  1   
 11   6  18  1   
 12   7   8  ar  
 13   7  19  1   
 14   8   9  1   
 15   9  10  am  
 16   9  20  1   
 17  10  11  2   
 18  10  12  1   
 19  12  13  1   
 20  12  21  1   
 21  12  22  1   
 22  13  14  1   
 23  13  23  1   
 24  13  24  1   
 25  14  25  1   
 26  14  26  1   
 27  14  27  1   
@<TRIPOS>SUBSTRUCTURE
  1 ****   8 GROUP 4 **** **** 0

# MOE 2024.06 (io_trps.svl 2023.06)
