@<TRIPOS>MOLECULE
NONAME
57 59 1 0 0 
SMALL
USER_CHARGES


@<TRIPOS>ATOM
  1 S        0.1300    -0.0300    -1.0990 S.o2  1 <1>   1.4470 
  2 O       -0.2850     1.0870    -1.9220 O.2   1 <1>  -0.6500 
  3 O       -0.4060    -1.3460    -1.3730 O.2   1 <1>  -0.6500 
  4 N       -0.3010     0.3460     0.4950 N.am  1 <1>  -0.8490 
  5 C        1.9400    -0.1120    -1.0320 C.ar  1 <1>  -0.0090 
  6 C       -1.7240     0.2000     0.7420 C.3   1 <1>   0.1960 
  7 C        0.0290     1.6980     0.9120 C.3   1 <1>   0.1960 
  8 C        2.5820    -0.8660    -0.0560 C.ar  1 <1>  -0.1500 
  9 C        2.7270     0.5670    -1.9540 C.ar  1 <1>  -0.1500 
 10 C       -1.9640     0.9420     2.0520 C.3   1 <1>  -0.1600 
 11 C       -0.7830     1.9040     2.1840 C.3   1 <1>  -0.1600 
 12 C        3.9640    -0.9440     0.0200 C.ar  1 <1>  -0.1430 
 13 C        4.1070     0.5070    -1.8960 C.ar  1 <1>  -0.1500 
 14 C        4.7250    -0.2360    -0.9050 C.ar  1 <1>   0.0830 
 15 C        4.5960    -1.8040     1.1050 C.3   1 <1>  -0.0970 
 16 O        6.0730    -0.2590    -0.8770 O.3   1 <1>  -0.3630 
 17 C        6.7080     0.5380     0.1140 C.3   1 <1>   0.1810 
 18 C        7.6120    -0.3030     1.0150 C.2   1 <1>   0.5690 
 19 O        7.5140    -0.1260     2.2060 O.2   1 <1>  -0.5700 
 20 N        8.5120    -1.2230     0.5190 N.am  1 <1>  -0.6600 
 21 C        8.8120    -1.4280    -0.9340 C.3   1 <1>   0.1400 
 22 C        9.2100    -2.1740     1.4440 C.3   1 <1>   0.1400 
 23 C       10.3290    -1.5390    -1.1920 C.3   1 <1>   0.3430 
 24 C       10.7180    -2.2420     1.1500 C.3   1 <1>   0.3430 
 25 N       10.9960    -2.5510    -0.3000 N.4   1 <1>  -0.9590 
 26 C       12.4520    -2.6280    -0.5900 C.3   1 <1>   0.3430 
 27 C       13.0330    -3.8980     0.0200 C.3   1 <1>  -0.2400 
 28 H       -1.9980    -0.8400     0.8080 H     1 <1>   0.0800 
 29 H       -2.2840     0.6680    -0.0530 H     1 <1>   0.0800 
 30 H       -0.2880     2.4100     0.1660 H     1 <1>   0.0800 
 31 H        1.0870     1.8040     1.0870 H     1 <1>   0.0800 
 32 H        1.9750    -1.4030     0.6550 H     1 <1>   0.1500 
 33 H        2.2520     1.1500    -2.7270 H     1 <1>   0.1500 
 34 H       -1.9710     0.2430     2.8690 H     1 <1>   0.0800 
 35 H       -2.9070     1.4600     2.0250 H     1 <1>   0.0800 
 36 H       -1.0990     2.9280     2.2760 H     1 <1>   0.0800 
 37 H       -0.1840     1.6410     3.0390 H     1 <1>   0.0800 
 38 H        4.7050     1.0360    -2.6160 H     1 <1>   0.1500 
 39 H        3.8980    -2.5400     1.4620 H     1 <1>   0.0800 
 40 H        4.8970    -1.1900     1.9350 H     1 <1>   0.0800 
 41 H        5.4560    -2.3210     0.7200 H     1 <1>   0.0800 
 42 H        5.9560     1.0220     0.7130 H     1 <1>   0.0800 
 43 H        7.2870     1.2900    -0.3870 H     1 <1>   0.0800 
 44 H        8.4350    -0.6070    -1.5170 H     1 <1>   0.0800 
 45 H        8.3170    -2.3210    -1.2730 H     1 <1>   0.0800 
 46 H        8.7750    -3.1520     1.3360 H     1 <1>   0.0800 
 47 H        9.0750    -1.8760     2.4700 H     1 <1>   0.0800 
 48 H       10.7710    -0.5700    -1.0280 H     1 <1>   0.0800 
 49 H       10.4880    -1.8010    -2.2250 H     1 <1>   0.0800 
 50 H       11.1600    -2.9960     1.7800 H     1 <1>   0.0800 
 51 H       11.1590    -1.2940     1.4120 H     1 <1>   0.0800 
 52 H       10.5840    -3.4700    -0.5080 H     1 <1>   0.4500 
 53 H       12.9590    -1.7600    -0.1970 H     1 <1>   0.0800 
 54 H       12.6090    -2.6540    -1.6580 H     1 <1>   0.0800 
 55 H       12.9900    -3.8770     1.0940 H     1 <1>   0.0800 
 56 H       14.0690    -3.9790    -0.2600 H     1 <1>   0.0800 
 57 H       12.5240    -4.7700    -0.3490 H     1 <1>   0.0800 
@<TRIPOS>BOND
  1   1   2  2   
  2   1   3  2   
  3   1   4  am  
  4   1   5  1   
  5   4   6  1   
  6   4   7  1   
  7   5   8  ar  
  8   5   9  ar  
  9   6  10  1   
 10   6  28  1   
 11   6  29  1   
 12   7  11  1   
 13   7  30  1   
 14   7  31  1   
 15   8  12  ar  
 16   8  32  1   
 17   9  13  ar  
 18   9  33  1   
 19  10  11  1   
 20  10  34  1   
 21  10  35  1   
 22  11  36  1   
 23  11  37  1   
 24  12  14  ar  
 25  12  15  1   
 26  13  14  ar  
 27  13  38  1   
 28  14  16  1   
 29  15  39  1   
 30  15  40  1   
 31  15  41  1   
 32  16  17  1   
 33  17  18  1   
 34  17  42  1   
 35  17  43  1   
 36  18  19  2   
 37  18  20  am  
 38  20  21  1   
 39  20  22  1   
 40  21  23  1   
 41  21  44  1   
 42  21  45  1   
 43  22  24  1   
 44  22  46  1   
 45  22  47  1   
 46  23  25  1   
 47  23  48  1   
 48  23  49  1   
 49  24  25  1   
 50  24  50  1   
 51  24  51  1   
 52  25  26  1   
 53  25  52  1   
 54  26  27  1   
 55  26  53  1   
 56  26  54  1   
 57  27  55  1   
 58  27  56  1   
 59  27  57  1   
@<TRIPOS>SUBSTRUCTURE
  1 ****  12 GROUP 4 **** **** 0

# MOE 2024.06 (io_trps.svl 2023.06)
