@<TRIPOS>MOLECULE
NONAME
42 43 1 0 0 
SMALL
USER_CHARGES


@<TRIPOS>ATOM
  1 O       -0.7920     2.1650     2.0940 O.2   1 <1>  -0.5700 
  2 C       -1.0570     2.0200     0.9260 C.2   1 <1>   0.5690 
  3 N       -0.3850     2.5230    -0.1470 N.am  1 <1>  -0.0840 
  4 C       -2.2300     1.1860     0.4550 C.3   1 <1>  -0.0990 
  5 O        0.6880     3.4210    -0.0410 O.3   1 <1>  -0.3160 
  6 C       -0.9250     2.1280    -1.3350 C.2   1 <1>   0.5690 
  7 C       -2.1400     1.2600    -1.0850 C.3   1 <1>  -0.0990 
  8 C        1.9090     2.7110    -0.0140 C.3   1 <1>   0.1200 
  9 O       -0.5240     2.3820    -2.4450 O.2   1 <1>  -0.5700 
 10 C        3.0460     3.7180     0.1080 C.3   1 <1>   0.1200 
 11 O        4.2620     3.0030     0.1240 O.3   1 <1>  -0.3630 
 12 C        5.4700     3.6220     0.2070 C.ar  1 <1>   0.0830 
 13 C        6.6270     2.8360     0.1770 C.ar  1 <1>  -0.1440 
 14 C        5.5770     5.0070     0.3200 C.ar  1 <1>  -0.1500 
 15 C        7.8630     3.4650     0.2610 C.ar  1 <1>  -0.1500 
 16 C        6.6130     1.3050     0.0540 C.3   1 <1>   0.0630 
 17 C        6.8160     5.6120     0.4020 C.ar  1 <1>  -0.1500 
 18 C        7.9610     4.8400     0.3730 C.ar  1 <1>  -0.1500 
 19 C        6.0150     0.8540    -1.2940 C.3   1 <1>  -0.1600 
 20 C        5.9290     0.6520     1.2650 C.3   1 <1>  -0.2400 
 21 C        6.2260    -0.6390    -1.5880 C.3   1 <1>  -0.2400 
 22 H       -3.1490     1.6090     0.8180 H     1 <1>   0.0800 
 23 H       -2.1260     0.1760     0.8090 H     1 <1>   0.0800 
 24 H       -3.0120     1.7240    -1.5100 H     1 <1>   0.0800 
 25 H       -1.9920     0.2890    -1.5210 H     1 <1>   0.0800 
 26 H        2.0020     2.1550    -0.9300 H     1 <1>   0.0800 
 27 H        1.9030     2.0520     0.8370 H     1 <1>   0.0800 
 28 H        2.9630     4.2660     1.0300 H     1 <1>   0.0800 
 29 H        3.0540     4.3800    -0.7390 H     1 <1>   0.0800 
 30 H        4.7080     5.6360     0.3470 H     1 <1>   0.1500 
 31 H        8.7690     2.8860     0.2400 H     1 <1>   0.1500 
 32 H        7.6350     0.9690     0.0660 H     1 <1>   0.0800 
 33 H        6.8910     6.6820     0.4900 H     1 <1>   0.1500 
 34 H        8.9280     5.3070     0.4360 H     1 <1>   0.1500 
 35 H        6.4790     1.4260    -2.0780 H     1 <1>   0.0800 
 36 H        4.9630     1.0680    -1.3210 H     1 <1>   0.0800 
 37 H        4.8680     0.8140     1.2420 H     1 <1>   0.0800 
 38 H        6.3200     1.0750     2.1730 H     1 <1>   0.0800 
 39 H        6.1140    -0.4060     1.2790 H     1 <1>   0.0800 
 40 H        7.2720    -0.8870    -1.5530 H     1 <1>   0.0800 
 41 H        5.8550    -0.8710    -2.5710 H     1 <1>   0.0800 
 42 H        5.6970    -1.2480    -0.8770 H     1 <1>   0.0800 
@<TRIPOS>BOND
  1   1   2  2   
  2   2   3  am  
  3   2   4  1   
  4   3   5  1   
  5   3   6  am  
  6   4   7  1   
  7   4  22  1   
  8   4  23  1   
  9   5   8  1   
 10   6   7  1   
 11   6   9  2   
 12   7  24  1   
 13   7  25  1   
 14   8  10  1   
 15   8  26  1   
 16   8  27  1   
 17  10  11  1   
 18  10  28  1   
 19  10  29  1   
 20  11  12  1   
 21  12  13  ar  
 22  12  14  ar  
 23  13  15  ar  
 24  13  16  1   
 25  14  17  ar  
 26  14  30  1   
 27  15  18  ar  
 28  15  31  1   
 29  16  19  1   
 30  16  20  1   
 31  16  32  1   
 32  17  18  ar  
 33  17  33  1   
 34  18  34  1   
 35  19  21  1   
 36  19  35  1   
 37  19  36  1   
 38  20  37  1   
 39  20  38  1   
 40  20  39  1   
 41  21  40  1   
 42  21  41  1   
 43  21  42  1   
@<TRIPOS>SUBSTRUCTURE
  1 ****  10 GROUP 4 **** **** 0

# MOE 2024.06 (io_trps.svl 2023.06)
