@<TRIPOS>MOLECULE
NONAME
32 33 1 0 0 
SMALL
USER_CHARGES


@<TRIPOS>ATOM
  1 CL      -0.7170     0.3820     1.2670 Cl    1 <1>  -0.1770 
  2 C        0.1250     1.5220     0.2370 C.ar  1 <1>   0.1770 
  3 C       -0.4040     2.8020     0.0590 C.ar  1 <1>   0.1170 
  4 C        1.2970     1.1140    -0.3690 C.ar  1 <1>  -0.1500 
  5 N       -1.6020     3.1510     0.7120 N.am  1 <1>  -0.5470 
  6 C        0.3040     3.6860    -0.7560 C.ar  1 <1>  -0.1500 
  7 C        1.9660     2.0150    -1.1750 C.ar  1 <1>   0.1770 
  8 C       -2.5130     4.1330     0.4680 C.2   1 <1>   0.6900 
  9 C        1.4820     3.2950    -1.3730 C.ar  1 <1>  -0.1500 
 10 CL       3.4500     1.5270    -1.9550 Cl    1 <1>  -0.1770 
 11 O       -2.4220     4.8780    -0.4850 O.2   1 <1>  -0.5700 
 12 N       -3.5570     4.2440     1.3250 N.am  1 <1>  -0.7300 
 13 C       -4.6280     5.2770     1.2190 C.3   1 <1>   0.1400 
 14 C       -5.5380     5.0490     0.0030 C.3   1 <1>   0.2000 
 15 O       -6.6500     5.8770     0.1020 O.3   1 <1>  -0.5600 
 16 C       -6.1360     3.6510    -0.1090 C.3   1 <1>  -0.1600 
 17 C       -7.6640     5.4030    -0.7230 C.3   1 <1>   0.1200 
 18 C       -7.4530     3.8940    -0.8290 C.3   1 <1>  -0.1600 
 19 H        1.6820     0.1230    -0.2190 H     1 <1>   0.1500 
 20 H       -1.9090     2.4730     1.4050 H     1 <1>   0.3700 
 21 H       -0.0590     4.6860    -0.9120 H     1 <1>   0.1500 
 22 H        2.0220     3.9790    -2.0040 H     1 <1>   0.1500 
 23 H       -3.5690     3.6880     2.1770 H     1 <1>   0.3700 
 24 H       -4.1720     6.2480     1.1330 H     1 <1>   0.0800 
 25 H       -5.2250     5.2530     2.1140 H     1 <1>   0.0800 
 26 H       -5.0190     5.3110    -0.9040 H     1 <1>   0.0800 
 27 H       -6.3170     3.2520     0.8730 H     1 <1>   0.0800 
 28 H       -5.4830     2.9880    -0.6490 H     1 <1>   0.0800 
 29 H       -7.5630     5.8790    -1.6840 H     1 <1>   0.0800 
 30 H       -8.6130     5.6550    -0.2820 H     1 <1>   0.0800 
 31 H       -8.2610     3.3580    -0.3630 H     1 <1>   0.0800 
 32 H       -7.3910     3.6080    -1.8640 H     1 <1>   0.0800 
@<TRIPOS>BOND
  1   1   2  1   
  2   2   3  ar  
  3   2   4  ar  
  4   3   5  1   
  5   3   6  ar  
  6   4   7  ar  
  7   4  19  1   
  8   5   8  am  
  9   5  20  1   
 10   6   9  ar  
 11   6  21  1   
 12   7   9  ar  
 13   7  10  1   
 14   8  11  2   
 15   8  12  am  
 16   9  22  1   
 17  12  13  1   
 18  12  23  1   
 19  13  14  1   
 20  13  24  1   
 21  13  25  1   
 22  14  15  1   
 23  14  16  1   
 24  14  26  1   
 25  15  17  1   
 26  16  18  1   
 27  16  27  1   
 28  16  28  1   
 29  17  18  1   
 30  17  29  1   
 31  17  30  1   
 32  18  31  1   
 33  18  32  1   
@<TRIPOS>SUBSTRUCTURE
  1 ****   8 GROUP 4 **** **** 0

# MOE 2024.06 (io_trps.svl 2023.06)
