@<TRIPOS>MOLECULE
NONAME
56 59 1 0 0 
SMALL
USER_CHARGES


@<TRIPOS>ATOM
  1 CL       0.1640     0.1800     0.3630 Cl    1 <1>  -0.1770 
  2 C        1.6530     1.0820     0.2190 C.ar  1 <1>   0.1770 
  3 C        1.9570     1.7050    -0.9770 C.ar  1 <1>  -0.1500 
  4 C        2.5070     1.1580     1.3040 C.ar  1 <1>  -0.1500 
  5 C        3.1390     2.4180    -1.0850 C.ar  1 <1>  -0.1500 
  6 C        3.6870     1.8730     1.1870 C.ar  1 <1>  -0.1500 
  7 C        4.0130     2.5090    -0.0080 C.ar  1 <1>   0.1000 
  8 N        5.1920     3.2320    -0.1460 N.pl3 1 <1>  -0.8380 
  9 C        6.4530     2.4450    -0.1670 C.3   1 <1>   0.2090 
 10 C        5.2770     4.5100     0.6070 C.3   1 <1>   0.2090 
 11 C        7.6190     3.3160    -0.6800 C.3   1 <1>   0.3430 
 12 C        6.4550     5.3610     0.0870 C.3   1 <1>   0.3430 
 13 N        7.7890     4.6240     0.0840 N.4   1 <1>  -0.9590 
 14 C        8.9240     5.4630    -0.4330 C.3   1 <1>   0.4230 
 15 C       10.2420     4.6730    -0.4000 C.3   1 <1>  -0.1600 
 16 C        9.0730     6.7470     0.4020 C.3   1 <1>  -0.1600 
 17 C       11.4360     5.5290    -0.8230 C.3   1 <1>   0.3430 
 18 C       10.2840     7.5790    -0.0290 C.3   1 <1>   0.3430 
 19 N       11.5150     6.7500     0.0290 N.4   1 <1>  -0.9590 
 20 C       12.7270     7.5590    -0.3110 C.3   1 <1>   0.4860 
 21 C       13.9510     6.7230     0.0020 C.ar  1 <1>  -0.1430 
 22 C       14.3330     6.5070     1.3200 C.ar  1 <1>  -0.1500 
 23 C       14.6920     6.1580    -1.0260 C.ar  1 <1>  -0.1500 
 24 C       15.4330     5.7180     1.6040 C.ar  1 <1>  -0.1500 
 25 C       15.7920     5.3690    -0.7380 C.ar  1 <1>  -0.1500 
 26 C       16.1600     5.1460     0.5760 C.ar  1 <1>  -0.1500 
 27 H        1.2770     1.6310    -1.8060 H     1 <1>   0.1500 
 28 H        2.2450     0.6630     2.2220 H     1 <1>   0.1500 
 29 H        3.3890     2.9080    -2.0070 H     1 <1>   0.1500 
 30 H        4.3530     1.9360     2.0270 H     1 <1>   0.1500 
 31 H        6.3260     1.5950    -0.8180 H     1 <1>   0.0800 
 32 H        6.6690     2.0750     0.8200 H     1 <1>   0.0800 
 33 H        5.3980     4.3080     1.6580 H     1 <1>   0.0800 
 34 H        4.3560     5.0560     0.4790 H     1 <1>   0.0800 
 35 H        7.4350     3.5290    -1.7200 H     1 <1>   0.0800 
 36 H        8.5200     2.7290    -0.6190 H     1 <1>   0.0800 
 37 H        6.5190     6.2450     0.6980 H     1 <1>   0.0800 
 38 H        6.2140     5.6720    -0.9170 H     1 <1>   0.0800 
 39 H        7.9810     4.3650     1.0610 H     1 <1>   0.4500 
 40 H        8.7140     5.7390    -1.4550 H     1 <1>   0.0800 
 41 H       10.2010     3.8450    -1.0840 H     1 <1>   0.0800 
 42 H       10.4270     4.2860     0.5870 H     1 <1>   0.0800 
 43 H        9.1720     6.5080     1.4460 H     1 <1>   0.0800 
 44 H        8.2090     7.3740     0.2800 H     1 <1>   0.0800 
 45 H       11.3380     5.8120    -1.8590 H     1 <1>   0.0800 
 46 H       12.3430     4.9500    -0.7210 H     1 <1>   0.0800 
 47 H       10.3850     8.4330     0.6240 H     1 <1>   0.0800 
 48 H       10.1380     7.9440    -1.0340 H     1 <1>   0.0800 
 49 H       11.6860     6.4430     0.9970 H     1 <1>   0.4500 
 50 H       12.7560     8.4610     0.2790 H     1 <1>   0.0800 
 51 H       12.7230     7.8320    -1.3540 H     1 <1>   0.0800 
 52 H       13.7950     6.9500     2.1410 H     1 <1>   0.1500 
 53 H       14.4350     6.3220    -2.0590 H     1 <1>   0.1500 
 54 H       15.7310     5.5480     2.6250 H     1 <1>   0.1500 
 55 H       16.3690     4.9290    -1.5350 H     1 <1>   0.1500 
 56 H       17.0180     4.5330     0.7990 H     1 <1>   0.1500 
@<TRIPOS>BOND
  1   1   2  1   
  2   2   3  ar  
  3   2   4  ar  
  4   3   5  ar  
  5   3  27  1   
  6   4   6  ar  
  7   4  28  1   
  8   5   7  ar  
  9   5  29  1   
 10   6   7  ar  
 11   6  30  1   
 12   7   8  1   
 13   8   9  1   
 14   8  10  1   
 15   9  11  1   
 16   9  31  1   
 17   9  32  1   
 18  10  12  1   
 19  10  33  1   
 20  10  34  1   
 21  11  13  1   
 22  11  35  1   
 23  11  36  1   
 24  12  13  1   
 25  12  37  1   
 26  12  38  1   
 27  13  14  1   
 28  13  39  1   
 29  14  15  1   
 30  14  16  1   
 31  14  40  1   
 32  15  17  1   
 33  15  41  1   
 34  15  42  1   
 35  16  18  1   
 36  16  43  1   
 37  16  44  1   
 38  17  19  1   
 39  17  45  1   
 40  17  46  1   
 41  18  19  1   
 42  18  47  1   
 43  18  48  1   
 44  19  20  1   
 45  19  49  1   
 46  20  21  1   
 47  20  50  1   
 48  20  51  1   
 49  21  22  ar  
 50  21  23  ar  
 51  22  24  ar  
 52  22  52  1   
 53  23  25  ar  
 54  23  53  1   
 55  24  26  ar  
 56  24  54  1   
 57  25  26  ar  
 58  25  55  1   
 59  26  56  1   
@<TRIPOS>SUBSTRUCTURE
  1 ****  13 GROUP 4 **** **** 0

# MOE 2024.06 (io_trps.svl 2023.06)
