@<TRIPOS>MOLECULE
NONAME
51 54 1 0 0 
SMALL
USER_CHARGES


@<TRIPOS>ATOM
  1 O       -2.2650     2.0030    -2.4390 O.2   1 <1>  -0.5700 
  2 C       -2.4610     2.3280    -1.2730 C.2   1 <1>   0.7160 
  3 N       -1.5520     3.1240    -0.5870 N.am  1 <1>  -0.2290 
  4 C       -3.6210     1.9180    -0.5760 C.2   1 <1>  -0.0860 
  5 C       -1.8400     3.4810     0.7410 C.2   1 <1>   0.4960 
  6 C       -0.3720     3.5760    -1.1810 C.2   1 <1>  -0.0410 
  7 C       -3.7970     2.3210     0.7220 C.2   1 <1>  -0.0260 
  8 C       -4.7340     1.1380    -0.9030 C.2   1 <1>  -0.1500 
  9 N       -2.9170     3.1040     1.3880 N.2   1 <1>  -0.5760 
 10 C       -0.8910     4.3040     1.4130 C.2   1 <1>  -0.1360 
 11 C        0.5140     4.3590    -0.5160 C.2   1 <1>  -0.1500 
 12 N       -4.9650     1.8150     1.1990 N.pl3 1 <1>   0.0480 
 13 C       -5.5640     1.0810     0.1880 C.2   1 <1>  -0.2370 
 14 C        0.2520     4.7370     0.8200 C.2   1 <1>  -0.1500 
 15 C       -5.4480     1.9980     2.5860 C.3   1 <1>   0.0160 
 16 C       -6.8290     0.4150     0.2980 C.2   1 <1>   0.7150 
 17 O       -7.6400     0.6790     1.1680 O.2   1 <1>  -0.5700 
 18 N       -7.2020    -0.4720    -0.6650 N.am  1 <1>  -0.7300 
 19 C       -8.3540    -1.4050    -0.6060 C.3   1 <1>   0.1400 
 20 C       -9.4730    -0.9560    -1.5580 C.3   1 <1>  -0.1600 
 21 C      -10.4650     0.0540    -0.9620 C.3   1 <1>   0.3430 
 22 N       -9.7960     1.2930    -0.4960 N.4   1 <1>  -0.9590 
 23 C      -10.6820     2.1360     0.3720 C.3   1 <1>   0.3430 
 24 C       -9.1910     2.1160    -1.5980 C.3   1 <1>   0.3430 
 25 C       -9.9480     3.4080     0.8370 C.3   1 <1>   0.1200 
 26 C       -8.5360     3.3970    -1.0450 C.3   1 <1>   0.1200 
 27 O       -9.4520     4.1120    -0.2660 O.3   1 <1>  -0.5600 
 28 H       -0.1920     3.2750    -2.2010 H     1 <1>   0.1500 
 29 H       -4.8630     0.6870    -1.8720 H     1 <1>   0.1500 
 30 H       -1.1270     4.5690     2.4270 H     1 <1>   0.1500 
 31 H        1.4220     4.7050    -0.9790 H     1 <1>   0.1500 
 32 H        0.9650     5.3600     1.3350 H     1 <1>   0.1500 
 33 H       -4.6840     2.4640     3.1820 H     1 <1>   0.0800 
 34 H       -5.6890     1.0410     3.0110 H     1 <1>   0.0800 
 35 H       -6.3220     2.6220     2.5800 H     1 <1>   0.0800 
 36 H       -6.4600    -0.7490    -1.3130 H     1 <1>   0.3700 
 37 H       -8.7230    -1.4870     0.4040 H     1 <1>   0.0800 
 38 H       -8.0070    -2.3820    -0.9030 H     1 <1>   0.0800 
 39 H      -10.0470    -1.8300    -1.8070 H     1 <1>   0.0800 
 40 H       -9.0600    -0.5940    -2.4830 H     1 <1>   0.0800 
 41 H      -10.9630    -0.4110    -0.1260 H     1 <1>   0.0800 
 42 H      -11.2150     0.3010    -1.6970 H     1 <1>   0.0800 
 43 H       -9.0070     0.9960     0.1140 H     1 <1>   0.4500 
 44 H      -10.9930     1.5720     1.2360 H     1 <1>   0.0800 
 45 H      -11.5630     2.4280    -0.1750 H     1 <1>   0.0800 
 46 H       -9.9530     2.3980    -2.3060 H     1 <1>   0.0800 
 47 H       -8.4460     1.5380    -2.1200 H     1 <1>   0.0800 
 48 H       -9.1290     3.1640     1.4920 H     1 <1>   0.0800 
 49 H      -10.6270     4.0580     1.3620 H     1 <1>   0.0800 
 50 H       -8.2250     4.0350    -1.8540 H     1 <1>   0.0800 
 51 H       -7.6750     3.1650    -0.4420 H     1 <1>   0.0800 
@<TRIPOS>BOND
  1   1   2  2   
  2   2   3  am  
  3   2   4  1   
  4   3   5  1   
  5   3   6  1   
  6   4   7  2   
  7   4   8  1   
  8   5   9  2   
  9   5  10  1   
 10   6  11  2   
 11   6  28  1   
 12   7   9  1   
 13   7  12  1   
 14   8  13  2   
 15   8  29  1   
 16  10  14  2   
 17  10  30  1   
 18  11  14  1   
 19  11  31  1   
 20  12  13  1   
 21  12  15  1   
 22  13  16  1   
 23  14  32  1   
 24  15  33  1   
 25  15  34  1   
 26  15  35  1   
 27  16  17  2   
 28  16  18  am  
 29  18  19  1   
 30  18  36  1   
 31  19  20  1   
 32  19  37  1   
 33  19  38  1   
 34  20  21  1   
 35  20  39  1   
 36  20  40  1   
 37  21  22  1   
 38  21  41  1   
 39  21  42  1   
 40  22  23  1   
 41  22  24  1   
 42  22  43  1   
 43  23  25  1   
 44  23  44  1   
 45  23  45  1   
 46  24  26  1   
 47  24  46  1   
 48  24  47  1   
 49  25  27  1   
 50  25  48  1   
 51  25  49  1   
 52  26  27  1   
 53  26  50  1   
 54  26  51  1   
@<TRIPOS>SUBSTRUCTURE
  1 ****  13 GROUP 4 **** **** 0

# MOE 2024.06 (io_trps.svl 2023.06)
