@<TRIPOS>MOLECULE
NONAME
46 48 1 0 0 
SMALL
USER_CHARGES


@<TRIPOS>ATOM
  1 O       -0.4540    -0.6030    -0.1560 O.3   1 <1>  -0.3630 
  2 C       -1.6350    -1.2000     0.1340 C.ar  1 <1>   0.0830 
  3 C        0.2380    -0.8700    -1.3540 C.3   1 <1>   0.1200 
  4 C       -2.3140    -2.0450    -0.7390 C.ar  1 <1>  -0.1500 
  5 C       -2.1730    -0.9390     1.3820 C.ar  1 <1>  -0.1500 
  6 C        1.5390    -0.0750    -1.3340 C.3   1 <1>  -0.2400 
  7 C       -3.5190    -2.6110    -0.3590 C.ar  1 <1>  -0.1500 
  8 C       -3.3760    -1.5040     1.7630 C.ar  1 <1>  -0.1500 
  9 C       -4.0610    -2.3390     0.8900 C.ar  1 <1>  -0.1430 
 10 C       -5.3900    -2.9420     1.3010 C.3   1 <1>   0.4860 
 11 N       -6.4790    -2.2230     0.5880 N.4   1 <1>  -0.9590 
 12 C       -6.5210    -0.7580     0.9520 C.3   1 <1>   0.3430 
 13 C       -7.8230    -2.8670     0.8100 C.3   1 <1>   0.3430 
 14 C       -7.6450    -0.0020     0.2170 C.3   1 <1>   0.2090 
 15 C       -8.9560    -2.1290     0.0680 C.3   1 <1>   0.2090 
 16 N       -8.9700    -0.6710     0.3920 N.pl3 1 <1>  -0.8380 
 17 C      -10.0160     0.0150    -0.1850 C.ar  1 <1>   0.4100 
 18 N      -10.0130     0.0740    -1.5100 N.ar  1 <1>  -0.6200 
 19 C      -10.9930     0.5980     0.6150 C.ar  1 <1>  -0.1500 
 20 C      -11.0220     0.7370    -2.0530 C.ar  1 <1>   0.1600 
 21 C      -12.0350     1.2830     0.0360 C.ar  1 <1>  -0.1500 
 22 C      -12.0400     1.3490    -1.3420 C.ar  1 <1>  -0.1500 
 23 H       -0.3800    -0.5650    -2.1810 H     1 <1>   0.0800 
 24 H        0.4390    -1.9260    -1.4040 H     1 <1>   0.0800 
 25 H       -1.9170    -2.2700    -1.7110 H     1 <1>   0.1500 
 26 H       -1.6350    -0.2900     2.0510 H     1 <1>   0.1500 
 27 H        1.3290     0.9780    -1.2660 H     1 <1>   0.0800 
 28 H        2.0930    -0.2570    -2.2370 H     1 <1>   0.0800 
 29 H        2.1420    -0.3740    -0.4950 H     1 <1>   0.0800 
 30 H       -4.0200    -3.2670    -1.0510 H     1 <1>   0.1500 
 31 H       -3.7620    -1.2850     2.7440 H     1 <1>   0.1500 
 32 H       -5.5200    -2.8530     2.3680 H     1 <1>   0.0800 
 33 H       -5.4010    -3.9880     1.0410 H     1 <1>   0.0800 
 34 H       -6.2630    -2.2640    -0.4160 H     1 <1>   0.4500 
 35 H       -5.5780    -0.2930     0.7140 H     1 <1>   0.0800 
 36 H       -6.6830    -0.6530     2.0110 H     1 <1>   0.0800 
 37 H       -8.0560    -2.8630     1.8620 H     1 <1>   0.0800 
 38 H       -7.8000    -3.8920     0.4780 H     1 <1>   0.0800 
 39 H       -7.4100     0.0640    -0.8320 H     1 <1>   0.0800 
 40 H       -7.7060     1.0040     0.5990 H     1 <1>   0.0800 
 41 H       -9.9030    -2.5590     0.3470 H     1 <1>   0.0800 
 42 H       -8.8390    -2.2620    -0.9940 H     1 <1>   0.0800 
 43 H      -10.9190     0.5020     1.6810 H     1 <1>   0.1500 
 44 H      -11.0400     0.7980    -3.1280 H     1 <1>   0.1500 
 45 H      -12.8080     1.7460     0.6260 H     1 <1>   0.1500 
 46 H      -12.8250     1.8700    -1.8600 H     1 <1>   0.1500 
@<TRIPOS>BOND
  1   1   2  1   
  2   1   3  1   
  3   2   4  ar  
  4   2   5  ar  
  5   3   6  1   
  6   3  23  1   
  7   3  24  1   
  8   4   7  ar  
  9   4  25  1   
 10   5   8  ar  
 11   5  26  1   
 12   6  27  1   
 13   6  28  1   
 14   6  29  1   
 15   7   9  ar  
 16   7  30  1   
 17   8   9  ar  
 18   8  31  1   
 19   9  10  1   
 20  10  11  1   
 21  10  32  1   
 22  10  33  1   
 23  11  12  1   
 24  11  13  1   
 25  11  34  1   
 26  12  14  1   
 27  12  35  1   
 28  12  36  1   
 29  13  15  1   
 30  13  37  1   
 31  13  38  1   
 32  14  16  1   
 33  14  39  1   
 34  14  40  1   
 35  15  16  1   
 36  15  41  1   
 37  15  42  1   
 38  16  17  1   
 39  17  18  ar  
 40  17  19  ar  
 41  18  20  ar  
 42  19  21  ar  
 43  19  43  1   
 44  20  22  ar  
 45  20  44  1   
 46  21  22  ar  
 47  21  45  1   
 48  22  46  1   
@<TRIPOS>SUBSTRUCTURE
  1 ****  12 GROUP 4 **** **** 0

# MOE 2024.06 (io_trps.svl 2023.06)
