@<TRIPOS>MOLECULE
NONAME
45 48 1 0 0 
SMALL
USER_CHARGES


@<TRIPOS>ATOM
  1 BR       0.5350     0.6520     1.5300 Br    1 <1>  -0.1110 
  2 C        2.2390    -0.0330     0.9520 C.ar  1 <1>   0.1110 
  3 C        2.6000     0.1080    -0.3740 C.ar  1 <1>  -0.1500 
  4 C        3.0600    -0.6480     1.8770 C.ar  1 <1>  -0.1500 
  5 C        3.8260    -0.3870    -0.7820 C.ar  1 <1>  -0.1500 
  6 C        4.2830    -1.1370     1.4530 C.ar  1 <1>  -0.1500 
  7 C        4.6830    -1.0140     0.1220 C.ar  1 <1>   0.1170 
  8 N        5.9360    -1.5180    -0.2960 N.am  1 <1>  -0.2370 
  9 C        6.8630    -0.8360    -1.0380 C.2   1 <1>   0.5690 
 10 C        6.4020    -2.7780    -0.0360 C.2   1 <1>   0.5690 
 11 O        6.6870     0.2340    -1.5730 O.2   1 <1>  -0.5700 
 12 C        8.1630    -1.6440    -1.1870 C.3   1 <1>   0.2510 
 13 O        5.8300    -3.6360     0.5840 O.2   1 <1>  -0.5700 
 14 C        7.7570    -3.0220    -0.6480 C.3   1 <1>  -0.0990 
 15 N        9.3420    -1.1490    -0.4160 N.3   1 <1>  -0.8100 
 16 C        9.5420     0.3200    -0.5580 C.3   1 <1>   0.1100 
 17 C       10.5890    -1.8460    -0.8360 C.3   1 <1>   0.1100 
 18 C       10.7780     0.8360     0.2030 C.3   1 <1>   0.2090 
 19 C       11.8270    -1.3700    -0.0560 C.3   1 <1>   0.2090 
 20 N       12.0080     0.1020    -0.2030 N.pl3 1 <1>  -0.8380 
 21 C       13.2160     0.6540     0.1780 C.ar  1 <1>   0.4100 
 22 N       13.8940     0.0410     1.1430 N.ar  1 <1>  -0.6200 
 23 C       13.6640     1.8150    -0.4470 C.ar  1 <1>  -0.1500 
 24 C       15.0380     0.6040     1.4930 C.ar  1 <1>   0.1600 
 25 C       14.8550     2.3900    -0.0730 C.ar  1 <1>  -0.1500 
 26 C       15.5580     1.7560     0.9310 C.ar  1 <1>  -0.1500 
 27 H        1.9370     0.5940    -1.0680 H     1 <1>   0.1500 
 28 H        2.7460    -0.7440     2.9010 H     1 <1>   0.1500 
 29 H        4.1210    -0.2810    -1.8120 H     1 <1>   0.1500 
 30 H        4.9310    -1.6250     2.1610 H     1 <1>   0.1500 
 31 H        8.4100    -1.6990    -2.2330 H     1 <1>   0.0800 
 32 H        7.6580    -3.7340    -1.4460 H     1 <1>   0.0800 
 33 H        8.4250    -3.3970     0.1050 H     1 <1>   0.0800 
 34 H        8.6860     0.8430    -0.1700 H     1 <1>   0.0800 
 35 H        9.6450     0.5770    -1.5990 H     1 <1>   0.0800 
 36 H       10.7670    -1.6760    -1.8840 H     1 <1>   0.0800 
 37 H       10.4890    -2.9060    -0.6840 H     1 <1>   0.0800 
 38 H       10.6230     0.7070     1.2610 H     1 <1>   0.0800 
 39 H       10.9020     1.8870     0.0110 H     1 <1>   0.0800 
 40 H       12.7030    -1.8730    -0.4270 H     1 <1>   0.0800 
 41 H       11.7140    -1.6170     0.9860 H     1 <1>   0.0800 
 42 H       13.0640     2.2450    -1.2260 H     1 <1>   0.1500 
 43 H       15.5950     0.1160     2.2740 H     1 <1>   0.1500 
 44 H       15.2230     3.2870    -0.5410 H     1 <1>   0.1500 
 45 H       16.4970     2.1500     1.2730 H     1 <1>   0.1500 
@<TRIPOS>BOND
  1   1   2  1   
  2   2   3  ar  
  3   2   4  ar  
  4   3   5  ar  
  5   3  27  1   
  6   4   6  ar  
  7   4  28  1   
  8   5   7  ar  
  9   5  29  1   
 10   6   7  ar  
 11   6  30  1   
 12   7   8  1   
 13   8   9  am  
 14   8  10  am  
 15   9  11  2   
 16   9  12  1   
 17  10  13  2   
 18  10  14  1   
 19  12  14  1   
 20  12  15  1   
 21  12  31  1   
 22  14  32  1   
 23  14  33  1   
 24  15  16  1   
 25  15  17  1   
 26  16  18  1   
 27  16  34  1   
 28  16  35  1   
 29  17  19  1   
 30  17  36  1   
 31  17  37  1   
 32  18  20  1   
 33  18  38  1   
 34  18  39  1   
 35  19  20  1   
 36  19  40  1   
 37  19  41  1   
 38  20  21  1   
 39  21  22  ar  
 40  21  23  ar  
 41  22  24  ar  
 42  23  25  ar  
 43  23  42  1   
 44  24  26  ar  
 45  24  43  1   
 46  25  26  ar  
 47  25  44  1   
 48  26  45  1   
@<TRIPOS>SUBSTRUCTURE
  1 ****  15 GROUP 4 **** **** 0

# MOE 2024.06 (io_trps.svl 2023.06)
