@<TRIPOS>MOLECULE
NONAME
45 46 1 0 0 
SMALL
USER_CHARGES


@<TRIPOS>ATOM
  1 O       -6.2710     3.9520     1.9590 O.3   1 <1>  -0.3630 
  2 C       -6.0320     4.4960     0.7420 C.ar  1 <1>   0.0830 
  3 C       -7.4140     4.3680     2.6710 C.3   1 <1>   0.1200 
  4 C       -6.0290     3.6770    -0.3860 C.ar  1 <1>   0.0830 
  5 C       -5.7600     5.8500     0.6280 C.ar  1 <1>  -0.1500 
  6 C       -8.4410     3.2300     2.6380 C.3   1 <1>   0.3430 
  7 O       -6.3320     2.3580    -0.2310 O.3   1 <1>  -0.3630 
  8 C       -5.7460     4.2330    -1.6290 C.ar  1 <1>  -0.1500 
  9 C       -5.4890     6.3960    -0.6150 C.ar  1 <1>  -0.1500 
 10 N       -8.8510     2.8650     1.2450 N.4   1 <1>  -0.9590 
 11 C       -5.6970     1.4090    -1.0640 C.3   1 <1>   0.0400 
 12 C       -5.4810     5.5880    -1.7400 C.ar  1 <1>  -0.1500 
 13 C       -9.8060     3.8670     0.6750 C.3   1 <1>   0.3430 
 14 C       -9.3810     1.4750     1.2150 C.3   1 <1>   0.3430 
 15 C      -10.2680     3.5090    -0.7490 C.3   1 <1>  -0.0800 
 16 C       -9.7910     1.0780    -0.2020 C.3   1 <1>  -0.1600 
 17 C      -10.8120     2.0630    -0.7920 C.3   1 <1>  -0.0800 
 18 C       -9.1660     3.7920    -1.7850 C.3   1 <1>  -0.2400 
 19 C      -11.2360     1.6200    -2.1990 C.3   1 <1>  -0.2400 
 20 H       -7.8100     5.2730     2.2440 H     1 <1>   0.0800 
 21 H       -7.1100     4.5620     3.6840 H     1 <1>   0.0800 
 22 H       -5.7420     6.4750     1.5030 H     1 <1>   0.1500 
 23 H       -9.3080     3.5100     3.2130 H     1 <1>   0.0800 
 24 H       -7.9920     2.3740     3.1160 H     1 <1>   0.0800 
 25 H       -5.7380     3.6310    -2.5180 H     1 <1>   0.1500 
 26 H       -5.2750     7.4470    -0.7080 H     1 <1>   0.1500 
 27 H       -7.9840     2.8710     0.6670 H     1 <1>   0.4500 
 28 H       -5.8600     0.4310    -0.6490 H     1 <1>   0.0800 
 29 H       -4.6410     1.6200    -1.0940 H     1 <1>   0.0800 
 30 H       -6.1230     1.4610    -2.0500 H     1 <1>   0.0800 
 31 H       -5.2640     6.0160    -2.7040 H     1 <1>   0.1500 
 32 H       -9.3440     4.8410     0.6550 H     1 <1>   0.0800 
 33 H      -10.6750     3.9240     1.3090 H     1 <1>   0.0800 
 34 H      -10.2400     1.4010     1.8630 H     1 <1>   0.0800 
 35 H       -8.6280     0.7900     1.5710 H     1 <1>   0.0800 
 36 H      -11.0840     4.1720    -0.9830 H     1 <1>   0.0800 
 37 H      -10.2260     0.0940    -0.1680 H     1 <1>   0.0800 
 38 H       -8.9150     1.0160    -0.8230 H     1 <1>   0.0800 
 39 H      -11.6950     2.0310    -0.1730 H     1 <1>   0.0800 
 40 H       -8.3860     3.0580    -1.7410 H     1 <1>   0.0800 
 41 H       -8.7340     4.7650    -1.6240 H     1 <1>   0.0800 
 42 H       -9.5750     3.7820    -2.7800 H     1 <1>   0.0800 
 43 H      -10.3880     1.5290    -2.8550 H     1 <1>   0.0800 
 44 H      -11.9250     2.3290    -2.6250 H     1 <1>   0.0800 
 45 H      -11.7270     0.6640    -2.1560 H     1 <1>   0.0800 
@<TRIPOS>BOND
  1   1   2  1   
  2   1   3  1   
  3   2   4  ar  
  4   2   5  ar  
  5   3   6  1   
  6   3  20  1   
  7   3  21  1   
  8   4   7  1   
  9   4   8  ar  
 10   5   9  ar  
 11   5  22  1   
 12   6  10  1   
 13   6  23  1   
 14   6  24  1   
 15   7  11  1   
 16   8  12  ar  
 17   8  25  1   
 18   9  12  ar  
 19   9  26  1   
 20  10  13  1   
 21  10  14  1   
 22  10  27  1   
 23  11  28  1   
 24  11  29  1   
 25  11  30  1   
 26  12  31  1   
 27  13  15  1   
 28  13  32  1   
 29  13  33  1   
 30  14  16  1   
 31  14  34  1   
 32  14  35  1   
 33  15  17  1   
 34  15  18  1   
 35  15  36  1   
 36  16  17  1   
 37  16  37  1   
 38  16  38  1   
 39  17  19  1   
 40  17  39  1   
 41  18  40  1   
 42  18  41  1   
 43  18  42  1   
 44  19  43  1   
 45  19  44  1   
 46  19  45  1   
@<TRIPOS>SUBSTRUCTURE
  1 ****  10 GROUP 4 **** **** 0

# MOE 2024.06 (io_trps.svl 2023.06)
