@<TRIPOS>MOLECULE
NONAME
28 29 1 0 0 
SMALL
USER_CHARGES


@<TRIPOS>ATOM
  1 BR      -0.1140     0.5430     0.1880 Br    1 <1>  -0.1110 
  2 C        1.7900     0.2780     0.0710 C.ar  1 <1>   0.1110 
  3 C        2.3240    -0.9250     0.4880 C.ar  1 <1>  -0.1500 
  4 C        2.5760     1.3000    -0.4260 C.ar  1 <1>  -0.1500 
  5 C        3.6940    -1.1060     0.4010 C.ar  1 <1>  -0.1500 
  6 C        3.9440     1.1020    -0.5080 C.ar  1 <1>  -0.1500 
  7 C        4.5200    -0.1000    -0.0990 C.ar  1 <1>   0.1170 
  8 N        5.9120    -0.2410    -0.1880 N.am  1 <1>  -0.5470 
  9 C        6.7040    -1.3480    -0.3000 C.2   1 <1>   0.6900 
 10 O        6.2260    -2.4590    -0.4380 O.2   1 <1>  -0.5700 
 11 N        8.0630    -1.1840    -0.2740 N.am  1 <1>  -0.6600 
 12 C        8.7850     0.0550     0.0910 C.3   1 <1>   0.1400 
 13 C        8.9910    -2.3340    -0.3540 C.3   1 <1>   0.1400 
 14 C       10.2620    -0.3170     0.0230 C.3   1 <1>  -0.1600 
 15 C       10.2940    -1.8260     0.2510 C.3   1 <1>  -0.1600 
 16 H        1.6860    -1.7010     0.8700 H     1 <1>   0.1500 
 17 H        2.1260     2.2230    -0.7420 H     1 <1>   0.1500 
 18 H        4.1220    -2.0370     0.7270 H     1 <1>   0.1500 
 19 H        4.5680     1.8860    -0.8960 H     1 <1>   0.1500 
 20 H        6.4370     0.6200    -0.2750 H     1 <1>   0.3700 
 21 H        8.5160     0.3370     1.0960 H     1 <1>   0.0800 
 22 H        8.5540     0.8530    -0.5930 H     1 <1>   0.0800 
 23 H        9.1290    -2.5990    -1.3890 H     1 <1>   0.0800 
 24 H        8.6060    -3.1830     0.1860 H     1 <1>   0.0800 
 25 H       10.8450     0.2200     0.7490 H     1 <1>   0.0800 
 26 H       10.6340    -0.0910    -0.9620 H     1 <1>   0.0800 
 27 H       11.1520    -2.2930    -0.1980 H     1 <1>   0.0800 
 28 H       10.2920    -2.0370     1.3070 H     1 <1>   0.0800 
@<TRIPOS>BOND
  1   1   2  1   
  2   2   3  ar  
  3   2   4  ar  
  4   3   5  ar  
  5   3  16  1   
  6   4   6  ar  
  7   4  17  1   
  8   5   7  ar  
  9   5  18  1   
 10   6   7  ar  
 11   6  19  1   
 12   7   8  1   
 13   8   9  am  
 14   8  20  1   
 15   9  10  2   
 16   9  11  am  
 17  11  12  1   
 18  11  13  1   
 19  12  14  1   
 20  12  21  1   
 21  12  22  1   
 22  13  15  1   
 23  13  23  1   
 24  13  24  1   
 25  14  15  1   
 26  14  25  1   
 27  14  26  1   
 28  15  27  1   
 29  15  28  1   
@<TRIPOS>SUBSTRUCTURE
  1 ****   8 GROUP 4 **** **** 0

# MOE 2024.06 (io_trps.svl 2023.06)
