@<TRIPOS>MOLECULE
NONAME
36 38 1 0 0 
SMALL
USER_CHARGES


@<TRIPOS>ATOM
  1 F        0.2470     0.6200     0.3070 F     1 <1>  -0.3400 
  2 C        0.1680     1.9300     0.5020 C.3   1 <1>   1.1640 
  3 F        0.5520     2.1440     1.7560 F     1 <1>  -0.3400 
  4 F        1.1030     2.4770    -0.2670 F     1 <1>  -0.3400 
  5 C       -1.2400     2.4720     0.2040 C.ar  1 <1>  -0.1440 
  6 C       -1.5990     2.8510    -1.0860 C.ar  1 <1>  -0.1500 
  7 C       -2.1920     2.5950     1.2110 C.ar  1 <1>  -0.1500 
  8 C       -2.8660     3.3340    -1.3550 C.ar  1 <1>  -0.1500 
  9 C       -3.4570     3.0810     0.9340 C.ar  1 <1>  -0.1500 
 10 C       -3.8270     3.4520    -0.3560 C.ar  1 <1>   0.0280 
 11 C       -5.1350     3.9510    -0.6780 C.2   1 <1>  -0.1780 
 12 C       -6.3560     3.5070    -0.3020 C.2   1 <1>  -0.0380 
 13 N       -7.5260     4.1250    -0.7390 N.pl3 1 <1>  -0.8380 
 14 C       -6.6240     2.2750     0.5880 C.3   1 <1>   0.3380 
 15 C       -8.3150     3.2020    -1.6130 C.3   1 <1>   0.2090 
 16 C       -8.3930     4.5600     0.3990 C.3   1 <1>   0.2090 
 17 O       -6.0000     1.1730     0.0320 O.3   1 <1>  -0.6800 
 18 C       -8.1540     2.0420     0.6450 C.3   1 <1>  -0.0800 
 19 C       -8.7000     1.9400    -0.8010 C.3   1 <1>  -0.1600 
 20 C       -8.7740     3.3240     1.2510 C.3   1 <1>  -0.1600 
 21 H       -0.8890     2.7710    -1.8940 H     1 <1>   0.1500 
 22 H       -1.9530     2.3140     2.2230 H     1 <1>   0.1500 
 23 H       -3.1230     3.6210    -2.3600 H     1 <1>   0.1500 
 24 H       -4.1660     3.1840     1.7350 H     1 <1>   0.1500 
 25 H       -5.1160     4.8000    -1.3380 H     1 <1>   0.1500 
 26 H       -6.2290     2.4240     1.5760 H     1 <1>   0.0800 
 27 H       -9.1960     3.7050    -1.9730 H     1 <1>   0.0800 
 28 H       -7.7150     2.9240    -2.4620 H     1 <1>   0.0800 
 29 H       -7.8540     5.2740     0.9980 H     1 <1>   0.0800 
 30 H       -9.2770     5.0420     0.0160 H     1 <1>   0.0800 
 31 H       -5.1840     1.4950    -0.4000 H     1 <1>   0.4000 
 32 H       -8.3920     1.1740     1.2330 H     1 <1>   0.0800 
 33 H       -9.7690     1.8320    -0.7910 H     1 <1>   0.0800 
 34 H       -8.2950     1.0710    -1.2880 H     1 <1>   0.0800 
 35 H       -8.4220     3.4650     2.2570 H     1 <1>   0.0800 
 36 H       -9.8440     3.2350     1.2940 H     1 <1>   0.0800 
@<TRIPOS>BOND
  1   1   2  1   
  2   2   3  1   
  3   2   4  1   
  4   2   5  1   
  5   5   6  ar  
  6   5   7  ar  
  7   6   8  ar  
  8   6  21  1   
  9   7   9  ar  
 10   7  22  1   
 11   8  10  ar  
 12   8  23  1   
 13   9  10  ar  
 14   9  24  1   
 15  10  11  1   
 16  11  12  2   
 17  11  25  1   
 18  12  13  1   
 19  12  14  1   
 20  13  15  1   
 21  13  16  1   
 22  14  17  1   
 23  14  18  1   
 24  14  26  1   
 25  15  19  1   
 26  15  27  1   
 27  15  28  1   
 28  16  20  1   
 29  16  29  1   
 30  16  30  1   
 31  17  31  1   
 32  18  19  1   
 33  18  20  1   
 34  18  32  1   
 35  19  33  1   
 36  19  34  1   
 37  20  35  1   
 38  20  36  1   
@<TRIPOS>SUBSTRUCTURE
  1 ****  10 GROUP 4 **** **** 0

# MOE 2024.06 (io_trps.svl 2023.06)
