@<TRIPOS>MOLECULE
NONAME
44 46 1 0 0 
SMALL
USER_CHARGES


@<TRIPOS>ATOM
  1 S       -0.3710     0.1940    -0.7620 S.3   1 <1>  -0.0800 
  2 C       -1.1470    -1.1620     0.0740 C.2   1 <1>   0.1040 
  3 C        1.1460    -0.6680    -0.7930 C.2   1 <1>  -0.1400 
  4 N       -2.5100    -1.1180     0.3410 N.am  1 <1>  -0.4940 
  5 C       -0.2480    -2.1720     0.3140 C.2   1 <1>  -0.0860 
  6 C        1.0500    -1.8520    -0.2140 C.2   1 <1>  -0.1810 
  7 C        2.4800    -0.2950    -1.3540 C.3   1 <1>   0.0200 
  8 C       -3.3980    -0.0730     0.3830 C.2   1 <1>   0.5690 
  9 C       -0.5180    -3.3980     1.0090 C.2   1 <1>   0.7160 
 10 C        2.3720    -2.5720    -0.2660 C.3   1 <1>   0.0210 
 11 C        3.3030    -1.5590    -0.9930 C.3   1 <1>  -0.1600 
 12 O       -3.0630     1.0850     0.3730 O.2   1 <1>  -0.5700 
 13 C       -4.8830    -0.4330     0.4800 C.3   1 <1>  -0.0190 
 14 O        0.0460    -4.4420     0.7550 O.2   1 <1>  -0.5700 
 15 N       -1.4170    -3.4390     2.0180 N.am  1 <1>  -0.8000 
 16 C       -5.4100    -0.9730    -0.8640 C.3   1 <1>  -0.1600 
 17 C       -5.7630     0.7470     0.9460 C.3   1 <1>  -0.1600 
 18 C       -6.8950    -1.3400    -0.7880 C.3   1 <1>   0.1400 
 19 C       -7.2430     0.3640     1.0090 C.3   1 <1>   0.1400 
 20 N       -7.6750    -0.1640    -0.3150 N.am  1 <1>  -0.6600 
 21 C       -8.6850     0.3620    -1.0810 C.2   1 <1>   0.5690 
 22 O       -9.0150    -0.1260    -2.1360 O.2   1 <1>  -0.5700 
 23 C       -9.4370     1.5920    -0.6300 C.3   1 <1>  -0.1790 
 24 H       -2.9300    -2.0320     0.5020 H     1 <1>   0.3700 
 25 H        2.8640     0.5860    -0.8700 H     1 <1>   0.0800 
 26 H        2.4160    -0.1470    -2.4170 H     1 <1>   0.0800 
 27 H        2.2760    -3.4880    -0.8240 H     1 <1>   0.0800 
 28 H        2.7240    -2.7870     0.7270 H     1 <1>   0.0800 
 29 H        4.1220    -1.2890    -0.3490 H     1 <1>   0.0800 
 30 H        3.7020    -2.0050    -1.8870 H     1 <1>   0.0800 
 31 H       -4.9760    -1.2130     1.2150 H     1 <1>   0.0800 
 32 H       -1.4570    -4.3080     2.5510 H     1 <1>   0.3700 
 33 H       -1.6100    -2.5900     2.5480 H     1 <1>   0.3700 
 34 H       -4.8510    -1.8420    -1.1620 H     1 <1>   0.0800 
 35 H       -5.2780    -0.2260    -1.6300 H     1 <1>   0.0800 
 36 H       -5.6500     1.5760     0.2670 H     1 <1>   0.0800 
 37 H       -5.4380     1.0780     1.9170 H     1 <1>   0.0800 
 38 H       -7.0420    -2.1570    -0.1040 H     1 <1>   0.0800 
 39 H       -7.2330    -1.6570    -1.7600 H     1 <1>   0.0800 
 40 H       -7.8210     1.2230     1.2980 H     1 <1>   0.0800 
 41 H       -7.3920    -0.4000     1.7530 H     1 <1>   0.0800 
 42 H       -9.9460     1.3910     0.2930 H     1 <1>   0.0800 
 43 H      -10.1660     1.8630    -1.3720 H     1 <1>   0.0800 
 44 H       -8.7550     2.4110    -0.5050 H     1 <1>   0.0800 
@<TRIPOS>BOND
  1   1   2  1   
  2   1   3  1   
  3   2   4  1   
  4   2   5  2   
  5   3   6  2   
  6   3   7  1   
  7   4   8  am  
  8   4  24  1   
  9   5   6  1   
 10   5   9  1   
 11   6  10  1   
 12   7  11  1   
 13   7  25  1   
 14   7  26  1   
 15   8  12  2   
 16   8  13  1   
 17   9  14  2   
 18   9  15  am  
 19  10  11  1   
 20  10  27  1   
 21  10  28  1   
 22  11  29  1   
 23  11  30  1   
 24  13  16  1   
 25  13  17  1   
 26  13  31  1   
 27  15  32  1   
 28  15  33  1   
 29  16  18  1   
 30  16  34  1   
 31  16  35  1   
 32  17  19  1   
 33  17  36  1   
 34  17  37  1   
 35  18  20  1   
 36  18  38  1   
 37  18  39  1   
 38  19  20  1   
 39  19  40  1   
 40  19  41  1   
 41  20  21  am  
 42  21  22  2   
 43  21  23  1   
 44  23  42  1   
 45  23  43  1   
 46  23  44  1   
@<TRIPOS>SUBSTRUCTURE
  1 ****   4 GROUP 4 **** **** 0

# MOE 2024.06 (io_trps.svl 2023.06)
