@<TRIPOS>MOLECULE
Structure1653
26 26 1 0 0 
SMALL
USER_CHARGES


@<TRIPOS>ATOM
  1 O       -0.0550    -0.7180    -0.5120 O.co2 1 <1>  -0.9000 
  2 C        0.1440    -1.3280     0.5460 C.2   1 <1>   0.9060 
  3 O       -0.3270    -1.0010     1.6250 O.co2 1 <1>  -0.9000 
  4 C        1.2420    -2.3330     0.5260 C.3   1 <1>  -0.2660 
  5 C        2.5250    -1.5250     0.5380 C.3   1 <1>   0.4230 
  6 N        2.5740    -0.7260    -0.6980 N.4   1 <1>  -0.8530 
  7 C        3.7800    -2.4130     0.6670 C.3   1 <1>  -0.0800 
  8 C        5.1050    -1.6470     0.7280 C.3   1 <1>  -0.1600 
  9 C        3.9860    -3.4670    -0.4360 C.3   1 <1>  -0.1600 
 10 C        6.1540    -2.7140     0.4410 C.3   1 <1>  -0.1600 
 11 C        5.5030    -3.6480    -0.5800 C.3   1 <1>  -0.1600 
 12 H        1.1510    -2.9590    -0.3410 H     1 <1>   0.0800 
 13 H        1.1650    -2.9370     1.4100 H     1 <1>   0.0800 
 14 H        2.4800    -0.8580     1.3860 H     1 <1>   0.0800 
 15 H        2.8350    -1.2970    -1.4980 H     1 <1>   0.4500 
 16 H        3.1520     0.1060    -0.6070 H     1 <1>   0.4500 
 17 H        1.5800    -0.4220    -0.8590 H     1 <1>   0.4500 
 18 H        3.6920    -2.9480     1.5990 H     1 <1>   0.0800 
 19 H        5.2630    -1.1860     1.6890 H     1 <1>   0.0800 
 20 H        5.1610    -0.8950    -0.0390 H     1 <1>   0.0800 
 21 H        3.5790    -3.1530    -1.3800 H     1 <1>   0.0800 
 22 H        3.5170    -4.3970    -0.1580 H     1 <1>   0.0800 
 23 H        6.3600    -3.2640     1.3440 H     1 <1>   0.0800 
 24 H        7.0740    -2.2920     0.0740 H     1 <1>   0.0800 
 25 H        5.8090    -3.3700    -1.5750 H     1 <1>   0.0800 
 26 H        5.7960    -4.6700    -0.4050 H     1 <1>   0.0800 
@<TRIPOS>BOND
  1   1   2  ar  
  2   2   3  ar  
  3   2   4  1   
  4   4   5  1   
  5   4  12  1   
  6   4  13  1   
  7   5   6  1   
  8   5   7  1   
  9   5  14  1   
 10   6  15  1   
 11   6  16  1   
 12   6  17  1   
 13   7   8  1   
 14   7   9  1   
 15   7  18  1   
 16   8  10  1   
 17   8  19  1   
 18   8  20  1   
 19   9  11  1   
 20   9  21  1   
 21   9  22  1   
 22  10  11  1   
 23  10  23  1   
 24  10  24  1   
 25  11  25  1   
 26  11  26  1   
@<TRIPOS>SUBSTRUCTURE
  1 ****   5 GROUP 4 **** **** 0

# MOE 2024.06 (io_trps.svl 2023.06)
