@<TRIPOS>MOLECULE
NONAME
51 52 1 0 0 
SMALL
USER_CHARGES


@<TRIPOS>ATOM
  1 O       -1.2090     1.3240     0.1310 O.3   1 <1>  -0.5600 
  2 C       -1.5860     1.4700     1.4690 C.3   1 <1>   0.1200 
  3 C       -2.0590     0.5240    -0.6380 C.3   1 <1>   0.1200 
  4 C       -2.9880     2.1040     1.5600 C.3   1 <1>   0.3430 
  5 C       -3.4830     1.1110    -0.6450 C.3   1 <1>   0.3430 
  6 N       -4.0010     1.3330     0.7550 N.4   1 <1>  -0.9590 
  7 C       -5.3220     2.0190     0.7760 C.3   1 <1>   0.3430 
  8 C       -6.4210     1.0890     0.2540 C.3   1 <1>  -0.1600 
  9 C       -7.8070     1.7560     0.3760 C.3   1 <1>  -0.1600 
 10 C       -8.9660     0.8780    -0.1250 C.3   1 <1>   0.1200 
 11 O      -10.0890     0.1550    -0.5570 O.3   1 <1>  -0.3630 
 12 C      -11.1710     0.0840     0.2550 C.ar  1 <1>   0.0820 
 13 C      -11.8860    -1.1150     0.4240 C.ar  1 <1>  -0.1430 
 14 C      -11.5640     1.2450     0.9160 C.ar  1 <1>  -0.1500 
 15 C      -12.9760    -1.0750     1.2940 C.ar  1 <1>  -0.1500 
 16 C      -11.5890    -2.4840    -0.2580 C.3   1 <1>   0.1430 
 17 C      -12.6470     1.2440     1.7700 C.ar  1 <1>  -0.1500 
 18 C      -13.3540     0.0760     1.9600 C.ar  1 <1>  -0.1500 
 19 C      -12.8100    -2.9070    -1.0930 C.3   1 <1>  -0.2400 
 20 C      -10.3800    -2.5270    -1.2090 C.3   1 <1>  -0.2400 
 21 C      -11.3260    -3.5470     0.8230 C.3   1 <1>  -0.2400 
 22 H       -0.8600     2.1060     1.9450 H     1 <1>   0.0800 
 23 H       -1.5600     0.5050     1.9450 H     1 <1>   0.0800 
 24 H       -2.0490    -0.4760    -0.2410 H     1 <1>   0.0800 
 25 H       -1.6640     0.4970    -1.6390 H     1 <1>   0.0800 
 26 H       -2.9230     3.1150     1.1930 H     1 <1>   0.0800 
 27 H       -3.2910     2.1460     2.5940 H     1 <1>   0.0800 
 28 H       -4.1360     0.4430    -1.1810 H     1 <1>   0.0800 
 29 H       -3.4590     2.0480    -1.1760 H     1 <1>   0.0800 
 30 H       -4.1070     0.4110     1.1980 H     1 <1>   0.4500 
 31 H       -5.2840     2.9150     0.1770 H     1 <1>   0.0800 
 32 H       -5.5640     2.3030     1.7880 H     1 <1>   0.0800 
 33 H       -6.4190     0.1770     0.8270 H     1 <1>   0.0800 
 34 H       -6.2420     0.8510    -0.7790 H     1 <1>   0.0800 
 35 H       -7.8140     2.6760    -0.1840 H     1 <1>   0.0800 
 36 H       -7.9970     2.0060     1.4070 H     1 <1>   0.0800 
 37 H       -8.6630     0.0770     0.5280 H     1 <1>   0.0800 
 38 H       -8.4890     0.7580    -1.0810 H     1 <1>   0.0800 
 39 H      -11.0330     2.1650     0.7600 H     1 <1>   0.1500 
 40 H      -13.5630    -1.9570     1.4710 H     1 <1>   0.1500 
 41 H      -12.9420     2.1450     2.2780 H     1 <1>   0.1500 
 42 H      -14.2010     0.0610     2.6230 H     1 <1>   0.1500 
 43 H      -13.0250    -2.1540    -1.8300 H     1 <1>   0.0800 
 44 H      -13.6830    -3.0380    -0.4820 H     1 <1>   0.0800 
 45 H      -12.6230    -3.8370    -1.6000 H     1 <1>   0.0800 
 46 H      -10.5150    -1.8330    -2.0190 H     1 <1>   0.0800 
 47 H      -10.2600    -3.5080    -1.6330 H     1 <1>   0.0800 
 48 H       -9.4770    -2.2840    -0.6800 H     1 <1>   0.0800 
 49 H      -12.1830    -3.6930     1.4530 H     1 <1>   0.0800 
 50 H      -10.5020    -3.2410     1.4420 H     1 <1>   0.0800 
 51 H      -11.0850    -4.4950     0.3760 H     1 <1>   0.0800 
@<TRIPOS>BOND
  1   1   2  1   
  2   1   3  1   
  3   2   4  1   
  4   2  22  1   
  5   2  23  1   
  6   3   5  1   
  7   3  24  1   
  8   3  25  1   
  9   4   6  1   
 10   4  26  1   
 11   4  27  1   
 12   5   6  1   
 13   5  28  1   
 14   5  29  1   
 15   6   7  1   
 16   6  30  1   
 17   7   8  1   
 18   7  31  1   
 19   7  32  1   
 20   8   9  1   
 21   8  33  1   
 22   8  34  1   
 23   9  10  1   
 24   9  35  1   
 25   9  36  1   
 26  10  11  1   
 27  10  37  1   
 28  10  38  1   
 29  11  12  1   
 30  12  13  ar  
 31  12  14  ar  
 32  13  15  ar  
 33  13  16  1   
 34  14  17  ar  
 35  14  39  1   
 36  15  18  ar  
 37  15  40  1   
 38  16  19  1   
 39  16  20  1   
 40  16  21  1   
 41  17  18  ar  
 42  17  41  1   
 43  18  42  1   
 44  19  43  1   
 45  19  44  1   
 46  19  45  1   
 47  20  46  1   
 48  20  47  1   
 49  20  48  1   
 50  21  49  1   
 51  21  50  1   
 52  21  51  1   
@<TRIPOS>SUBSTRUCTURE
  1 ****  10 GROUP 4 **** **** 0

# MOE 2024.06 (io_trps.svl 2023.06)
