@<TRIPOS>MOLECULE
NONAME
32 35 1 0 0 
SMALL
USER_CHARGES


@<TRIPOS>ATOM
  1 BR       0.2230     0.2920    -0.6220 Br    1 <1>  -0.1110 
  2 C       -1.5110     1.1190    -0.4930 C.ar  1 <1>   0.1110 
  3 C       -1.5990     2.4180    -0.0320 C.ar  1 <1>  -0.1500 
  4 C       -2.6260     0.3940    -0.8640 C.ar  1 <1>  -0.1500 
  5 C       -2.8490     3.0050     0.0580 C.ar  1 <1>  -0.1500 
  6 C       -3.8690     0.9950    -0.7690 C.ar  1 <1>  -0.1500 
  7 C       -4.0000     2.3060    -0.3080 C.ar  1 <1>   0.1170 
  8 N       -5.2750     2.9140    -0.2140 N.am  1 <1>  -0.2370 
  9 C       -6.4550     2.2780     0.1470 C.2   1 <1>   0.5690 
 10 C       -5.5610     4.2470    -0.4690 C.2   1 <1>   0.5690 
 11 O       -6.5980     1.1900     0.6400 O.2   1 <1>  -0.5700 
 12 C       -7.5830     3.1830    -0.2440 C.3   1 <1>  -0.0190 
 13 O       -4.8690     5.0760    -1.0010 O.2   1 <1>  -0.5700 
 14 C       -6.9220     4.5150     0.0880 C.3   1 <1>  -0.0190 
 15 C       -9.0430     3.5070     0.1240 C.3   1 <1>   0.4180 
 16 C       -8.1220     5.4530     0.0230 C.3   1 <1>   0.3380 
 17 O       -8.9170     4.6750     0.8680 O.3   1 <1>  -0.5600 
 18 C       -9.6040     4.1550    -1.1240 C.2   1 <1>  -0.2880 
 19 C       -9.8970     2.4740     0.8410 C.3   1 <1>  -0.2400 
 20 C       -8.9870     5.3310    -1.2200 C.2   1 <1>  -0.2880 
 21 H       -0.7100     2.9550     0.2470 H     1 <1>   0.1500 
 22 H       -2.5220    -0.6170    -1.2170 H     1 <1>   0.1500 
 23 H       -2.9250     4.0180     0.4130 H     1 <1>   0.1500 
 24 H       -4.7420     0.4350    -1.0540 H     1 <1>   0.1500 
 25 H       -7.5980     3.0310    -1.3120 H     1 <1>   0.0800 
 26 H       -6.6890     4.5460     1.1430 H     1 <1>   0.0800 
 27 H       -7.9990     6.4410     0.4340 H     1 <1>   0.0800 
 28 H      -10.3190     3.6500    -1.7490 H     1 <1>   0.1500 
 29 H       -9.4200     2.1760     1.7570 H     1 <1>   0.0800 
 30 H      -10.0180     1.6070     0.2190 H     1 <1>   0.0800 
 31 H      -10.8660     2.8870     1.0560 H     1 <1>   0.0800 
 32 H       -9.0240     6.1160    -1.9550 H     1 <1>   0.1500 
@<TRIPOS>BOND
  1   1   2  1   
  2   2   3  ar  
  3   2   4  ar  
  4   3   5  ar  
  5   3  21  1   
  6   4   6  ar  
  7   4  22  1   
  8   5   7  ar  
  9   5  23  1   
 10   6   7  ar  
 11   6  24  1   
 12   7   8  1   
 13   8   9  am  
 14   8  10  am  
 15   9  11  2   
 16   9  12  1   
 17  10  13  2   
 18  10  14  1   
 19  12  14  1   
 20  12  15  1   
 21  12  25  1   
 22  14  16  1   
 23  14  26  1   
 24  15  17  1   
 25  15  18  1   
 26  15  19  1   
 27  16  17  1   
 28  16  20  1   
 29  16  27  1   
 30  18  20  2   
 31  18  28  1   
 32  19  29  1   
 33  19  30  1   
 34  19  31  1   
 35  20  32  1   
@<TRIPOS>SUBSTRUCTURE
  1 ****   8 GROUP 4 **** **** 0

# MOE 2024.06 (io_trps.svl 2023.06)
