@<TRIPOS>MOLECULE
NONAME
42 45 1 0 0 
SMALL
USER_CHARGES


@<TRIPOS>ATOM
  1 O       -0.1110    -0.5600     0.9760 O.2   1 <1>  -0.5700 
  2 C       -0.0620    -1.6150     0.3510 C.2   1 <1>   0.8660 
  3 N       -1.1970    -2.3230     0.1490 N.2   1 <1>  -0.6610 
  4 C        1.1790    -2.0700    -0.1500 C.2   1 <1>  -0.2370 
  5 C       -1.1080    -3.4430    -0.5150 C.2   1 <1>   0.5500 
  6 N        2.4540    -1.6130    -0.1250 N.pl3 1 <1>   0.0480 
  7 C        1.2190    -3.2190    -0.8390 C.2   1 <1>   0.3100 
  8 N        0.0610    -3.9060    -1.0230 N.pl3 1 <1>  -0.5330 
  9 N       -2.2240    -4.1990    -0.7320 N.pl3 1 <1>  -0.7880 
 10 C        3.1570    -2.5460    -0.8160 C.2   1 <1>   0.0360 
 11 C        2.9100    -0.3640     0.5280 C.3   1 <1>   0.2390 
 12 N        2.4420    -3.5350    -1.2660 N.2   1 <1>  -0.5650 
 13 C       -2.2150    -5.6860    -0.8300 C.3   1 <1>   0.2090 
 14 C       -3.5930    -3.6160    -0.6170 C.3   1 <1>   0.2090 
 15 C        4.4060    -0.1550     0.3470 C.ar  1 <1>  -0.1430 
 16 C       -2.9090    -6.2850     0.3990 C.3   1 <1>  -0.1600 
 17 C       -4.2940    -4.1910     0.6180 C.3   1 <1>  -0.1600 
 18 C        4.8880     0.5340    -0.7560 C.ar  1 <1>  -0.1500 
 19 C        5.3010    -0.6610     1.2790 C.ar  1 <1>  -0.1500 
 20 C       -4.3270    -5.7250     0.5870 C.3   1 <1>  -0.1600 
 21 C        6.2500     0.7160    -0.9250 C.ar  1 <1>  -0.1500 
 22 C        6.6620    -0.4790     1.1100 C.ar  1 <1>  -0.1500 
 23 C        7.1370     0.2100     0.0080 C.ar  1 <1>  -0.1500 
 24 H        0.0760    -4.7270    -1.6150 H     1 <1>   0.4000 
 25 H        4.2200    -2.4570    -0.9710 H     1 <1>   0.1500 
 26 H        2.6670    -0.4160     1.5740 H     1 <1>   0.0800 
 27 H        2.3680     0.4620     0.1020 H     1 <1>   0.0800 
 28 H       -1.2100    -6.0670    -0.8810 H     1 <1>   0.0800 
 29 H       -2.7340    -5.9830    -1.7250 H     1 <1>   0.0800 
 30 H       -4.1530    -3.8640    -1.5020 H     1 <1>   0.0800 
 31 H       -3.5520    -2.5430    -0.5470 H     1 <1>   0.0800 
 32 H       -2.3160    -6.0630     1.2690 H     1 <1>   0.0800 
 33 H       -2.9530    -7.3540     0.2970 H     1 <1>   0.0800 
 34 H       -5.2960    -3.8060     0.6680 H     1 <1>   0.0800 
 35 H       -3.7680    -3.8530     1.4940 H     1 <1>   0.0800 
 36 H        4.2080     0.9310    -1.4910 H     1 <1>   0.1500 
 37 H        4.9440    -1.2010     2.1400 H     1 <1>   0.1500 
 38 H       -4.7470    -6.0990     1.5050 H     1 <1>   0.0800 
 39 H       -4.9520    -6.0530    -0.2260 H     1 <1>   0.0800 
 40 H        6.6190     1.2510    -1.7830 H     1 <1>   0.1500 
 41 H        7.3520    -0.8730     1.8350 H     1 <1>   0.1500 
 42 H        8.1960     0.3520    -0.1240 H     1 <1>   0.1500 
@<TRIPOS>BOND
  1   1   2  2   
  2   2   3  1   
  3   2   4  1   
  4   3   5  2   
  5   4   6  1   
  6   4   7  2   
  7   5   8  1   
  8   5   9  1   
  9   6  10  1   
 10   6  11  1   
 11   7   8  1   
 12   7  12  1   
 13   8  24  1   
 14   9  13  1   
 15   9  14  1   
 16  10  12  2   
 17  10  25  1   
 18  11  15  1   
 19  11  26  1   
 20  11  27  1   
 21  13  16  1   
 22  13  28  1   
 23  13  29  1   
 24  14  17  1   
 25  14  30  1   
 26  14  31  1   
 27  15  18  ar  
 28  15  19  ar  
 29  16  20  1   
 30  16  32  1   
 31  16  33  1   
 32  17  20  1   
 33  17  34  1   
 34  17  35  1   
 35  18  21  ar  
 36  18  36  1   
 37  19  22  ar  
 38  19  37  1   
 39  20  38  1   
 40  20  39  1   
 41  21  23  ar  
 42  21  40  1   
 43  22  23  ar  
 44  22  41  1   
 45  23  42  1   
@<TRIPOS>SUBSTRUCTURE
  1 ****   4 GROUP 4 **** **** 0

# MOE 2024.06 (io_trps.svl 2023.06)
