@<TRIPOS>MOLECULE
NONAME
31 32 1 0 0 
SMALL
USER_CHARGES


@<TRIPOS>ATOM
  1 S       -0.0060    -0.7300     0.4250 S.3   1 <1>  -0.2860 
  2 C       -1.6500    -0.0460     0.2800 C.2   1 <1>   0.2420 
  3 C        1.0750     0.6810    -0.0710 C.3   1 <1>   0.0700 
  4 N       -1.8940     1.1590    -0.0940 N.2   1 <1>  -0.5650 
  5 N       -2.7260    -0.8070     0.5700 N.pl3 1 <1>   0.0330 
  6 C        2.5330     0.2200     0.0110 C.3   1 <1>  -0.1600 
  7 C       -3.2560     1.2180    -0.0530 C.ar  1 <1>   0.2270 
  8 C       -3.7930     0.0060     0.3570 C.ar  1 <1>  -0.1520 
  9 C        3.5260     1.2880    -0.4780 C.3   1 <1>  -0.0800 
 10 C       -4.1030     2.2820    -0.3550 C.ar  1 <1>  -0.1500 
 11 C       -5.1720    -0.1740     0.4750 C.ar  1 <1>  -0.1500 
 12 C        4.9450     0.7080    -0.4950 C.3   1 <1>  -0.2400 
 13 C        3.4970     2.5460     0.4010 C.3   1 <1>  -0.2400 
 14 C       -5.4670     2.1130    -0.2410 C.ar  1 <1>  -0.1500 
 15 C       -5.9990     0.8860     0.1740 C.ar  1 <1>  -0.1500 
 16 H        0.8630     1.4890     0.6070 H     1 <1>   0.0800 
 17 H        0.7950     0.9570    -1.0720 H     1 <1>   0.0800 
 18 H       -2.7160    -1.7800     0.8790 H     1 <1>   0.2700 
 19 H        2.6410    -0.6610    -0.5980 H     1 <1>   0.0800 
 20 H        2.7600    -0.0500     1.0270 H     1 <1>   0.0800 
 21 H        3.2660     1.5680    -1.4870 H     1 <1>   0.0800 
 22 H       -3.6690     3.2120    -0.6710 H     1 <1>   0.1500 
 23 H       -5.5730    -1.1200     0.7940 H     1 <1>   0.1500 
 24 H        5.2480     0.4170     0.4960 H     1 <1>   0.0800 
 25 H        5.6430     1.4380    -0.8660 H     1 <1>   0.0800 
 26 H        4.9900    -0.1550    -1.1350 H     1 <1>   0.0800 
 27 H        3.7030     2.2950     1.4270 H     1 <1>   0.0800 
 28 H        2.5380     3.0290     0.3490 H     1 <1>   0.0800 
 29 H        4.2380     3.2500     0.0660 H     1 <1>   0.0800 
 30 H       -6.1340     2.9250    -0.4710 H     1 <1>   0.1500 
 31 H       -7.0670     0.7800     0.2540 H     1 <1>   0.1500 
@<TRIPOS>BOND
  1   1   2  1   
  2   1   3  1   
  3   2   4  2   
  4   2   5  1   
  5   3   6  1   
  6   3  16  1   
  7   3  17  1   
  8   4   7  1   
  9   5   8  1   
 10   5  18  1   
 11   6   9  1   
 12   6  19  1   
 13   6  20  1   
 14   7   8  ar  
 15   7  10  ar  
 16   8  11  ar  
 17   9  12  1   
 18   9  13  1   
 19   9  21  1   
 20  10  14  ar  
 21  10  22  1   
 22  11  15  ar  
 23  11  23  1   
 24  12  24  1   
 25  12  25  1   
 26  12  26  1   
 27  13  27  1   
 28  13  28  1   
 29  13  29  1   
 30  14  15  ar  
 31  14  30  1   
 32  15  31  1   
@<TRIPOS>SUBSTRUCTURE
  1 ****   4 GROUP 4 **** **** 0

# MOE 2024.06 (io_trps.svl 2023.06)
