@<TRIPOS>MOLECULE
Structure2171
40 40 1 0 0 
SMALL
USER_CHARGES


@<TRIPOS>ATOM
  1 O       -0.2400     0.7240     0.6170 O.2   1 <1>  -0.5700 
  2 C        0.3360     1.6980     0.1740 C.2   1 <1>   0.7800 
  3 O        1.6420     1.6700    -0.1050 O.3   1 <1>  -0.4300 
  4 N       -0.3100     2.8770    -0.0470 N.am  1 <1>  -0.6600 
  5 C        2.5130     0.5670     0.0120 C.3   1 <1>   0.2800 
  6 C       -1.7810     3.0360     0.1260 C.3   1 <1>   0.2810 
  7 C        0.3380     4.1370    -0.4440 C.3   1 <1>   0.1400 
  8 C        3.8740     1.0830    -0.4580 C.3   1 <1>  -0.2400 
  9 C        2.6190     0.1260     1.4770 C.3   1 <1>  -0.2400 
 10 C        2.0570    -0.5690    -0.9110 C.3   1 <1>  -0.2400 
 11 C       -2.6410     2.0650    -0.7130 C.2   1 <1>   0.5690 
 12 C       -2.0370     4.5070    -0.2350 C.3   1 <1>  -0.1600 
 13 C       -0.6860     5.2060    -0.0830 C.3   1 <1>  -0.1600 
 14 O       -2.3900     1.9240    -1.8970 O.2   1 <1>  -0.5700 
 15 N       -3.6960     1.4120    -0.1250 N.am  1 <1>  -0.3250 
 16 O       -4.1270     1.6990     1.1760 O.3   1 <1>  -0.3160 
 17 C       -4.3970     0.2610    -0.7390 C.3   1 <1>   0.0600 
 18 C       -5.1910     2.6220     1.1980 C.3   1 <1>   0.0400 
 19 H       -1.9920     2.8870     1.1690 H     1 <1>   0.0800 
 20 H        1.2700     4.2790     0.0770 H     1 <1>   0.0800 
 21 H        0.5110     4.1190    -1.5070 H     1 <1>   0.0800 
 22 H        4.6090     0.3020    -0.4050 H     1 <1>   0.0800 
 23 H        4.1970     1.8980     0.1630 H     1 <1>   0.0800 
 24 H        3.8100     1.4210    -1.4770 H     1 <1>   0.0800 
 25 H        2.8680     0.9640     2.1020 H     1 <1>   0.0800 
 26 H        3.3870    -0.6190     1.5810 H     1 <1>   0.0800 
 27 H        1.6980    -0.3080     1.8190 H     1 <1>   0.0800 
 28 H        2.7970    -1.3480    -0.9290 H     1 <1>   0.0800 
 29 H        1.9200    -0.2040    -1.9130 H     1 <1>   0.0800 
 30 H        1.1370    -1.0040    -0.5670 H     1 <1>   0.0800 
 31 H       -2.3570     4.5710    -1.2610 H     1 <1>   0.0800 
 32 H       -2.7940     4.9410     0.3920 H     1 <1>   0.0800 
 33 H       -0.5360     5.5000     0.9410 H     1 <1>   0.0800 
 34 H       -0.5980     6.0720    -0.7150 H     1 <1>   0.0800 
 35 H       -3.9050    -0.0330    -1.6490 H     1 <1>   0.0800 
 36 H       -5.4140     0.5310    -0.9580 H     1 <1>   0.0800 
 37 H       -4.3850    -0.5670    -0.0540 H     1 <1>   0.0800 
 38 H       -4.8850     3.5250     0.7020 H     1 <1>   0.0800 
 39 H       -6.0400     2.1890     0.7000 H     1 <1>   0.0800 
 40 H       -5.4340     2.8280     2.2250 H     1 <1>   0.0800 
@<TRIPOS>BOND
  1   1   2  2   
  2   2   3  1   
  3   2   4  am  
  4   3   5  1   
  5   4   6  1   
  6   4   7  1   
  7   5   8  1   
  8   5   9  1   
  9   5  10  1   
 10   6  11  1   
 11   6  12  1   
 12   6  19  1   
 13   7  13  1   
 14   7  20  1   
 15   7  21  1   
 16   8  22  1   
 17   8  23  1   
 18   8  24  1   
 19   9  25  1   
 20   9  26  1   
 21   9  27  1   
 22  10  28  1   
 23  10  29  1   
 24  10  30  1   
 25  11  14  2   
 26  11  15  am  
 27  12  13  1   
 28  12  31  1   
 29  12  32  1   
 30  13  33  1   
 31  13  34  1   
 32  15  16  1   
 33  15  17  1   
 34  16  18  1   
 35  17  35  1   
 36  17  36  1   
 37  17  37  1   
 38  18  38  1   
 39  18  39  1   
 40  18  40  1   
@<TRIPOS>SUBSTRUCTURE
  1 ****   4 GROUP 4 **** **** 0

# MOE 2024.06 (io_trps.svl 2023.06)
