@<TRIPOS>MOLECULE
NONAME
23 24 1 0 0 
SMALL
USER_CHARGES


@<TRIPOS>ATOM
  1 S        0.3830     0.3150    -1.0540 S.3   1 <1>   0.0000 
  2 S        0.4400     1.1250     0.8680 S.3   1 <1>   0.0000 
  3 S       -1.3110    -0.8880    -0.7720 S.3   1 <1>  -0.2300 
  4 S       -1.2210     2.3860     0.6610 S.3   1 <1>  -0.2300 
  5 C       -2.6020     0.3920    -0.7010 C.3   1 <1>   0.1500 
  6 C       -2.5590     1.1530     0.6480 C.3   1 <1>   0.1500 
  7 C       -3.9750    -0.2780    -0.8330 C.3   1 <1>  -0.2410 
  8 C       -3.9000     1.8710     0.8400 C.3   1 <1>  -0.2410 
  9 SI      -5.1030     0.8170     0.0300 Si    1 <1>   0.3220 
 10 C       -6.1240     1.7580    -1.1180 C.3   1 <1>  -0.3200 
 11 C       -6.1050    -0.0890     1.2220 C.3   1 <1>  -0.3200 
 12 H       -2.4340     1.0700    -1.5190 H     1 <1>   0.0800 
 13 H       -2.3780     0.4680     1.4590 H     1 <1>   0.0800 
 14 H       -3.9290    -1.2420    -0.3590 H     1 <1>   0.0800 
 15 H       -4.1990    -0.4320    -1.8720 H     1 <1>   0.0800 
 16 H       -3.8410     2.8330     0.3640 H     1 <1>   0.0800 
 17 H       -4.0720     2.0320     1.8890 H     1 <1>   0.0800 
 18 H       -5.5380     2.3000    -1.8370 H     1 <1>   0.0800 
 19 H       -6.7380     2.4830    -0.6140 H     1 <1>   0.0800 
 20 H       -6.7910     1.1290    -1.6770 H     1 <1>   0.0800 
 21 H       -5.5070    -0.6520     1.9150 H     1 <1>   0.0800 
 22 H       -6.7650    -0.7900     0.7460 H     1 <1>   0.0800 
 23 H       -6.7240     0.5640     1.8100 H     1 <1>   0.0800 
@<TRIPOS>BOND
  1   1   2  1   
  2   1   3  1   
  3   2   4  1   
  4   3   5  1   
  5   4   6  1   
  6   5   6  1   
  7   5   7  1   
  8   5  12  1   
  9   6   8  1   
 10   6  13  1   
 11   7   9  1   
 12   7  14  1   
 13   7  15  1   
 14   8   9  1   
 15   8  16  1   
 16   8  17  1   
 17   9  10  1   
 18   9  11  1   
 19  10  18  1   
 20  10  19  1   
 21  10  20  1   
 22  11  21  1   
 23  11  22  1   
 24  11  23  1   
@<TRIPOS>SUBSTRUCTURE
  1 ****   6 GROUP 4 **** **** 0

# MOE 2024.06 (io_trps.svl 2023.06)
