@<TRIPOS>MOLECULE
NONAME
45 47 1 0 0 
SMALL
USER_CHARGES


@<TRIPOS>ATOM
  1 O        1.3380     0.9990     2.7280 O.2   1 <1>  -0.5700 
  2 C        0.4050     1.6450     2.3200 C.2   1 <1>   0.5690 
  3 N       -0.8420     1.5370     2.8070 N.am  1 <1>  -0.7300 
  4 C        0.4990     2.7010     1.2410 C.3   1 <1>   0.1220 
  5 C       -1.8050     2.4030     2.1240 C.3   1 <1>   0.1400 
  6 C        0.6550     1.9220    -0.0640 C.2   1 <1>   0.6590 
  7 C       -0.9020     3.3820     1.3490 C.3   1 <1>   0.0630 
  8 C        1.7070     3.6300     1.5750 C.3   1 <1>  -0.0170 
  9 O        0.0730     0.8830    -0.2680 O.2   1 <1>  -0.5700 
 10 O        1.4360     2.4500    -0.9990 O.3   1 <1>  -0.4300 
 11 C       -1.5270     3.8800     0.0370 C.ar  1 <1>  -0.1440 
 12 C        1.5860     5.0950     1.1600 C.ar  1 <1>  -0.1430 
 13 C        1.5800     1.8540    -2.2670 C.3   1 <1>   0.1200 
 14 C       -2.1330     3.0230    -0.8740 C.ar  1 <1>  -0.1500 
 15 C       -1.4950     5.2360    -0.2550 C.ar  1 <1>  -0.1500 
 16 C        1.2290     6.0500     2.1020 C.ar  1 <1>  -0.1500 
 17 C        1.8490     5.5010    -0.1400 C.ar  1 <1>  -0.1500 
 18 C        2.4830     2.7480    -3.1100 C.3   1 <1>  -0.2400 
 19 C       -2.6860     3.5090    -2.0460 C.ar  1 <1>  -0.1500 
 20 C       -2.0460     5.7260    -1.4260 C.ar  1 <1>  -0.1500 
 21 C        1.1200     7.3840     1.7480 C.ar  1 <1>  -0.1500 
 22 C        1.7380     6.8330    -0.4970 C.ar  1 <1>  -0.1500 
 23 C       -2.6430     4.8620    -2.3240 C.ar  1 <1>  -0.1500 
 24 C        1.3720     7.7760     0.4460 C.ar  1 <1>  -0.1500 
 25 H       -1.1100     0.7890     3.4520 H     1 <1>   0.3700 
 26 H       -2.4300     2.9230     2.8310 H     1 <1>   0.0800 
 27 H       -2.4150     1.8050     1.4710 H     1 <1>   0.0800 
 28 H       -0.8060     4.2290     2.0030 H     1 <1>   0.0800 
 29 H        2.6080     3.2160     1.1570 H     1 <1>   0.0800 
 30 H        1.8590     3.6200     2.6410 H     1 <1>   0.0800 
 31 H        0.6040     1.7630    -2.7130 H     1 <1>   0.0800 
 32 H        2.0120     0.8760    -2.1360 H     1 <1>   0.0800 
 33 H       -2.1820     1.9630    -0.6940 H     1 <1>   0.1500 
 34 H       -1.0350     5.9310     0.4250 H     1 <1>   0.1500 
 35 H        1.0360     5.7640     3.1210 H     1 <1>   0.1500 
 36 H        2.1440     4.7890    -0.8870 H     1 <1>   0.1500 
 37 H        2.0320     3.7160    -3.2340 H     1 <1>   0.0800 
 38 H        2.6220     2.3090    -4.0810 H     1 <1>   0.0800 
 39 H        3.4450     2.8530    -2.6410 H     1 <1>   0.0800 
 40 H       -3.1490     2.8310    -2.7420 H     1 <1>   0.1500 
 41 H       -2.0060     6.7800    -1.6360 H     1 <1>   0.1500 
 42 H        0.8420     8.1160     2.4860 H     1 <1>   0.1500 
 43 H        1.9390     7.1340    -1.5100 H     1 <1>   0.1500 
 44 H       -3.0720     5.2410    -3.2360 H     1 <1>   0.1500 
 45 H        1.2870     8.8120     0.1680 H     1 <1>   0.1500 
@<TRIPOS>BOND
  1   1   2  2   
  2   2   3  am  
  3   2   4  1   
  4   3   5  1   
  5   3  25  1   
  6   4   6  1   
  7   4   7  1   
  8   4   8  1   
  9   5   7  1   
 10   5  26  1   
 11   5  27  1   
 12   6   9  2   
 13   6  10  1   
 14   7  11  1   
 15   7  28  1   
 16   8  12  1   
 17   8  29  1   
 18   8  30  1   
 19  10  13  1   
 20  11  14  ar  
 21  11  15  ar  
 22  12  16  ar  
 23  12  17  ar  
 24  13  18  1   
 25  13  31  1   
 26  13  32  1   
 27  14  19  ar  
 28  14  33  1   
 29  15  20  ar  
 30  15  34  1   
 31  16  21  ar  
 32  16  35  1   
 33  17  22  ar  
 34  17  36  1   
 35  18  37  1   
 36  18  38  1   
 37  18  39  1   
 38  19  23  ar  
 39  19  40  1   
 40  20  23  ar  
 41  20  41  1   
 42  21  24  ar  
 43  21  42  1   
 44  22  24  ar  
 45  22  43  1   
 46  23  44  1   
 47  24  45  1   
@<TRIPOS>SUBSTRUCTURE
  1 ****   4 GROUP 4 **** **** 0

# MOE 2024.06 (io_trps.svl 2023.06)
