@<TRIPOS>MOLECULE
NONAME
43 44 1 0 0 
SMALL
USER_CHARGES


@<TRIPOS>ATOM
  1 N       -0.0940    -0.3620    -1.1530 N.3   1 <1>  -0.8100 
  2 C        0.2910    -1.7000    -0.6280 C.3   1 <1>   0.1100 
  3 C        0.6110    -0.0740    -2.4220 C.3   1 <1>   0.1100 
  4 C       -1.5580    -0.2210    -1.2900 C.3   1 <1>   0.2540 
  5 C        1.8240    -1.8950    -0.5570 C.3   1 <1>   0.3430 
  6 C        2.1510    -0.1340    -2.2590 C.3   1 <1>   0.3430 
  7 C       -2.2420    -0.4110     0.0550 C.ar  1 <1>  -0.1440 
  8 N        2.5360    -0.6200    -0.8950 N.4   1 <1>  -0.9590 
  9 C       -1.9980     0.4770     1.0920 C.ar  1 <1>  -0.1500 
 10 C       -3.1110    -1.4730     0.2620 C.ar  1 <1>  -0.1500 
 11 C        3.9930    -0.6690    -0.6510 C.3   1 <1>   0.4810 
 12 C       -2.6110     0.3060     2.3210 C.ar  1 <1>  -0.1500 
 13 C       -3.7240    -1.6460     1.4920 C.ar  1 <1>  -0.1500 
 14 C        4.2240    -0.9970     0.8150 C.2   1 <1>  -0.2760 
 15 C       -3.4730    -0.7560     2.5220 C.ar  1 <1>  -0.1500 
 16 C        4.7350    -2.1800     1.1840 C.2   1 <1>  -0.2880 
 17 C        3.8340     0.1430     1.7590 C.3   1 <1>  -0.1020 
 18 C        5.0340    -2.6980     2.5840 C.3   1 <1>  -0.1020 
 19 H       -0.1070    -1.8230     0.3660 H     1 <1>   0.0800 
 20 H       -0.1360    -2.4760    -1.2410 H     1 <1>   0.0800 
 21 H        0.3070    -0.7810    -3.1760 H     1 <1>   0.0800 
 22 H        0.3380     0.9080    -2.7710 H     1 <1>   0.0800 
 23 H       -1.7910     0.7650    -1.6550 H     1 <1>   0.0800 
 24 H       -1.9330    -0.9380    -2.0010 H     1 <1>   0.0800 
 25 H        2.1190    -2.6740    -1.2400 H     1 <1>   0.0800 
 26 H        2.0880    -2.2160     0.4380 H     1 <1>   0.0800 
 27 H        2.5550     0.8520    -2.4200 H     1 <1>   0.0800 
 28 H        2.5610    -0.7840    -3.0140 H     1 <1>   0.0800 
 29 H        2.1160     0.0590    -0.2450 H     1 <1>   0.4500 
 30 H       -1.3270     1.3040     0.9410 H     1 <1>   0.1500 
 31 H       -3.3180    -2.1720    -0.5290 H     1 <1>   0.1500 
 32 H        4.4410    -1.4290    -1.2680 H     1 <1>   0.0800 
 33 H        4.4480     0.2790    -0.8880 H     1 <1>   0.0800 
 34 H       -2.4180     1.0000     3.1200 H     1 <1>   0.1500 
 35 H       -4.3970    -2.4710     1.6480 H     1 <1>   0.1500 
 36 H       -3.9510    -0.8900     3.4770 H     1 <1>   0.1500 
 37 H        5.0020    -2.9280     0.4540 H     1 <1>   0.1500 
 38 H        4.3170     1.0560     1.4580 H     1 <1>   0.0800 
 39 H        4.1300    -0.0510     2.7720 H     1 <1>   0.0800 
 40 H        2.7700     0.2970     1.7550 H     1 <1>   0.0800 
 41 H        4.5180    -3.6280     2.7460 H     1 <1>   0.0800 
 42 H        4.7340    -2.0160     3.3560 H     1 <1>   0.0800 
 43 H        6.0900    -2.8770     2.6870 H     1 <1>   0.0800 
@<TRIPOS>BOND
  1   1   2  1   
  2   1   3  1   
  3   1   4  1   
  4   2   5  1   
  5   2  19  1   
  6   2  20  1   
  7   3   6  1   
  8   3  21  1   
  9   3  22  1   
 10   4   7  1   
 11   4  23  1   
 12   4  24  1   
 13   5   8  1   
 14   5  25  1   
 15   5  26  1   
 16   6   8  1   
 17   6  27  1   
 18   6  28  1   
 19   7   9  ar  
 20   7  10  ar  
 21   8  11  1   
 22   8  29  1   
 23   9  12  ar  
 24   9  30  1   
 25  10  13  ar  
 26  10  31  1   
 27  11  14  1   
 28  11  32  1   
 29  11  33  1   
 30  12  15  ar  
 31  12  34  1   
 32  13  15  ar  
 33  13  35  1   
 34  14  16  2   
 35  14  17  1   
 36  15  36  1   
 37  16  18  1   
 38  16  37  1   
 39  17  38  1   
 40  17  39  1   
 41  17  40  1   
 42  18  41  1   
 43  18  42  1   
 44  18  43  1   
@<TRIPOS>SUBSTRUCTURE
  1 ****   2 GROUP 4 **** **** 0

# MOE 2024.06 (io_trps.svl 2023.06)
