@<TRIPOS>MOLECULE
NONAME
47 48 1 0 0 
SMALL
USER_CHARGES


@<TRIPOS>ATOM
  1 O       -6.6770     0.8570    -0.8240 O.2   1 <1>  -0.5700 
  2 C       -6.7050     1.9550    -0.2980 C.2   1 <1>   0.6160 
  3 N       -5.5680     2.3010     0.3480 N.am  1 <1>  -0.8000 
  4 C       -7.8660     2.7990    -0.3080 C.2   1 <1>  -0.1240 
  5 C       -7.8390     4.1740    -0.3710 C.2   1 <1>   0.0720 
  6 C       -9.1850     2.0190    -0.1610 C.3   1 <1>  -0.0220 
  7 N       -6.6230     4.8440    -0.3690 N.pl3 1 <1>  -0.8690 
  8 C       -8.9880     5.0760    -0.3880 C.ar  1 <1>   0.0280 
  9 C       -9.8420     2.2770     1.2060 C.3   1 <1>  -0.1600 
 10 C       -6.4340     6.1830     0.2130 C.3   1 <1>   0.3690 
 11 C       -8.9430     6.2270     0.4030 C.ar  1 <1>  -0.1430 
 12 C      -10.1220     4.8970    -1.1810 C.ar  1 <1>  -0.1500 
 13 C      -11.1360     1.4730     1.4290 C.3   1 <1>  -0.0800 
 14 C       -7.6360     6.5200     1.1260 C.3   1 <1>  -0.0170 
 15 C       -5.1360     6.1490     1.0170 C.3   1 <1>  -0.2400 
 16 C       -6.3070     7.1660    -0.9500 C.3   1 <1>  -0.2400 
 17 C      -10.0220     7.0900     0.4880 C.ar  1 <1>  -0.1500 
 18 C      -11.2020     5.7560    -1.1050 C.ar  1 <1>  -0.1500 
 19 C      -12.2560     1.9120     0.4760 C.3   1 <1>  -0.2400 
 20 C      -11.6070     1.6460     2.8780 C.3   1 <1>  -0.2400 
 21 C      -11.1610     6.8480    -0.2570 C.ar  1 <1>  -0.1500 
 22 H       -4.8520     1.5870     0.4730 H     1 <1>   0.3700 
 23 H       -5.5860     3.0880     0.9970 H     1 <1>   0.3700 
 24 H       -9.0130     0.9600    -0.2400 H     1 <1>   0.0800 
 25 H       -9.8500     2.2570    -0.9620 H     1 <1>   0.0800 
 26 H       -5.7690     4.3400    -0.6310 H     1 <1>   0.4000 
 27 H      -10.0580     3.3250     1.3210 H     1 <1>   0.0800 
 28 H       -9.1310     2.0120     1.9690 H     1 <1>   0.0800 
 29 H      -10.1580     4.0880    -1.8820 H     1 <1>   0.1500 
 30 H      -10.9310     0.4270     1.2660 H     1 <1>   0.0800 
 31 H       -7.5890     7.5520     1.4210 H     1 <1>   0.0800 
 32 H       -7.5940     5.9180     2.0150 H     1 <1>   0.0800 
 33 H       -5.2040     5.4250     1.8080 H     1 <1>   0.0800 
 34 H       -4.9500     7.1130     1.4540 H     1 <1>   0.0800 
 35 H       -4.3050     5.9000     0.3810 H     1 <1>   0.0800 
 36 H       -7.2030     7.1560    -1.5450 H     1 <1>   0.0800 
 37 H       -5.4750     6.9030    -1.5760 H     1 <1>   0.0800 
 38 H       -6.1580     8.1640    -0.5810 H     1 <1>   0.0800 
 39 H       -9.9770     7.9580     1.1210 H     1 <1>   0.1500 
 40 H      -12.0730     5.5810    -1.7110 H     1 <1>   0.1500 
 41 H      -12.4330     2.9700     0.5640 H     1 <1>   0.0800 
 42 H      -13.1690     1.3920     0.7090 H     1 <1>   0.0800 
 43 H      -12.0040     1.6880    -0.5440 H     1 <1>   0.0800 
 44 H      -11.8240     2.6790     3.0840 H     1 <1>   0.0800 
 45 H      -10.8460     1.3120     3.5610 H     1 <1>   0.0800 
 46 H      -12.4950     1.0660     3.0550 H     1 <1>   0.0800 
 47 H      -12.0030     7.5130    -0.1900 H     1 <1>   0.1500 
@<TRIPOS>BOND
  1   1   2  2   
  2   2   3  am  
  3   2   4  1   
  4   3  22  1   
  5   3  23  1   
  6   4   5  2   
  7   4   6  1   
  8   5   7  1   
  9   5   8  1   
 10   6   9  1   
 11   6  24  1   
 12   6  25  1   
 13   7  10  1   
 14   7  26  1   
 15   8  11  ar  
 16   8  12  ar  
 17   9  13  1   
 18   9  27  1   
 19   9  28  1   
 20  10  14  1   
 21  10  15  1   
 22  10  16  1   
 23  11  14  1   
 24  11  17  ar  
 25  12  18  ar  
 26  12  29  1   
 27  13  19  1   
 28  13  20  1   
 29  13  30  1   
 30  14  31  1   
 31  14  32  1   
 32  15  33  1   
 33  15  34  1   
 34  15  35  1   
 35  16  36  1   
 36  16  37  1   
 37  16  38  1   
 38  17  21  ar  
 39  17  39  1   
 40  18  21  ar  
 41  18  40  1   
 42  19  41  1   
 43  19  42  1   
 44  19  43  1   
 45  20  44  1   
 46  20  45  1   
 47  20  46  1   
 48  21  47  1   
@<TRIPOS>SUBSTRUCTURE
  1 ****   5 GROUP 4 **** **** 0

# MOE 2024.06 (io_trps.svl 2023.06)
