@<TRIPOS>MOLECULE
NONAME
39 40 1 0 0 
SMALL
USER_CHARGES


@<TRIPOS>ATOM
  1 O       -3.2790    -0.4050    -1.2580 O.3   1 <1>  -0.5600 
  2 C       -3.8000    -1.7040    -1.1730 C.3   1 <1>   0.1200 
  3 C       -3.0760     0.2150    -0.0160 C.3   1 <1>   0.1200 
  4 C       -5.1600    -1.7120    -0.4350 C.3   1 <1>   0.3430 
  5 C       -4.3890     0.2750     0.8010 C.3   1 <1>   0.3430 
  6 N       -5.5350    -0.3350     0.0440 N.4   1 <1>  -0.9590 
  7 C       -6.8180    -0.2750     0.8160 C.3   1 <1>   0.3430 
  8 C       -8.0330    -0.6670    -0.0280 C.3   1 <1>   0.1200 
  9 O       -9.1710    -0.5220     0.7810 O.3   1 <1>  -0.3630 
 10 C      -10.3390    -0.8840     0.2040 C.ar  1 <1>   0.0820 
 11 C      -11.0630     0.0480    -0.5370 C.ar  1 <1>  -0.1430 
 12 C      -10.8030    -2.1880     0.3610 C.ar  1 <1>  -0.1430 
 13 C      -12.2350    -0.3520    -1.1570 C.ar  1 <1>  -0.1500 
 14 C      -10.6120     1.4950    -0.6770 C.3   1 <1>  -0.0970 
 15 C      -11.9780    -2.5640    -0.2680 C.ar  1 <1>  -0.1500 
 16 C      -10.0600    -3.2080     1.2130 C.3   1 <1>  -0.0970 
 17 C      -12.6880    -1.6520    -1.0280 C.ar  1 <1>  -0.1500 
 18 H       -3.0860    -2.3310    -0.6660 H     1 <1>   0.0800 
 19 H       -3.9200    -2.0760    -2.1760 H     1 <1>   0.0800 
 20 H       -2.7090     1.2090    -0.2030 H     1 <1>   0.0800 
 21 H       -2.3160    -0.3270     0.5210 H     1 <1>   0.0800 
 22 H       -5.0990    -2.3910     0.4000 H     1 <1>   0.0800 
 23 H       -5.9150    -2.0900    -1.1050 H     1 <1>   0.0800 
 24 H       -4.6070     1.3040     1.0370 H     1 <1>   0.0800 
 25 H       -4.2430    -0.2460     1.7330 H     1 <1>   0.0800 
 26 H       -5.6110     0.2370    -0.8120 H     1 <1>   0.4500 
 27 H       -6.9720     0.7300     1.1740 H     1 <1>   0.0800 
 28 H       -6.7600    -0.9330     1.6680 H     1 <1>   0.0800 
 29 H       -7.9810    -1.6940    -0.3440 H     1 <1>   0.0800 
 30 H       -8.1420    -0.0190    -0.8780 H     1 <1>   0.0800 
 31 H      -12.8070     0.3470    -1.7420 H     1 <1>   0.1500 
 32 H      -10.1730     1.8420     0.2410 H     1 <1>   0.0800 
 33 H      -11.4510     2.1300    -0.9020 H     1 <1>   0.0800 
 34 H       -9.8940     1.5830    -1.4710 H     1 <1>   0.0800 
 35 H      -12.3530    -3.5680    -0.1690 H     1 <1>   0.1500 
 36 H       -9.2320    -3.6150     0.6640 H     1 <1>   0.0800 
 37 H      -10.7140    -4.0140     1.4950 H     1 <1>   0.0800 
 38 H       -9.6970    -2.7460     2.1130 H     1 <1>   0.0800 
 39 H      -13.6000    -1.9530    -1.5140 H     1 <1>   0.1500 
@<TRIPOS>BOND
  1   1   2  1   
  2   1   3  1   
  3   2   4  1   
  4   2  18  1   
  5   2  19  1   
  6   3   5  1   
  7   3  20  1   
  8   3  21  1   
  9   4   6  1   
 10   4  22  1   
 11   4  23  1   
 12   5   6  1   
 13   5  24  1   
 14   5  25  1   
 15   6   7  1   
 16   6  26  1   
 17   7   8  1   
 18   7  27  1   
 19   7  28  1   
 20   8   9  1   
 21   8  29  1   
 22   8  30  1   
 23   9  10  1   
 24  10  11  ar  
 25  10  12  ar  
 26  11  13  ar  
 27  11  14  1   
 28  12  15  ar  
 29  12  16  1   
 30  13  17  ar  
 31  13  31  1   
 32  14  32  1   
 33  14  33  1   
 34  14  34  1   
 35  15  17  ar  
 36  15  35  1   
 37  16  36  1   
 38  16  37  1   
 39  16  38  1   
 40  17  39  1   
@<TRIPOS>SUBSTRUCTURE
  1 ****   8 GROUP 4 **** **** 0

# MOE 2024.06 (io_trps.svl 2023.06)
