@<TRIPOS>MOLECULE
NONAME
41 42 1 0 0 
SMALL
USER_CHARGES


@<TRIPOS>ATOM
  1 F       -0.2090     0.3300     1.7820 F     1 <1>  -0.1900 
  2 C       -0.9690     0.6630     0.7720 C.ar  1 <1>   0.1900 
  3 C       -0.7940     1.8970     0.1610 C.ar  1 <1>  -0.1440 
  4 C       -1.9240    -0.2460     0.3550 C.ar  1 <1>  -0.1500 
  5 C       -1.6160     2.2090    -0.9120 C.ar  1 <1>  -0.1500 
  6 C        0.2660     2.8840     0.6340 C.3   1 <1>  -0.0160 
  7 C       -2.7360     0.0850    -0.7160 C.ar  1 <1>  -0.1500 
  8 C       -2.5790     1.3100    -1.3460 C.ar  1 <1>  -0.1500 
  9 C        1.6300     2.5280     0.0470 C.3   1 <1>   0.2090 
 10 N        2.6550     3.4910     0.5270 N.pl3 1 <1>  -0.8690 
 11 C        3.9940     3.3060     0.6980 C.2   1 <1>  -0.0500 
 12 C        4.8450     2.2540     0.4020 C.2   1 <1>   0.0290 
 13 C        6.1880     2.3050     0.9040 C.2   1 <1>   0.4950 
 14 C        4.5130     1.1070    -0.3900 C.2   1 <1>   0.4950 
 15 O        6.6970     3.3110     1.3430 O.2   1 <1>  -0.5700 
 16 C        7.0680     1.0640     0.9730 C.3   1 <1>  -0.0990 
 17 O        3.7070     1.0850    -1.2910 O.2   1 <1>  -0.5700 
 18 C        5.2540    -0.1980    -0.1590 C.3   1 <1>  -0.0990 
 19 C        6.7700     0.0240    -0.1160 C.3   1 <1>   0.0000 
 20 C        7.4770    -1.2980     0.2210 C.3   1 <1>  -0.2400 
 21 C        7.2850     0.5180    -1.4800 C.3   1 <1>  -0.2400 
 22 H       -2.0250    -1.1900     0.8580 H     1 <1>   0.1500 
 23 H       -1.5120     3.1530    -1.4190 H     1 <1>   0.1500 
 24 H        0.3240     2.8650     1.7080 H     1 <1>   0.0800 
 25 H       -0.0050     3.8780     0.3280 H     1 <1>   0.0800 
 26 H       -3.4850    -0.6070    -1.0590 H     1 <1>   0.1500 
 27 H       -3.2100     1.5650    -2.1800 H     1 <1>   0.1500 
 28 H        1.5860     2.5580    -1.0290 H     1 <1>   0.0800 
 29 H        1.8940     1.5310     0.3540 H     1 <1>   0.0800 
 30 H        2.2450     4.3990     0.7780 H     1 <1>   0.4000 
 31 H        4.4650     4.1540     1.1760 H     1 <1>   0.1500 
 32 H        8.1000     1.3630     0.9140 H     1 <1>   0.0800 
 33 H        6.9210     0.6270     1.9450 H     1 <1>   0.0800 
 34 H        4.9080    -0.6220     0.7660 H     1 <1>   0.0800 
 35 H        5.0090    -0.8910    -0.9460 H     1 <1>   0.0800 
 36 H        8.5420    -1.1540     0.2770 H     1 <1>   0.0800 
 37 H        7.2770    -2.0370    -0.5360 H     1 <1>   0.0800 
 38 H        7.1390    -1.6850     1.1670 H     1 <1>   0.0800 
 39 H        6.8470     1.4610    -1.7580 H     1 <1>   0.0800 
 40 H        7.0510    -0.1960    -2.2510 H     1 <1>   0.0800 
 41 H        8.3530     0.6440    -1.4580 H     1 <1>   0.0800 
@<TRIPOS>BOND
  1   1   2  1   
  2   2   3  ar  
  3   2   4  ar  
  4   3   5  ar  
  5   3   6  1   
  6   4   7  ar  
  7   4  22  1   
  8   5   8  ar  
  9   5  23  1   
 10   6   9  1   
 11   6  24  1   
 12   6  25  1   
 13   7   8  ar  
 14   7  26  1   
 15   8  27  1   
 16   9  10  1   
 17   9  28  1   
 18   9  29  1   
 19  10  11  1   
 20  10  30  1   
 21  11  12  2   
 22  11  31  1   
 23  12  13  1   
 24  12  14  1   
 25  13  15  2   
 26  13  16  1   
 27  14  17  2   
 28  14  18  1   
 29  16  19  1   
 30  16  32  1   
 31  16  33  1   
 32  18  19  1   
 33  18  34  1   
 34  18  35  1   
 35  19  20  1   
 36  19  21  1   
 37  20  36  1   
 38  20  37  1   
 39  20  38  1   
 40  21  39  1   
 41  21  40  1   
 42  21  41  1   
@<TRIPOS>SUBSTRUCTURE
  1 ****   9 GROUP 4 **** **** 0

# MOE 2024.06 (io_trps.svl 2023.06)
