@<TRIPOS>MOLECULE
NONAME
33 34 1 0 0 
SMALL
USER_CHARGES


@<TRIPOS>ATOM
  1 O       -0.2230     1.2060     1.2830 O.2   1 <1>  -0.5700 
  2 C       -1.3040     1.4200     0.7900 C.2   1 <1>   0.5950 
  3 C       -1.5400     2.4880    -0.1430 C.2   1 <1>  -0.0860 
  4 C       -2.5000     0.5890     1.2330 C.3   1 <1>   0.0420 
  5 C       -2.8250     2.8490    -0.5540 C.2   1 <1>   0.1080 
  6 C       -0.7410     3.3670    -0.8170 C.2   1 <1>  -0.3320 
  7 C       -2.0410    -0.8230     1.5410 C.2   1 <1>   0.6590 
  8 C       -3.7350     0.6540     0.2740 C.3   1 <1>   0.0000 
  9 N       -2.8420     3.8350    -1.3860 N.2   1 <1>  -0.7070 
 10 C       -4.0570     2.1320    -0.0480 C.3   1 <1>   0.0210 
 11 N       -1.5460     4.1560    -1.5490 N.pl3 1 <1>   0.3000 
 12 C        0.7730     3.5020    -0.8040 C.3   1 <1>  -0.0600 
 13 O       -2.3350    -1.3530     2.5830 O.2   1 <1>  -0.5700 
 14 O       -1.3270    -1.4560     0.6140 O.3   1 <1>  -0.4300 
 15 C       -3.4940    -0.1010    -1.0530 C.3   1 <1>  -0.2400 
 16 C       -4.9680     0.0230     0.9500 C.3   1 <1>  -0.2400 
 17 C       -0.8260    -2.7590     0.8220 C.3   1 <1>   0.0400 
 18 H       -2.8020     1.0150     2.1720 H     1 <1>   0.0800 
 19 H       -4.8340     2.2000    -0.7900 H     1 <1>   0.0800 
 20 H       -4.4010     2.6420     0.8330 H     1 <1>   0.0800 
 21 H       -1.2500     4.9200    -2.1690 H     1 <1>   0.2700 
 22 H        1.2180     2.7540    -0.1730 H     1 <1>   0.0800 
 23 H        1.0570     4.4700    -0.4320 H     1 <1>   0.0800 
 24 H        1.1660     3.3790    -1.7980 H     1 <1>   0.0800 
 25 H       -2.5960     0.2360    -1.5410 H     1 <1>   0.0800 
 26 H       -4.3150     0.0550    -1.7310 H     1 <1>   0.0800 
 27 H       -3.4090    -1.1610    -0.8900 H     1 <1>   0.0800 
 28 H       -5.1910     0.5160     1.8800 H     1 <1>   0.0800 
 29 H       -4.8030    -1.0210     1.1580 H     1 <1>   0.0800 
 30 H       -5.8320     0.1010     0.3130 H     1 <1>   0.0800 
 31 H       -1.6530    -3.4270     0.9950 H     1 <1>   0.0800 
 32 H       -0.1730    -2.7460     1.6770 H     1 <1>   0.0800 
 33 H       -0.2820    -3.0590    -0.0550 H     1 <1>   0.0800 
@<TRIPOS>BOND
  1   1   2  2   
  2   2   3  1   
  3   2   4  1   
  4   3   5  1   
  5   3   6  2   
  6   4   7  1   
  7   4   8  1   
  8   4  18  1   
  9   5   9  2   
 10   5  10  1   
 11   6  11  1   
 12   6  12  1   
 13   7  13  2   
 14   7  14  1   
 15   8  10  1   
 16   8  15  1   
 17   8  16  1   
 18   9  11  1   
 19  10  19  1   
 20  10  20  1   
 21  11  21  1   
 22  12  22  1   
 23  12  23  1   
 24  12  24  1   
 25  14  17  1   
 26  15  25  1   
 27  15  26  1   
 28  15  27  1   
 29  16  28  1   
 30  16  29  1   
 31  16  30  1   
 32  17  31  1   
 33  17  32  1   
 34  17  33  1   
@<TRIPOS>SUBSTRUCTURE
  1 ****   2 GROUP 4 **** **** 0

# MOE 2024.06 (io_trps.svl 2023.06)
