@<TRIPOS>MOLECULE
NONAME
40 41 1 0 0 
SMALL
USER_CHARGES


@<TRIPOS>ATOM
  1 CL       0.0960    -0.0480    -0.6610 Cl    1 <1>  -0.1230 
  2 C       -1.5670     0.5190    -0.6780 C.2   1 <1>   0.1230 
  3 C       -2.5650     0.0670    -1.5240 C.2   1 <1>   0.1080 
  4 C       -2.1170     1.4590     0.1110 C.2   1 <1>  -0.3320 
  5 N       -3.6820     0.6770    -1.2900 N.2   1 <1>  -0.7070 
  6 C       -2.4220    -0.9940    -2.5940 C.3   1 <1>  -0.0590 
  7 N       -3.4350     1.5620    -0.2570 N.pl3 1 <1>   0.5840 
  8 C       -1.4450     2.2830     1.2040 C.3   1 <1>  -0.0600 
  9 S       -4.6440     2.7070     0.4230 S.o2  1 <1>   1.2950 
 10 O       -4.3980     2.8870     1.8450 O.2   1 <1>  -0.6500 
 11 O       -4.5620     3.9170    -0.3780 O.2   1 <1>  -0.6500 
 12 C       -6.2400     1.8050     0.2360 C.ar  1 <1>  -0.0090 
 13 C       -6.3690     0.4850     0.7120 C.ar  1 <1>  -0.1440 
 14 C       -7.3630     2.3960    -0.3750 C.ar  1 <1>  -0.1430 
 15 C       -7.5300    -0.2450     0.4740 C.ar  1 <1>  -0.1430 
 16 C       -5.2620    -0.2220     1.5100 C.3   1 <1>  -0.0970 
 17 C       -8.5200     1.6560    -0.6060 C.ar  1 <1>  -0.1430 
 18 C       -7.3510     3.8720    -0.7910 C.3   1 <1>  -0.0970 
 19 C       -8.5850     0.3460    -0.1850 C.ar  1 <1>  -0.1500 
 20 C       -7.7070    -1.7000     0.9030 C.3   1 <1>  -0.0970 
 21 C       -9.7510     2.2120    -1.3170 C.3   1 <1>  -0.0970 
 22 H       -1.3980    -1.0780    -2.9080 H     1 <1>   0.0800 
 23 H       -3.0250    -0.7330    -3.4440 H     1 <1>   0.0800 
 24 H       -2.7530    -1.9410    -2.2100 H     1 <1>   0.0800 
 25 H       -0.3920     2.0690     1.2450 H     1 <1>   0.0800 
 26 H       -1.8720     2.0550     2.1650 H     1 <1>   0.0800 
 27 H       -1.5680     3.3350     1.0120 H     1 <1>   0.0800 
 28 H       -4.6010     0.4510     2.0150 H     1 <1>   0.0800 
 29 H       -4.6880    -0.8560     0.8580 H     1 <1>   0.0800 
 30 H       -5.6840    -0.8320     2.2860 H     1 <1>   0.0800 
 31 H       -6.9410     4.4780    -0.0050 H     1 <1>   0.0800 
 32 H       -8.3280     4.2690    -0.9800 H     1 <1>   0.0800 
 33 H       -6.7650     3.9990    -1.6840 H     1 <1>   0.0800 
 34 H       -9.4780    -0.2250    -0.3690 H     1 <1>   0.1500 
 35 H       -6.8520    -2.2830     0.6130 H     1 <1>   0.0800 
 36 H       -8.5720    -2.1380     0.4410 H     1 <1>   0.0800 
 37 H       -7.8320    -1.7560     1.9700 H     1 <1>   0.0800 
 38 H      -10.2330     2.9470    -0.6980 H     1 <1>   0.0800 
 39 H      -10.4630     1.4360    -1.5310 H     1 <1>   0.0800 
 40 H       -9.4680     2.6620    -2.2520 H     1 <1>   0.0800 
@<TRIPOS>BOND
  1   1   2  1   
  2   2   3  1   
  3   2   4  2   
  4   3   5  2   
  5   3   6  1   
  6   4   7  1   
  7   4   8  1   
  8   5   7  1   
  9   6  22  1   
 10   6  23  1   
 11   6  24  1   
 12   7   9  1   
 13   8  25  1   
 14   8  26  1   
 15   8  27  1   
 16   9  10  2   
 17   9  11  2   
 18   9  12  1   
 19  12  13  ar  
 20  12  14  ar  
 21  13  15  ar  
 22  13  16  1   
 23  14  17  ar  
 24  14  18  1   
 25  15  19  ar  
 26  15  20  1   
 27  16  28  1   
 28  16  29  1   
 29  16  30  1   
 30  17  19  ar  
 31  17  21  1   
 32  18  31  1   
 33  18  32  1   
 34  18  33  1   
 35  19  34  1   
 36  20  35  1   
 37  20  36  1   
 38  20  37  1   
 39  21  38  1   
 40  21  39  1   
 41  21  40  1   
@<TRIPOS>SUBSTRUCTURE
  1 ****  12 GROUP 4 **** **** 0

# MOE 2024.06 (io_trps.svl 2023.06)
