@<TRIPOS>MOLECULE
NONAME
43 45 1 0 0 
SMALL
USER_CHARGES


@<TRIPOS>ATOM
  1 F       -1.3420     1.5110     1.6360 F     1 <1>  -0.1900 
  2 C       -2.0790     1.3620     0.5670 C.ar  1 <1>   0.1900 
  3 C       -1.5840     1.6930    -0.6830 C.ar  1 <1>   0.1900 
  4 C       -3.3640     0.8720     0.7140 C.ar  1 <1>  -0.1500 
  5 F       -0.3690     2.1600    -0.8130 F     1 <1>  -0.1900 
  6 C       -2.3650     1.5380    -1.8120 C.ar  1 <1>  -0.1500 
  7 C       -4.1640     0.7190    -0.4150 C.ar  1 <1>  -0.1440 
  8 C       -3.6570     1.0490    -1.6720 C.ar  1 <1>  -0.1500 
  9 C       -5.5830     0.1940    -0.2790 C.3   1 <1>   0.4870 
 10 N       -6.4390     1.2600     0.3090 N.4   1 <1>  -0.9590 
 11 C       -7.8180     0.7480     0.6450 C.3   1 <1>   0.3430 
 12 C       -6.5220     2.4790    -0.5810 C.3   1 <1>   0.3430 
 13 C       -8.7160     1.8280     1.2830 C.3   1 <1>   0.2090 
 14 C       -7.3920     3.6010     0.0220 C.3   1 <1>   0.2090 
 15 N       -8.7130     3.0870     0.4860 N.pl3 1 <1>  -0.8380 
 16 C       -9.8320     3.3560    -0.3020 C.ar  1 <1>   0.1000 
 17 C      -10.7910     4.2820     0.1100 C.ar  1 <1>  -0.1430 
 18 C      -10.0080     2.6970    -1.5150 C.ar  1 <1>  -0.1500 
 19 C      -11.8960     4.5300    -0.6870 C.ar  1 <1>  -0.1500 
 20 C      -10.6370     5.0270     1.4290 C.3   1 <1>  -0.0970 
 21 C      -11.1130     2.9500    -2.3060 C.ar  1 <1>  -0.1500 
 22 C      -12.0590     3.8690    -1.8910 C.ar  1 <1>  -0.1500 
 23 H       -3.7080     0.6160     1.7010 H     1 <1>   0.1500 
 24 H       -1.9630     1.7940    -2.7780 H     1 <1>   0.1500 
 25 H       -4.2570     0.9250    -2.5590 H     1 <1>   0.1500 
 26 H       -5.5800    -0.6740     0.3600 H     1 <1>   0.0800 
 27 H       -5.9630    -0.0970    -1.2450 H     1 <1>   0.0800 
 28 H       -5.9950     1.5670     1.1840 H     1 <1>   0.4500 
 29 H       -7.7480    -0.0880     1.3210 H     1 <1>   0.0800 
 30 H       -8.3030     0.4050    -0.2540 H     1 <1>   0.0800 
 31 H       -6.9480     2.2030    -1.5310 H     1 <1>   0.0800 
 32 H       -5.5350     2.8700    -0.7660 H     1 <1>   0.0800 
 33 H       -8.3760     2.0450     2.2810 H     1 <1>   0.0800 
 34 H       -9.7250     1.4560     1.3590 H     1 <1>   0.0800 
 35 H       -7.5480     4.3700    -0.7170 H     1 <1>   0.0800 
 36 H       -6.8800     4.0530     0.8540 H     1 <1>   0.0800 
 37 H       -9.2820     1.9840    -1.8460 H     1 <1>   0.1500 
 38 H      -12.6400     5.2430    -0.3770 H     1 <1>   0.1500 
 39 H      -10.6190     4.3260     2.2430 H     1 <1>   0.0800 
 40 H      -11.4500     5.7130     1.5850 H     1 <1>   0.0800 
 41 H       -9.7170     5.5820     1.4280 H     1 <1>   0.0800 
 42 H      -11.2420     2.4370    -3.2430 H     1 <1>   0.1500 
 43 H      -12.9220     4.0700    -2.5030 H     1 <1>   0.1500 
@<TRIPOS>BOND
  1   1   2  1   
  2   2   3  ar  
  3   2   4  ar  
  4   3   5  1   
  5   3   6  ar  
  6   4   7  ar  
  7   4  23  1   
  8   6   8  ar  
  9   6  24  1   
 10   7   8  ar  
 11   7   9  1   
 12   8  25  1   
 13   9  10  1   
 14   9  26  1   
 15   9  27  1   
 16  10  11  1   
 17  10  12  1   
 18  10  28  1   
 19  11  13  1   
 20  11  29  1   
 21  11  30  1   
 22  12  14  1   
 23  12  31  1   
 24  12  32  1   
 25  13  15  1   
 26  13  33  1   
 27  13  34  1   
 28  14  15  1   
 29  14  35  1   
 30  14  36  1   
 31  15  16  1   
 32  16  17  ar  
 33  16  18  ar  
 34  17  19  ar  
 35  17  20  1   
 36  18  21  ar  
 37  18  37  1   
 38  19  22  ar  
 39  19  38  1   
 40  20  39  1   
 41  20  40  1   
 42  20  41  1   
 43  21  22  ar  
 44  21  42  1   
 45  22  43  1   
@<TRIPOS>SUBSTRUCTURE
  1 ****  12 GROUP 4 **** **** 0

# MOE 2024.06 (io_trps.svl 2023.06)
