@<TRIPOS>MOLECULE
NONAME
30 31 1 0 0 
SMALL
USER_CHARGES


@<TRIPOS>ATOM
  1 S        0.1660     0.2070    -1.0870 S.o2  1 <1>   1.3330 
  2 O        0.4740    -1.2010    -1.0360 O.2   1 <1>  -0.6500 
  3 O        0.8470     1.0930    -1.9970 O.2   1 <1>  -0.6500 
  4 N       -1.4870     0.3820    -1.5070 N.am  1 <1>  -0.7570 
  5 C        0.2150     0.9150     0.5650 C.3   1 <1>  -0.0550 
  6 C       -2.6100    -0.1200    -0.8620 C.ar  1 <1>   0.1990 
  7 C        1.6160     0.9500     1.2010 C.3   1 <1>  -0.2400 
  8 C       -3.8110     0.5740    -0.9720 C.ar  1 <1>  -0.1500 
  9 C       -2.5780    -1.2910    -0.1040 C.ar  1 <1>  -0.1500 
 10 C       -4.9370     0.1100    -0.3210 C.ar  1 <1>  -0.1430 
 11 C       -3.7110    -1.7510     0.5480 C.ar  1 <1>  -0.1500 
 12 C       -4.8880    -1.0360     0.4310 C.ar  1 <1>  -0.1430 
 13 C       -6.3200     0.7120    -0.3080 C.3   1 <1>  -0.0170 
 14 C       -6.2290    -1.3500     1.0450 C.3   1 <1>  -0.0170 
 15 C       -7.1880    -0.3970     0.3110 C.3   1 <1>  -0.1600 
 16 H       -1.6010     1.1290    -2.1850 H     1 <1>   0.4200 
 17 H       -0.4340     0.3490     1.2050 H     1 <1>   0.0800 
 18 H       -0.1660     1.9170     0.5250 H     1 <1>   0.0800 
 19 H        2.0120    -0.0480     1.2800 H     1 <1>   0.0800 
 20 H        1.5690     1.3840     2.1840 H     1 <1>   0.0800 
 21 H        2.2840     1.5370     0.5940 H     1 <1>   0.0800 
 22 H       -3.8630     1.4720    -1.5580 H     1 <1>   0.1500 
 23 H       -1.6710    -1.8590    -0.0250 H     1 <1>   0.1500 
 24 H       -3.6770    -2.6550     1.1310 H     1 <1>   0.1500 
 25 H       -6.6520     0.9650    -1.3000 H     1 <1>   0.0800 
 26 H       -6.3240     1.5890     0.3150 H     1 <1>   0.0800 
 27 H       -6.2030    -1.1270     2.0980 H     1 <1>   0.0800 
 28 H       -6.5020    -2.3800     0.8950 H     1 <1>   0.0800 
 29 H       -7.6720    -0.9400    -0.4830 H     1 <1>   0.0800 
 30 H       -7.9390     0.0020     0.9700 H     1 <1>   0.0800 
@<TRIPOS>BOND
  1   1   2  2   
  2   1   3  2   
  3   1   4  am  
  4   1   5  1   
  5   4   6  1   
  6   4  16  1   
  7   5   7  1   
  8   5  17  1   
  9   5  18  1   
 10   6   8  ar  
 11   6   9  ar  
 12   7  19  1   
 13   7  20  1   
 14   7  21  1   
 15   8  10  ar  
 16   8  22  1   
 17   9  11  ar  
 18   9  23  1   
 19  10  12  ar  
 20  10  13  1   
 21  11  12  ar  
 22  11  24  1   
 23  12  14  1   
 24  13  15  1   
 25  13  25  1   
 26  13  26  1   
 27  14  15  1   
 28  14  27  1   
 29  14  28  1   
 30  15  29  1   
 31  15  30  1   
@<TRIPOS>SUBSTRUCTURE
  1 ****   6 GROUP 4 **** **** 0

# MOE 2024.06 (io_trps.svl 2023.06)
