@<TRIPOS>MOLECULE
NONAME
49 50 1 0 0 
SMALL
USER_CHARGES


@<TRIPOS>ATOM
  1 O        1.0120     2.2950    -2.5860 O.2   1 <1>  -0.5700 
  2 C        0.4450     2.2900    -1.5190 C.2   1 <1>   0.5690 
  3 N        0.9730     1.7190    -0.3940 N.am  1 <1>  -0.5470 
  4 C       -0.9250     2.9470    -1.4250 C.3   1 <1>   0.1810 
  5 C        2.1910     1.0380    -0.1880 C.ar  1 <1>   0.1170 
  6 O       -1.5270     2.6980    -0.1600 O.3   1 <1>  -0.3630 
  7 C        3.4300     1.4890    -0.6790 C.ar  1 <1>   0.1170 
  8 C        2.1550    -0.1280     0.5660 C.ar  1 <1>  -0.1500 
  9 C       -2.7540     3.1910     0.1390 C.ar  1 <1>   0.0830 
 10 N        3.5250     2.6740    -1.4270 N.am  1 <1>  -0.5470 
 11 C        4.5750     0.7450    -0.4240 C.ar  1 <1>  -0.1500 
 12 C        3.3050    -0.8510     0.8250 C.ar  1 <1>  -0.1500 
 13 C       -3.5140     3.9640    -0.7360 C.ar  1 <1>  -0.1500 
 14 C       -3.2590     2.8920     1.3930 C.ar  1 <1>  -0.1500 
 15 C        4.2830     3.7890    -1.2620 C.2   1 <1>   0.5690 
 16 C        4.5180    -0.4160     0.3260 C.ar  1 <1>  -0.1500 
 17 C       -4.7600     4.4250    -0.3470 C.ar  1 <1>  -0.1500 
 18 C       -4.5050     3.3550     1.7770 C.ar  1 <1>  -0.1500 
 19 O        4.1750     4.7040    -2.0390 O.2   1 <1>  -0.5700 
 20 C        5.2630     3.9010    -0.0990 C.3   1 <1>  -0.0990 
 21 C       -5.2630     4.1250     0.9090 C.ar  1 <1>  -0.1430 
 22 C        5.4390     5.3380     0.4230 C.3   1 <1>  -0.1600 
 23 C       -6.6330     4.6320     1.3300 C.3   1 <1>  -0.0170 
 24 C        6.4030     5.3880     1.6130 C.3   1 <1>  -0.2400 
 25 C       -7.7180     3.6260     0.9440 C.3   1 <1>  -0.2400 
 26 H        0.3290     1.7270     0.4010 H     1 <1>   0.3700 
 27 H       -1.5640     2.5480    -2.1910 H     1 <1>   0.0800 
 28 H       -0.8180     4.0090    -1.5490 H     1 <1>   0.0800 
 29 H        1.2150    -0.4800     0.9530 H     1 <1>   0.1500 
 30 H        2.7980     2.7720    -2.1490 H     1 <1>   0.3700 
 31 H        5.5190     1.0730    -0.8200 H     1 <1>   0.1500 
 32 H        3.2560    -1.7540     1.4100 H     1 <1>   0.1500 
 33 H       -3.1610     4.2190    -1.7160 H     1 <1>   0.1500 
 34 H       -2.6750     2.2950     2.0690 H     1 <1>   0.1500 
 35 H        5.4150    -0.9810     0.5170 H     1 <1>   0.1500 
 36 H       -5.3430     5.0200    -1.0290 H     1 <1>   0.1500 
 37 H       -4.8850     3.1120     2.7540 H     1 <1>   0.1500 
 38 H        6.2130     3.5220    -0.4280 H     1 <1>   0.0800 
 39 H        4.9170     3.2860     0.7120 H     1 <1>   0.0800 
 40 H        4.4810     5.7290     0.7200 H     1 <1>   0.0800 
 41 H        5.8180     5.9620    -0.3690 H     1 <1>   0.0800 
 42 H       -6.8310     5.5780     0.8560 H     1 <1>   0.0800 
 43 H       -6.6500     4.7920     2.3940 H     1 <1>   0.0800 
 44 H        6.0300     4.7910     2.4260 H     1 <1>   0.0800 
 45 H        6.5090     6.4030     1.9550 H     1 <1>   0.0800 
 46 H        7.3730     5.0220     1.3270 H     1 <1>   0.0800 
 47 H       -7.7210     3.4730    -0.1210 H     1 <1>   0.0800 
 48 H       -8.6850     3.9900     1.2440 H     1 <1>   0.0800 
 49 H       -7.5380     2.6820     1.4270 H     1 <1>   0.0800 
@<TRIPOS>BOND
  1   1   2  2   
  2   2   3  am  
  3   2   4  1   
  4   3   5  1   
  5   3  26  1   
  6   4   6  1   
  7   4  27  1   
  8   4  28  1   
  9   5   7  ar  
 10   5   8  ar  
 11   6   9  1   
 12   7  10  1   
 13   7  11  ar  
 14   8  12  ar  
 15   8  29  1   
 16   9  13  ar  
 17   9  14  ar  
 18  10  15  am  
 19  10  30  1   
 20  11  16  ar  
 21  11  31  1   
 22  12  16  ar  
 23  12  32  1   
 24  13  17  ar  
 25  13  33  1   
 26  14  18  ar  
 27  14  34  1   
 28  15  19  2   
 29  15  20  1   
 30  16  35  1   
 31  17  21  ar  
 32  17  36  1   
 33  18  21  ar  
 34  18  37  1   
 35  20  22  1   
 36  20  38  1   
 37  20  39  1   
 38  21  23  1   
 39  22  24  1   
 40  22  40  1   
 41  22  41  1   
 42  23  25  1   
 43  23  42  1   
 44  23  43  1   
 45  24  44  1   
 46  24  45  1   
 47  24  46  1   
 48  25  47  1   
 49  25  48  1   
 50  25  49  1   
@<TRIPOS>SUBSTRUCTURE
  1 ****   3 GROUP 4 **** **** 0

# MOE 2024.06 (io_trps.svl 2023.06)
