@<TRIPOS>MOLECULE
NONAME
30 33 1 0 0 
SMALL
USER_CHARGES


@<TRIPOS>ATOM
  1 S        0.3050     0.4810     0.3870 S.3   1 <1>  -0.0800 
  2 C       -0.5560    -1.0310     0.1350 C.2   1 <1>   0.4420 
  3 C        1.8110    -0.3640     0.1760 C.2   1 <1>  -0.1100 
  4 N        0.2130    -2.0340    -0.0800 N.2   1 <1>  -0.5650 
  5 N       -1.9370    -1.0130     0.1900 N.am  1 <1>  -0.1840 
  6 C        1.5440    -1.6570    -0.0560 C.2   1 <1>   0.0770 
  7 C       -2.7000    -1.9320     0.9040 C.2   1 <1>   0.5690 
  8 C       -2.7440    -0.2090    -0.6030 C.2   1 <1>   0.5690 
  9 O       -2.3880    -2.5280     1.9030 O.2   1 <1>  -0.5700 
 10 C       -4.0650    -2.0350     0.2400 C.3   1 <1>   0.0610 
 11 O       -2.4130     0.5300    -1.4930 O.2   1 <1>  -0.5700 
 12 C       -4.1540    -0.3950    -0.1240 C.3   1 <1>  -0.0190 
 13 C       -5.5820    -2.4380     0.7760 C.3   1 <1>   0.0580 
 14 C       -3.7900    -2.9990    -0.9720 C.3   1 <1>  -0.2400 
 15 C       -5.7690     0.0120    -0.2370 C.3   1 <1>   0.0580 
 16 C       -7.1260    -1.9280     0.6520 C.2   1 <1>  -0.2880 
 17 C       -5.5980    -1.1620     0.3720 C.3   1 <1>  -0.1600 
 18 C       -7.2320    -0.6290     0.1450 C.2   1 <1>  -0.2880 
 19 H        2.7250     0.1980     0.2490 H     1 <1>   0.1500 
 20 H        2.2830    -2.4240    -0.2240 H     1 <1>   0.1500 
 21 H       -3.9200     0.2000     0.7700 H     1 <1>   0.0800 
 22 H       -5.4420    -2.6330     1.8300 H     1 <1>   0.0800 
 23 H       -2.9430    -2.7030    -1.5660 H     1 <1>   0.0800 
 24 H       -4.6270    -3.0910    -1.6410 H     1 <1>   0.0800 
 25 H       -3.5850    -3.9860    -0.5920 H     1 <1>   0.0800 
 26 H       -5.7990     0.9320     0.3280 H     1 <1>   0.0800 
 27 H       -7.9130    -2.5930     0.9670 H     1 <1>   0.1500 
 28 H       -5.7390    -1.5590    -0.7850 H     1 <1>   0.0800 
 29 H       -5.5530    -0.7400     1.4510 H     1 <1>   0.0800 
 30 H       -8.1180    -0.0410    -0.0330 H     1 <1>   0.1500 
@<TRIPOS>BOND
  1   1   2  1   
  2   1   3  1   
  3   2   4  2   
  4   2   5  1   
  5   3   6  2   
  6   3  19  1   
  7   4   6  1   
  8   5   7  am  
  9   5   8  am  
 10   6  20  1   
 11   7   9  2   
 12   7  10  1   
 13   8  11  2   
 14   8  12  1   
 15  10  12  1   
 16  10  13  1   
 17  10  14  1   
 18  12  15  1   
 19  12  21  1   
 20  13  16  1   
 21  13  17  1   
 22  13  22  1   
 23  14  23  1   
 24  14  24  1   
 25  14  25  1   
 26  15  17  1   
 27  15  18  1   
 28  15  26  1   
 29  16  18  2   
 30  16  27  1   
 31  17  28  1   
 32  17  29  1   
 33  18  30  1   
@<TRIPOS>SUBSTRUCTURE
  1 ****   5 GROUP 4 **** **** 0

# MOE 2024.06 (io_trps.svl 2023.06)
