@<TRIPOS>MOLECULE
NONAME
44 45 1 0 0 
SMALL
USER_CHARGES


@<TRIPOS>ATOM
  1 S       -0.9680    -0.1010    -0.0410 S.o2  1 <1>   1.0900 
  2 O       -2.2900     0.0020    -0.6120 O.2   1 <1>  -0.6500 
  3 O       -0.3240    -1.3750     0.1780 O.2   1 <1>  -0.6500 
  4 C        0.1340     0.9470    -0.9590 C.3   1 <1>  -0.0550 
  5 C       -0.8910     0.8420     1.4770 C.3   1 <1>  -0.0550 
  6 C        0.8960     1.7550     0.0840 C.3   1 <1>   0.2200 
  7 C       -0.0980     2.1230     1.1930 C.3   1 <1>  -0.1600 
  8 N        1.5740     2.9440    -0.5140 N.am  1 <1>  -0.6600 
  9 C        2.9530     3.0440    -0.5710 C.2   1 <1>   0.5440 
 10 C        0.7310     4.1090    -0.9320 C.3   1 <1>   0.0600 
 11 O        3.4590     4.1300    -0.7720 O.2   1 <1>  -0.5700 
 12 C        3.8050     1.8860    -0.3810 C.ar  1 <1>   0.0860 
 13 C        4.6760     1.8020     0.6990 C.ar  1 <1>  -0.1500 
 14 C        3.7630     0.8040    -1.2550 C.ar  1 <1>  -0.1500 
 15 C        5.4450     0.6730     0.9180 C.ar  1 <1>  -0.1500 
 16 C        4.5290    -0.3250    -1.0360 C.ar  1 <1>  -0.1500 
 17 C        5.3810    -0.4200     0.0590 C.ar  1 <1>  -0.1430 
 18 C        6.2070    -1.7080     0.2670 C.3   1 <1>   0.1430 
 19 C        7.1270    -1.9300    -0.9420 C.3   1 <1>  -0.2400 
 20 C        7.0930    -1.6620     1.5240 C.3   1 <1>  -0.2400 
 21 C        5.2590    -2.9080     0.4150 C.3   1 <1>  -0.2400 
 22 H       -0.4390     1.6020    -1.5840 H     1 <1>   0.0800 
 23 H        0.8020     0.3670    -1.5650 H     1 <1>   0.0800 
 24 H       -0.3750     0.2650     2.2220 H     1 <1>   0.0800 
 25 H       -1.8750     1.0700     1.8440 H     1 <1>   0.0800 
 26 H        1.6300     1.1020     0.5290 H     1 <1>   0.0800 
 27 H        0.4100     2.4710     2.0750 H     1 <1>   0.0800 
 28 H       -0.7870     2.8770     0.8550 H     1 <1>   0.0800 
 29 H       -0.1980     3.7780    -1.3600 H     1 <1>   0.0800 
 30 H        1.2490     4.6970    -1.6700 H     1 <1>   0.0800 
 31 H        0.5300     4.7340    -0.0800 H     1 <1>   0.0800 
 32 H        4.7450     2.6370     1.3740 H     1 <1>   0.1500 
 33 H        3.1220     0.8530    -2.1170 H     1 <1>   0.1500 
 34 H        6.0920     0.6750     1.7750 H     1 <1>   0.1500 
 35 H        4.4540    -1.1380    -1.7360 H     1 <1>   0.1500 
 36 H        7.7380    -2.8040    -0.8000 H     1 <1>   0.0800 
 37 H        7.7720    -1.0800    -1.0740 H     1 <1>   0.0800 
 38 H        6.5590    -2.0650    -1.8440 H     1 <1>   0.0800 
 39 H        7.8010    -0.8540     1.4570 H     1 <1>   0.0800 
 40 H        7.6460    -2.5780     1.6310 H     1 <1>   0.0800 
 41 H        6.4920    -1.5310     2.4060 H     1 <1>   0.0800 
 42 H        4.5860    -2.7460     1.2380 H     1 <1>   0.0800 
 43 H        5.8130    -3.8100     0.5980 H     1 <1>   0.0800 
 44 H        4.6730    -3.0530    -0.4740 H     1 <1>   0.0800 
@<TRIPOS>BOND
  1   1   2  2   
  2   1   3  2   
  3   1   4  1   
  4   1   5  1   
  5   4   6  1   
  6   4  22  1   
  7   4  23  1   
  8   5   7  1   
  9   5  24  1   
 10   5  25  1   
 11   6   7  1   
 12   6   8  1   
 13   6  26  1   
 14   7  27  1   
 15   7  28  1   
 16   8   9  am  
 17   8  10  1   
 18   9  11  2   
 19   9  12  1   
 20  10  29  1   
 21  10  30  1   
 22  10  31  1   
 23  12  13  ar  
 24  12  14  ar  
 25  13  15  ar  
 26  13  32  1   
 27  14  16  ar  
 28  14  33  1   
 29  15  17  ar  
 30  15  34  1   
 31  16  17  ar  
 32  16  35  1   
 33  17  18  1   
 34  18  19  1   
 35  18  20  1   
 36  18  21  1   
 37  19  36  1   
 38  19  37  1   
 39  19  38  1   
 40  20  39  1   
 41  20  40  1   
 42  20  41  1   
 43  21  42  1   
 44  21  43  1   
 45  21  44  1   
@<TRIPOS>SUBSTRUCTURE
  1 ****  14 GROUP 4 **** **** 0

# MOE 2024.06 (io_trps.svl 2023.06)
