@<TRIPOS>MOLECULE
NONAME
47 48 1 0 0 
SMALL
USER_CHARGES


@<TRIPOS>ATOM
  1 O        0.1630     2.6510    -3.2460 O.2   1 <1>  -0.5700 
  2 C        0.0170     3.0890    -2.1190 C.2   1 <1>   0.5440 
  3 N        1.1400     3.3780    -1.3680 N.am  1 <1>  -0.6600 
  4 C       -1.3280     3.3050    -1.6200 C.ar  1 <1>   0.0860 
  5 C        1.1460     4.3320    -0.2250 C.3   1 <1>   0.1400 
  6 C        2.4840     2.8760    -1.7660 C.3   1 <1>   0.1400 
  7 C       -1.7300     2.8430    -0.3690 C.ar  1 <1>  -0.1500 
  8 C       -2.2760     3.9800    -2.3890 C.ar  1 <1>  -0.1500 
  9 C        1.8140     3.6800     0.9890 C.3   1 <1>  -0.1600 
 10 C        3.1680     2.2220    -0.5620 C.3   1 <1>  -0.1600 
 11 C       -3.0110     3.0570     0.1030 C.ar  1 <1>   0.0830 
 12 C       -3.5600     4.2080    -1.9280 C.ar  1 <1>  -0.1500 
 13 C        3.2280     3.1720     0.6480 C.3   1 <1>  -0.0190 
 14 O       -3.3070     2.5840     1.3400 O.3   1 <1>  -0.3630 
 15 C       -3.9450     3.7570    -0.6680 C.ar  1 <1>   0.0830 
 16 C        3.8920     2.4960     1.8460 C.2   1 <1>   0.5690 
 17 C       -4.2320     1.5220     1.4330 C.3   1 <1>   0.1200 
 18 O       -5.1850     3.9770    -0.1560 O.3   1 <1>  -0.3630 
 19 O        3.3320     1.6100     2.4390 O.2   1 <1>  -0.5700 
 20 N        5.1170     2.8900     2.2400 N.am  1 <1>  -0.8000 
 21 C       -3.5060     0.2020     1.1710 C.3   1 <1>  -0.2400 
 22 C       -6.1550     4.7360    -0.8390 C.3   1 <1>   0.1200 
 23 C       -7.4020     4.8030     0.0370 C.3   1 <1>  -0.2400 
 24 H        0.1480     4.6430     0.0300 H     1 <1>   0.0800 
 25 H        1.6970     5.2110    -0.5130 H     1 <1>   0.0800 
 26 H        3.0730     3.7010    -2.1280 H     1 <1>   0.0800 
 27 H        2.3990     2.1530    -2.5600 H     1 <1>   0.0800 
 28 H       -1.0330     2.3030     0.2450 H     1 <1>   0.1500 
 29 H       -1.9880     4.3260    -3.3680 H     1 <1>   0.1500 
 30 H        1.2030     2.8610     1.3260 H     1 <1>   0.0800 
 31 H        1.8690     4.3950     1.7910 H     1 <1>   0.0800 
 32 H        4.1620     1.9220    -0.8390 H     1 <1>   0.0800 
 33 H        2.6220     1.3320    -0.2960 H     1 <1>   0.0800 
 34 H       -4.2430     4.7380    -2.5640 H     1 <1>   0.1500 
 35 H        3.8270     4.0220     0.3730 H     1 <1>   0.0800 
 36 H       -4.6390     1.5370     2.4280 H     1 <1>   0.0800 
 37 H       -5.0290     1.6740     0.7260 H     1 <1>   0.0800 
 38 H        5.5490     2.4240     3.0390 H     1 <1>   0.3700 
 39 H        5.6620     3.6230     1.7890 H     1 <1>   0.3700 
 40 H       -4.1910    -0.6170     1.2910 H     1 <1>   0.0800 
 41 H       -2.6980     0.0800     1.8700 H     1 <1>   0.0800 
 42 H       -3.1200     0.1800     0.1680 H     1 <1>   0.0800 
 43 H       -5.7570     5.7210    -1.0120 H     1 <1>   0.0800 
 44 H       -6.3730     4.2490    -1.7740 H     1 <1>   0.0800 
 45 H       -8.1640     5.3800    -0.4550 H     1 <1>   0.0800 
 46 H       -7.1670     5.2720     0.9760 H     1 <1>   0.0800 
 47 H       -7.7820     3.8130     0.2160 H     1 <1>   0.0800 
@<TRIPOS>BOND
  1   1   2  2   
  2   2   3  am  
  3   2   4  1   
  4   3   5  1   
  5   3   6  1   
  6   4   7  ar  
  7   4   8  ar  
  8   5   9  1   
  9   5  24  1   
 10   5  25  1   
 11   6  10  1   
 12   6  26  1   
 13   6  27  1   
 14   7  11  ar  
 15   7  28  1   
 16   8  12  ar  
 17   8  29  1   
 18   9  13  1   
 19   9  30  1   
 20   9  31  1   
 21  10  13  1   
 22  10  32  1   
 23  10  33  1   
 24  11  14  1   
 25  11  15  ar  
 26  12  15  ar  
 27  12  34  1   
 28  13  16  1   
 29  13  35  1   
 30  14  17  1   
 31  15  18  1   
 32  16  19  2   
 33  16  20  am  
 34  17  21  1   
 35  17  36  1   
 36  17  37  1   
 37  18  22  1   
 38  20  38  1   
 39  20  39  1   
 40  21  40  1   
 41  21  41  1   
 42  21  42  1   
 43  22  23  1   
 44  22  43  1   
 45  22  44  1   
 46  23  45  1   
 47  23  46  1   
 48  23  47  1   
@<TRIPOS>SUBSTRUCTURE
  1 ****   7 GROUP 4 **** **** 0

# MOE 2024.06 (io_trps.svl 2023.06)
