@<TRIPOS>MOLECULE
NONAME
44 46 1 0 0 
SMALL
USER_CHARGES


@<TRIPOS>ATOM
  1 S       -0.0440     0.5510    -1.2610 S.o2  1 <1>   1.4470 
  2 O       -0.9460     1.6500    -1.5340 O.2   1 <1>  -0.6500 
  3 O        0.2670    -0.3890    -2.3170 O.2   1 <1>  -0.6500 
  4 N        1.4220     1.2470    -0.7670 N.am  1 <1>  -0.8490 
  5 C       -0.5880    -0.3610     0.2100 C.ar  1 <1>  -0.0090 
  6 C        1.2150     2.3040     0.2280 C.3   1 <1>   0.1960 
  7 C        2.1790     1.7480    -1.9170 C.3   1 <1>   0.1960 
  8 C        0.2290    -1.3240     0.7930 C.ar  1 <1>  -0.1500 
  9 C       -1.8260    -0.1190     0.7950 C.ar  1 <1>  -0.1500 
 10 C        2.5630     2.7810     0.7700 C.3   1 <1>  -0.1600 
 11 C        3.5650     2.2160    -1.4680 C.3   1 <1>  -0.1600 
 12 C       -0.1720    -2.0200     1.9210 C.ar  1 <1>  -0.1500 
 13 C       -2.2350    -0.8090     1.9230 C.ar  1 <1>  -0.1500 
 14 C        3.4660     3.2870    -0.3680 C.3   1 <1>  -0.0190 
 15 C       -1.4060    -1.7610     2.4870 C.ar  1 <1>  -0.1500 
 16 C        4.8400     3.7140     0.1390 C.2   1 <1>   0.5690 
 17 O        5.1800     4.8650     0.0130 O.2   1 <1>  -0.5700 
 18 N        5.6490     2.7950     0.7150 N.am  1 <1>  -0.7300 
 19 C        7.0290     3.0450     1.1600 C.3   1 <1>   0.3200 
 20 C        7.8470     1.7940     0.9000 C.2   1 <1>  -0.0400 
 21 O        7.4940     0.6640     1.4860 O.3   1 <1>  -0.2800 
 22 C        8.9360     1.6030     0.1250 C.2   1 <1>  -0.1500 
 23 C        8.3460    -0.2660     1.1040 C.2   1 <1>  -0.0100 
 24 C        9.2650     0.2480     0.2600 C.2   1 <1>  -0.1500 
 25 H        0.6260     1.9260     1.0480 H     1 <1>   0.0800 
 26 H        0.6830     3.1320    -0.2140 H     1 <1>   0.0800 
 27 H        1.6430     2.5580    -2.3860 H     1 <1>   0.0800 
 28 H        2.3030     0.9620    -2.6450 H     1 <1>   0.0800 
 29 H        1.1910    -1.5300     0.3540 H     1 <1>   0.1500 
 30 H       -2.4800     0.6200     0.3620 H     1 <1>   0.1500 
 31 H        3.0330     1.9650     1.2900 H     1 <1>   0.0800 
 32 H        2.4020     3.5740     1.4790 H     1 <1>   0.0800 
 33 H        4.0950     2.6180    -2.3140 H     1 <1>   0.0800 
 34 H        4.1140     1.3620    -1.1140 H     1 <1>   0.0800 
 35 H        0.4750    -2.7630     2.3550 H     1 <1>   0.1500 
 36 H       -3.1980    -0.6060     2.3600 H     1 <1>   0.1500 
 37 H        3.0010     4.1580    -0.7960 H     1 <1>   0.0800 
 38 H       -1.7220    -2.3010     3.3640 H     1 <1>   0.1500 
 39 H        5.3670     1.8160     0.7880 H     1 <1>   0.3700 
 40 H        7.0320     3.2680     2.2120 H     1 <1>   0.0800 
 41 H        7.4460     3.8810     0.6250 H     1 <1>   0.0800 
 42 H        9.4660     2.3150    -0.4840 H     1 <1>   0.1500 
 43 H        8.2270    -1.2670     1.4810 H     1 <1>   0.1500 
 44 H       10.0880    -0.2480    -0.2240 H     1 <1>   0.1500 
@<TRIPOS>BOND
  1   1   2  2   
  2   1   3  2   
  3   1   4  am  
  4   1   5  1   
  5   4   6  1   
  6   4   7  1   
  7   5   8  ar  
  8   5   9  ar  
  9   6  10  1   
 10   6  25  1   
 11   6  26  1   
 12   7  11  1   
 13   7  27  1   
 14   7  28  1   
 15   8  12  ar  
 16   8  29  1   
 17   9  13  ar  
 18   9  30  1   
 19  10  14  1   
 20  10  31  1   
 21  10  32  1   
 22  11  14  1   
 23  11  33  1   
 24  11  34  1   
 25  12  15  ar  
 26  12  35  1   
 27  13  15  ar  
 28  13  36  1   
 29  14  16  1   
 30  14  37  1   
 31  15  38  1   
 32  16  17  2   
 33  16  18  am  
 34  18  19  1   
 35  18  39  1   
 36  19  20  1   
 37  19  40  1   
 38  19  41  1   
 39  20  21  1   
 40  20  22  2   
 41  21  23  1   
 42  22  24  1   
 43  22  42  1   
 44  23  24  2   
 45  23  43  1   
 46  24  44  1   
@<TRIPOS>SUBSTRUCTURE
  1 ****  10 GROUP 4 **** **** 0

# MOE 2024.06 (io_trps.svl 2023.06)
