@<TRIPOS>MOLECULE
NONAME
54 56 1 0 0 
SMALL
USER_CHARGES


@<TRIPOS>ATOM
  1 S       -1.1610     0.8220    -1.3840 S.3   1 <1>  -0.0800 
  2 C       -2.1500     0.3330     0.0050 C.2   1 <1>   0.4420 
  3 C       -0.2740     1.9300    -0.3660 C.ar  1 <1>   0.0400 
  4 N       -1.8210     0.9220     1.0980 N.2   1 <1>  -0.5650 
  5 N       -3.1200    -0.6530    -0.1610 N.am  1 <1>  -0.4240 
  6 C       -0.7850     1.8260     0.9120 C.ar  1 <1>   0.2270 
  7 C        0.7590     2.7790    -0.7130 C.ar  1 <1>  -0.1500 
  8 C       -3.8780    -0.7950    -1.3140 C.2   1 <1>   0.5690 
  9 C       -3.3940    -1.5000     1.0360 C.3   1 <1>   0.1400 
 10 C       -0.2260     2.6220     1.9010 C.ar  1 <1>  -0.1500 
 11 C        1.3090     3.5690     0.2850 C.ar  1 <1>  -0.1440 
 12 O       -3.9500     0.0730    -2.1530 O.2   1 <1>  -0.5700 
 13 C       -4.6720    -2.0820    -1.6000 C.3   1 <1>   0.1710 
 14 C       -2.3660    -2.6300     1.1290 C.3   1 <1>  -0.2400 
 15 C        0.8120     3.4850     1.5850 C.ar  1 <1>  -0.1500 
 16 C        2.4460     4.5260    -0.0240 C.3   1 <1>  -0.0970 
 17 N       -5.9470    -2.2400    -0.8440 N.3   1 <1>  -0.8100 
 18 C       -6.5540    -3.5480    -1.1190 C.3   1 <1>   0.1100 
 19 C       -6.8780    -1.1370    -1.1310 C.3   1 <1>   0.1100 
 20 C       -7.7730    -3.7480    -0.2170 C.3   1 <1>  -0.1600 
 21 C       -8.1130    -1.2570    -0.2360 C.3   1 <1>  -0.1600 
 22 C       -8.8050    -2.6210    -0.4100 C.3   1 <1>  -0.0190 
 23 C      -10.0140    -2.7500     0.5160 C.2   1 <1>   0.6590 
 24 O      -10.0190    -3.4590     1.4900 O.2   1 <1>  -0.5700 
 25 O      -11.0720    -2.0250     0.1730 O.3   1 <1>  -0.4300 
 26 C      -12.2550    -2.0460     0.9370 C.3   1 <1>   0.1200 
 27 C      -13.2600    -1.1050     0.2800 C.3   1 <1>  -0.2400 
 28 H        1.1110     2.8140    -1.7280 H     1 <1>   0.1500 
 29 H       -4.3870    -1.9070     1.0060 H     1 <1>   0.0800 
 30 H       -3.3420    -0.8960     1.9260 H     1 <1>   0.0800 
 31 H       -0.6110     2.5560     2.9020 H     1 <1>   0.1500 
 32 H       -4.0320    -2.9170    -1.3870 H     1 <1>   0.0800 
 33 H       -4.8870    -2.1060    -2.6540 H     1 <1>   0.0800 
 34 H       -2.4080    -3.2580     0.2580 H     1 <1>   0.0800 
 35 H       -2.5750    -3.2330     1.9940 H     1 <1>   0.0800 
 36 H       -1.3750    -2.2230     1.2310 H     1 <1>   0.0800 
 37 H        1.2410     4.1000     2.3580 H     1 <1>   0.1500 
 38 H        2.7310     4.4640    -1.0590 H     1 <1>   0.0800 
 39 H        3.3010     4.2860     0.5820 H     1 <1>   0.0800 
 40 H        2.1410     5.5350     0.1880 H     1 <1>   0.0800 
 41 H       -5.8390    -4.3280    -0.9180 H     1 <1>   0.0800 
 42 H       -6.8460    -3.6090    -2.1540 H     1 <1>   0.0800 
 43 H       -7.1670    -1.1580    -2.1690 H     1 <1>   0.0800 
 44 H       -6.4020    -0.1910    -0.9330 H     1 <1>   0.0800 
 45 H       -7.4430    -3.7720     0.8080 H     1 <1>   0.0800 
 46 H       -8.2290    -4.6980    -0.4350 H     1 <1>   0.0800 
 47 H       -8.8010    -0.4660    -0.4760 H     1 <1>   0.0800 
 48 H       -7.8110    -1.1310     0.7890 H     1 <1>   0.0800 
 49 H       -9.1750    -2.6820    -1.4180 H     1 <1>   0.0800 
 50 H      -12.0200    -1.7240     1.9380 H     1 <1>   0.0800 
 51 H      -12.6270    -3.0560     0.9610 H     1 <1>   0.0800 
 52 H      -12.8690    -0.1040     0.2550 H     1 <1>   0.0800 
 53 H      -14.1750    -1.1020     0.8440 H     1 <1>   0.0800 
 54 H      -13.4750    -1.4340    -0.7210 H     1 <1>   0.0800 
@<TRIPOS>BOND
  1   1   2  1   
  2   1   3  1   
  3   2   4  2   
  4   2   5  1   
  5   3   6  ar  
  6   3   7  ar  
  7   4   6  1   
  8   5   8  am  
  9   5   9  1   
 10   6  10  ar  
 11   7  11  ar  
 12   7  28  1   
 13   8  12  2   
 14   8  13  1   
 15   9  14  1   
 16   9  29  1   
 17   9  30  1   
 18  10  15  ar  
 19  10  31  1   
 20  11  15  ar  
 21  11  16  1   
 22  13  17  1   
 23  13  32  1   
 24  13  33  1   
 25  14  34  1   
 26  14  35  1   
 27  14  36  1   
 28  15  37  1   
 29  16  38  1   
 30  16  39  1   
 31  16  40  1   
 32  17  18  1   
 33  17  19  1   
 34  18  20  1   
 35  18  41  1   
 36  18  42  1   
 37  19  21  1   
 38  19  43  1   
 39  19  44  1   
 40  20  22  1   
 41  20  45  1   
 42  20  46  1   
 43  21  22  1   
 44  21  47  1   
 45  21  48  1   
 46  22  23  1   
 47  22  49  1   
 48  23  24  2   
 49  23  25  1   
 50  25  26  1   
 51  26  27  1   
 52  26  50  1   
 53  26  51  1   
 54  27  52  1   
 55  27  53  1   
 56  27  54  1   
@<TRIPOS>SUBSTRUCTURE
  1 ****   5 GROUP 4 **** **** 0

# MOE 2024.06 (io_trps.svl 2023.06)
