@<TRIPOS>MOLECULE
NONAME
54 54 1 0 0 
SMALL
USER_CHARGES


@<TRIPOS>ATOM
  1 O        2.4510    -0.2020     0.4150 O.2   1 <1>  -0.5700 
  2 C        3.6490    -0.2900     0.2360 C.2   1 <1>   0.6900 
  3 N        4.2510    -0.0740    -0.9610 N.am  1 <1>  -0.6600 
  4 N        4.5370    -0.6140     1.2090 N.am  1 <1>  -0.6600 
  5 C        5.7070    -0.0950    -0.7830 C.3   1 <1>   0.5200 
  6 C        3.6040     0.0470    -2.2880 C.3   1 <1>   0.0600 
  7 C        5.8650    -0.7970     0.6140 C.3   1 <1>   0.5200 
  8 C        4.2950    -0.6700     2.6700 C.3   1 <1>   0.0600 
  9 N        6.0210     1.3320    -0.8010 N.am  1 <1>  -0.7300 
 10 N        5.9640    -2.2540     0.5710 N.am  1 <1>  -0.7300 
 11 C        7.0600     1.8990    -0.1710 C.2   1 <1>   0.6900 
 12 C        6.6830    -2.9490    -0.3240 C.2   1 <1>   0.6900 
 13 O        8.0340     1.2490     0.1370 O.2   1 <1>  -0.5700 
 14 N        7.0260     3.2020     0.1610 N.am  1 <1>  -0.7300 
 15 O        7.6060    -2.4380    -0.9160 O.2   1 <1>  -0.5700 
 16 N        6.3690    -4.2270    -0.6030 N.am  1 <1>  -0.7300 
 17 C        5.8940     4.0790     0.4740 C.3   1 <1>   0.3000 
 18 C        5.0820    -4.9270    -0.5530 C.3   1 <1>   0.3000 
 19 C        4.9190     3.3790     1.4260 C.3   1 <1>  -0.2400 
 20 C        5.2030     4.5070    -0.8200 C.3   1 <1>  -0.2400 
 21 C        6.4840     5.3060     1.1660 C.3   1 <1>  -0.2400 
 22 C        3.9810    -4.0760    -1.1940 C.3   1 <1>  -0.2400 
 23 C        4.7450    -5.2800     0.8960 C.3   1 <1>  -0.2400 
 24 C        5.2630    -6.2110    -1.3610 C.3   1 <1>  -0.2400 
 25 H        6.2180    -0.6090    -1.5770 H     1 <1>   0.0800 
 26 H        2.5330     0.0340    -2.1750 H     1 <1>   0.0800 
 27 H        3.9000    -0.7780    -2.9120 H     1 <1>   0.0800 
 28 H        3.8970     0.9700    -2.7560 H     1 <1>   0.0800 
 29 H        6.6530    -0.3780     1.2130 H     1 <1>   0.0800 
 30 H        3.2510    -0.5030     2.8740 H     1 <1>   0.0800 
 31 H        4.8740     0.0910     3.1630 H     1 <1>   0.0800 
 32 H        4.5770    -1.6350     3.0520 H     1 <1>   0.0800 
 33 H        5.1830     1.8950    -0.8850 H     1 <1>   0.3700 
 34 H        5.1160    -2.6940     0.9070 H     1 <1>   0.3700 
 35 H        7.9010     3.5150     0.5780 H     1 <1>   0.3700 
 36 H        7.0300    -4.6520    -1.2510 H     1 <1>   0.3700 
 37 H        4.4250     2.5540     0.9500 H     1 <1>   0.0800 
 38 H        4.1590     4.0690     1.7450 H     1 <1>   0.0800 
 39 H        5.4380     3.0220     2.2980 H     1 <1>   0.0800 
 40 H        4.7400     3.6730    -1.3120 H     1 <1>   0.0800 
 41 H        5.9130     4.9560    -1.4910 H     1 <1>   0.0800 
 42 H        4.4360     5.2290    -0.6070 H     1 <1>   0.0800 
 43 H        6.9830     5.0250     2.0760 H     1 <1>   0.0800 
 44 H        5.7030     6.0020     1.4150 H     1 <1>   0.0800 
 45 H        7.1830     5.8050     0.5190 H     1 <1>   0.0800 
 46 H        3.7700    -3.1990    -0.6120 H     1 <1>   0.0800 
 47 H        3.0710    -4.6440    -1.2620 H     1 <1>   0.0800 
 48 H        4.2680    -3.7770    -2.1860 H     1 <1>   0.0800 
 49 H        4.5690    -4.3990     1.4830 H     1 <1>   0.0800 
 50 H        5.5490    -5.8400     1.3400 H     1 <1>   0.0800 
 51 H        3.8550    -5.8810     0.9310 H     1 <1>   0.0800 
 52 H        5.5090    -5.9840    -2.3830 H     1 <1>   0.0800 
 53 H        4.3530    -6.7830    -1.3560 H     1 <1>   0.0800 
 54 H        6.0420    -6.8180    -0.9360 H     1 <1>   0.0800 
@<TRIPOS>BOND
  1   1   2  2   
  2   2   3  am  
  3   2   4  am  
  4   3   5  1   
  5   3   6  1   
  6   4   7  1   
  7   4   8  1   
  8   5   7  1   
  9   5   9  1   
 10   5  25  1   
 11   6  26  1   
 12   6  27  1   
 13   6  28  1   
 14   7  10  1   
 15   7  29  1   
 16   8  30  1   
 17   8  31  1   
 18   8  32  1   
 19   9  11  am  
 20   9  33  1   
 21  10  12  am  
 22  10  34  1   
 23  11  13  2   
 24  11  14  am  
 25  12  15  2   
 26  12  16  am  
 27  14  17  1   
 28  14  35  1   
 29  16  18  1   
 30  16  36  1   
 31  17  19  1   
 32  17  20  1   
 33  17  21  1   
 34  18  22  1   
 35  18  23  1   
 36  18  24  1   
 37  19  37  1   
 38  19  38  1   
 39  19  39  1   
 40  20  40  1   
 41  20  41  1   
 42  20  42  1   
 43  21  43  1   
 44  21  44  1   
 45  21  45  1   
 46  22  46  1   
 47  22  47  1   
 48  22  48  1   
 49  23  49  1   
 50  23  50  1   
 51  23  51  1   
 52  24  52  1   
 53  24  53  1   
 54  24  54  1   
@<TRIPOS>SUBSTRUCTURE
  1 ****   7 GROUP 4 **** **** 0

# MOE 2024.06 (io_trps.svl 2023.06)
