@<TRIPOS>MOLECULE
NONAME
16 15 1 0 0 
SMALL
USER_CHARGES


@<TRIPOS>ATOM
  1 O       -1.8680     2.6350     0.4910 O.co2 1 <1>  -0.9000 
  2 C       -2.7600     2.4180    -0.3230 C.2   1 <1>   0.9060 
  3 O       -2.5130     2.1600    -1.5040 O.co2 1 <1>  -0.9000 
  4 C       -4.0710     1.9130     0.2290 C.3   1 <1>  -0.1860 
  5 C       -4.0880     0.3960     0.0030 C.3   1 <1>   0.3430 
  6 C       -5.3070     2.5950    -0.3930 C.3   1 <1>  -0.2400 
  7 N       -2.7050    -0.1400    -0.0700 N.4   1 <1>  -0.8530 
  8 H       -4.0720     2.1050     1.2870 H     1 <1>   0.0800 
  9 H       -4.5810     0.1980    -0.9350 H     1 <1>   0.0800 
 10 H       -4.6430    -0.0860     0.7910 H     1 <1>   0.0800 
 11 H       -5.3220     2.4430    -1.4600 H     1 <1>   0.0800 
 12 H       -5.2660     3.6550    -0.2090 H     1 <1>   0.0800 
 13 H       -6.2160     2.2090     0.0320 H     1 <1>   0.0800 
 14 H       -2.2740     0.3970    -0.8610 H     1 <1>   0.4500 
 15 H       -2.6080    -1.1400    -0.2350 H     1 <1>   0.4500 
 16 H       -2.1510     0.1990     0.7290 H     1 <1>   0.4500 
@<TRIPOS>BOND
  1   1   2  ar  
  2   2   3  ar  
  3   2   4  1   
  4   4   5  1   
  5   4   6  1   
  6   4   8  1   
  7   5   7  1   
  8   5   9  1   
  9   5  10  1   
 10   6  11  1   
 11   6  12  1   
 12   6  13  1   
 13   7  14  1   
 14   7  15  1   
 15   7  16  1   
@<TRIPOS>SUBSTRUCTURE
  1 ****   4 GROUP 4 **** **** 0

# MOE 2024.06 (io_trps.svl 2023.06)
