@<TRIPOS>MOLECULE
NONAME
36 37 1 0 0 
SMALL
USER_CHARGES


@<TRIPOS>ATOM
  1 CL      -0.7880    -1.3290    -2.1090 Cl    1 <1>  -0.1770 
  2 C        0.0710    -2.2480    -0.8980 C.ar  1 <1>   0.1770 
  3 C       -0.5610    -2.7090     0.2500 C.ar  1 <1>  -0.0090 
  4 C        1.4020    -2.5150    -1.1540 C.ar  1 <1>  -0.1500 
  5 S       -2.3150    -2.4120     0.5670 S.o2  1 <1>   1.4470 
  6 C        0.1990    -3.4690     1.1310 C.ar  1 <1>  -0.1500 
  7 C        2.1240    -3.2770    -0.2600 C.ar  1 <1>   0.1770 
  8 O       -2.6950    -1.0640     0.2070 O.2   1 <1>  -0.6500 
  9 O       -2.6810    -2.8830     1.8850 O.2   1 <1>  -0.6500 
 10 N       -3.0750    -3.4650    -0.5230 N.am  1 <1>  -0.8490 
 11 C        1.5420    -3.7740     0.9010 C.ar  1 <1>  -0.1790 
 12 CL       3.7860    -3.6210    -0.6670 Cl    1 <1>  -0.1770 
 13 C       -2.7220    -4.8840    -0.2710 C.3   1 <1>   0.1960 
 14 C       -4.5390    -3.2590    -0.5710 C.3   1 <1>   0.1960 
 15 C        2.2610    -4.6010     1.8370 C.2   1 <1>   0.9790 
 16 C       -3.7850    -5.8650    -0.8150 C.3   1 <1>   0.2000 
 17 C       -5.3220    -4.3340     0.2180 C.3   1 <1>   0.2000 
 18 O        1.7990    -5.7170     2.1270 O.co2 1 <1>  -0.9000 
 19 O        3.2840    -4.1890     2.4020 O.co2 1 <1>  -0.9000 
 20 O       -5.0570    -5.6230    -0.2700 O.3   1 <1>  -0.5600 
 21 C       -3.4400    -7.3190    -0.5030 C.3   1 <1>  -0.2400 
 22 C       -6.8320    -4.1300     0.1330 C.3   1 <1>  -0.2400 
 23 H        1.8710    -2.1450    -2.0460 H     1 <1>   0.1500 
 24 H       -0.2520    -3.8600     2.0310 H     1 <1>   0.1500 
 25 H       -2.6190    -5.0700     0.7850 H     1 <1>   0.0800 
 26 H       -1.7730    -5.0970    -0.7300 H     1 <1>   0.0800 
 27 H       -4.8560    -3.2970    -1.5980 H     1 <1>   0.0800 
 28 H       -4.7990    -2.2830    -0.1990 H     1 <1>   0.0800 
 29 H       -3.8630    -5.7380    -1.8810 H     1 <1>   0.0800 
 30 H       -5.0170    -4.3050     1.2520 H     1 <1>   0.0800 
 31 H       -3.3890    -7.4700     0.5610 H     1 <1>   0.0800 
 32 H       -2.4890    -7.5750    -0.9330 H     1 <1>   0.0800 
 33 H       -4.1900    -7.9680    -0.9180 H     1 <1>   0.0800 
 34 H       -7.1590    -4.1850    -0.8900 H     1 <1>   0.0800 
 35 H       -7.0980    -3.1680     0.5320 H     1 <1>   0.0800 
 36 H       -7.3330    -4.8880     0.7080 H     1 <1>   0.0800 
@<TRIPOS>BOND
  1   1   2  1   
  2   2   3  ar  
  3   2   4  ar  
  4   3   5  1   
  5   3   6  ar  
  6   4   7  ar  
  7   4  23  1   
  8   5   8  2   
  9   5   9  2   
 10   5  10  am  
 11   6  11  ar  
 12   6  24  1   
 13   7  11  ar  
 14   7  12  1   
 15  10  13  1   
 16  10  14  1   
 17  11  15  1   
 18  13  16  1   
 19  13  25  1   
 20  13  26  1   
 21  14  17  1   
 22  14  27  1   
 23  14  28  1   
 24  15  18  ar  
 25  15  19  ar  
 26  16  20  1   
 27  16  21  1   
 28  16  29  1   
 29  17  20  1   
 30  17  22  1   
 31  17  30  1   
 32  21  31  1   
 33  21  32  1   
 34  21  33  1   
 35  22  34  1   
 36  22  35  1   
 37  22  36  1   
@<TRIPOS>SUBSTRUCTURE
  1 ****   3 GROUP 4 **** **** 0

# MOE 2024.06 (io_trps.svl 2023.06)
