@<TRIPOS>MOLECULE
NONAME
51 53 1 0 0 
SMALL
USER_CHARGES


@<TRIPOS>ATOM
  1 O       -6.5440     7.1500     1.7040 O.2   1 <1>  -0.5700 
  2 C       -7.7270     7.2400     1.4900 C.2   1 <1>   0.5690 
  3 N       -8.4660     6.2710     0.8680 N.am  1 <1>  -0.5470 
  4 C       -8.4440     8.5090     1.9060 C.3   1 <1>  -0.0990 
  5 C       -8.0860     5.0410     0.3100 C.ar  1 <1>   0.1170 
  6 C       -8.7590     9.4320     0.7170 C.3   1 <1>   0.1100 
  7 C       -6.9350     4.3550     0.6930 C.ar  1 <1>  -0.1500 
  8 C       -8.9080     4.4730    -0.6630 C.ar  1 <1>  -0.1500 
  9 N       -7.6690    10.3810     0.4100 N.3   1 <1>  -0.8100 
 10 C       -6.6270     3.1460     0.1020 C.ar  1 <1>  -0.1430 
 11 C       -8.5940     3.2580    -1.2510 C.ar  1 <1>  -0.1500 
 12 C       -6.4030     9.7130    -0.0080 C.3   1 <1>   0.1100 
 13 C       -8.1000    11.3720    -0.6050 C.3   1 <1>   0.1100 
 14 C       -7.4430     2.6030    -0.8570 C.ar  1 <1>  -0.1430 
 15 C       -5.4360     2.2610     0.3740 C.3   1 <1>  -0.0170 
 16 C       -5.3670    10.6830    -0.6180 C.3   1 <1>   0.3430 
 17 C       -7.0300    12.4680    -0.8460 C.3   1 <1>   0.3430 
 18 C       -6.9050     1.2840    -1.3540 C.3   1 <1>  -0.0170 
 19 C       -5.7980     0.9470    -0.3400 C.3   1 <1>  -0.1600 
 20 N       -5.7070    12.0930    -0.2440 N.4   1 <1>  -0.9590 
 21 C       -4.6370    13.0970    -0.5340 C.3   1 <1>   0.3430 
 22 C       -3.3870    12.8890     0.3330 C.3   1 <1>   0.1200 
 23 O       -2.4730    13.8700    -0.0040 O.3   1 <1>  -0.6800 
 24 H       -9.4590     6.4710     0.7750 H     1 <1>   0.3700 
 25 H       -7.8630     9.0380     2.6400 H     1 <1>   0.0800 
 26 H       -9.3650     8.2230     2.3760 H     1 <1>   0.0800 
 27 H       -9.6340    10.0040     0.9770 H     1 <1>   0.0800 
 28 H       -8.9990     8.8480    -0.1560 H     1 <1>   0.0800 
 29 H       -6.2840     4.7540     1.4480 H     1 <1>   0.1500 
 30 H       -9.8010     4.9830    -0.9700 H     1 <1>   0.1500 
 31 H       -9.2330     2.8290    -2.0020 H     1 <1>   0.1500 
 32 H       -6.6030     8.9180    -0.7060 H     1 <1>   0.0800 
 33 H       -5.9440     9.2780     0.8610 H     1 <1>   0.0800 
 34 H       -9.0130    11.8470    -0.2880 H     1 <1>   0.0800 
 35 H       -8.3050    10.8690    -1.5360 H     1 <1>   0.0800 
 36 H       -5.2880     2.1120     1.4290 H     1 <1>   0.0800 
 37 H       -4.5570     2.7030    -0.0610 H     1 <1>   0.0800 
 38 H       -5.3680    10.5770    -1.6900 H     1 <1>   0.0800 
 39 H       -4.3870    10.4140    -0.2600 H     1 <1>   0.0800 
 40 H       -7.3750    13.3900    -0.4070 H     1 <1>   0.0800 
 41 H       -6.9260    12.6310    -1.9060 H     1 <1>   0.0800 
 42 H       -6.4930     1.4150    -2.3380 H     1 <1>   0.0800 
 43 H       -7.6690     0.5270    -1.3720 H     1 <1>   0.0800 
 44 H       -6.1920     0.2580     0.3860 H     1 <1>   0.0800 
 45 H       -4.9420     0.5020    -0.8160 H     1 <1>   0.0800 
 46 H       -5.9040    12.0470     0.7680 H     1 <1>   0.4500 
 47 H       -5.0150    14.0870    -0.3400 H     1 <1>   0.0800 
 48 H       -4.3560    13.0380    -1.5720 H     1 <1>   0.0800 
 49 H       -2.9300    11.9340     0.1450 H     1 <1>   0.0800 
 50 H       -3.6220    12.9960     1.3790 H     1 <1>   0.0800 
 51 H       -1.6560    13.8060     0.5370 H     1 <1>   0.4000 
@<TRIPOS>BOND
  1   1   2  2   
  2   2   3  am  
  3   2   4  1   
  4   3   5  1   
  5   3  24  1   
  6   4   6  1   
  7   4  25  1   
  8   4  26  1   
  9   5   7  ar  
 10   5   8  ar  
 11   6   9  1   
 12   6  27  1   
 13   6  28  1   
 14   7  10  ar  
 15   7  29  1   
 16   8  11  ar  
 17   8  30  1   
 18   9  12  1   
 19   9  13  1   
 20  10  14  ar  
 21  10  15  1   
 22  11  14  ar  
 23  11  31  1   
 24  12  16  1   
 25  12  32  1   
 26  12  33  1   
 27  13  17  1   
 28  13  34  1   
 29  13  35  1   
 30  14  18  1   
 31  15  19  1   
 32  15  36  1   
 33  15  37  1   
 34  16  20  1   
 35  16  38  1   
 36  16  39  1   
 37  17  20  1   
 38  17  40  1   
 39  17  41  1   
 40  18  19  1   
 41  18  42  1   
 42  18  43  1   
 43  19  44  1   
 44  19  45  1   
 45  20  21  1   
 46  20  46  1   
 47  21  22  1   
 48  21  47  1   
 49  21  48  1   
 50  22  23  1   
 51  22  49  1   
 52  22  50  1   
 53  23  51  1   
@<TRIPOS>SUBSTRUCTURE
  1 ****   1 GROUP 4 **** **** 0

# MOE 2024.06 (io_trps.svl 2023.06)
