@<TRIPOS>MOLECULE
NONAME
48 49 1 0 0 
SMALL
USER_CHARGES


@<TRIPOS>ATOM
  1 O        0.0200    -0.3860    -0.7820 O.2   1 <1>  -0.5700 
  2 C       -0.5250    -1.3470    -0.2700 C.2   1 <1>   0.5440 
  3 N        0.2420    -2.4360     0.1060 N.am  1 <1>  -0.6600 
  4 C       -1.9610    -1.3090    -0.0850 C.ar  1 <1>   0.0860 
  5 C       -0.3340    -3.7480     0.5100 C.3   1 <1>   0.1400 
  6 C        1.7290    -2.3420     0.1400 C.3   1 <1>   0.1400 
  7 C       -2.8170    -1.1940    -1.1790 C.ar  1 <1>  -0.1500 
  8 C       -2.5430    -1.3660     1.1820 C.ar  1 <1>  -0.1500 
  9 C       -0.9070    -4.4760    -0.7050 C.3   1 <1>  -0.2400 
 10 C        2.3290    -2.9940    -1.1040 C.3   1 <1>  -0.2400 
 11 C       -4.1880    -1.1440    -1.0190 C.ar  1 <1>  -0.1500 
 12 C       -3.9140    -1.3140     1.3470 C.ar  1 <1>  -0.1500 
 13 C       -4.7550    -1.1910     0.2490 C.ar  1 <1>   0.1170 
 14 N       -6.1340    -1.1050     0.4320 N.am  1 <1>  -0.5470 
 15 C       -6.9840    -0.0780     0.1570 C.2   1 <1>   0.5690 
 16 O       -8.1510    -0.1820     0.4340 O.2   1 <1>  -0.5700 
 17 C       -6.4840     1.2120    -0.4670 C.3   1 <1>  -0.0990 
 18 C       -5.7210     2.0760     0.5440 C.3   1 <1>  -0.0170 
 19 C       -5.0450     3.2370    -0.1650 C.ar  1 <1>  -0.1430 
 20 C       -5.7120     4.4380    -0.3470 C.ar  1 <1>  -0.1500 
 21 C       -3.7510     3.0970    -0.6420 C.ar  1 <1>  -0.1500 
 22 C       -5.0910     5.4890    -0.9990 C.ar  1 <1>  -0.1500 
 23 C       -3.1290     4.1470    -1.2940 C.ar  1 <1>  -0.1500 
 24 C       -3.7990     5.3450    -1.4720 C.ar  1 <1>  -0.1500 
 25 H       -1.1050    -3.6010     1.2460 H     1 <1>   0.0800 
 26 H        0.4320    -4.3560     0.9610 H     1 <1>   0.0800 
 27 H        2.1040    -2.8210     1.0280 H     1 <1>   0.0800 
 28 H        2.0300    -1.3080     0.1780 H     1 <1>   0.0800 
 29 H       -2.3860    -1.1410    -2.1650 H     1 <1>   0.1500 
 30 H       -1.9010    -1.4430     2.0430 H     1 <1>   0.1500 
 31 H       -1.7230    -3.9230    -1.1320 H     1 <1>   0.0800 
 32 H       -1.2740    -5.4400    -0.4060 H     1 <1>   0.0800 
 33 H       -0.1480    -4.6180    -1.4530 H     1 <1>   0.0800 
 34 H        2.1330    -4.0500    -1.1130 H     1 <1>   0.0800 
 35 H        3.3930    -2.8470    -1.1090 H     1 <1>   0.0800 
 36 H        1.9170    -2.5400    -1.9880 H     1 <1>   0.0800 
 37 H       -4.8250    -1.0660    -1.8820 H     1 <1>   0.1500 
 38 H       -4.3380    -1.3560     2.3350 H     1 <1>   0.1500 
 39 H       -6.5890    -1.8690     0.9320 H     1 <1>   0.3700 
 40 H       -7.3260     1.7660    -0.8410 H     1 <1>   0.0800 
 41 H       -5.8540     0.9860    -1.3040 H     1 <1>   0.0800 
 42 H       -4.9720     1.4900     1.0460 H     1 <1>   0.0800 
 43 H       -6.4010     2.4440     1.2930 H     1 <1>   0.0800 
 44 H       -6.7180     4.5590     0.0170 H     1 <1>   0.1500 
 45 H       -3.2190     2.1690    -0.5100 H     1 <1>   0.1500 
 46 H       -5.6130     6.4200    -1.1370 H     1 <1>   0.1500 
 47 H       -2.1240     4.0300    -1.6600 H     1 <1>   0.1500 
 48 H       -3.3160     6.1620    -1.9790 H     1 <1>   0.1500 
@<TRIPOS>BOND
  1   1   2  2   
  2   2   3  am  
  3   2   4  1   
  4   3   5  1   
  5   3   6  1   
  6   4   7  ar  
  7   4   8  ar  
  8   5   9  1   
  9   5  25  1   
 10   5  26  1   
 11   6  10  1   
 12   6  27  1   
 13   6  28  1   
 14   7  11  ar  
 15   7  29  1   
 16   8  12  ar  
 17   8  30  1   
 18   9  31  1   
 19   9  32  1   
 20   9  33  1   
 21  10  34  1   
 22  10  35  1   
 23  10  36  1   
 24  11  13  ar  
 25  11  37  1   
 26  12  13  ar  
 27  12  38  1   
 28  13  14  1   
 29  14  15  am  
 30  14  39  1   
 31  15  16  2   
 32  15  17  1   
 33  17  18  1   
 34  17  40  1   
 35  17  41  1   
 36  18  19  1   
 37  18  42  1   
 38  18  43  1   
 39  19  20  ar  
 40  19  21  ar  
 41  20  22  ar  
 42  20  44  1   
 43  21  23  ar  
 44  21  45  1   
 45  22  24  ar  
 46  22  46  1   
 47  23  24  ar  
 48  23  47  1   
 49  24  48  1   
@<TRIPOS>SUBSTRUCTURE
  1 ****   7 GROUP 4 **** **** 0

# MOE 2024.06 (io_trps.svl 2023.06)
