@<TRIPOS>MOLECULE
NONAME
42 43 1 0 0 
SMALL
USER_CHARGES


@<TRIPOS>ATOM
  1 O       -0.2840     1.5260     0.6120 O.3   1 <1>  -0.5600 
  2 C       -0.5260     2.5080    -0.3530 C.3   1 <1>   0.1200 
  3 C       -1.2460     1.4430     1.6230 C.3   1 <1>   0.1200 
  4 C       -1.8750     2.2480    -1.0500 C.3   1 <1>   0.3430 
  5 C       -2.6300     1.1350     1.0190 C.3   1 <1>   0.3430 
  6 N       -3.0000     2.1250    -0.0570 N.4   1 <1>  -0.9590 
  7 C       -4.2720     1.7710    -0.7460 C.3   1 <1>   0.3430 
  8 C       -5.4700     1.9830     0.1840 C.3   1 <1>  -0.1600 
  9 C       -6.7820     1.7110    -0.5660 C.3   1 <1>  -0.1600 
 10 C       -8.0070     1.9200     0.3270 C.3   1 <1>   0.1200 
 11 O       -9.1450     1.6420    -0.4490 O.3   1 <1>  -0.3630 
 12 C      -10.4020     1.7380     0.0620 C.ar  1 <1>   0.0820 
 13 C      -11.4670     1.4390    -0.7850 C.ar  1 <1>  -0.1440 
 14 C      -10.6570     2.1180     1.3780 C.ar  1 <1>  -0.1500 
 15 C      -12.7660     1.5220    -0.3100 C.ar  1 <1>  -0.1500 
 16 C      -11.2180     1.0210    -2.2270 C.3   1 <1>  -0.0970 
 17 C      -11.9580     2.1980     1.8420 C.ar  1 <1>  -0.1500 
 18 C      -13.0130     1.9000     0.9980 C.ar  1 <1>  -0.1500 
 19 H        0.2760     2.4650    -1.0690 H     1 <1>   0.0800 
 20 H       -0.5100     3.4740     0.1210 H     1 <1>   0.0800 
 21 H       -1.2550     2.3690     2.1720 H     1 <1>   0.0800 
 22 H       -0.9490     0.6530     2.2910 H     1 <1>   0.0800 
 23 H       -1.7890     1.3350    -1.6180 H     1 <1>   0.0800 
 24 H       -2.0770     3.0490    -1.7420 H     1 <1>   0.0800 
 25 H       -3.3670     1.1470     1.8040 H     1 <1>   0.0800 
 26 H       -2.6030     0.1410     0.6040 H     1 <1>   0.0800 
 27 H       -3.1180     3.0440     0.3890 H     1 <1>   0.4500 
 28 H       -4.2420     0.7450    -1.0770 H     1 <1>   0.0800 
 29 H       -4.3980     2.3980    -1.6150 H     1 <1>   0.0800 
 30 H       -5.4780     2.9980     0.5410 H     1 <1>   0.0800 
 31 H       -5.4120     1.3150     1.0260 H     1 <1>   0.0800 
 32 H       -6.7920     0.6950    -0.9250 H     1 <1>   0.0800 
 33 H       -6.8620     2.3730    -1.4120 H     1 <1>   0.0800 
 34 H       -8.0710     2.9400     0.6660 H     1 <1>   0.0800 
 35 H       -7.9970     1.2440     1.1640 H     1 <1>   0.0800 
 36 H       -9.8630     2.3560     2.0580 H     1 <1>   0.1500 
 37 H      -13.5950     1.2930    -0.9550 H     1 <1>   0.1500 
 38 H      -10.6910     1.8020    -2.7450 H     1 <1>   0.0800 
 39 H      -12.1420     0.8310    -2.7430 H     1 <1>   0.0800 
 40 H      -10.6220     0.1270    -2.2490 H     1 <1>   0.0800 
 41 H      -12.1520     2.4920     2.8590 H     1 <1>   0.1500 
 42 H      -14.0250     1.9620     1.3580 H     1 <1>   0.1500 
@<TRIPOS>BOND
  1   1   2  1   
  2   1   3  1   
  3   2   4  1   
  4   2  19  1   
  5   2  20  1   
  6   3   5  1   
  7   3  21  1   
  8   3  22  1   
  9   4   6  1   
 10   4  23  1   
 11   4  24  1   
 12   5   6  1   
 13   5  25  1   
 14   5  26  1   
 15   6   7  1   
 16   6  27  1   
 17   7   8  1   
 18   7  28  1   
 19   7  29  1   
 20   8   9  1   
 21   8  30  1   
 22   8  31  1   
 23   9  10  1   
 24   9  32  1   
 25   9  33  1   
 26  10  11  1   
 27  10  34  1   
 28  10  35  1   
 29  11  12  1   
 30  12  13  ar  
 31  12  14  ar  
 32  13  15  ar  
 33  13  16  1   
 34  14  17  ar  
 35  14  36  1   
 36  15  18  ar  
 37  15  37  1   
 38  16  38  1   
 39  16  39  1   
 40  16  40  1   
 41  17  18  ar  
 42  17  41  1   
 43  18  42  1   
@<TRIPOS>SUBSTRUCTURE
  1 ****   9 GROUP 4 **** **** 0

# MOE 2024.06 (io_trps.svl 2023.06)
