@<TRIPOS>MOLECULE
NONAME
39 41 1 0 0 
SMALL
USER_CHARGES


@<TRIPOS>ATOM
  1 CL       0.4990    -2.2730     2.7700 Cl    1 <1>  -0.1770 
  2 C        1.1610    -2.5140     1.1720 C.ar  1 <1>   0.1770 
  3 C        0.3340    -2.6570     0.0720 C.ar  1 <1>   0.1770 
  4 C        2.5370    -2.5610     1.0280 C.ar  1 <1>  -0.1500 
  5 CL      -1.4040    -2.6010     0.2410 Cl    1 <1>  -0.1770 
  6 C        0.8800    -2.8470    -1.1840 C.ar  1 <1>  -0.1500 
  7 C        3.1000    -2.7530    -0.2320 C.ar  1 <1>  -0.1440 
  8 C        2.2580    -2.8940    -1.3310 C.ar  1 <1>  -0.1500 
  9 C        4.6110    -2.8180    -0.4520 C.3   1 <1>   0.5670 
 10 N        5.2200    -3.6220     0.6220 N.4   1 <1>  -0.9060 
 11 C        5.3230    -1.4450    -0.5830 C.3   1 <1>  -0.0800 
 12 C        6.6300    -4.0040     0.3410 C.3   1 <1>   0.3430 
 13 C        6.7320    -1.4600     0.0500 C.3   1 <1>   0.2800 
 14 C        4.5250    -0.1860    -0.1400 C.3   1 <1>  -0.1600 
 15 C        7.4260    -2.8060    -0.2010 C.3   1 <1>  -0.1600 
 16 O        6.5830    -1.3470     1.4230 O.3   1 <1>  -0.6800 
 17 C        7.5640    -0.2520    -0.4230 C.3   1 <1>  -0.1600 
 18 C        5.4000     1.0800    -0.0070 C.3   1 <1>  -0.1600 
 19 C        6.7190     0.9880    -0.7890 C.3   1 <1>  -0.1600 
 20 H        3.1360    -2.4340     1.9120 H     1 <1>   0.1500 
 21 H        0.2270    -2.9550    -2.0330 H     1 <1>   0.1500 
 22 H        2.6600    -3.0410    -2.3210 H     1 <1>   0.1500 
 23 H        4.7710    -3.3470    -1.3780 H     1 <1>   0.0800 
 24 H        4.6230    -4.4180     0.8690 H     1 <1>   0.4500 
 25 H        5.2760    -2.9800     1.4300 H     1 <1>   0.4500 
 26 H        5.4690    -1.3270    -1.6430 H     1 <1>   0.0800 
 27 H        6.6660    -4.8140    -0.3700 H     1 <1>   0.0800 
 28 H        7.0900    -4.3430     1.2570 H     1 <1>   0.0800 
 29 H        4.0500    -0.3480     0.8110 H     1 <1>   0.0800 
 30 H        3.7450     0.0030    -0.8590 H     1 <1>   0.0800 
 31 H        7.5670    -2.9380    -1.2590 H     1 <1>   0.0800 
 32 H        8.4080    -2.8000     0.2410 H     1 <1>   0.0800 
 33 H        6.5250    -0.3930     1.6470 H     1 <1>   0.4000 
 34 H        8.1210    -0.5260    -1.3020 H     1 <1>   0.0800 
 35 H        8.2910     0.0050     0.3300 H     1 <1>   0.0800 
 36 H        5.6270     1.2510     1.0310 H     1 <1>   0.0800 
 37 H        4.8410     1.9370    -0.3460 H     1 <1>   0.0800 
 38 H        6.4850     0.9550    -1.8400 H     1 <1>   0.0800 
 39 H        7.3010     1.8810    -0.6280 H     1 <1>   0.0800 
@<TRIPOS>BOND
  1   1   2  1   
  2   2   3  ar  
  3   2   4  ar  
  4   3   5  1   
  5   3   6  ar  
  6   4   7  ar  
  7   4  20  1   
  8   6   8  ar  
  9   6  21  1   
 10   7   8  ar  
 11   7   9  1   
 12   8  22  1   
 13   9  10  1   
 14   9  11  1   
 15   9  23  1   
 16  10  12  1   
 17  10  24  1   
 18  10  25  1   
 19  11  13  1   
 20  11  14  1   
 21  11  26  1   
 22  12  15  1   
 23  12  27  1   
 24  12  28  1   
 25  13  15  1   
 26  13  16  1   
 27  13  17  1   
 28  14  18  1   
 29  14  29  1   
 30  14  30  1   
 31  15  31  1   
 32  15  32  1   
 33  16  33  1   
 34  17  19  1   
 35  17  34  1   
 36  17  35  1   
 37  18  19  1   
 38  18  36  1   
 39  18  37  1   
 40  19  38  1   
 41  19  39  1   
@<TRIPOS>SUBSTRUCTURE
  1 ****   9 GROUP 4 **** **** 0

# MOE 2024.06 (io_trps.svl 2023.06)
