@<TRIPOS>MOLECULE
NONAME
56 57 1 0 0 
SMALL
USER_CHARGES


@<TRIPOS>ATOM
  1 S        0.0590    -0.0800     0.1750 S.o2  1 <1>   1.4470 
  2 O        1.0140    -0.4600    -0.8460 O.2   1 <1>  -0.6500 
  3 O        0.3870    -0.2960     1.5640 O.2   1 <1>  -0.6500 
  4 N       -0.1870     1.6210    -0.0320 N.am  1 <1>  -0.6930 
  5 C       -1.5730    -0.7580    -0.2260 C.ar  1 <1>  -0.0090 
  6 C       -1.0650     2.2950     0.8040 C.ar  1 <1>   0.1990 
  7 C        0.9370     2.4020    -0.6380 C.3   1 <1>   0.2570 
  8 C       -1.8820    -1.1920    -1.5110 C.ar  1 <1>  -0.1500 
  9 C       -2.5720    -0.8260     0.7390 C.ar  1 <1>  -0.1500 
 10 C       -0.6670     2.7390     2.0580 C.ar  1 <1>  -0.1500 
 11 C       -2.3710     2.5290     0.3960 C.ar  1 <1>  -0.1500 
 12 C        2.2280     2.4050     0.1880 C.2   1 <1>   0.5690 
 13 C       -3.1390    -1.6800    -1.8260 C.ar  1 <1>  -0.1500 
 14 C       -3.8310    -1.3110     0.4340 C.ar  1 <1>  -0.1500 
 15 C       -1.5550     3.4010     2.8850 C.ar  1 <1>  -0.1500 
 16 C       -3.2620     3.1890     1.2220 C.ar  1 <1>  -0.1500 
 17 O        2.5080     3.4040     0.8080 O.2   1 <1>  -0.5700 
 18 N        3.0110     1.2900     0.1850 N.am  1 <1>  -0.7300 
 19 C       -4.1260    -1.7410    -0.8480 C.ar  1 <1>   0.0830 
 20 C       -2.8580     3.6300     2.4720 C.ar  1 <1>  -0.1430 
 21 C        4.1720     0.9760     1.0160 C.3   1 <1>   0.3000 
 22 O       -5.3810    -2.1990    -1.0660 O.3   1 <1>  -0.3620 
 23 C       -3.8310     4.3540     3.3850 C.3   1 <1>  -0.0970 
 24 C        4.5820    -0.4510     0.6570 C.3   1 <1>  -0.2400 
 25 C        3.7780     1.0390     2.4920 C.3   1 <1>  -0.2400 
 26 C        5.3140     1.9390     0.6970 C.3   1 <1>  -0.2400 
 27 C       -5.7810    -2.6850    -2.3260 C.3   1 <1>   0.1200 
 28 C       -7.2370    -3.1300    -2.2200 C.3   1 <1>  -0.2400 
 29 H        0.6210     3.4220    -0.7630 H     1 <1>   0.0800 
 30 H        1.1540     2.0090    -1.6140 H     1 <1>   0.0800 
 31 H       -1.1270    -1.1480    -2.2780 H     1 <1>   0.1500 
 32 H       -2.3630    -0.4900     1.7420 H     1 <1>   0.1500 
 33 H        0.3420     2.5610     2.3870 H     1 <1>   0.1500 
 34 H       -2.6890     2.1880    -0.5730 H     1 <1>   0.1500 
 35 H       -3.3300    -2.0050    -2.8310 H     1 <1>   0.1500 
 36 H       -4.5950    -1.3570     1.1900 H     1 <1>   0.1500 
 37 H       -1.2270     3.7360     3.8540 H     1 <1>   0.1500 
 38 H       -4.2710     3.3570     0.8890 H     1 <1>   0.1500 
 39 H        2.6570     0.4670    -0.3160 H     1 <1>   0.3700 
 40 H       -3.3180     5.1120     3.9500 H     1 <1>   0.0800 
 41 H       -4.2780     3.6540     4.0670 H     1 <1>   0.0800 
 42 H       -4.6080     4.8260     2.8120 H     1 <1>   0.0800 
 43 H        3.7790    -1.1370     0.8650 H     1 <1>   0.0800 
 44 H        5.4360    -0.7480     1.2380 H     1 <1>   0.0800 
 45 H        4.8430    -0.5190    -0.3840 H     1 <1>   0.0800 
 46 H        2.9390     0.3940     2.6850 H     1 <1>   0.0800 
 47 H        3.5170     2.0430     2.7730 H     1 <1>   0.0800 
 48 H        4.5990     0.7250     3.1090 H     1 <1>   0.0800 
 49 H        5.5480     1.9110    -0.3520 H     1 <1>   0.0800 
 50 H        6.1940     1.6680     1.2510 H     1 <1>   0.0800 
 51 H        5.0480     2.9450     0.9690 H     1 <1>   0.0800 
 52 H       -5.1480    -3.5150    -2.5880 H     1 <1>   0.0800 
 53 H       -5.6780    -1.8920    -3.0460 H     1 <1>   0.0800 
 54 H       -7.3330    -3.9110    -1.4870 H     1 <1>   0.0800 
 55 H       -7.5730    -3.5080    -3.1690 H     1 <1>   0.0800 
 56 H       -7.8590    -2.2980    -1.9420 H     1 <1>   0.0800 
@<TRIPOS>BOND
  1   1   2  2   
  2   1   3  2   
  3   1   4  am  
  4   1   5  1   
  5   4   6  1   
  6   4   7  1   
  7   5   8  ar  
  8   5   9  ar  
  9   6  10  ar  
 10   6  11  ar  
 11   7  12  1   
 12   7  29  1   
 13   7  30  1   
 14   8  13  ar  
 15   8  31  1   
 16   9  14  ar  
 17   9  32  1   
 18  10  15  ar  
 19  10  33  1   
 20  11  16  ar  
 21  11  34  1   
 22  12  17  2   
 23  12  18  am  
 24  13  19  ar  
 25  13  35  1   
 26  14  19  ar  
 27  14  36  1   
 28  15  20  ar  
 29  15  37  1   
 30  16  20  ar  
 31  16  38  1   
 32  18  21  1   
 33  18  39  1   
 34  19  22  1   
 35  20  23  1   
 36  21  24  1   
 37  21  25  1   
 38  21  26  1   
 39  22  27  1   
 40  23  40  1   
 41  23  41  1   
 42  23  42  1   
 43  24  43  1   
 44  24  44  1   
 45  24  45  1   
 46  25  46  1   
 47  25  47  1   
 48  25  48  1   
 49  26  49  1   
 50  26  50  1   
 51  26  51  1   
 52  27  28  1   
 53  27  52  1   
 54  27  53  1   
 55  28  54  1   
 56  28  55  1   
 57  28  56  1   
@<TRIPOS>SUBSTRUCTURE
  1 ****   4 GROUP 4 **** **** 0

# MOE 2024.06 (io_trps.svl 2023.06)
