@<TRIPOS>MOLECULE
NONAME
41 42 1 0 0 
SMALL
USER_CHARGES


@<TRIPOS>ATOM
  1 O       -1.8320     0.2650     2.2490 O.3   1 <1>  -0.3630 
  2 C       -2.2980     0.9210     1.1620 C.ar  1 <1>   0.0830 
  3 C       -1.9370    -1.1380     2.3570 C.3   1 <1>   0.0400 
  4 C       -3.3640     0.4620     0.3960 C.ar  1 <1>  -0.1500 
  5 C       -1.6700     2.1060     0.8230 C.ar  1 <1>  -0.1500 
  6 C       -3.8010     1.1960    -0.6990 C.ar  1 <1>  -0.1430 
  7 C       -2.0850     2.8260    -0.2820 C.ar  1 <1>  -0.1500 
  8 C       -3.1460     2.3710    -1.0440 C.ar  1 <1>  -0.1500 
  9 C       -5.0030     0.7320    -1.4940 C.3   1 <1>   0.4860 
 10 N       -6.2190     1.0680    -0.6840 N.4   1 <1>  -0.9590 
 11 C       -7.4260     0.3110    -1.1760 C.3   1 <1>   0.3430 
 12 C       -6.3690     2.5590    -0.6310 C.3   1 <1>   0.3430 
 13 C       -8.4560    -0.0300    -0.0590 C.3   1 <1>   0.3430 
 14 C       -7.7090     3.0400    -0.0700 C.3   1 <1>  -0.1600 
 15 N       -9.1360     1.1360     0.6270 N.4   1 <1>  -0.9590 
 16 C       -8.2490     2.2370     1.1130 C.3   1 <1>   0.3430 
 17 C       -9.9670     0.6300     1.7720 C.3   1 <1>   0.2630 
 18 H       -1.3240    -1.4530     3.1820 H     1 <1>   0.0800 
 19 H       -1.5800    -1.5870     1.4470 H     1 <1>   0.0800 
 20 H       -2.9610    -1.4020     2.5470 H     1 <1>   0.0800 
 21 H       -3.8430    -0.4600     0.6650 H     1 <1>   0.1500 
 22 H       -0.8480     2.4550     1.4250 H     1 <1>   0.1500 
 23 H       -1.5760     3.7390    -0.5440 H     1 <1>   0.1500 
 24 H       -3.4440     2.9480    -1.9040 H     1 <1>   0.1500 
 25 H       -4.9310    -0.3320    -1.6510 H     1 <1>   0.0800 
 26 H       -5.0310     1.2220    -2.4540 H     1 <1>   0.0800 
 27 H       -5.9590     0.7550     0.2620 H     1 <1>   0.4500 
 28 H       -7.0990    -0.6240    -1.6010 H     1 <1>   0.0800 
 29 H       -7.9130     0.8620    -1.9640 H     1 <1>   0.0800 
 30 H       -6.2470     2.9730    -1.6210 H     1 <1>   0.0800 
 31 H       -5.5750     2.9630    -0.0210 H     1 <1>   0.0800 
 32 H       -7.9530    -0.6280     0.6830 H     1 <1>   0.0800 
 33 H       -9.2180    -0.6570    -0.4950 H     1 <1>   0.0800 
 34 H       -8.4410     3.1050    -0.8550 H     1 <1>   0.0800 
 35 H       -7.5490     4.0490     0.2690 H     1 <1>   0.0800 
 36 H       -9.8060     1.5620    -0.0360 H     1 <1>   0.4500 
 37 H       -8.8320     2.9040     1.7310 H     1 <1>   0.0800 
 38 H       -7.4450     1.8500     1.7180 H     1 <1>   0.0800 
 39 H       -9.3410     0.1820     2.5270 H     1 <1>   0.0800 
 40 H      -10.6740    -0.1090     1.4290 H     1 <1>   0.0800 
 41 H      -10.5190     1.4400     2.2230 H     1 <1>   0.0800 
@<TRIPOS>BOND
  1   1   2  1   
  2   1   3  1   
  3   2   4  ar  
  4   2   5  ar  
  5   3  18  1   
  6   3  19  1   
  7   3  20  1   
  8   4   6  ar  
  9   4  21  1   
 10   5   7  ar  
 11   5  22  1   
 12   6   8  ar  
 13   6   9  1   
 14   7   8  ar  
 15   7  23  1   
 16   8  24  1   
 17   9  10  1   
 18   9  25  1   
 19   9  26  1   
 20  10  11  1   
 21  10  12  1   
 22  10  27  1   
 23  11  13  1   
 24  11  28  1   
 25  11  29  1   
 26  12  14  1   
 27  12  30  1   
 28  12  31  1   
 29  13  15  1   
 30  13  32  1   
 31  13  33  1   
 32  14  16  1   
 33  14  34  1   
 34  14  35  1   
 35  15  16  1   
 36  15  17  1   
 37  15  36  1   
 38  16  37  1   
 39  16  38  1   
 40  17  39  1   
 41  17  40  1   
 42  17  41  1   
@<TRIPOS>SUBSTRUCTURE
  1 ****  10 GROUP 4 **** **** 0

# MOE 2024.06 (io_trps.svl 2023.06)
