@<TRIPOS>MOLECULE
NONAME
39 40 1 0 0 
SMALL
USER_CHARGES


@<TRIPOS>ATOM
  1 F       -0.6190    -0.1740     1.1270 F     1 <1>  -0.1900 
  2 C       -1.8840    -0.0320     0.8290 C.ar  1 <1>   0.1900 
  3 C       -2.5910    -1.1310     0.3810 C.ar  1 <1>  -0.1500 
  4 C       -2.4670     1.2100     0.9700 C.ar  1 <1>  -0.1500 
  5 C       -3.9340    -0.9880     0.0630 C.ar  1 <1>  -0.1440 
  6 C       -3.8050     1.3480     0.6500 C.ar  1 <1>  -0.1500 
  7 C       -4.5540     0.2600     0.1970 C.ar  1 <1>   0.1170 
  8 C       -4.7030    -2.2110    -0.4220 C.3   1 <1>  -0.0960 
  9 N       -5.9100     0.3960    -0.1470 N.am  1 <1>  -0.5470 
 10 C       -6.8660     1.2740     0.2860 C.2   1 <1>   0.5690 
 11 O       -6.6590     2.1240     1.1170 O.2   1 <1>  -0.5700 
 12 C       -8.2640     1.1360    -0.3200 C.3   1 <1>  -0.0190 
 13 C       -9.0590     2.4590    -0.3010 C.3   1 <1>  -0.1600 
 14 C       -9.0680     0.0330     0.3950 C.3   1 <1>  -0.1600 
 15 C      -10.4630     2.2850    -0.8860 C.3   1 <1>   0.1400 
 16 C      -10.4750    -0.1170    -0.1940 C.3   1 <1>   0.1400 
 17 N      -11.1720     1.1970    -0.1570 N.am  1 <1>  -0.6600 
 18 C      -12.3510     1.3470     0.5290 C.2   1 <1>   0.5690 
 19 O      -12.8980     0.4220     1.0800 O.2   1 <1>  -0.5700 
 20 C      -13.0250     2.6960     0.6230 C.3   1 <1>  -0.1790 
 21 H       -2.0860    -2.0750     0.2900 H     1 <1>   0.1500 
 22 H       -1.8880     2.0440     1.3220 H     1 <1>   0.1500 
 23 H       -4.2660     2.3130     0.7510 H     1 <1>   0.1500 
 24 H       -4.0890    -3.0930    -0.3790 H     1 <1>   0.0800 
 25 H       -5.0180    -2.0710    -1.4400 H     1 <1>   0.0800 
 26 H       -5.5650    -2.3770     0.1990 H     1 <1>   0.0800 
 27 H       -6.2440    -0.3270    -0.7770 H     1 <1>   0.3700 
 28 H       -8.1430     0.8500    -1.3500 H     1 <1>   0.0800 
 29 H       -8.5280     3.2070    -0.8610 H     1 <1>   0.0800 
 30 H       -9.1510     2.8160     0.7110 H     1 <1>   0.0800 
 31 H       -9.1570     0.2710     1.4410 H     1 <1>   0.0800 
 32 H       -8.5550    -0.9080     0.3190 H     1 <1>   0.0800 
 33 H      -10.3950     2.0200    -1.9270 H     1 <1>   0.0800 
 34 H      -10.9940     3.2170    -0.8180 H     1 <1>   0.0800 
 35 H      -11.0210    -0.8550     0.3700 H     1 <1>   0.0800 
 36 H      -10.4180    -0.4550    -1.2140 H     1 <1>   0.0800 
 37 H      -13.2980     3.0370    -0.3570 H     1 <1>   0.0800 
 38 H      -12.3630     3.4020     1.0880 H     1 <1>   0.0800 
 39 H      -13.9140     2.6150     1.2200 H     1 <1>   0.0800 
@<TRIPOS>BOND
  1   1   2  1   
  2   2   3  ar  
  3   2   4  ar  
  4   3   5  ar  
  5   3  21  1   
  6   4   6  ar  
  7   4  22  1   
  8   5   7  ar  
  9   5   8  1   
 10   6   7  ar  
 11   6  23  1   
 12   7   9  1   
 13   8  24  1   
 14   8  25  1   
 15   8  26  1   
 16   9  10  am  
 17   9  27  1   
 18  10  11  2   
 19  10  12  1   
 20  12  13  1   
 21  12  14  1   
 22  12  28  1   
 23  13  15  1   
 24  13  29  1   
 25  13  30  1   
 26  14  16  1   
 27  14  31  1   
 28  14  32  1   
 29  15  17  1   
 30  15  33  1   
 31  15  34  1   
 32  16  17  1   
 33  16  35  1   
 34  16  36  1   
 35  17  18  am  
 36  18  19  2   
 37  18  20  1   
 38  20  37  1   
 39  20  38  1   
 40  20  39  1   
@<TRIPOS>SUBSTRUCTURE
  1 ****  10 GROUP 4 **** **** 0

# MOE 2024.06 (io_trps.svl 2023.06)
