@<TRIPOS>MOLECULE
NONAME
54 56 1 0 0 
SMALL
USER_CHARGES


@<TRIPOS>ATOM
  1 O        0.9720     0.3170    -1.4510 O.2   1 <1>  -0.5700 
  2 C        1.6580    -0.3540    -0.7230 C.2   1 <1>   0.5690 
  3 N        2.5710     0.2250     0.1210 N.am  1 <1>  -0.6600 
  4 C        1.4990    -1.8550    -0.7890 C.3   1 <1>  -0.1790 
  5 C        3.7170    -0.4790     0.7590 C.3   1 <1>   0.1400 
  6 C        2.6000     1.7040     0.3020 C.3   1 <1>   0.1400 
  7 C        5.0480     0.1130     0.2470 C.3   1 <1>   0.3430 
  8 C        3.9220     2.2690    -0.2410 C.3   1 <1>   0.3430 
  9 N        5.1450     1.6250     0.3960 N.4   1 <1>  -0.9590 
 10 C        6.4360     2.1860    -0.1350 C.3   1 <1>   0.4230 
 11 C        7.6430     1.5270     0.5520 C.3   1 <1>  -0.1600 
 12 C        6.4990     3.7070     0.0780 C.3   1 <1>  -0.1600 
 13 C        8.9680     2.1420     0.0970 C.3   1 <1>   0.3430 
 14 C        7.8390     4.2920    -0.3720 C.3   1 <1>   0.3430 
 15 N        8.9620     3.6140     0.3330 N.4   1 <1>  -0.9590 
 16 C       10.2600     4.2450    -0.0910 C.3   1 <1>   0.3430 
 17 C       11.4280     3.8530     0.8170 C.3   1 <1>  -0.0170 
 18 C       12.6530     4.6250     0.3680 C.ar  1 <1>  -0.1440 
 19 C       12.9280     5.8730     0.9070 C.ar  1 <1>  -0.1500 
 20 C       13.5000     4.0950    -0.5940 C.ar  1 <1>  -0.1500 
 21 C       14.0340     6.5870     0.4810 C.ar  1 <1>  -0.1500 
 22 C       14.6060     4.8110    -1.0190 C.ar  1 <1>  -0.1500 
 23 C       14.8730     6.0580    -0.4830 C.ar  1 <1>  -0.1500 
 24 H        1.4190    -2.2640     0.2000 H     1 <1>   0.0800 
 25 H        2.3320    -2.2920    -1.3040 H     1 <1>   0.0800 
 26 H        0.6000    -2.0950    -1.3290 H     1 <1>   0.0800 
 27 H        3.6920    -1.5310     0.5350 H     1 <1>   0.0800 
 28 H        3.6500    -0.3730     1.8280 H     1 <1>   0.0800 
 29 H        2.4920     1.9400     1.3470 H     1 <1>   0.0800 
 30 H        1.7770     2.1680    -0.2160 H     1 <1>   0.0800 
 31 H        5.1480    -0.1510    -0.7940 H     1 <1>   0.0800 
 32 H        5.8500    -0.3640     0.7840 H     1 <1>   0.0800 
 33 H        3.9240     3.3310    -0.0630 H     1 <1>   0.0800 
 34 H        3.9370     2.1120    -1.3070 H     1 <1>   0.0800 
 35 H        5.0840     1.8250     1.4030 H     1 <1>   0.4500 
 36 H        6.4920     1.9850    -1.1950 H     1 <1>   0.0800 
 37 H        7.6890     0.4820     0.3060 H     1 <1>   0.0800 
 38 H        7.5660     1.6190     1.6210 H     1 <1>   0.0800 
 39 H        6.3440     3.9510     1.1140 H     1 <1>   0.0800 
 40 H        5.7400     4.1990    -0.5020 H     1 <1>   0.0800 
 41 H        9.1220     1.9430    -0.9530 H     1 <1>   0.0800 
 42 H        9.7790     1.6840     0.6430 H     1 <1>   0.0800 
 43 H        7.8590     5.3510    -0.1600 H     1 <1>   0.0800 
 44 H        7.9510     4.1670    -1.4390 H     1 <1>   0.0800 
 45 H        8.8720     3.7960     1.3440 H     1 <1>   0.4500 
 46 H       10.1670     5.3200    -0.0600 H     1 <1>   0.0800 
 47 H       10.4960     3.9710    -1.1070 H     1 <1>   0.0800 
 48 H       11.6360     2.8010     0.7520 H     1 <1>   0.0800 
 49 H       11.2110     4.1020     1.8410 H     1 <1>   0.0800 
 50 H       12.2930     6.3040     1.6610 H     1 <1>   0.1500 
 51 H       13.3170     3.1260    -1.0220 H     1 <1>   0.1500 
 52 H       14.2460     7.5560     0.9010 H     1 <1>   0.1500 
 53 H       15.2630     4.3980    -1.7650 H     1 <1>   0.1500 
 54 H       15.7340     6.6130    -0.8120 H     1 <1>   0.1500 
@<TRIPOS>BOND
  1   1   2  2   
  2   2   3  am  
  3   2   4  1   
  4   3   5  1   
  5   3   6  1   
  6   4  24  1   
  7   4  25  1   
  8   4  26  1   
  9   5   7  1   
 10   5  27  1   
 11   5  28  1   
 12   6   8  1   
 13   6  29  1   
 14   6  30  1   
 15   7   9  1   
 16   7  31  1   
 17   7  32  1   
 18   8   9  1   
 19   8  33  1   
 20   8  34  1   
 21   9  10  1   
 22   9  35  1   
 23  10  11  1   
 24  10  12  1   
 25  10  36  1   
 26  11  13  1   
 27  11  37  1   
 28  11  38  1   
 29  12  14  1   
 30  12  39  1   
 31  12  40  1   
 32  13  15  1   
 33  13  41  1   
 34  13  42  1   
 35  14  15  1   
 36  14  43  1   
 37  14  44  1   
 38  15  16  1   
 39  15  45  1   
 40  16  17  1   
 41  16  46  1   
 42  16  47  1   
 43  17  18  1   
 44  17  48  1   
 45  17  49  1   
 46  18  19  ar  
 47  18  20  ar  
 48  19  21  ar  
 49  19  50  1   
 50  20  22  ar  
 51  20  51  1   
 52  21  23  ar  
 53  21  52  1   
 54  22  23  ar  
 55  22  53  1   
 56  23  54  1   
@<TRIPOS>SUBSTRUCTURE
  1 ****  11 GROUP 4 **** **** 0

# MOE 2024.06 (io_trps.svl 2023.06)
