@<TRIPOS>MOLECULE
NONAME
43 43 1 0 0 
SMALL
USER_CHARGES


@<TRIPOS>ATOM
  1 N        0.4180    -0.0270    -0.7020 N.4   1 <1>  -0.9590 
  2 C        1.5730    -0.6890    -1.3650 C.3   1 <1>   0.4810 
  3 C       -0.7380    -0.9870    -0.5600 C.3   1 <1>   0.3430 
  4 C        0.0900     1.2490    -1.4050 C.3   1 <1>   0.3430 
  5 C        2.8000     0.0280    -0.8660 C.2   1 <1>  -0.2880 
  6 C       -1.8970    -0.4870     0.3510 C.3   1 <1>   0.3430 
  7 C       -0.1240     2.3430    -0.3670 C.3   1 <1>  -0.2400 
  8 C        3.6590    -0.4650     0.0430 C.2   1 <1>  -0.1780 
  9 N       -2.9900    -1.5010     0.6020 N.4   1 <1>  -0.9590 
 10 C        4.8440     0.1730     0.5760 C.ar  1 <1>   0.0280 
 11 C       -3.7620    -1.8780    -0.6320 C.3   1 <1>   0.2630 
 12 C       -3.9530    -0.9780     1.6310 C.3   1 <1>   0.2630 
 13 C        5.4500    -0.3370     1.7210 C.ar  1 <1>  -0.1500 
 14 C        5.4200     1.2980    -0.0120 C.ar  1 <1>  -0.1500 
 15 C        6.5760     0.2540     2.2650 C.ar  1 <1>  -0.1500 
 16 C        6.5450     1.8940     0.5270 C.ar  1 <1>  -0.1500 
 17 C        7.1250     1.3740     1.6690 C.ar  1 <1>  -0.1500 
 18 H        0.8060     0.2280     0.2210 H     1 <1>   0.4500 
 19 H        1.6310    -1.7250    -1.0690 H     1 <1>   0.0800 
 20 H        1.5000    -0.6380    -2.4410 H     1 <1>   0.0800 
 21 H       -1.1340    -1.2020    -1.5390 H     1 <1>   0.0800 
 22 H       -0.3650    -1.9090    -0.1430 H     1 <1>   0.0800 
 23 H        0.9090     1.5430    -2.0430 H     1 <1>   0.0800 
 24 H       -0.7860     1.1340    -2.0230 H     1 <1>   0.0800 
 25 H        2.9310     0.9980    -1.3120 H     1 <1>   0.1500 
 26 H       -2.3350     0.3910    -0.0940 H     1 <1>   0.0800 
 27 H       -1.4750    -0.2000     1.3010 H     1 <1>   0.0800 
 28 H        0.7630     2.4840     0.2260 H     1 <1>   0.0800 
 29 H       -0.9610     2.1400     0.2740 H     1 <1>   0.0800 
 30 H       -0.3220     3.2710    -0.8760 H     1 <1>   0.0800 
 31 H        3.4960    -1.4450     0.4610 H     1 <1>   0.1500 
 32 H       -2.5880    -2.3660     1.0040 H     1 <1>   0.4500 
 33 H       -4.2290    -1.0080    -1.0670 H     1 <1>   0.0800 
 34 H       -4.5360    -2.5880    -0.3840 H     1 <1>   0.0800 
 35 H       -3.1160    -2.3310    -1.3670 H     1 <1>   0.0800 
 36 H       -4.4370    -0.0810     1.2770 H     1 <1>   0.0800 
 37 H       -3.4400    -0.7520     2.5520 H     1 <1>   0.0800 
 38 H       -4.7140    -1.7140     1.8410 H     1 <1>   0.0800 
 39 H        5.0420    -1.2080     2.2020 H     1 <1>   0.1500 
 40 H        4.9990     1.7180    -0.9050 H     1 <1>   0.1500 
 41 H        7.0270    -0.1560     3.1530 H     1 <1>   0.1500 
 42 H        6.9740     2.7630     0.0590 H     1 <1>   0.1500 
 43 H        8.0000     1.8370     2.0910 H     1 <1>   0.1500 
@<TRIPOS>BOND
  1   1   2  1   
  2   1   3  1   
  3   1   4  1   
  4   1  18  1   
  5   2   5  1   
  6   2  19  1   
  7   2  20  1   
  8   3   6  1   
  9   3  21  1   
 10   3  22  1   
 11   4   7  1   
 12   4  23  1   
 13   4  24  1   
 14   5   8  2   
 15   5  25  1   
 16   6   9  1   
 17   6  26  1   
 18   6  27  1   
 19   7  28  1   
 20   7  29  1   
 21   7  30  1   
 22   8  10  1   
 23   8  31  1   
 24   9  11  1   
 25   9  12  1   
 26   9  32  1   
 27  10  13  ar  
 28  10  14  ar  
 29  11  33  1   
 30  11  34  1   
 31  11  35  1   
 32  12  36  1   
 33  12  37  1   
 34  12  38  1   
 35  13  15  ar  
 36  13  39  1   
 37  14  16  ar  
 38  14  40  1   
 39  15  17  ar  
 40  15  41  1   
 41  16  17  ar  
 42  16  42  1   
 43  17  43  1   
@<TRIPOS>SUBSTRUCTURE
  1 ****   5 GROUP 4 **** **** 0

# MOE 2024.06 (io_trps.svl 2023.06)
