@<TRIPOS>MOLECULE
NONAME
40 41 1 0 0 
SMALL
USER_CHARGES


@<TRIPOS>ATOM
  1 CL       0.2670    -0.6360    -0.9530 Cl    1 <1>  -0.1770 
  2 C       -1.3390    -1.3100    -0.8620 C.ar  1 <1>   0.1770 
  3 C       -1.7900    -1.8350     0.3330 C.ar  1 <1>  -0.1500 
  4 C       -2.1420    -1.3090    -1.9860 C.ar  1 <1>  -0.1500 
  5 C       -3.0630    -2.3730     0.3990 C.ar  1 <1>  -0.1500 
  6 C       -3.4130    -1.8500    -1.9100 C.ar  1 <1>  -0.1500 
  7 C       -3.8970    -2.4040    -0.7230 C.ar  1 <1>   0.0280 
  8 C       -5.2160    -2.9690    -0.6900 C.2   1 <1>  -0.1780 
  9 C       -5.6490    -4.0820    -0.0400 C.2   1 <1>   0.1230 
 10 N       -7.0120    -4.4290    -0.1380 N.am  1 <1>  -0.5390 
 11 C       -4.7840    -4.9510     0.7450 C.2   1 <1>   0.6160 
 12 C       -7.5680    -5.6760    -0.1210 C.2   1 <1>   0.5690 
 13 O       -4.9500    -5.0340     1.9490 O.2   1 <1>  -0.5700 
 14 N       -3.8060    -5.7380     0.1680 N.am  1 <1>  -0.6600 
 15 O       -6.9160    -6.6900    -0.2270 O.2   1 <1>  -0.5700 
 16 C       -9.0670    -5.7750    -0.0010 C.3   1 <1>  -0.1790 
 17 C       -3.0480    -6.7080     1.0150 C.3   1 <1>   0.1400 
 18 C       -3.8730    -6.1510    -1.2730 C.3   1 <1>   0.1400 
 19 C       -3.8040    -8.0550     1.0590 C.3   1 <1>   0.3430 
 20 C       -4.0440    -7.6850    -1.4180 C.3   1 <1>   0.3430 
 21 N       -4.6360    -8.2840    -0.1770 N.4   1 <1>  -0.9060 
 22 H       -1.1520    -1.8160     1.1980 H     1 <1>   0.1500 
 23 H       -1.7720    -0.8870    -2.9030 H     1 <1>   0.1500 
 24 H       -3.4110    -2.7630     1.3390 H     1 <1>   0.1500 
 25 H       -4.0380    -1.8450    -2.7860 H     1 <1>   0.1500 
 26 H       -5.9240    -2.4170    -1.2830 H     1 <1>   0.1500 
 27 H       -7.6690    -3.6480    -0.1550 H     1 <1>   0.3700 
 28 H       -9.5360    -5.3140    -0.8500 H     1 <1>   0.0800 
 29 H       -9.3950    -5.2860     0.8980 H     1 <1>   0.0800 
 30 H       -9.3650    -6.8070     0.0410 H     1 <1>   0.0800 
 31 H       -2.0670    -6.8520     0.5970 H     1 <1>   0.0800 
 32 H       -2.9160    -6.3290     2.0150 H     1 <1>   0.0800 
 33 H       -4.7010    -5.6710    -1.7630 H     1 <1>   0.0800 
 34 H       -2.9770    -5.8350    -1.7800 H     1 <1>   0.0800 
 35 H       -4.4500    -8.0560     1.9230 H     1 <1>   0.0800 
 36 H       -3.0900    -8.8520     1.1830 H     1 <1>   0.0800 
 37 H       -3.0800    -8.1290    -1.6060 H     1 <1>   0.0800 
 38 H       -4.6730    -7.8910    -2.2680 H     1 <1>   0.0800 
 39 H       -5.5260    -7.7590    -0.0270 H     1 <1>   0.4500 
 40 H       -4.9000    -9.2670    -0.2930 H     1 <1>   0.4500 
@<TRIPOS>BOND
  1   1   2  1   
  2   2   3  ar  
  3   2   4  ar  
  4   3   5  ar  
  5   3  22  1   
  6   4   6  ar  
  7   4  23  1   
  8   5   7  ar  
  9   5  24  1   
 10   6   7  ar  
 11   6  25  1   
 12   7   8  1   
 13   8   9  2   
 14   8  26  1   
 15   9  10  1   
 16   9  11  1   
 17  10  12  am  
 18  10  27  1   
 19  11  13  2   
 20  11  14  am  
 21  12  15  2   
 22  12  16  1   
 23  14  17  1   
 24  14  18  1   
 25  16  28  1   
 26  16  29  1   
 27  16  30  1   
 28  17  19  1   
 29  17  31  1   
 30  17  32  1   
 31  18  20  1   
 32  18  33  1   
 33  18  34  1   
 34  19  21  1   
 35  19  35  1   
 36  19  36  1   
 37  20  21  1   
 38  20  37  1   
 39  20  38  1   
 40  21  39  1   
 41  21  40  1   
@<TRIPOS>SUBSTRUCTURE
  1 ****  11 GROUP 4 **** **** 0

# MOE 2024.06 (io_trps.svl 2023.06)
