@<TRIPOS>MOLECULE
NONAME
37 39 1 0 0 
SMALL
USER_CHARGES


@<TRIPOS>ATOM
  1 O        0.3600     1.6010    -2.3650 O.2   1 <1>  -0.5700 
  2 C       -0.0580     2.0300    -1.3160 C.2   1 <1>   0.5690 
  3 N        0.7680     2.3270    -0.2800 N.am  1 <1>  -0.7300 
  4 C       -1.5600     2.2400    -1.1640 C.3   1 <1>   0.1810 
  5 C        2.2330     2.1700    -0.2640 C.3   1 <1>   0.2200 
  6 O       -1.8940     2.7320     0.1290 O.3   1 <1>  -0.3630 
  7 C        2.6550     1.2880     0.9250 C.3   1 <1>  -0.0800 
  8 C        2.9050     3.5160     0.0570 C.3   1 <1>  -0.1600 
  9 C       -3.1820     2.9850     0.4700 C.ar  1 <1>   0.0820 
 10 C        2.6960     2.2860     2.0750 C.3   1 <1>  -0.1600 
 11 C        4.1490     0.9590     0.7630 C.3   1 <1>  -0.1600 
 12 C        3.6520     3.2370     1.3750 C.3   1 <1>  -0.0800 
 13 C       -3.4040     3.4600     1.7530 C.ar  1 <1>  -0.1500 
 14 C       -4.2630     2.7940    -0.3870 C.ar  1 <1>  -0.1500 
 15 C        4.8350     2.3030     1.0680 C.3   1 <1>  -0.1600 
 16 C       -4.6880     3.7450     2.1830 C.ar  1 <1>  -0.1500 
 17 C       -5.5470     3.0790     0.0460 C.ar  1 <1>  -0.1500 
 18 C       -5.7600     3.5540     1.3290 C.ar  1 <1>  -0.1500 
 19 H        0.3470     2.6770     0.5830 H     1 <1>   0.3700 
 20 H       -2.0620     1.3020    -1.3120 H     1 <1>   0.0800 
 21 H       -1.8900     2.9540    -1.8950 H     1 <1>   0.0800 
 22 H        2.5790     1.7630    -1.2000 H     1 <1>   0.0800 
 23 H        2.0340     0.4210     1.0700 H     1 <1>   0.0800 
 24 H        2.1760     4.2950     0.1960 H     1 <1>   0.0800 
 25 H        3.5840     3.8060    -0.7250 H     1 <1>   0.0800 
 26 H        3.1110     1.8660     2.9760 H     1 <1>   0.0800 
 27 H        1.7400     2.7340     2.2830 H     1 <1>   0.0800 
 28 H        4.3770     0.6030    -0.2280 H     1 <1>   0.0800 
 29 H        4.4490     0.2160     1.4820 H     1 <1>   0.0800 
 30 H        3.9180     4.1200     1.9300 H     1 <1>   0.0800 
 31 H       -2.5680     3.6070     2.4120 H     1 <1>   0.1500 
 32 H       -4.1320     2.4280    -1.3870 H     1 <1>   0.1500 
 33 H        5.4220     2.6550     0.2370 H     1 <1>   0.0800 
 34 H        5.4700     2.2080     1.9320 H     1 <1>   0.0800 
 35 H       -4.8530     4.1140     3.1810 H     1 <1>   0.1500 
 36 H       -6.3840     2.9330    -0.6150 H     1 <1>   0.1500 
 37 H       -6.7600     3.7750     1.6620 H     1 <1>   0.1500 
@<TRIPOS>BOND
  1   1   2  2   
  2   2   3  am  
  3   2   4  1   
  4   3   5  1   
  5   3  19  1   
  6   4   6  1   
  7   4  20  1   
  8   4  21  1   
  9   5   7  1   
 10   5   8  1   
 11   5  22  1   
 12   6   9  1   
 13   7  10  1   
 14   7  11  1   
 15   7  23  1   
 16   8  12  1   
 17   8  24  1   
 18   8  25  1   
 19   9  13  ar  
 20   9  14  ar  
 21  10  12  1   
 22  10  26  1   
 23  10  27  1   
 24  11  15  1   
 25  11  28  1   
 26  11  29  1   
 27  12  15  1   
 28  12  30  1   
 29  13  16  ar  
 30  13  31  1   
 31  14  17  ar  
 32  14  32  1   
 33  15  33  1   
 34  15  34  1   
 35  16  18  ar  
 36  16  35  1   
 37  17  18  ar  
 38  17  36  1   
 39  18  37  1   
@<TRIPOS>SUBSTRUCTURE
  1 ****   3 GROUP 4 **** **** 0

# MOE 2024.06 (io_trps.svl 2023.06)
