@<TRIPOS>MOLECULE
NONAME
47 50 1 0 0 
SMALL
USER_CHARGES


@<TRIPOS>ATOM
  1 BR      -0.2600     1.0670     1.1960 Br    1 <1>  -0.1110 
  2 C        1.5540     0.7390     0.6450 C.ar  1 <1>   0.1110 
  3 C        1.9710     1.2040    -0.5870 C.ar  1 <1>  -0.1500 
  4 C        2.3940     0.0480     1.4960 C.ar  1 <1>  -0.1500 
  5 C        3.2780     0.9660    -0.9790 C.ar  1 <1>  -0.1500 
  6 C        3.6990    -0.1830     1.0930 C.ar  1 <1>  -0.1500 
  7 C        4.1460     0.2740    -0.1410 C.ar  1 <1>  -0.1430 
  8 C        5.5840     0.0150    -0.5690 C.3   1 <1>   0.2540 
  9 N        6.5370     0.6310     0.3780 N.3   1 <1>  -0.8100 
 10 C        7.9290     0.2600     0.0630 C.3   1 <1>   0.1100 
 11 C        6.3650     2.0960     0.4770 C.3   1 <1>   0.1100 
 12 C        8.9160     0.8650     1.0870 C.3   1 <1>   0.3430 
 13 C        7.3430     2.7080     1.5020 C.3   1 <1>   0.3430 
 14 N        8.7840     2.3650     1.2070 N.4   1 <1>  -0.9590 
 15 C        9.2950     3.0740    -0.0050 C.3   1 <1>   0.4230 
 16 C       10.8750     2.7630    -0.3160 C.3   1 <1>  -0.0800 
 17 C        9.1320     4.7340     0.1260 C.3   1 <1>  -0.1600 
 18 C       10.6980     4.0900    -0.3560 C.3   1 <1>  -0.1600 
 19 C       12.2770     3.4380    -0.8190 C.3   1 <1>  -0.1600 
 20 C       10.5410     5.4160    -0.3520 C.3   1 <1>  -0.0800 
 21 C       12.1030     5.0990    -0.7240 C.3   1 <1>  -0.1600 
 22 H        1.2860     1.7360    -1.2230 H     1 <1>   0.1500 
 23 H        2.0350    -0.3010     2.4470 H     1 <1>   0.1500 
 24 H        3.6100     1.3210    -1.9390 H     1 <1>   0.1500 
 25 H        4.3710    -0.7190     1.7410 H     1 <1>   0.1500 
 26 H        5.7510     0.3980    -1.5610 H     1 <1>   0.0800 
 27 H        5.7420    -1.0510    -0.5930 H     1 <1>   0.0800 
 28 H        8.1850     0.5860    -0.9300 H     1 <1>   0.0800 
 29 H        8.0220    -0.8130     0.0920 H     1 <1>   0.0800 
 30 H        5.3630     2.3200     0.8030 H     1 <1>   0.0800 
 31 H        6.5040     2.5540    -0.4870 H     1 <1>   0.0800 
 32 H        9.9210     0.6000     0.8080 H     1 <1>   0.0800 
 33 H        8.7140     0.4130     2.0440 H     1 <1>   0.0800 
 34 H        7.0780     2.3260     2.4740 H     1 <1>   0.0800 
 35 H        7.2090     3.7760     1.5260 H     1 <1>   0.0800 
 36 H        9.3540     2.6780     2.0010 H     1 <1>   0.4500 
 37 H        8.7240     2.7550    -0.8640 H     1 <1>   0.0800 
 38 H       11.2080     2.2780     0.5920 H     1 <1>   0.0800 
 39 H        8.9260     5.0320     1.1420 H     1 <1>   0.0800 
 40 H        8.3190     5.0790    -0.4940 H     1 <1>   0.0800 
 41 H       11.0200     4.1440     0.7780 H     1 <1>   0.0800 
 42 H       10.3930     4.0550    -1.4940 H     1 <1>   0.0800 
 43 H       12.4890     3.1470    -1.8380 H     1 <1>   0.0800 
 44 H       13.1090     3.1120    -0.2140 H     1 <1>   0.0800 
 45 H       10.2250     5.9530    -1.2370 H     1 <1>   0.0800 
 46 H       12.3830     5.5610    -1.6590 H     1 <1>   0.0800 
 47 H       12.7560     5.4990     0.0380 H     1 <1>   0.0800 
@<TRIPOS>BOND
  1   1   2  1   
  2   2   3  ar  
  3   2   4  ar  
  4   3   5  ar  
  5   3  22  1   
  6   4   6  ar  
  7   4  23  1   
  8   5   7  ar  
  9   5  24  1   
 10   6   7  ar  
 11   6  25  1   
 12   7   8  1   
 13   8   9  1   
 14   8  26  1   
 15   8  27  1   
 16   9  10  1   
 17   9  11  1   
 18  10  12  1   
 19  10  28  1   
 20  10  29  1   
 21  11  13  1   
 22  11  30  1   
 23  11  31  1   
 24  12  14  1   
 25  12  32  1   
 26  12  33  1   
 27  13  14  1   
 28  13  34  1   
 29  13  35  1   
 30  14  15  1   
 31  14  36  1   
 32  15  16  1   
 33  15  17  1   
 34  15  37  1   
 35  16  18  1   
 36  16  19  1   
 37  16  38  1   
 38  17  20  1   
 39  17  39  1   
 40  17  40  1   
 41  18  20  1   
 42  18  41  1   
 43  18  42  1   
 44  19  21  1   
 45  19  43  1   
 46  19  44  1   
 47  20  21  1   
 48  20  45  1   
 49  21  46  1   
 50  21  47  1   
@<TRIPOS>SUBSTRUCTURE
  1 ****  11 GROUP 4 **** **** 0

# MOE 2024.06 (io_trps.svl 2023.06)
