@<TRIPOS>MOLECULE
NONAME
35 35 1 0 0 
SMALL
USER_CHARGES


@<TRIPOS>ATOM
  1 O       -0.1160     0.1400     0.6800 O.2   1 <1>  -0.5700 
  2 C       -0.1840    -0.8770     0.0220 C.2   1 <1>   0.7800 
  3 O        0.8790    -1.6340    -0.2340 O.3   1 <1>  -0.4300 
  4 N       -1.3430    -1.3210    -0.4990 N.am  1 <1>  -0.7300 
  5 C        2.2070    -1.4030     0.1860 C.3   1 <1>   0.2800 
  6 C       -2.6600    -0.7680    -0.1930 C.3   1 <1>   0.3640 
  7 C        3.0160    -2.5690    -0.3840 C.3   1 <1>  -0.2400 
  8 C        2.7300    -0.0880    -0.4060 C.3   1 <1>  -0.2400 
  9 C        2.2920    -1.4290     1.7170 C.3   1 <1>  -0.2400 
 10 C       -3.6710    -1.9090    -0.1980 C.ar  1 <1>  -0.1440 
 11 C       -3.0010     0.3020    -1.2270 C.3   1 <1>  -0.2400 
 12 C       -4.3650    -2.2180     0.9640 C.ar  1 <1>  -0.1500 
 13 C       -3.9140    -2.6570    -1.3430 C.ar  1 <1>  -0.1500 
 14 C       -5.2850    -3.2520     0.9820 C.ar  1 <1>  -0.1500 
 15 C       -4.8330    -3.6920    -1.3270 C.ar  1 <1>  -0.1500 
 16 C       -5.5200    -3.9900    -0.1640 C.ar  1 <1>  -0.1500 
 17 H       -1.3480    -2.2480    -0.9160 H     1 <1>   0.3700 
 18 H       -2.6330    -0.3120     0.7830 H     1 <1>   0.0800 
 19 H        2.6480    -3.5020     0.0030 H     1 <1>   0.0800 
 20 H        4.0520    -2.4740    -0.1120 H     1 <1>   0.0800 
 21 H        2.9470    -2.5820    -1.4560 H     1 <1>   0.0800 
 22 H        2.5900    -0.0770    -1.4720 H     1 <1>   0.0800 
 23 H        3.7790     0.0160    -0.1990 H     1 <1>   0.0800 
 24 H        2.2290     0.7580     0.0260 H     1 <1>   0.0800 
 25 H        1.8530    -2.3320     2.1000 H     1 <1>   0.0800 
 26 H        1.7910    -0.5820     2.1480 H     1 <1>   0.0800 
 27 H        3.3200    -1.3900     2.0280 H     1 <1>   0.0800 
 28 H       -2.9680    -0.0980    -2.2230 H     1 <1>   0.0800 
 29 H       -2.3030     1.1160    -1.1490 H     1 <1>   0.0800 
 30 H       -3.9880     0.6810    -1.0390 H     1 <1>   0.0800 
 31 H       -4.1910    -1.6550     1.8650 H     1 <1>   0.1500 
 32 H       -3.3880    -2.4390    -2.2560 H     1 <1>   0.1500 
 33 H       -5.8170    -3.4830     1.8880 H     1 <1>   0.1500 
 34 H       -5.0150    -4.2650    -2.2200 H     1 <1>   0.1500 
 35 H       -6.2350    -4.7930    -0.1510 H     1 <1>   0.1500 
@<TRIPOS>BOND
  1   1   2  2   
  2   2   3  1   
  3   2   4  am  
  4   3   5  1   
  5   4   6  1   
  6   4  17  1   
  7   5   7  1   
  8   5   8  1   
  9   5   9  1   
 10   6  10  1   
 11   6  11  1   
 12   6  18  1   
 13   7  19  1   
 14   7  20  1   
 15   7  21  1   
 16   8  22  1   
 17   8  23  1   
 18   8  24  1   
 19   9  25  1   
 20   9  26  1   
 21   9  27  1   
 22  10  12  ar  
 23  10  13  ar  
 24  11  28  1   
 25  11  29  1   
 26  11  30  1   
 27  12  14  ar  
 28  12  31  1   
 29  13  15  ar  
 30  13  32  1   
 31  14  16  ar  
 32  14  33  1   
 33  15  16  ar  
 34  15  34  1   
 35  16  35  1   
@<TRIPOS>SUBSTRUCTURE
  1 ****   4 GROUP 4 **** **** 0

# MOE 2024.06 (io_trps.svl 2023.06)
