@<TRIPOS>MOLECULE
NONAME
47 49 1 0 0 
SMALL
USER_CHARGES


@<TRIPOS>ATOM
  1 BR       0.0990     1.6120     1.6600 Br    1 <1>  -0.1110 
  2 C        1.9650     1.9800     1.3610 C.ar  1 <1>   0.1110 
  3 C        2.3840     2.7630     0.2930 C.ar  1 <1>  -0.0090 
  4 C        2.8470     1.4280     2.2720 C.ar  1 <1>  -0.1500 
  5 S        1.2250     3.4980    -0.8870 S.o2  1 <1>   1.4470 
  6 C        3.7520     2.9780     0.1770 C.ar  1 <1>  -0.1500 
  7 C        4.2000     1.6640     2.1240 C.ar  1 <1>  -0.1500 
  8 O        1.9550     4.3150    -1.8330 O.2   1 <1>  -0.6500 
  9 O        0.3410     2.4770    -1.4040 O.2   1 <1>  -0.6500 
 10 N        0.3160     4.5640     0.0680 N.am  1 <1>  -0.8490 
 11 C        4.6790     2.4420     1.0710 C.ar  1 <1>   0.0860 
 12 C        1.0750     5.7640     0.4380 C.3   1 <1>   0.1960 
 13 C       -0.9530     4.9170    -0.5750 C.3   1 <1>   0.1960 
 14 C        6.0940     2.7060     0.9100 C.2   1 <1>   0.5440 
 15 C        0.2790     6.6010     1.4440 C.3   1 <1>  -0.1600 
 16 C       -1.8220     5.7380     0.3840 C.3   1 <1>  -0.1600 
 17 O        6.4750     3.8600     0.9540 O.2   1 <1>  -0.5700 
 18 N        7.0100     1.6940     0.7040 N.am  1 <1>  -0.6600 
 19 C       -1.0910     6.9910     0.8790 C.3   1 <1>  -0.1600 
 20 C        6.6390     0.2960     0.3430 C.3   1 <1>   0.1400 
 21 C        8.4760     1.9620     0.6640 C.3   1 <1>   0.1400 
 22 C        7.1700    -0.0330    -1.0570 C.3   1 <1>  -0.1600 
 23 C        9.0190     1.6510    -0.7340 C.3   1 <1>  -0.1600 
 24 C        8.6810     0.2170    -1.1650 C.3   1 <1>  -0.1600 
 25 H        2.4750     0.8290     3.0860 H     1 <1>   0.1500 
 26 H        4.1260     3.5870    -0.6300 H     1 <1>   0.1500 
 27 H        4.9010     1.2500     2.8290 H     1 <1>   0.1500 
 28 H        1.2860     6.3530    -0.4400 H     1 <1>   0.0800 
 29 H        2.0130     5.4800     0.8850 H     1 <1>   0.0800 
 30 H       -1.4900     4.0200    -0.8390 H     1 <1>   0.0800 
 31 H       -0.7630     5.4740    -1.4780 H     1 <1>   0.0800 
 32 H        0.8360     7.4870     1.6910 H     1 <1>   0.0800 
 33 H        0.1520     6.0290     2.3470 H     1 <1>   0.0800 
 34 H       -2.0870     5.1170     1.2230 H     1 <1>   0.0800 
 35 H       -2.7320     6.0210    -0.1140 H     1 <1>   0.0800 
 36 H       -0.9570     7.6750     0.0570 H     1 <1>   0.0800 
 37 H       -1.6760     7.4850     1.6350 H     1 <1>   0.0800 
 38 H        5.5730     0.1600     0.3540 H     1 <1>   0.0800 
 39 H        7.0710    -0.3760     1.0640 H     1 <1>   0.0800 
 40 H        8.9650     1.3400     1.3940 H     1 <1>   0.0800 
 41 H        8.6850     2.9890     0.9130 H     1 <1>   0.0800 
 42 H        6.6510     0.5760    -1.7770 H     1 <1>   0.0800 
 43 H        6.9570    -1.0620    -1.2860 H     1 <1>   0.0800 
 44 H       10.0850     1.7900    -0.7390 H     1 <1>   0.0800 
 45 H        8.5940     2.3530    -1.4310 H     1 <1>   0.0800 
 46 H        9.0060     0.0560    -2.1790 H     1 <1>   0.0800 
 47 H        9.2060    -0.4790    -0.5330 H     1 <1>   0.0800 
@<TRIPOS>BOND
  1   1   2  1   
  2   2   3  ar  
  3   2   4  ar  
  4   3   5  1   
  5   3   6  ar  
  6   4   7  ar  
  7   4  25  1   
  8   5   8  2   
  9   5   9  2   
 10   5  10  am  
 11   6  11  ar  
 12   6  26  1   
 13   7  11  ar  
 14   7  27  1   
 15  10  12  1   
 16  10  13  1   
 17  11  14  1   
 18  12  15  1   
 19  12  28  1   
 20  12  29  1   
 21  13  16  1   
 22  13  30  1   
 23  13  31  1   
 24  14  17  2   
 25  14  18  am  
 26  15  19  1   
 27  15  32  1   
 28  15  33  1   
 29  16  19  1   
 30  16  34  1   
 31  16  35  1   
 32  18  20  1   
 33  18  21  1   
 34  19  36  1   
 35  19  37  1   
 36  20  22  1   
 37  20  38  1   
 38  20  39  1   
 39  21  23  1   
 40  21  40  1   
 41  21  41  1   
 42  22  24  1   
 43  22  42  1   
 44  22  43  1   
 45  23  24  1   
 46  23  44  1   
 47  23  45  1   
 48  24  46  1   
 49  24  47  1   
@<TRIPOS>SUBSTRUCTURE
  1 ****   6 GROUP 4 **** **** 0

# MOE 2024.06 (io_trps.svl 2023.06)
