@<TRIPOS>MOLECULE
NONAME
45 47 1 0 0 
SMALL
USER_CHARGES


@<TRIPOS>ATOM
  1 O       -0.4980    -0.0530    -0.0210 O.3   1 <1>  -0.1650 
  2 C       -1.3960     0.9600     0.0360 C.ar  1 <1>   0.0830 
  3 C       -0.9370    -1.3330    -0.0910 C.ar  1 <1>   0.0830 
  4 C       -2.5540     0.8520     0.7960 C.ar  1 <1>  -0.1500 
  5 C       -1.1440     2.1180    -0.6800 C.ar  1 <1>  -0.1500 
  6 C       -1.9150    -1.7060    -1.0060 C.ar  1 <1>  -0.1500 
  7 C       -0.3940    -2.2750     0.7680 C.ar  1 <1>  -0.1500 
  8 C       -3.4770     1.8860     0.8160 C.ar  1 <1>  -0.1430 
  9 C       -2.0560     3.1580    -0.6520 C.ar  1 <1>  -0.1500 
 10 C       -2.3590    -3.0160    -1.0450 C.ar  1 <1>  -0.1500 
 11 C       -0.8420    -3.5840     0.7280 C.ar  1 <1>  -0.1500 
 12 C       -3.2200     3.0420     0.0900 C.ar  1 <1>  -0.1500 
 13 C       -4.7540     1.7490     1.6210 C.3   1 <1>   0.4860 
 14 C       -1.8250    -3.9530    -0.1760 C.ar  1 <1>  -0.1500 
 15 N       -5.8480     1.3270     0.7060 N.4   1 <1>  -0.9590 
 16 C       -7.1770     1.5540     1.3390 C.3   1 <1>   0.3430 
 17 C       -5.6260    -0.0680     0.2220 C.3   1 <1>   0.3430 
 18 C       -8.2270     1.8220     0.2610 C.3   1 <1>  -0.1600 
 19 C       -6.5960    -0.4640    -0.8930 C.3   1 <1>  -0.1600 
 20 C       -8.8930     0.5670    -0.3280 C.3   1 <1>  -0.1600 
 21 C       -8.0290    -0.6990    -0.3940 C.3   1 <1>  -0.1600 
 22 H       -2.7160    -0.0450     1.3680 H     1 <1>   0.1500 
 23 H       -0.2380     2.1990    -1.2550 H     1 <1>   0.1500 
 24 H       -2.3130    -0.9780    -1.6900 H     1 <1>   0.1500 
 25 H        0.3730    -1.9810     1.4630 H     1 <1>   0.1500 
 26 H       -1.8560     4.0580    -1.2100 H     1 <1>   0.1500 
 27 H       -3.1110    -3.3130    -1.7560 H     1 <1>   0.1500 
 28 H       -0.4230    -4.3170     1.3960 H     1 <1>   0.1500 
 29 H       -3.9130     3.8670     0.0950 H     1 <1>   0.1500 
 30 H       -4.9890     2.7010     2.0680 H     1 <1>   0.0800 
 31 H       -4.6220     1.0250     2.4090 H     1 <1>   0.0800 
 32 H       -2.1680    -4.9730    -0.2070 H     1 <1>   0.1500 
 33 H       -5.7790     1.9370    -0.1180 H     1 <1>   0.4500 
 34 H       -7.1220     2.4240     1.9730 H     1 <1>   0.0800 
 35 H       -7.4640     0.7120     1.9480 H     1 <1>   0.0800 
 36 H       -5.7190    -0.7620     1.0420 H     1 <1>   0.0800 
 37 H       -4.6240    -0.1540    -0.1690 H     1 <1>   0.0800 
 38 H       -7.7950     2.4120    -0.5290 H     1 <1>   0.0800 
 39 H       -9.0060     2.4230     0.6980 H     1 <1>   0.0800 
 40 H       -6.2390    -1.3960    -1.2960 H     1 <1>   0.0800 
 41 H       -6.5740     0.2500    -1.6970 H     1 <1>   0.0800 
 42 H       -9.2400     0.8050    -1.3200 H     1 <1>   0.0800 
 43 H       -9.7710     0.3340     0.2530 H     1 <1>   0.0800 
 44 H       -8.0050    -1.1790     0.5700 H     1 <1>   0.0800 
 45 H       -8.5160    -1.3880    -1.0650 H     1 <1>   0.0800 
@<TRIPOS>BOND
  1   1   2  1   
  2   1   3  1   
  3   2   4  ar  
  4   2   5  ar  
  5   3   6  ar  
  6   3   7  ar  
  7   4   8  ar  
  8   4  22  1   
  9   5   9  ar  
 10   5  23  1   
 11   6  10  ar  
 12   6  24  1   
 13   7  11  ar  
 14   7  25  1   
 15   8  12  ar  
 16   8  13  1   
 17   9  12  ar  
 18   9  26  1   
 19  10  14  ar  
 20  10  27  1   
 21  11  14  ar  
 22  11  28  1   
 23  12  29  1   
 24  13  15  1   
 25  13  30  1   
 26  13  31  1   
 27  14  32  1   
 28  15  16  1   
 29  15  17  1   
 30  15  33  1   
 31  16  18  1   
 32  16  34  1   
 33  16  35  1   
 34  17  19  1   
 35  17  36  1   
 36  17  37  1   
 37  18  20  1   
 38  18  38  1   
 39  18  39  1   
 40  19  21  1   
 41  19  40  1   
 42  19  41  1   
 43  20  21  1   
 44  20  42  1   
 45  20  43  1   
 46  21  44  1   
 47  21  45  1   
@<TRIPOS>SUBSTRUCTURE
  1 ****   4 GROUP 4 **** **** 0

# MOE 2024.06 (io_trps.svl 2023.06)
