@<TRIPOS>MOLECULE
NONAME
49 50 1 0 0 
SMALL
USER_CHARGES


@<TRIPOS>ATOM
  1 S        0.0650    -0.0870     0.1460 S.o2  1 <1>   1.3330 
  2 O        1.1310    -0.8980    -0.3950 O.2   1 <1>  -0.6500 
  3 O       -0.0090     0.1490     1.5690 O.2   1 <1>  -0.6500 
  4 N       -1.4100    -0.7550    -0.3500 N.am  1 <1>  -0.8490 
  5 C        0.1020     1.4760    -0.7060 C.3   1 <1>  -0.1350 
  6 C       -2.5590    -0.1710     0.3650 C.3   1 <1>   0.1960 
  7 C       -1.4050    -2.2150    -0.1950 C.3   1 <1>   0.1960 
  8 C       -3.8780    -0.6740    -0.2380 C.3   1 <1>  -0.0190 
  9 C       -2.6840    -2.8220    -0.7830 C.3   1 <1>  -0.1600 
 10 C       -5.0730    -0.0300     0.4480 C.2   1 <1>   0.5690 
 11 C       -3.9450    -2.2100    -0.1590 C.3   1 <1>  -0.1600 
 12 O       -4.9710     0.3690     1.5820 O.2   1 <1>  -0.5700 
 13 N       -6.2330     0.0710    -0.2500 N.am  1 <1>  -0.7300 
 14 C       -7.4880     0.6480     0.2640 C.3   1 <1>   0.2200 
 15 C       -8.5480    -0.4620     0.2590 C.3   1 <1>  -0.1600 
 16 C       -7.8170     1.8590    -0.6190 C.3   1 <1>  -0.1600 
 17 C       -9.6730    -0.2570     1.2930 C.3   1 <1>  -0.1600 
 18 C       -9.0300     2.6870    -0.1650 C.3   1 <1>  -0.1600 
 19 C      -11.0420     0.0700     0.6780 C.3   1 <1>  -0.1600 
 20 C      -10.3820     2.1680    -0.6910 C.3   1 <1>  -0.1600 
 21 C      -11.2840     1.5580     0.3910 C.3   1 <1>  -0.1600 
 22 H        1.0260     1.9790    -0.5030 H     1 <1>   0.0800 
 23 H       -0.7070     2.1000    -0.3830 H     1 <1>   0.0800 
 24 H        0.0210     1.3180    -1.7640 H     1 <1>   0.0800 
 25 H       -2.5310     0.9030     0.2910 H     1 <1>   0.0800 
 26 H       -2.5120    -0.4310     1.4110 H     1 <1>   0.0800 
 27 H       -1.3160    -2.4700     0.8490 H     1 <1>   0.0800 
 28 H       -0.5590    -2.6350    -0.7140 H     1 <1>   0.0800 
 29 H       -3.8940    -0.3750    -1.2700 H     1 <1>   0.0800 
 30 H       -2.6780    -3.8850    -0.6190 H     1 <1>   0.0800 
 31 H       -2.6840    -2.6560    -1.8460 H     1 <1>   0.0800 
 32 H       -4.8210    -2.5720    -0.6700 H     1 <1>   0.0800 
 33 H       -4.0140    -2.5080     0.8740 H     1 <1>   0.0800 
 34 H       -6.2900    -0.2920    -1.2010 H     1 <1>   0.3700 
 35 H       -7.3260     0.9820     1.2760 H     1 <1>   0.0800 
 36 H       -8.0570    -1.3830     0.5230 H     1 <1>   0.0800 
 37 H       -8.9490    -0.5880    -0.7310 H     1 <1>   0.0800 
 38 H       -7.9470     1.5510    -1.6410 H     1 <1>   0.0800 
 39 H       -6.9620     2.5120    -0.5850 H     1 <1>   0.0800 
 40 H       -9.4050     0.4860     2.0240 H     1 <1>   0.0800 
 41 H       -9.7830    -1.1840     1.8300 H     1 <1>   0.0800 
 42 H       -8.8970     3.6800    -0.5590 H     1 <1>   0.0800 
 43 H       -9.0350     2.7840     0.9070 H     1 <1>   0.0800 
 44 H      -11.7950    -0.2420     1.3810 H     1 <1>   0.0800 
 45 H      -11.1980    -0.5080    -0.2170 H     1 <1>   0.0800 
 46 H      -10.2520     1.4750    -1.5040 H     1 <1>   0.0800 
 47 H      -10.9090     3.0150    -1.0960 H     1 <1>   0.0800 
 48 H      -11.2100     2.1260     1.3030 H     1 <1>   0.0800 
 49 H      -12.3030     1.6510     0.0540 H     1 <1>   0.0800 
@<TRIPOS>BOND
  1   1   2  2   
  2   1   3  2   
  3   1   4  am  
  4   1   5  1   
  5   4   6  1   
  6   4   7  1   
  7   5  22  1   
  8   5  23  1   
  9   5  24  1   
 10   6   8  1   
 11   6  25  1   
 12   6  26  1   
 13   7   9  1   
 14   7  27  1   
 15   7  28  1   
 16   8  10  1   
 17   8  11  1   
 18   8  29  1   
 19   9  11  1   
 20   9  30  1   
 21   9  31  1   
 22  10  12  2   
 23  10  13  am  
 24  11  32  1   
 25  11  33  1   
 26  13  14  1   
 27  13  34  1   
 28  14  15  1   
 29  14  16  1   
 30  14  35  1   
 31  15  17  1   
 32  15  36  1   
 33  15  37  1   
 34  16  18  1   
 35  16  38  1   
 36  16  39  1   
 37  17  19  1   
 38  17  40  1   
 39  17  41  1   
 40  18  20  1   
 41  18  42  1   
 42  18  43  1   
 43  19  21  1   
 44  19  44  1   
 45  19  45  1   
 46  20  21  1   
 47  20  46  1   
 48  20  47  1   
 49  21  48  1   
 50  21  49  1   
@<TRIPOS>SUBSTRUCTURE
  1 ****  10 GROUP 4 **** **** 0

# MOE 2024.06 (io_trps.svl 2023.06)
