@<TRIPOS>MOLECULE
NONAME
36 36 1 0 0 
SMALL
USER_CHARGES


@<TRIPOS>ATOM
  1 O       -0.5940    -0.3910    -0.6750 O.2   1 <1>  -0.5700 
  2 C       -0.9800     0.7250    -0.3910 C.2   1 <1>   0.6900 
  3 N       -2.2360     0.9490     0.0320 N.am  1 <1>  -0.7300 
  4 N       -0.1560     1.7850    -0.4930 N.am  1 <1>  -0.7300 
  5 C       -3.2900    -0.0660     0.0190 C.3   1 <1>   0.3640 
  6 C        1.3040     1.6720    -0.7900 C.3   1 <1>   0.2010 
  7 C       -4.6120     0.6320    -0.2820 C.ar  1 <1>  -0.1430 
  8 C       -3.3130    -0.7780     1.3690 C.3   1 <1>  -0.2400 
  9 C        2.1330     2.8080    -0.1900 C.2   1 <1>   0.6590 
 10 C       -5.3180     0.3020    -1.4310 C.ar  1 <1>  -0.1500 
 11 C       -5.1270     1.6040     0.5670 C.ar  1 <1>  -0.1500 
 12 O        1.6230     3.7370     0.3880 O.2   1 <1>  -0.5700 
 13 O        3.4470     2.7120    -0.3490 O.3   1 <1>  -0.4300 
 14 C       -6.5160     0.9290    -1.7250 C.ar  1 <1>  -0.1500 
 15 C       -6.3250     2.2310     0.2740 C.ar  1 <1>  -0.1500 
 16 C        4.3230     3.6930     0.1560 C.3   1 <1>   0.1200 
 17 C       -7.0210     1.8940    -0.8730 C.ar  1 <1>  -0.1500 
 18 C        5.7480     3.2820    -0.1980 C.3   1 <1>  -0.2400 
 19 H       -2.5960     1.8970    -0.0210 H     1 <1>   0.3700 
 20 H       -0.4160     2.6540    -0.0230 H     1 <1>   0.3700 
 21 H       -3.0790    -0.7880    -0.7530 H     1 <1>   0.0800 
 22 H        1.4430     1.6720    -1.8560 H     1 <1>   0.0800 
 23 H        1.6760     0.7390    -0.4040 H     1 <1>   0.0800 
 24 H       -3.4520    -0.0800     2.1720 H     1 <1>   0.0800 
 25 H       -2.3880    -1.3060     1.5140 H     1 <1>   0.0800 
 26 H       -4.1180    -1.4900     1.3860 H     1 <1>   0.0800 
 27 H       -4.9360    -0.4450    -2.1060 H     1 <1>   0.1500 
 28 H       -4.5970     1.8770     1.4630 H     1 <1>   0.1500 
 29 H       -7.0560     0.6650    -2.6190 H     1 <1>   0.1500 
 30 H       -6.7160     2.9820     0.9380 H     1 <1>   0.1500 
 31 H        4.1910     3.7520     1.2240 H     1 <1>   0.0800 
 32 H        4.0710     4.6400    -0.2920 H     1 <1>   0.0800 
 33 H       -7.9530     2.3810    -1.1020 H     1 <1>   0.1500 
 34 H        5.9820     2.3310     0.2480 H     1 <1>   0.0800 
 35 H        6.4400     4.0140     0.1770 H     1 <1>   0.0800 
 36 H        5.8620     3.2170    -1.2650 H     1 <1>   0.0800 
@<TRIPOS>BOND
  1   1   2  2   
  2   2   3  am  
  3   2   4  am  
  4   3   5  1   
  5   3  19  1   
  6   4   6  1   
  7   4  20  1   
  8   5   7  1   
  9   5   8  1   
 10   5  21  1   
 11   6   9  1   
 12   6  22  1   
 13   6  23  1   
 14   7  10  ar  
 15   7  11  ar  
 16   8  24  1   
 17   8  25  1   
 18   8  26  1   
 19   9  12  2   
 20   9  13  1   
 21  10  14  ar  
 22  10  27  1   
 23  11  15  ar  
 24  11  28  1   
 25  13  16  1   
 26  14  17  ar  
 27  14  29  1   
 28  15  17  ar  
 29  15  30  1   
 30  16  18  1   
 31  16  31  1   
 32  16  32  1   
 33  17  33  1   
 34  18  34  1   
 35  18  35  1   
 36  18  36  1   
@<TRIPOS>SUBSTRUCTURE
  1 ****   2 GROUP 4 **** **** 0

# MOE 2024.06 (io_trps.svl 2023.06)
