@<TRIPOS>MOLECULE
21516
44 47 1 0 0 
SMALL
USER_CHARGES


@<TRIPOS>ATOM
  1 S        0.2800     0.2450     1.5740 S.3   1 <1>  -0.0800 
  2 C        1.1730     1.7030     1.1820 C.2   1 <1>   0.1660 
  3 C       -1.1470     0.8690     0.7630 C.2   1 <1>  -0.1400 
  4 N        2.4650     1.8760     1.5530 N.2   1 <1>  -0.5760 
  5 C        0.4070     2.5840     0.4860 C.2   1 <1>  -0.0860 
  6 C       -0.9290     2.0950     0.2600 C.2   1 <1>  -0.1810 
  7 C       -2.4160     0.0500     0.6960 C.3   1 <1>   0.0200 
  8 C        2.9970     2.9890     1.1850 C.2   1 <1>   0.4500 
  9 C        1.0350     3.8060     0.1070 C.2   1 <1>   0.7160 
 10 C       -2.0190     2.8560    -0.4780 C.3   1 <1>   0.0210 
 11 C       -3.3610     0.6670    -0.3570 C.3   1 <1>  -0.0800 
 12 N        2.3590     3.9840     0.4690 N.am  1 <1>  -0.4200 
 13 O        0.4480     4.6900    -0.5050 O.2   1 <1>  -0.5700 
 14 C       -3.4000     2.2080    -0.2470 C.3   1 <1>  -0.1600 
 15 C       -4.7720     0.0770    -0.2330 C.3   1 <1>  -0.2400 
 16 C        3.0200     5.2700     0.0690 C.3   1 <1>   0.1400 
 17 C        4.5390     5.3500     0.2770 C.3   1 <1>   0.1200 
 18 O        5.1690     4.3010    -0.4260 O.3   1 <1>  -0.3630 
 19 C        6.5000     4.0750    -0.3100 C.ar  1 <1>   0.0820 
 20 C        7.3790     4.9360     0.3440 C.ar  1 <1>  -0.1500 
 21 C        6.9860     2.9100    -0.8820 C.ar  1 <1>  -0.1500 
 22 C        8.7250     4.6220     0.4210 C.ar  1 <1>  -0.1500 
 23 C        8.3310     2.5980    -0.8030 C.ar  1 <1>  -0.1500 
 24 C        9.2010     3.4550    -0.1510 C.ar  1 <1>  -0.1500 
 25 H       -2.8770     0.0530     1.6680 H     1 <1>   0.0800 
 26 H       -2.1830    -0.9650     0.4290 H     1 <1>   0.0800 
 27 H        4.0200     3.1610     1.4630 H     1 <1>   0.0600 
 28 H       -1.7860     2.8570    -1.5290 H     1 <1>   0.0800 
 29 H       -2.0480     3.8770    -0.1410 H     1 <1>   0.0800 
 30 H       -2.9760     0.4170    -1.3320 H     1 <1>   0.0800 
 31 H       -4.0980     2.6120    -0.9590 H     1 <1>   0.0800 
 32 H       -3.7440     2.4770     0.7370 H     1 <1>   0.0800 
 33 H       -5.2010     0.3190     0.7230 H     1 <1>   0.0800 
 34 H       -4.7390    -0.9930    -0.3370 H     1 <1>   0.0800 
 35 H       -5.4090     0.4720    -1.0050 H     1 <1>   0.0800 
 36 H        2.5560     6.0700     0.6190 H     1 <1>   0.0800 
 37 H        2.8220     5.4470    -0.9750 H     1 <1>   0.0800 
 38 H        4.7850     5.2690     1.3210 H     1 <1>   0.0800 
 39 H        4.9130     6.2820    -0.1090 H     1 <1>   0.0800 
 40 H        7.0400     5.8500     0.7930 H     1 <1>   0.1500 
 41 H        6.3040     2.2490    -1.3860 H     1 <1>   0.1500 
 42 H        9.4060     5.2860     0.9260 H     1 <1>   0.1500 
 43 H        8.7000     1.6910    -1.2490 H     1 <1>   0.1500 
 44 H       10.2480     3.2130    -0.0890 H     1 <1>   0.1500 
@<TRIPOS>BOND
  1   1   2  1   
  2   1   3  1   
  3   2   4  1   
  4   2   5  2   
  5   3   6  2   
  6   3   7  1   
  7   4   8  2   
  8   5   6  1   
  9   5   9  1   
 10   6  10  1   
 11   7  11  1   
 12   7  25  1   
 13   7  26  1   
 14   8  12  1   
 15   8  27  1   
 16   9  12  am  
 17   9  13  2   
 18  10  14  1   
 19  10  28  1   
 20  10  29  1   
 21  11  14  1   
 22  11  15  1   
 23  11  30  1   
 24  12  16  1   
 25  14  31  1   
 26  14  32  1   
 27  15  33  1   
 28  15  34  1   
 29  15  35  1   
 30  16  17  1   
 31  16  36  1   
 32  16  37  1   
 33  17  18  1   
 34  17  38  1   
 35  17  39  1   
 36  18  19  1   
 37  19  20  ar  
 38  19  21  ar  
 39  20  22  ar  
 40  20  40  1   
 41  21  23  ar  
 42  21  41  1   
 43  22  24  ar  
 44  22  42  1   
 45  23  24  ar  
 46  23  43  1   
 47  24  44  1   
@<TRIPOS>SUBSTRUCTURE
  1 ****  12 GROUP 4 **** **** 0

# MOE 2024.06 (io_trps.svl 2023.06)
