@<TRIPOS>MOLECULE
NONAME
50 52 1 0 0 
SMALL
USER_CHARGES


@<TRIPOS>ATOM
  1 O        0.7090     0.5930     0.9090 O.2   1 <1>  -0.5700 
  2 C        0.4540     1.6240     0.3440 C.2   1 <1>   0.6590 
  3 O       -0.7760     2.1030     0.2510 O.3   1 <1>  -0.4300 
  4 C        1.5410     2.4540    -0.3160 C.3   1 <1>  -0.0190 
  5 C       -1.8760     1.4340     0.8240 C.3   1 <1>   0.1200 
  6 C        2.8190     1.6050    -0.4580 C.3   1 <1>   0.3430 
  7 C        1.8100     3.7680     0.4440 C.3   1 <1>  -0.1600 
  8 C       -3.1290     2.2570     0.5400 C.3   1 <1>  -0.2400 
  9 N        4.0780     2.4240    -0.3990 N.4   1 <1>  -0.9590 
 10 C        2.9120     4.5950    -0.2480 C.3   1 <1>  -0.1600 
 11 C        3.9300     3.7610    -1.0390 C.3   1 <1>   0.3430 
 12 C        5.2490     1.6650    -0.9190 C.3   1 <1>   0.4860 
 13 C        6.5110     2.4340    -0.5820 C.ar  1 <1>  -0.1440 
 14 C        7.1920     3.1310    -1.5700 C.ar  1 <1>  -0.1500 
 15 C        6.9980     2.4550     0.7170 C.ar  1 <1>  -0.1500 
 16 C        8.3320     3.8470    -1.2560 C.ar  1 <1>  -0.1500 
 17 C        8.1390     3.1730     1.0210 C.ar  1 <1>  -0.1500 
 18 C        8.8250     3.8850     0.0430 C.ar  1 <1>   0.0000 
 19 C       10.0170     4.6360     0.3660 C.ar  1 <1>   0.0000 
 20 C       11.2280     4.3630    -0.2650 C.ar  1 <1>  -0.1500 
 21 C        9.9890     5.6540     1.3150 C.ar  1 <1>  -0.1500 
 22 C       12.3700     5.0810     0.0400 C.ar  1 <1>  -0.1500 
 23 C       11.1290     6.3750     1.6240 C.ar  1 <1>  -0.1500 
 24 C       12.3220     6.0890     0.9860 C.ar  1 <1>  -0.1500 
 25 H        1.1890     2.6950    -1.3030 H     1 <1>   0.0800 
 26 H       -1.7080     1.3410     1.8840 H     1 <1>   0.0800 
 27 H       -1.9500     0.4540     0.3820 H     1 <1>   0.0800 
 28 H        2.7680     1.0670    -1.3900 H     1 <1>   0.0800 
 29 H        2.8520     0.8740     0.3350 H     1 <1>   0.0800 
 30 H        2.1150     3.5340     1.4510 H     1 <1>   0.0800 
 31 H        0.9060     4.3530     0.5120 H     1 <1>   0.0800 
 32 H       -3.0400     3.2350     0.9790 H     1 <1>   0.0800 
 33 H       -3.9860     1.7690     0.9670 H     1 <1>   0.0800 
 34 H       -3.2820     2.3500    -0.5200 H     1 <1>   0.0800 
 35 H        4.2850     2.6160     0.5900 H     1 <1>   0.4500 
 36 H        3.4310     5.1820     0.4910 H     1 <1>   0.0800 
 37 H        2.4590     5.2940    -0.9310 H     1 <1>   0.0800 
 38 H        3.5860     3.6380    -2.0530 H     1 <1>   0.0800 
 39 H        4.8750     4.2820    -1.0620 H     1 <1>   0.0800 
 40 H        5.1680     1.5360    -1.9860 H     1 <1>   0.0800 
 41 H        5.2950     0.6920    -0.4580 H     1 <1>   0.0800 
 42 H        6.8490     3.1250    -2.5910 H     1 <1>   0.1500 
 43 H        6.5040     1.9120     1.5050 H     1 <1>   0.1500 
 44 H        8.8560     4.3900    -2.0250 H     1 <1>   0.1500 
 45 H        8.5170     3.1830     2.0290 H     1 <1>   0.1500 
 46 H       11.2740     3.5780    -0.9980 H     1 <1>   0.1500 
 47 H        9.0650     5.8850     1.8130 H     1 <1>   0.1500 
 48 H       13.2980     4.8550    -0.4580 H     1 <1>   0.1500 
 49 H       11.0880     7.1580     2.3610 H     1 <1>   0.1500 
 50 H       13.2100     6.6480     1.2250 H     1 <1>   0.1500 
@<TRIPOS>BOND
  1   1   2  2   
  2   2   3  1   
  3   2   4  1   
  4   3   5  1   
  5   4   6  1   
  6   4   7  1   
  7   4  25  1   
  8   5   8  1   
  9   5  26  1   
 10   5  27  1   
 11   6   9  1   
 12   6  28  1   
 13   6  29  1   
 14   7  10  1   
 15   7  30  1   
 16   7  31  1   
 17   8  32  1   
 18   8  33  1   
 19   8  34  1   
 20   9  11  1   
 21   9  12  1   
 22   9  35  1   
 23  10  11  1   
 24  10  36  1   
 25  10  37  1   
 26  11  38  1   
 27  11  39  1   
 28  12  13  1   
 29  12  40  1   
 30  12  41  1   
 31  13  14  ar  
 32  13  15  ar  
 33  14  16  ar  
 34  14  42  1   
 35  15  17  ar  
 36  15  43  1   
 37  16  18  ar  
 38  16  44  1   
 39  17  18  ar  
 40  17  45  1   
 41  18  19  1   
 42  19  20  ar  
 43  19  21  ar  
 44  20  22  ar  
 45  20  46  1   
 46  21  23  ar  
 47  21  47  1   
 48  22  24  ar  
 49  22  48  1   
 50  23  24  ar  
 51  23  49  1   
 52  24  50  1   
@<TRIPOS>SUBSTRUCTURE
  1 ****  13 GROUP 4 **** **** 0

# MOE 2024.06 (io_trps.svl 2023.06)
