@<TRIPOS>MOLECULE
NONAME
49 50 1 0 0 
SMALL
USER_CHARGES


@<TRIPOS>ATOM
  1 N        0.2630     0.3340     0.0520 N.4   1 <1>  -0.9590 
  2 C       -0.4440     0.0060     1.3370 C.3   1 <1>   0.3430 
  3 C       -0.6840     0.2190    -1.1050 C.3   1 <1>   0.3430 
  4 C        1.5380    -0.4060    -0.1710 C.3   1 <1>   0.3430 
  5 C       -1.7130     0.8780     1.5170 C.3   1 <1>   0.1100 
  6 C       -1.9330     1.1120    -0.8980 C.3   1 <1>   0.1100 
  7 C        2.6090    -0.0260     0.8530 C.3   1 <1>  -0.0220 
  8 N       -1.9040     1.8290     0.3980 N.3   1 <1>  -0.8100 
  9 C        3.9020    -0.7650     0.5030 C.2   1 <1>  -0.2760 
 10 C       -3.1110     2.6440     0.5870 C.3   1 <1>   0.0300 
 11 C        4.0470    -2.0820     0.7430 C.2   1 <1>  -0.2760 
 12 C        5.0040     0.0970    -0.1660 C.3   1 <1>   0.1380 
 13 C        5.2840    -2.8770     0.3340 C.3   1 <1>  -0.0220 
 14 C        3.0440    -3.0010     1.4400 C.3   1 <1>  -0.1020 
 15 C        6.3230    -0.6990    -0.3010 C.3   1 <1>  -0.1600 
 16 C        4.5310     0.5400    -1.5590 C.3   1 <1>  -0.2400 
 17 C        5.3460     1.3470     0.6660 C.3   1 <1>  -0.2400 
 18 C        6.1040    -2.1490    -0.7290 C.3   1 <1>  -0.1600 
 19 H        0.4400     1.3490     0.1190 H     1 <1>   0.4500 
 20 H        0.2120     0.1780     2.1730 H     1 <1>   0.0800 
 21 H       -0.7250    -1.0340     1.3480 H     1 <1>   0.0800 
 22 H       -0.9970    -0.8050    -1.2240 H     1 <1>   0.0800 
 23 H       -0.1900     0.5190    -2.0150 H     1 <1>   0.0800 
 24 H        1.9180    -0.1800    -1.1530 H     1 <1>   0.0800 
 25 H        1.3640    -1.4680    -0.1240 H     1 <1>   0.0800 
 26 H       -1.6270     1.4270     2.4400 H     1 <1>   0.0800 
 27 H       -2.5730     0.2350     1.6040 H     1 <1>   0.0800 
 28 H       -2.8170     0.5000    -0.9600 H     1 <1>   0.0800 
 29 H       -1.9820     1.8310    -1.6980 H     1 <1>   0.0800 
 30 H        2.3050    -0.3030     1.8440 H     1 <1>   0.0800 
 31 H        2.7340     1.0370     0.8450 H     1 <1>   0.0800 
 32 H       -3.0460     3.1900     1.5130 H     1 <1>   0.0800 
 33 H       -3.9930     2.0250     0.6080 H     1 <1>   0.0800 
 34 H       -3.2040     3.3570    -0.2150 H     1 <1>   0.0800 
 35 H        4.9980    -3.8350    -0.0650 H     1 <1>   0.0800 
 36 H        5.8910    -3.0500     1.2060 H     1 <1>   0.0800 
 37 H        3.5130    -3.4610     2.2930 H     1 <1>   0.0800 
 38 H        2.7310    -3.7800     0.7690 H     1 <1>   0.0800 
 39 H        2.1690    -2.4920     1.7890 H     1 <1>   0.0800 
 40 H        6.8260    -0.7140     0.6510 H     1 <1>   0.0800 
 41 H        6.9820    -0.2130    -0.9990 H     1 <1>   0.0800 
 42 H        5.3170     1.0660    -2.0720 H     1 <1>   0.0800 
 43 H        4.2530    -0.3130    -2.1500 H     1 <1>   0.0800 
 44 H        3.6880     1.2000    -1.4890 H     1 <1>   0.0800 
 45 H        5.5140     1.0720     1.6920 H     1 <1>   0.0800 
 46 H        4.5720     2.0900     0.6300 H     1 <1>   0.0800 
 47 H        6.2420     1.8100     0.2920 H     1 <1>   0.0800 
 48 H        5.5880    -2.1830    -1.6710 H     1 <1>   0.0800 
 49 H        7.0520    -2.6430    -0.8510 H     1 <1>   0.0800 
@<TRIPOS>BOND
  1   1   2  1   
  2   1   3  1   
  3   1   4  1   
  4   1  19  1   
  5   2   5  1   
  6   2  20  1   
  7   2  21  1   
  8   3   6  1   
  9   3  22  1   
 10   3  23  1   
 11   4   7  1   
 12   4  24  1   
 13   4  25  1   
 14   5   8  1   
 15   5  26  1   
 16   5  27  1   
 17   6   8  1   
 18   6  28  1   
 19   6  29  1   
 20   7   9  1   
 21   7  30  1   
 22   7  31  1   
 23   8  10  1   
 24   9  11  2   
 25   9  12  1   
 26  10  32  1   
 27  10  33  1   
 28  10  34  1   
 29  11  13  1   
 30  11  14  1   
 31  12  15  1   
 32  12  16  1   
 33  12  17  1   
 34  13  18  1   
 35  13  35  1   
 36  13  36  1   
 37  14  37  1   
 38  14  38  1   
 39  14  39  1   
 40  15  18  1   
 41  15  40  1   
 42  15  41  1   
 43  16  42  1   
 44  16  43  1   
 45  16  44  1   
 46  17  45  1   
 47  17  46  1   
 48  17  47  1   
 49  18  48  1   
 50  18  49  1   
@<TRIPOS>SUBSTRUCTURE
  1 ****   4 GROUP 4 **** **** 0

# MOE 2024.06 (io_trps.svl 2023.06)
