@<TRIPOS>MOLECULE
NONAME
43 44 1 0 0 
SMALL
USER_CHARGES


@<TRIPOS>ATOM
  1 O       -0.7000    -0.3760    -0.9360 O.2   1 <1>  -0.5700 
  2 C       -0.8960    -1.5480    -0.7150 C.2   1 <1>   0.4950 
  3 C       -2.1900    -2.0820    -0.4050 C.2   1 <1>   0.0290 
  4 C        0.3320    -2.4390    -0.8020 C.3   1 <1>  -0.0990 
  5 C       -2.3060    -3.4980    -0.1850 C.2   1 <1>   0.4950 
  6 C       -3.2680    -1.2270    -0.3260 C.2   1 <1>  -0.0500 
  7 C        0.2250    -3.6960     0.0710 C.3   1 <1>   0.0000 
  8 O       -3.3440    -4.0650     0.0670 O.2   1 <1>  -0.5700 
  9 C       -1.0900    -4.4070    -0.2750 C.3   1 <1>  -0.0990 
 10 N       -4.5570    -1.5660    -0.0410 N.pl3 1 <1>  -0.6000 
 11 C        1.4080    -4.6300    -0.2250 C.3   1 <1>  -0.2400 
 12 C        0.2640    -3.3240     1.5650 C.3   1 <1>  -0.2400 
 13 C       -5.7270    -0.7890     0.0720 C.ar  1 <1>   0.1000 
 14 C       -6.9350    -1.4310     0.3670 C.ar  1 <1>   0.0830 
 15 C       -5.7180     0.5900    -0.1000 C.ar  1 <1>  -0.1500 
 16 O       -6.8990    -2.7890     0.5290 O.3   1 <1>  -0.3630 
 17 C       -8.1070    -0.6900     0.4850 C.ar  1 <1>  -0.1500 
 18 C       -6.8900     1.3290     0.0190 C.ar  1 <1>   0.0830 
 19 C       -8.0620    -3.5250     0.8320 C.3   1 <1>   0.0400 
 20 C       -8.0780     0.6830     0.3110 C.ar  1 <1>  -0.1500 
 21 O       -6.9540     2.6780    -0.1350 O.3   1 <1>  -0.3620 
 22 C       -5.8000     3.4310    -0.4360 C.3   1 <1>   0.0400 
 23 H        0.4620    -2.7140    -1.8330 H     1 <1>   0.0800 
 24 H        1.1960    -1.8690    -0.5100 H     1 <1>   0.0800 
 25 H       -3.0900    -0.1800    -0.5050 H     1 <1>   0.1500 
 26 H       -1.2330    -5.2430     0.3880 H     1 <1>   0.0800 
 27 H       -1.0490    -4.7970    -1.2760 H     1 <1>   0.0800 
 28 H       -4.7460    -2.5730     0.1270 H     1 <1>   0.4000 
 29 H        2.3410    -4.1430     0.0000 H     1 <1>   0.0800 
 30 H        1.4220    -4.9190    -1.2620 H     1 <1>   0.0800 
 31 H        1.3440    -5.5240     0.3710 H     1 <1>   0.0800 
 32 H       -0.5430    -2.6690     1.8410 H     1 <1>   0.0800 
 33 H        1.1890    -2.8300     1.8060 H     1 <1>   0.0800 
 34 H        0.1930    -4.2090     2.1750 H     1 <1>   0.0800 
 35 H       -4.7920     1.0750    -0.3240 H     1 <1>   0.1500 
 36 H       -9.0460    -1.1550     0.7100 H     1 <1>   0.1500 
 37 H       -7.7880    -4.5610     0.9130 H     1 <1>   0.0800 
 38 H       -8.7740    -3.3960     0.0370 H     1 <1>   0.0800 
 39 H       -8.4600    -3.1780     1.7700 H     1 <1>   0.0800 
 40 H       -8.9790     1.2620     0.4000 H     1 <1>   0.1500 
 41 H       -6.0850     4.4640    -0.5120 H     1 <1>   0.0800 
 42 H       -5.3970     3.0920    -1.3740 H     1 <1>   0.0800 
 43 H       -5.0850     3.3060     0.3580 H     1 <1>   0.0800 
@<TRIPOS>BOND
  1   1   2  2   
  2   2   3  1   
  3   2   4  1   
  4   3   5  1   
  5   3   6  2   
  6   4   7  1   
  7   4  23  1   
  8   4  24  1   
  9   5   8  2   
 10   5   9  1   
 11   6  10  1   
 12   6  25  1   
 13   7   9  1   
 14   7  11  1   
 15   7  12  1   
 16   9  26  1   
 17   9  27  1   
 18  10  13  1   
 19  10  28  1   
 20  11  29  1   
 21  11  30  1   
 22  11  31  1   
 23  12  32  1   
 24  12  33  1   
 25  12  34  1   
 26  13  14  ar  
 27  13  15  ar  
 28  14  16  1   
 29  14  17  ar  
 30  15  18  ar  
 31  15  35  1   
 32  16  19  1   
 33  17  20  ar  
 34  17  36  1   
 35  18  20  ar  
 36  18  21  1   
 37  19  37  1   
 38  19  38  1   
 39  19  39  1   
 40  20  40  1   
 41  21  22  1   
 42  22  41  1   
 43  22  42  1   
 44  22  43  1   
@<TRIPOS>SUBSTRUCTURE
  1 ****  10 GROUP 4 **** **** 0

# MOE 2024.06 (io_trps.svl 2023.06)
