@<TRIPOS>MOLECULE
NONAME
29 30 1 0 0 
SMALL
USER_CHARGES


@<TRIPOS>ATOM
  1 F        1.3120    -1.1970     1.7110 F     1 <1>  -0.1900 
  2 C        0.7710    -2.1340     0.9750 C.ar  1 <1>   0.1900 
  3 C       -0.3740    -2.7670     1.4260 C.ar  1 <1>   0.1900 
  4 C        1.3490    -2.4720    -0.2450 C.ar  1 <1>   0.0860 
  5 F       -0.8960    -2.4400     2.5810 F     1 <1>  -0.1900 
  6 C       -0.9910    -3.7530     0.6820 C.ar  1 <1>  -0.1500 
  7 C        2.5490    -1.8400    -0.7430 C.2   1 <1>   0.5440 
  8 C        0.7070    -3.4640    -0.9920 C.ar  1 <1>  -0.1500 
  9 C       -0.4420    -4.1030    -0.5440 C.ar  1 <1>  -0.1440 
 10 O        2.5040    -1.2190    -1.7880 O.2   1 <1>  -0.5700 
 11 N        3.7570    -1.9600    -0.0960 N.am  1 <1>  -0.6600 
 12 C       -1.1070    -5.1770    -1.3870 C.3   1 <1>  -0.0970 
 13 C        4.0330    -2.8200     1.0740 C.3   1 <1>   0.1400 
 14 C        4.9960    -1.3310    -0.6000 C.3   1 <1>   0.1400 
 15 C        5.5500    -2.9600     1.0960 C.3   1 <1>  -0.1600 
 16 C        6.0620    -1.6850     0.4310 C.3   1 <1>  -0.1600 
 17 H       -1.8800    -4.2290     1.0540 H     1 <1>   0.1500 
 18 H        1.1300    -3.7270    -1.9470 H     1 <1>   0.1500 
 19 H       -1.9980    -4.7830    -1.8430 H     1 <1>   0.0800 
 20 H       -1.3750    -6.0190    -0.7740 H     1 <1>   0.0800 
 21 H       -0.4470    -5.5190    -2.1640 H     1 <1>   0.0800 
 22 H        3.5480    -3.7770     0.9810 H     1 <1>   0.0800 
 23 H        3.6940    -2.3210     1.9660 H     1 <1>   0.0800 
 24 H        4.8690    -0.2660    -0.6970 H     1 <1>   0.0800 
 25 H        5.2370    -1.7530    -1.5610 H     1 <1>   0.0800 
 26 H        5.8300    -3.8170     0.5080 H     1 <1>   0.0800 
 27 H        5.9270    -3.0820     2.0960 H     1 <1>   0.0800 
 28 H        6.1200    -0.8920     1.1560 H     1 <1>   0.0800 
 29 H        7.0280    -1.8160    -0.0230 H     1 <1>   0.0800 
@<TRIPOS>BOND
  1   1   2  1   
  2   2   3  ar  
  3   2   4  ar  
  4   3   5  1   
  5   3   6  ar  
  6   4   7  1   
  7   4   8  ar  
  8   6   9  ar  
  9   6  17  1   
 10   7  10  2   
 11   7  11  am  
 12   8   9  ar  
 13   8  18  1   
 14   9  12  1   
 15  11  13  1   
 16  11  14  1   
 17  12  19  1   
 18  12  20  1   
 19  12  21  1   
 20  13  15  1   
 21  13  22  1   
 22  13  23  1   
 23  14  16  1   
 24  14  24  1   
 25  14  25  1   
 26  15  16  1   
 27  15  26  1   
 28  15  27  1   
 29  16  28  1   
 30  16  29  1   
@<TRIPOS>SUBSTRUCTURE
  1 ****   4 GROUP 4 **** **** 0

# MOE 2024.06 (io_trps.svl 2023.06)
