@<TRIPOS>MOLECULE
NONAME
45 47 1 0 0 
SMALL
USER_CHARGES


@<TRIPOS>ATOM
  1 O        0.2840     0.0450    -1.1160 O.2   1 <1>  -0.5700 
  2 C        0.0300    -1.0740    -0.7300 C.2   1 <1>   0.5690 
  3 N        0.9760    -1.8420    -0.0920 N.am  1 <1>  -0.6600 
  4 C       -1.3720    -1.6040    -1.0230 C.3   1 <1>   0.1810 
  5 C        2.3470    -1.3140     0.2010 C.3   1 <1>   0.1400 
  6 C        0.7680    -3.2430     0.4020 C.3   1 <1>   0.1400 
  7 O       -2.0420    -1.9990     0.1660 O.3   1 <1>  -0.3620 
  8 C        3.4400    -2.2750    -0.2980 C.3   1 <1>   0.2090 
  9 C        1.8790    -4.1880    -0.0870 C.3   1 <1>   0.2090 
 10 C       -3.1900    -2.7200     0.1070 C.ar  1 <1>   0.0820 
 11 N        3.2360    -3.6530     0.2360 N.pl3 1 <1>  -0.8380 
 12 C       -3.5980    -3.3370     1.2780 C.ar  1 <1>  -0.1500 
 13 C       -3.9520    -2.8680    -1.0500 C.ar  1 <1>  -0.1500 
 14 C        4.3080    -4.5150     0.1230 C.ar  1 <1>   0.4100 
 15 C       -4.7480    -4.1060     1.2970 C.ar  1 <1>  -0.1500 
 16 C       -5.1030    -3.6370    -1.0290 C.ar  1 <1>  -0.1500 
 17 N        4.2510    -5.4400    -0.8280 N.ar  1 <1>  -0.6200 
 18 C        5.3910    -4.3760     0.9880 C.ar  1 <1>  -0.1500 
 19 C       -5.5050    -4.2640     0.1480 C.ar  1 <1>   0.0820 
 20 C        5.3000    -6.2400    -0.9190 C.ar  1 <1>   0.1600 
 21 C        6.4750    -5.2140     0.8830 C.ar  1 <1>  -0.1500 
 22 O       -6.6170    -5.0380     0.2530 O.3   1 <1>  -0.3620 
 23 C        6.4180    -6.1750    -0.1070 C.ar  1 <1>  -0.1500 
 24 C       -7.4780    -5.2330    -0.8470 C.3   1 <1>   0.0400 
 25 H       -1.2970    -2.4540    -1.6750 H     1 <1>   0.0800 
 26 H       -1.9560    -0.8340    -1.4930 H     1 <1>   0.0800 
 27 H        2.4520    -1.1880     1.2640 H     1 <1>   0.0800 
 28 H        2.4900    -0.3530    -0.2600 H     1 <1>   0.0800 
 29 H       -0.1770    -3.6360     0.0760 H     1 <1>   0.0800 
 30 H        0.7670    -3.2360     1.4780 H     1 <1>   0.0800 
 31 H        4.4030    -1.9060     0.0070 H     1 <1>   0.0800 
 32 H        3.4210    -2.3050    -1.3740 H     1 <1>   0.0800 
 33 H        1.7920    -4.3210    -1.1520 H     1 <1>   0.0800 
 34 H        1.7590    -5.1520     0.3770 H     1 <1>   0.0800 
 35 H       -3.0130    -3.2130     2.1710 H     1 <1>   0.1500 
 36 H       -3.6700    -2.3900    -1.9680 H     1 <1>   0.1500 
 37 H       -5.0660    -4.5880     2.2040 H     1 <1>   0.1500 
 38 H       -5.6730    -3.7370    -1.9330 H     1 <1>   0.1500 
 39 H        5.3560    -3.6080     1.7360 H     1 <1>   0.1500 
 40 H        5.2660    -6.9940    -1.6870 H     1 <1>   0.1500 
 41 H        7.3240    -5.1290     1.5380 H     1 <1>   0.1500 
 42 H        7.2300    -6.8640    -0.2460 H     1 <1>   0.1500 
 43 H       -8.2880    -5.8630    -0.5270 H     1 <1>   0.0800 
 44 H       -6.9310    -5.7150    -1.6380 H     1 <1>   0.0800 
 45 H       -7.8610    -4.2800    -1.1640 H     1 <1>   0.0800 
@<TRIPOS>BOND
  1   1   2  2   
  2   2   3  am  
  3   2   4  1   
  4   3   5  1   
  5   3   6  1   
  6   4   7  1   
  7   4  25  1   
  8   4  26  1   
  9   5   8  1   
 10   5  27  1   
 11   5  28  1   
 12   6   9  1   
 13   6  29  1   
 14   6  30  1   
 15   7  10  1   
 16   8  11  1   
 17   8  31  1   
 18   8  32  1   
 19   9  11  1   
 20   9  33  1   
 21   9  34  1   
 22  10  12  ar  
 23  10  13  ar  
 24  11  14  1   
 25  12  15  ar  
 26  12  35  1   
 27  13  16  ar  
 28  13  36  1   
 29  14  17  ar  
 30  14  18  ar  
 31  15  19  ar  
 32  15  37  1   
 33  16  19  ar  
 34  16  38  1   
 35  17  20  ar  
 36  18  21  ar  
 37  18  39  1   
 38  19  22  1   
 39  20  23  ar  
 40  20  40  1   
 41  21  23  ar  
 42  21  41  1   
 43  22  24  1   
 44  23  42  1   
 45  24  43  1   
 46  24  44  1   
 47  24  45  1   
@<TRIPOS>SUBSTRUCTURE
  1 ****   6 GROUP 4 **** **** 0

# MOE 2024.06 (io_trps.svl 2023.06)
