@<TRIPOS>MOLECULE
NONAME
46 48 1 0 0 
SMALL
USER_CHARGES


@<TRIPOS>ATOM
  1 F       -1.5030    -1.1790    -1.8570 F     1 <1>  -0.1900 
  2 C       -2.6410    -0.8550    -1.2970 C.ar  1 <1>   0.1900 
  3 C       -3.8010    -0.9470    -2.0430 C.ar  1 <1>  -0.1500 
  4 C       -2.6400    -0.4340     0.0200 C.ar  1 <1>  -0.1500 
  5 C       -5.0000    -0.6030    -1.4440 C.ar  1 <1>  -0.1500 
  6 C       -3.8480    -0.0940     0.6040 C.ar  1 <1>  -0.1500 
  7 C       -5.0340    -0.1740    -0.1180 C.ar  1 <1>   0.1000 
  8 N       -6.2290     0.1730     0.5000 N.pl3 1 <1>  -0.8380 
  9 C       -6.9300     1.3730    -0.0580 C.3   1 <1>   0.2090 
 10 C       -7.1690    -0.9550     0.7750 C.3   1 <1>   0.2090 
 11 C       -8.0710     1.8230     0.8680 C.3   1 <1>   0.1400 
 12 C       -8.3240    -0.5120     1.6930 C.3   1 <1>   0.1400 
 13 N       -9.0160     0.6950     1.1410 N.am  1 <1>  -0.6600 
 14 C      -10.1930     0.6020     0.4510 C.2   1 <1>   0.6900 
 15 O      -10.3620     1.2550    -0.5620 O.2   1 <1>  -0.5700 
 16 N      -11.1620    -0.2230     0.9430 N.am  1 <1>  -0.5470 
 17 C      -12.3790    -0.6570     0.4010 C.ar  1 <1>   0.1170 
 18 C      -13.3700    -1.1180     1.2590 C.ar  1 <1>  -0.1500 
 19 C      -12.6360    -0.6700    -0.9660 C.ar  1 <1>  -0.1500 
 20 C      -14.5810    -1.5760     0.7700 C.ar  1 <1>  -0.1500 
 21 C      -13.8460    -1.1260    -1.4580 C.ar  1 <1>  -0.1500 
 22 C      -14.8270    -1.5850    -0.5930 C.ar  1 <1>  -0.1430 
 23 C      -16.1560    -2.0860    -1.1340 C.3   1 <1>  -0.0170 
 24 C      -17.1660    -0.9400    -1.2250 C.3   1 <1>  -0.2400 
 25 H       -3.7600    -1.2780    -3.0650 H     1 <1>   0.1500 
 26 H       -1.7180    -0.3760     0.5680 H     1 <1>   0.1500 
 27 H       -5.9170    -0.6640    -2.0010 H     1 <1>   0.1500 
 28 H       -3.8870     0.2380     1.6250 H     1 <1>   0.1500 
 29 H       -7.3370     1.1410    -1.0270 H     1 <1>   0.0800 
 30 H       -6.2230     2.1760    -0.1730 H     1 <1>   0.0800 
 31 H       -6.6280    -1.7600     1.2410 H     1 <1>   0.0800 
 32 H       -7.5760    -1.3180    -0.1530 H     1 <1>   0.0800 
 33 H       -8.5950     2.6480     0.4160 H     1 <1>   0.0800 
 34 H       -7.6540     2.1680     1.7980 H     1 <1>   0.0800 
 35 H       -7.9260    -0.2760     2.6650 H     1 <1>   0.0800 
 36 H       -9.0120    -1.3300     1.8030 H     1 <1>   0.0800 
 37 H      -11.0120    -0.4460     1.9190 H     1 <1>   0.3700 
 38 H      -13.1990    -1.1170     2.3190 H     1 <1>   0.1500 
 39 H      -11.8890    -0.3220    -1.6550 H     1 <1>   0.1500 
 40 H      -15.3350    -1.9250     1.4540 H     1 <1>   0.1500 
 41 H      -14.0200    -1.1210    -2.5190 H     1 <1>   0.1500 
 42 H      -16.5410    -2.8580    -0.4900 H     1 <1>   0.0800 
 43 H      -16.0100    -2.5180    -2.1090 H     1 <1>   0.0800 
 44 H      -17.3290    -0.5130    -0.2520 H     1 <1>   0.0800 
 45 H      -18.1030    -1.3000    -1.6090 H     1 <1>   0.0800 
 46 H      -16.7940    -0.1720    -1.8800 H     1 <1>   0.0800 
@<TRIPOS>BOND
  1   1   2  1   
  2   2   3  ar  
  3   2   4  ar  
  4   3   5  ar  
  5   3  25  1   
  6   4   6  ar  
  7   4  26  1   
  8   5   7  ar  
  9   5  27  1   
 10   6   7  ar  
 11   6  28  1   
 12   7   8  1   
 13   8   9  1   
 14   8  10  1   
 15   9  11  1   
 16   9  29  1   
 17   9  30  1   
 18  10  12  1   
 19  10  31  1   
 20  10  32  1   
 21  11  13  1   
 22  11  33  1   
 23  11  34  1   
 24  12  13  1   
 25  12  35  1   
 26  12  36  1   
 27  13  14  am  
 28  14  15  2   
 29  14  16  am  
 30  16  17  1   
 31  16  37  1   
 32  17  18  ar  
 33  17  19  ar  
 34  18  20  ar  
 35  18  38  1   
 36  19  21  ar  
 37  19  39  1   
 38  20  22  ar  
 39  20  40  1   
 40  21  22  ar  
 41  21  41  1   
 42  22  23  1   
 43  23  24  1   
 44  23  42  1   
 45  23  43  1   
 46  24  44  1   
 47  24  45  1   
 48  24  46  1   
@<TRIPOS>SUBSTRUCTURE
  1 ****  14 GROUP 4 **** **** 0

# MOE 2024.06 (io_trps.svl 2023.06)
