@<TRIPOS>MOLECULE
NONAME
34 35 1 0 0 
SMALL
USER_CHARGES


@<TRIPOS>ATOM
  1 CL      -0.5990     0.3200    -1.5700 Cl    1 <1>  -0.1770 
  2 C       -0.3070     1.9300    -0.9420 C.ar  1 <1>   0.1770 
  3 C       -1.3530     2.6230    -0.3340 C.ar  1 <1>   0.1170 
  4 C        0.9590     2.4610    -1.0700 C.ar  1 <1>  -0.1500 
  5 N       -2.6200     2.0230    -0.2320 N.am  1 <1>  -0.5470 
  6 C       -1.0690     3.9040     0.1320 C.ar  1 <1>  -0.1500 
  7 C        1.2440     3.7360    -0.5850 C.ar  1 <1>   0.0860 
  8 C       -3.7080     2.3260     0.5350 C.2   1 <1>   0.5690 
  9 C        0.1980     4.4440     0.0070 C.ar  1 <1>  -0.1500 
 10 C        2.5680     4.3090    -0.6990 C.2   1 <1>   0.5440 
 11 O       -3.7430     3.2280     1.3310 O.2   1 <1>  -0.5700 
 12 C       -4.9300     1.4570     0.3740 C.3   1 <1>  -0.1790 
 13 O        2.7130     5.3470    -1.3150 O.2   1 <1>  -0.5700 
 14 N        3.6730     3.7130    -0.1290 N.am  1 <1>  -0.6600 
 15 C        3.6250     2.6460     0.9160 C.3   1 <1>   0.1400 
 16 C        5.0590     4.2020    -0.3960 C.3   1 <1>   0.1400 
 17 C        4.6580     1.5480     0.6120 C.3   1 <1>   0.1200 
 18 C        6.0180     3.0200    -0.6150 C.3   1 <1>   0.1200 
 19 O        5.9310     2.1040     0.4420 O.3   1 <1>  -0.5600 
 20 H        1.7330     1.8910    -1.5520 H     1 <1>   0.1500 
 21 H       -2.7200     1.1750    -0.7930 H     1 <1>   0.3700 
 22 H       -1.8410     4.4940     0.5940 H     1 <1>   0.1500 
 23 H        0.3920     5.4400     0.3710 H     1 <1>   0.1500 
 24 H       -4.7000     0.4480     0.6600 H     1 <1>   0.0800 
 25 H       -5.2620     1.4780    -0.6470 H     1 <1>   0.0800 
 26 H       -5.7210     1.8240     1.0030 H     1 <1>   0.0800 
 27 H        2.6460     2.2090     0.9820 H     1 <1>   0.0800 
 28 H        3.8540     3.0840     1.8720 H     1 <1>   0.0800 
 29 H        5.3960     4.7860     0.4420 H     1 <1>   0.0800 
 30 H        5.0740     4.8330    -1.2680 H     1 <1>   0.0800 
 31 H        4.3930     1.0120    -0.2820 H     1 <1>   0.0800 
 32 H        4.7120     0.8520     1.4300 H     1 <1>   0.0800 
 33 H        7.0330     3.3710    -0.6630 H     1 <1>   0.0800 
 34 H        5.7840     2.5110    -1.5340 H     1 <1>   0.0800 
@<TRIPOS>BOND
  1   1   2  1   
  2   2   3  ar  
  3   2   4  ar  
  4   3   5  1   
  5   3   6  ar  
  6   4   7  ar  
  7   4  20  1   
  8   5   8  am  
  9   5  21  1   
 10   6   9  ar  
 11   6  22  1   
 12   7   9  ar  
 13   7  10  1   
 14   8  11  2   
 15   8  12  1   
 16   9  23  1   
 17  10  13  2   
 18  10  14  am  
 19  12  24  1   
 20  12  25  1   
 21  12  26  1   
 22  14  15  1   
 23  14  16  1   
 24  15  17  1   
 25  15  27  1   
 26  15  28  1   
 27  16  18  1   
 28  16  29  1   
 29  16  30  1   
 30  17  19  1   
 31  17  31  1   
 32  17  32  1   
 33  18  19  1   
 34  18  33  1   
 35  18  34  1   
@<TRIPOS>SUBSTRUCTURE
  1 ****   7 GROUP 4 **** **** 0

# MOE 2024.06 (io_trps.svl 2023.06)
