@<TRIPOS>MOLECULE
NONAME
42 43 1 0 0 
SMALL
USER_CHARGES


@<TRIPOS>ATOM
  1 O       -0.3530     0.5080    -0.9790 O.3   1 <1>  -0.5600 
  2 C       -0.9900    -0.5920    -0.3980 C.3   1 <1>   0.5600 
  3 C        0.0760     1.5160    -0.1260 C.3   1 <1>   0.2000 
  4 O       -2.0790    -0.1300     0.3550 O.3   1 <1>  -0.5600 
  5 C       -0.0200    -1.4540     0.4330 C.3   1 <1>  -0.1600 
  6 C       -1.5590    -1.4270    -1.5460 C.3   1 <1>  -0.1600 
  7 C       -1.1240     2.0140     0.6770 C.3   1 <1>  -0.1600 
  8 C        0.6810     2.6150    -0.9940 C.3   1 <1>  -0.2400 
  9 C       -1.8210     0.8270     1.3310 C.3   1 <1>   0.1200 
 10 C       -0.6750    -2.7530     0.9330 C.3   1 <1>  -0.1600 
 11 C       -2.2180    -2.7330    -1.0640 C.3   1 <1>  -0.1600 
 12 C       -1.2460    -3.6030    -0.2300 C.3   1 <1>  -0.0800 
 13 C       -1.8540    -4.9740     0.2260 C.3   1 <1>   0.0000 
 14 C       -2.3160    -5.7950    -0.9930 C.3   1 <1>  -0.2400 
 15 C       -0.7950    -5.8220     0.9560 C.3   1 <1>  -0.2400 
 16 C       -3.0600    -4.8090     1.1690 C.3   1 <1>  -0.2400 
 17 H        0.8330     1.1170     0.5260 H     1 <1>   0.0800 
 18 H        0.3620    -0.9080     1.2730 H     1 <1>   0.0800 
 19 H        0.8140    -1.7120    -0.1940 H     1 <1>   0.0800 
 20 H       -0.7590    -1.6720    -2.2200 H     1 <1>   0.0800 
 21 H       -2.2770    -0.8330    -2.0820 H     1 <1>   0.0800 
 22 H       -1.8170     2.5180     0.0270 H     1 <1>   0.0800 
 23 H       -0.8030     2.7110     1.4290 H     1 <1>   0.0800 
 24 H       -0.0540     2.9930    -1.6820 H     1 <1>   0.0800 
 25 H        1.5150     2.2240    -1.5460 H     1 <1>   0.0800 
 26 H        1.0270     3.4240    -0.3780 H     1 <1>   0.0800 
 27 H       -1.2160     0.3860     2.1030 H     1 <1>   0.0800 
 28 H       -2.7630     1.1260     1.7550 H     1 <1>   0.0800 
 29 H       -1.4640    -2.4960     1.6170 H     1 <1>   0.0800 
 30 H        0.0690    -3.3070     1.4750 H     1 <1>   0.0800 
 31 H       -2.5560    -3.2660    -1.9320 H     1 <1>   0.0800 
 32 H       -3.0810    -2.4790    -0.4740 H     1 <1>   0.0800 
 33 H       -0.4160    -3.8380    -0.8750 H     1 <1>   0.0800 
 34 H       -1.5210    -5.8820    -1.7120 H     1 <1>   0.0800 
 35 H       -3.1640    -5.3410    -1.4710 H     1 <1>   0.0800 
 36 H       -2.6100    -6.7850    -0.6950 H     1 <1>   0.0800 
 37 H       -0.5310    -5.3880     1.9030 H     1 <1>   0.0800 
 38 H        0.0940    -5.9120     0.3580 H     1 <1>   0.0800 
 39 H       -1.1700    -6.8110     1.1530 H     1 <1>   0.0800 
 40 H       -2.7830    -4.2890     2.0670 H     1 <1>   0.0800 
 41 H       -3.4460    -5.7720     1.4530 H     1 <1>   0.0800 
 42 H       -3.8540    -4.2650     0.6920 H     1 <1>   0.0800 
@<TRIPOS>BOND
  1   1   2  1   
  2   1   3  1   
  3   2   4  1   
  4   2   5  1   
  5   2   6  1   
  6   3   7  1   
  7   3   8  1   
  8   3  17  1   
  9   4   9  1   
 10   5  10  1   
 11   5  18  1   
 12   5  19  1   
 13   6  11  1   
 14   6  20  1   
 15   6  21  1   
 16   7   9  1   
 17   7  22  1   
 18   7  23  1   
 19   8  24  1   
 20   8  25  1   
 21   8  26  1   
 22   9  27  1   
 23   9  28  1   
 24  10  12  1   
 25  10  29  1   
 26  10  30  1   
 27  11  12  1   
 28  11  31  1   
 29  11  32  1   
 30  12  13  1   
 31  12  33  1   
 32  13  14  1   
 33  13  15  1   
 34  13  16  1   
 35  14  34  1   
 36  14  35  1   
 37  14  36  1   
 38  15  37  1   
 39  15  38  1   
 40  15  39  1   
 41  16  40  1   
 42  16  41  1   
 43  16  42  1   
@<TRIPOS>SUBSTRUCTURE
  1 ****   2 GROUP 4 **** **** 0

# MOE 2024.06 (io_trps.svl 2023.06)
