@<TRIPOS>MOLECULE
NONAME
45 46 1 0 0 
SMALL
USER_CHARGES


@<TRIPOS>ATOM
  1 CL       1.2900    -1.0440     0.8940 Cl    1 <1>  -0.1770 
  2 C       -0.0800    -1.9200     0.2510 C.ar  1 <1>   0.1770 
  3 C        0.1060    -2.7860    -0.8160 C.ar  1 <1>  -0.1440 
  4 C       -1.3210    -1.7330     0.8280 C.ar  1 <1>  -0.1500 
  5 C       -0.9870    -3.4930    -1.2970 C.ar  1 <1>  -0.1500 
  6 C        1.4730    -2.9510    -1.4390 C.3   1 <1>   0.4870 
  7 C       -2.4120    -2.4250     0.3320 C.ar  1 <1>   0.0830 
  8 C       -2.2370    -3.3330    -0.7210 C.ar  1 <1>   0.0830 
  9 N        2.3020    -3.7430    -0.5060 N.4   1 <1>  -0.9060 
 10 O       -3.6150    -2.1770     0.9060 O.3   1 <1>  -0.3620 
 11 O       -3.2430    -4.0850    -1.2300 O.3   1 <1>  -0.3620 
 12 C        3.6830    -3.9830    -0.9560 C.3   1 <1>   0.4230 
 13 C       -4.6140    -1.5660     0.1160 C.3   1 <1>   0.2000 
 14 C       -3.8750    -5.0000    -0.3580 C.3   1 <1>   0.0400 
 15 C        4.3350    -4.9410     0.0320 C.3   1 <1>  -0.1600 
 16 C        4.5060    -2.7090    -0.7800 C.3   1 <1>  -0.1600 
 17 C       -4.2850    -0.0800    -0.0390 C.3   1 <1>  -0.2400 
 18 C       -5.9460    -1.7640     0.8350 C.3   1 <1>  -0.2400 
 19 C        4.7540    -4.0840     1.2340 C.3   1 <1>  -0.1600 
 20 C        4.8740    -2.6480     0.7080 C.3   1 <1>  -0.1600 
 21 H       -1.4480    -1.0520     1.6500 H     1 <1>   0.1500 
 22 H       -0.8960    -4.1780    -2.1230 H     1 <1>   0.1500 
 23 H        1.9140    -1.9800    -1.6040 H     1 <1>   0.0800 
 24 H        1.3870    -3.4570    -2.3870 H     1 <1>   0.0800 
 25 H        1.8340    -4.6330    -0.3130 H     1 <1>   0.4500 
 26 H        2.3530    -3.2380     0.3880 H     1 <1>   0.4500 
 27 H        3.7090    -4.3620    -1.9660 H     1 <1>   0.0800 
 28 H       -4.6450    -2.0460    -0.8470 H     1 <1>   0.0800 
 29 H       -4.5610    -5.5940    -0.9340 H     1 <1>   0.0800 
 30 H       -4.4110    -4.4640     0.4030 H     1 <1>   0.0800 
 31 H       -3.1270    -5.6310     0.0890 H     1 <1>   0.0800 
 32 H        5.2240    -5.3430    -0.4250 H     1 <1>   0.0800 
 33 H        3.7020    -5.7660     0.3100 H     1 <1>   0.0800 
 34 H        4.0130    -1.8150    -1.1180 H     1 <1>   0.0800 
 35 H        5.4150    -2.8180    -1.3480 H     1 <1>   0.0800 
 36 H       -4.2020     0.3890     0.9250 H     1 <1>   0.0800 
 37 H       -5.0650     0.4110    -0.5930 H     1 <1>   0.0800 
 38 H       -3.3650     0.0460    -0.5800 H     1 <1>   0.0800 
 39 H       -5.9180    -1.3090     1.8090 H     1 <1>   0.0800 
 40 H       -6.1560    -2.8130     0.9390 H     1 <1>   0.0800 
 41 H       -6.7400    -1.3150     0.2680 H     1 <1>   0.0800 
 42 H        5.6910    -4.4290     1.6420 H     1 <1>   0.0800 
 43 H        4.0090    -4.1300     2.0110 H     1 <1>   0.0800 
 44 H        4.1980    -2.0020     1.2420 H     1 <1>   0.0800 
 45 H        5.8760    -2.2700     0.8370 H     1 <1>   0.0800 
@<TRIPOS>BOND
  1   1   2  1   
  2   2   3  ar  
  3   2   4  ar  
  4   3   5  ar  
  5   3   6  1   
  6   4   7  ar  
  7   4  21  1   
  8   5   8  ar  
  9   5  22  1   
 10   6   9  1   
 11   6  23  1   
 12   6  24  1   
 13   7   8  ar  
 14   7  10  1   
 15   8  11  1   
 16   9  12  1   
 17   9  25  1   
 18   9  26  1   
 19  10  13  1   
 20  11  14  1   
 21  12  15  1   
 22  12  16  1   
 23  12  27  1   
 24  13  17  1   
 25  13  18  1   
 26  13  28  1   
 27  14  29  1   
 28  14  30  1   
 29  14  31  1   
 30  15  19  1   
 31  15  32  1   
 32  15  33  1   
 33  16  20  1   
 34  16  34  1   
 35  16  35  1   
 36  17  36  1   
 37  17  37  1   
 38  17  38  1   
 39  18  39  1   
 40  18  40  1   
 41  18  41  1   
 42  19  20  1   
 43  19  42  1   
 44  19  43  1   
 45  20  44  1   
 46  20  45  1   
@<TRIPOS>SUBSTRUCTURE
  1 ****   3 GROUP 4 **** **** 0

# MOE 2024.06 (io_trps.svl 2023.06)
