@<TRIPOS>MOLECULE
NONAME
50 52 1 0 0 
SMALL
USER_CHARGES


@<TRIPOS>ATOM
  1 O        0.2690     1.5160     1.7870 O.2   1 <1>  -0.5700 
  2 C       -0.2970     2.4090     1.2070 C.2   1 <1>   0.5940 
  3 C       -1.5590     2.2480     0.5460 C.2   1 <1>  -0.2370 
  4 C        0.3950     3.7610     1.0690 C.3   1 <1>  -0.0990 
  5 N       -2.4290     1.1770     0.6080 N.pl3 1 <1>   0.0480 
  6 C       -2.0910     3.1760    -0.2950 C.2   1 <1>  -0.1810 
  7 C       -0.5560     4.9030     0.6390 C.3   1 <1>  -0.1600 
  8 C       -3.4780     1.4250    -0.2440 C.ar  1 <1>  -0.1520 
  9 C       -2.2870    -0.0570     1.4140 C.3   1 <1>   0.0960 
 10 C       -3.2890     2.6750    -0.8260 C.ar  1 <1>   0.0000 
 11 C       -1.4430     4.5210    -0.5610 C.3   1 <1>   0.0210 
 12 C       -4.6040     0.6570    -0.5660 C.ar  1 <1>  -0.1500 
 13 C       -1.7010    -1.1750     0.5460 C.3   1 <1>   0.2000 
 14 C       -4.2240     3.1650    -1.7470 C.ar  1 <1>  -0.1500 
 15 C       -5.5140     1.1490    -1.4720 C.ar  1 <1>  -0.1500 
 16 O       -1.4900    -2.3190     1.3220 O.3   1 <1>  -0.6800 
 17 C       -0.3780    -0.7890    -0.1500 C.3   1 <1>   0.3430 
 18 C       -5.3230     2.4040    -2.0640 C.ar  1 <1>  -0.1500 
 19 N        0.2930    -2.0050    -0.7120 N.4   1 <1>  -0.9590 
 20 C        1.7730    -1.8630    -0.7540 C.3   1 <1>   0.3430 
 21 C       -0.2900    -2.3810    -2.0250 C.3   1 <1>   0.3430 
 22 C        2.3370    -1.9490     0.6600 C.3   1 <1>  -0.2400 
 23 C       -0.0160    -3.8550    -2.2980 C.3   1 <1>  -0.2400 
 24 H        1.1760     3.6570     0.3390 H     1 <1>   0.0800 
 25 H        0.8540     4.0120     2.0080 H     1 <1>   0.0800 
 26 H        0.0120     5.7870     0.4060 H     1 <1>   0.0800 
 27 H       -1.2010     5.1390     1.4690 H     1 <1>   0.0800 
 28 H       -3.2600    -0.3420     1.7710 H     1 <1>   0.0800 
 29 H       -1.6600     0.1450     2.2620 H     1 <1>   0.0800 
 30 H       -2.2010     5.2710    -0.7030 H     1 <1>   0.0800 
 31 H       -0.8530     4.4600    -1.4590 H     1 <1>   0.0800 
 32 H       -4.7640    -0.3020    -0.1090 H     1 <1>   0.1500 
 33 H       -2.4250    -1.4390    -0.2060 H     1 <1>   0.0800 
 34 H       -4.0690     4.1300    -2.1910 H     1 <1>   0.1500 
 35 H       -6.3880     0.5780    -1.7340 H     1 <1>   0.1500 
 36 H       -1.2170    -2.0910     2.2370 H     1 <1>   0.4000 
 37 H        0.2620    -0.3330     0.5830 H     1 <1>   0.0800 
 38 H       -0.5620    -0.0590    -0.9220 H     1 <1>   0.0800 
 39 H       -6.0510     2.7660    -2.7690 H     1 <1>   0.1500 
 40 H        0.0490    -2.7570    -0.0420 H     1 <1>   0.4500 
 41 H        2.0450    -0.9240    -1.2090 H     1 <1>   0.0800 
 42 H        2.1990    -2.6590    -1.3430 H     1 <1>   0.0800 
 43 H        0.1260    -1.7690    -2.8090 H     1 <1>   0.0800 
 44 H       -1.3570    -2.2280    -2.0070 H     1 <1>   0.0800 
 45 H        2.0260    -1.1160     1.2640 H     1 <1>   0.0800 
 46 H        3.4120    -1.9290     0.6100 H     1 <1>   0.0800 
 47 H        2.0450    -2.8700     1.1320 H     1 <1>   0.0800 
 48 H        1.0360    -4.0500    -2.4010 H     1 <1>   0.0800 
 49 H       -0.4930    -4.1360    -3.2200 H     1 <1>   0.0800 
 50 H       -0.4240    -4.4680    -1.5140 H     1 <1>   0.0800 
@<TRIPOS>BOND
  1   1   2  2   
  2   2   3  1   
  3   2   4  1   
  4   3   5  1   
  5   3   6  2   
  6   4   7  1   
  7   4  24  1   
  8   4  25  1   
  9   5   8  1   
 10   5   9  1   
 11   6  10  1   
 12   6  11  1   
 13   7  11  1   
 14   7  26  1   
 15   7  27  1   
 16   8  10  ar  
 17   8  12  ar  
 18   9  13  1   
 19   9  28  1   
 20   9  29  1   
 21  10  14  ar  
 22  11  30  1   
 23  11  31  1   
 24  12  15  ar  
 25  12  32  1   
 26  13  16  1   
 27  13  17  1   
 28  13  33  1   
 29  14  18  ar  
 30  14  34  1   
 31  15  18  ar  
 32  15  35  1   
 33  16  36  1   
 34  17  19  1   
 35  17  37  1   
 36  17  38  1   
 37  18  39  1   
 38  19  20  1   
 39  19  21  1   
 40  19  40  1   
 41  20  22  1   
 42  20  41  1   
 43  20  42  1   
 44  21  23  1   
 45  21  43  1   
 46  21  44  1   
 47  22  45  1   
 48  22  46  1   
 49  22  47  1   
 50  23  48  1   
 51  23  49  1   
 52  23  50  1   
@<TRIPOS>SUBSTRUCTURE
  1 ****   5 GROUP 4 **** **** 0

# MOE 2024.06 (io_trps.svl 2023.06)
