@<TRIPOS>MOLECULE
NONAME
48 50 1 0 0 
SMALL
USER_CHARGES


@<TRIPOS>ATOM
  1 O        0.2080     3.0520    -2.2070 O.2   1 <1>  -0.5700 
  2 C       -0.0970     3.4880    -1.1130 C.2   1 <1>   0.7800 
  3 O        0.8490     3.6780    -0.1920 O.3   1 <1>  -0.4300 
  4 N       -1.3880     3.7880    -0.7730 N.am  1 <1>  -0.6600 
  5 C        2.2010     3.3980    -0.4750 C.3   1 <1>   0.1200 
  6 C       -2.5260     3.5540    -1.7080 C.3   1 <1>   0.1400 
  7 C       -1.7990     4.2610     0.5830 C.3   1 <1>   0.1400 
  8 C        3.0200     3.7090     0.7740 C.3   1 <1>  -0.2400 
  9 C       -3.5500     2.5880    -1.0880 C.3   1 <1>   0.1400 
 10 C       -2.8060     3.2840     1.2060 C.3   1 <1>   0.1400 
 11 N       -3.9600     3.0430     0.2810 N.am  1 <1>  -0.6600 
 12 C       -5.2300     3.5020     0.5740 C.2   1 <1>   0.5440 
 13 O       -5.3540     4.3350     1.4520 O.2   1 <1>  -0.5700 
 14 C       -6.4060     3.0210    -0.1240 C.ar  1 <1>   0.0860 
 15 C       -6.6620     1.6470    -0.2890 C.ar  1 <1>   0.1170 
 16 C       -7.3220     3.9400    -0.6380 C.ar  1 <1>  -0.1500 
 17 N       -5.7510     0.7180     0.2380 N.am  1 <1>  -0.5470 
 18 C       -7.8080     1.2540    -0.9790 C.ar  1 <1>  -0.1500 
 19 C       -8.4520     3.5330    -1.3150 C.ar  1 <1>  -0.1500 
 20 C       -5.6830    -0.6510     0.3200 C.2   1 <1>   0.7150 
 21 C       -8.6930     2.1820    -1.4890 C.ar  1 <1>  -0.1500 
 22 O       -6.6210    -1.3480    -0.0170 O.2   1 <1>  -0.5700 
 23 C       -4.4590    -1.2350     0.8120 C.2   1 <1>   0.0550 
 24 O       -3.4170    -0.4660     1.1270 O.3   1 <1>  -0.2800 
 25 C       -4.1170    -2.5340     1.0350 C.2   1 <1>  -0.1500 
 26 C       -2.4330    -1.2340     1.5380 C.2   1 <1>  -0.0100 
 27 C       -2.8030    -2.5320     1.5060 C.2   1 <1>  -0.1500 
 28 H        2.5090     4.0140    -1.3040 H     1 <1>   0.0800 
 29 H        2.2850     2.3590    -0.7450 H     1 <1>   0.0800 
 30 H       -2.1740     3.1480    -2.6400 H     1 <1>   0.0800 
 31 H       -3.0050     4.4940    -1.9190 H     1 <1>   0.0800 
 32 H       -2.2570     5.2310     0.4960 H     1 <1>   0.0800 
 33 H       -0.9490     4.3560     1.2340 H     1 <1>   0.0800 
 34 H        2.9180     4.7470     1.0340 H     1 <1>   0.0800 
 35 H        4.0580     3.5030     0.5860 H     1 <1>   0.0800 
 36 H        2.6910     3.0970     1.5940 H     1 <1>   0.0800 
 37 H       -3.1100     1.6080    -1.0200 H     1 <1>   0.0800 
 38 H       -4.4030     2.5230    -1.7400 H     1 <1>   0.0800 
 39 H       -3.1500     3.6780     2.1460 H     1 <1>   0.0800 
 40 H       -2.3140     2.3480     1.4060 H     1 <1>   0.0800 
 41 H       -7.1360     4.9920    -0.4930 H     1 <1>   0.1500 
 42 H       -4.9060     1.1490     0.6300 H     1 <1>   0.3700 
 43 H       -8.0250     0.2120    -1.1260 H     1 <1>   0.1500 
 44 H       -9.1450     4.2590    -1.7050 H     1 <1>   0.1500 
 45 H       -9.5730     1.8550    -2.0170 H     1 <1>   0.1500 
 46 H       -4.7310    -3.4040     0.8800 H     1 <1>   0.1500 
 47 H       -1.5020    -0.7830     1.8350 H     1 <1>   0.1500 
 48 H       -2.2300    -3.4010     1.7780 H     1 <1>   0.1500 
@<TRIPOS>BOND
  1   1   2  2   
  2   2   3  1   
  3   2   4  am  
  4   3   5  1   
  5   4   6  1   
  6   4   7  1   
  7   5   8  1   
  8   5  28  1   
  9   5  29  1   
 10   6   9  1   
 11   6  30  1   
 12   6  31  1   
 13   7  10  1   
 14   7  32  1   
 15   7  33  1   
 16   8  34  1   
 17   8  35  1   
 18   8  36  1   
 19   9  11  1   
 20   9  37  1   
 21   9  38  1   
 22  10  11  1   
 23  10  39  1   
 24  10  40  1   
 25  11  12  am  
 26  12  13  2   
 27  12  14  1   
 28  14  15  ar  
 29  14  16  ar  
 30  15  17  1   
 31  15  18  ar  
 32  16  19  ar  
 33  16  41  1   
 34  17  20  am  
 35  17  42  1   
 36  18  21  ar  
 37  18  43  1   
 38  19  21  ar  
 39  19  44  1   
 40  20  22  2   
 41  20  23  1   
 42  21  45  1   
 43  23  24  1   
 44  23  25  2   
 45  24  26  1   
 46  25  27  1   
 47  25  46  1   
 48  26  27  2   
 49  26  47  1   
 50  27  48  1   
@<TRIPOS>SUBSTRUCTURE
  1 ****  11 GROUP 4 **** **** 0

# MOE 2024.06 (io_trps.svl 2023.06)
