@<TRIPOS>MOLECULE
NONAME
33 34 1 0 0 
SMALL
USER_CHARGES


@<TRIPOS>ATOM
  1 CL      -0.0280     0.0180    -0.1430 Cl    1 <1>  -0.1770 
  2 C       -1.7750     0.0630    -0.1380 C.ar  1 <1>   0.1770 
  3 C       -2.4660    -0.5220     0.9080 C.ar  1 <1>  -0.1500 
  4 C       -2.4410     0.6830    -1.1800 C.ar  1 <1>  -0.1500 
  5 C       -3.8490    -0.4840     0.9080 C.ar  1 <1>  -0.1500 
  6 C       -3.8240     0.7150    -1.1690 C.ar  1 <1>  -0.1500 
  7 C       -4.5410     0.1350    -0.1300 C.ar  1 <1>   0.1000 
  8 N       -5.9280     0.1850    -0.1510 N.pl3 1 <1>  -0.8380 
  9 C       -6.5780     1.0060     0.9130 C.3   1 <1>   0.2090 
 10 C       -6.6330    -1.1150    -0.3510 C.3   1 <1>   0.2090 
 11 C       -8.0840     1.1810     0.6350 C.3   1 <1>   0.1100 
 12 C       -8.1390    -0.8980    -0.5990 C.3   1 <1>   0.1100 
 13 N       -8.7810    -0.1180     0.4890 N.3   1 <1>  -0.8100 
 14 C      -10.2300     0.0970     0.1990 C.3   1 <1>   0.1710 
 15 C      -11.0960    -1.1630     0.3070 C.2   1 <1>   0.5690 
 16 O      -12.0800    -1.2830    -0.3790 O.2   1 <1>  -0.5700 
 17 N      -10.7490    -2.1320     1.1760 N.am  1 <1>  -0.8000 
 18 H       -1.9250    -0.9980     1.7050 H     1 <1>   0.1500 
 19 H       -1.8840     1.1310    -1.9820 H     1 <1>   0.1500 
 20 H       -4.4010    -0.9340     1.7120 H     1 <1>   0.1500 
 21 H       -4.3680     1.1900    -1.9660 H     1 <1>   0.1500 
 22 H       -6.1050     1.9720     0.9500 H     1 <1>   0.0800 
 23 H       -6.4480     0.5290     1.8680 H     1 <1>   0.0800 
 24 H       -6.5030    -1.7350     0.5180 H     1 <1>   0.0800 
 25 H       -6.2020    -1.6240    -1.1960 H     1 <1>   0.0800 
 26 H       -8.2000     1.7620    -0.2640 H     1 <1>   0.0800 
 27 H       -8.5210     1.7310     1.4490 H     1 <1>   0.0800 
 28 H       -8.6140    -1.8590    -0.6850 H     1 <1>   0.0800 
 29 H       -8.2570    -0.3830    -1.5370 H     1 <1>   0.0800 
 30 H      -10.3470     0.5100    -0.7880 H     1 <1>   0.0800 
 31 H      -10.6270     0.8090     0.9000 H     1 <1>   0.0800 
 32 H      -11.3030    -2.9820     1.2670 H     1 <1>   0.3700 
 33 H       -9.8820    -2.0540     1.7120 H     1 <1>   0.3700 
@<TRIPOS>BOND
  1   1   2  1   
  2   2   3  ar  
  3   2   4  ar  
  4   3   5  ar  
  5   3  18  1   
  6   4   6  ar  
  7   4  19  1   
  8   5   7  ar  
  9   5  20  1   
 10   6   7  ar  
 11   6  21  1   
 12   7   8  1   
 13   8   9  1   
 14   8  10  1   
 15   9  11  1   
 16   9  22  1   
 17   9  23  1   
 18  10  12  1   
 19  10  24  1   
 20  10  25  1   
 21  11  13  1   
 22  11  26  1   
 23  11  27  1   
 24  12  13  1   
 25  12  28  1   
 26  12  29  1   
 27  13  14  1   
 28  14  15  1   
 29  14  30  1   
 30  14  31  1   
 31  15  16  2   
 32  15  17  am  
 33  17  32  1   
 34  17  33  1   
@<TRIPOS>SUBSTRUCTURE
  1 ****   8 GROUP 4 **** **** 0

# MOE 2024.06 (io_trps.svl 2023.06)
