@<TRIPOS>MOLECULE
NONAME
37 38 1 0 0 
SMALL
USER_CHARGES


@<TRIPOS>ATOM
  1 BR      -0.1450     0.1910     0.8130 Br    1 <1>  -0.1110 
  2 C       -0.0750    -1.6770     0.3470 C.ar  1 <1>   0.1110 
  3 C       -1.2410    -2.3760     0.0800 C.ar  1 <1>  -0.0090 
  4 C        1.1790    -2.2530     0.2920 C.ar  1 <1>  -0.1500 
  5 S       -2.8560    -1.5630     0.1720 S.o2  1 <1>   1.4470 
  6 C       -1.0910    -3.7140    -0.2740 C.ar  1 <1>  -0.1500 
  7 C        1.3020    -3.5890    -0.0510 C.ar  1 <1>  -0.1430 
  8 O       -3.1030    -1.0480     1.4980 O.2   1 <1>  -0.6500 
  9 O       -3.0640    -0.7290    -0.9890 O.2   1 <1>  -0.6500 
 10 N       -3.9690    -2.8160     0.0830 N.am  1 <1>  -0.9140 
 11 C        0.1560    -4.3230    -0.3390 C.ar  1 <1>  -0.1430 
 12 C        2.6890    -4.2140    -0.1080 C.3   1 <1>  -0.0970 
 13 C       -5.2620    -2.3850    -0.4560 C.3   1 <1>   0.1960 
 14 C        0.2390    -5.7920    -0.7310 C.3   1 <1>  -0.0970 
 15 C       -6.3080    -3.5060    -0.3600 C.3   1 <1>   0.2000 
 16 O       -7.5430    -3.0240    -0.7720 O.3   1 <1>  -0.5600 
 17 C       -6.5670    -4.0230     1.0500 C.3   1 <1>  -0.1600 
 18 C       -8.5680    -3.8170    -0.2630 C.3   1 <1>   0.1200 
 19 C       -8.0030    -4.5140     0.9730 C.3   1 <1>  -0.1600 
 20 H        2.0450    -1.6550     0.5150 H     1 <1>   0.1500 
 21 H       -1.9660    -4.2940    -0.5090 H     1 <1>   0.1500 
 22 H       -4.1270    -3.0250     1.0680 H     1 <1>   0.4200 
 23 H        3.4470    -3.4970     0.1520 H     1 <1>   0.0800 
 24 H        2.8920    -4.5720    -1.1010 H     1 <1>   0.0800 
 25 H        2.7530    -5.0360     0.5820 H     1 <1>   0.0800 
 26 H       -5.1460    -2.1080    -1.4910 H     1 <1>   0.0800 
 27 H       -5.6160    -1.5260     0.0920 H     1 <1>   0.0800 
 28 H       -0.7380    -6.1980    -0.9250 H     1 <1>   0.0800 
 29 H        0.6880    -6.3610     0.0630 H     1 <1>   0.0800 
 30 H        0.8310    -5.9040    -1.6210 H     1 <1>   0.0800 
 31 H       -6.0440    -4.3160    -1.0190 H     1 <1>   0.0800 
 32 H       -6.4920    -3.2140     1.7550 H     1 <1>   0.0800 
 33 H       -5.8780    -4.8030     1.3240 H     1 <1>   0.0800 
 34 H       -8.8530    -4.5280    -1.0200 H     1 <1>   0.0800 
 35 H       -9.4020    -3.1800    -0.0240 H     1 <1>   0.0800 
 36 H       -8.5610    -4.2570     1.8560 H     1 <1>   0.0800 
 37 H       -8.0410    -5.5800     0.8320 H     1 <1>   0.0800 
@<TRIPOS>BOND
  1   1   2  1   
  2   2   3  ar  
  3   2   4  ar  
  4   3   5  1   
  5   3   6  ar  
  6   4   7  ar  
  7   4  20  1   
  8   5   8  2   
  9   5   9  2   
 10   5  10  am  
 11   6  11  ar  
 12   6  21  1   
 13   7  11  ar  
 14   7  12  1   
 15  10  13  1   
 16  10  22  1   
 17  11  14  1   
 18  12  23  1   
 19  12  24  1   
 20  12  25  1   
 21  13  15  1   
 22  13  26  1   
 23  13  27  1   
 24  14  28  1   
 25  14  29  1   
 26  14  30  1   
 27  15  16  1   
 28  15  17  1   
 29  15  31  1   
 30  16  18  1   
 31  17  19  1   
 32  17  32  1   
 33  17  33  1   
 34  18  19  1   
 35  18  34  1   
 36  18  35  1   
 37  19  36  1   
 38  19  37  1   
@<TRIPOS>SUBSTRUCTURE
  1 ****  10 GROUP 4 **** **** 0

# MOE 2024.06 (io_trps.svl 2023.06)
