@<TRIPOS>MOLECULE
NONAME
44 46 1 0 0 
SMALL
USER_CHARGES


@<TRIPOS>ATOM
  1 S        0.1960     0.0290    -1.9750 S.o2  1 <1>   1.4470 
  2 O        0.4070     0.9990    -3.0250 O.2   1 <1>  -0.6500 
  3 O        0.6700    -1.3270    -2.1230 O.2   1 <1>  -0.6500 
  4 N        1.0150     0.5780    -0.6200 N.am  1 <1>  -0.9140 
  5 C       -1.5390     0.0450    -1.4450 C.ar  1 <1>  -0.0090 
  6 C        2.3580     1.0720    -0.9400 C.3   1 <1>   0.1960 
  7 C       -2.1460     1.1940    -1.0030 C.ar  1 <1>  -0.1500 
  8 C       -2.3080    -1.1330    -1.4750 C.ar  1 <1>  -0.1500 
  9 C        3.1340     1.4420     0.3320 C.3   1 <1>   0.2000 
 10 C       -3.4900     1.2290    -0.5830 C.ar  1 <1>   0.0000 
 11 C       -3.6160    -1.1360    -1.0740 C.ar  1 <1>  -0.1500 
 12 O        4.4340     1.7930    -0.0060 O.3   1 <1>  -0.5600 
 13 C        3.3080     0.3060     1.3330 C.3   1 <1>  -0.1600 
 14 C       -4.2440     0.0380    -0.6170 C.ar  1 <1>   0.0000 
 15 C       -4.1110     2.4100    -0.1280 C.ar  1 <1>  -0.1500 
 16 C        5.2730     1.6690     1.0990 C.3   1 <1>   0.1200 
 17 C        4.6000     0.6740     2.0420 C.3   1 <1>  -0.1600 
 18 C       -5.5880     0.0670    -0.1960 C.ar  1 <1>  -0.1500 
 19 C       -5.4170     2.4110     0.2750 C.ar  1 <1>  -0.1500 
 20 C       -6.1720     1.2320     0.2440 C.ar  1 <1>   0.0830 
 21 O       -7.4550     1.3400     0.6640 O.3   1 <1>  -0.3630 
 22 C       -8.3190     0.2280     0.6840 C.3   1 <1>   0.1200 
 23 C       -9.6740     0.6920     1.2060 C.3   1 <1>  -0.2400 
 24 H        1.1430    -0.2700    -0.0730 H     1 <1>   0.4200 
 25 H        2.2810     1.9470    -1.5640 H     1 <1>   0.0800 
 26 H        2.9040     0.3140    -1.4780 H     1 <1>   0.0800 
 27 H       -1.5830     2.1110    -0.9730 H     1 <1>   0.1500 
 28 H       -1.8450    -2.0420    -1.8230 H     1 <1>   0.1500 
 29 H        2.6840     2.2990     0.8040 H     1 <1>   0.0800 
 30 H       -4.1900    -2.0460    -1.1040 H     1 <1>   0.1500 
 31 H        3.4290    -0.6270     0.8100 H     1 <1>   0.0800 
 32 H        2.4730     0.2350     2.0070 H     1 <1>   0.0800 
 33 H       -3.5350     3.3180    -0.1040 H     1 <1>   0.1500 
 34 H        5.3740     2.6390     1.5560 H     1 <1>   0.0800 
 35 H        6.2330     1.3200     0.7580 H     1 <1>   0.0800 
 36 H        5.2230    -0.1870     2.2100 H     1 <1>   0.0800 
 37 H        4.4010     1.1520     2.9860 H     1 <1>   0.0800 
 38 H       -6.1360    -0.8530    -0.2330 H     1 <1>   0.1500 
 39 H       -5.8940     3.3100     0.6220 H     1 <1>   0.1500 
 40 H       -7.8970    -0.5200     1.3330 H     1 <1>   0.0800 
 41 H       -8.4080    -0.1530    -0.3190 H     1 <1>   0.0800 
 42 H       -9.5710     1.0860     2.2020 H     1 <1>   0.0800 
 43 H      -10.3580    -0.1360     1.2330 H     1 <1>   0.0800 
 44 H      -10.0780     1.4510     0.5600 H     1 <1>   0.0800 
@<TRIPOS>BOND
  1   1   2  2   
  2   1   3  2   
  3   1   4  am  
  4   1   5  1   
  5   4   6  1   
  6   4  24  1   
  7   5   7  ar  
  8   5   8  ar  
  9   6   9  1   
 10   6  25  1   
 11   6  26  1   
 12   7  10  ar  
 13   7  27  1   
 14   8  11  ar  
 15   8  28  1   
 16   9  12  1   
 17   9  13  1   
 18   9  29  1   
 19  10  14  ar  
 20  10  15  ar  
 21  11  14  ar  
 22  11  30  1   
 23  12  16  1   
 24  13  17  1   
 25  13  31  1   
 26  13  32  1   
 27  14  18  ar  
 28  15  19  ar  
 29  15  33  1   
 30  16  17  1   
 31  16  34  1   
 32  16  35  1   
 33  17  36  1   
 34  17  37  1   
 35  18  20  ar  
 36  18  38  1   
 37  19  20  ar  
 38  19  39  1   
 39  20  21  1   
 40  21  22  1   
 41  22  23  1   
 42  22  40  1   
 43  22  41  1   
 44  23  42  1   
 45  23  43  1   
 46  23  44  1   
@<TRIPOS>SUBSTRUCTURE
  1 ****   7 GROUP 4 **** **** 0

# MOE 2024.06 (io_trps.svl 2023.06)
