@<TRIPOS>MOLECULE
NONAME
49 51 1 0 0 
SMALL
USER_CHARGES


@<TRIPOS>ATOM
  1 O        1.0300    -0.9460     2.9950 O.2   1 <1>  -0.5700 
  2 C        1.6900    -1.3710     2.0660 C.2   1 <1>   0.5440 
  3 N        2.7090    -0.5940     1.5480 N.am  1 <1>  -0.6600 
  4 C        1.3970    -2.6910     1.5400 C.ar  1 <1>   0.0860 
  5 C        3.6770    -1.0890     0.5280 C.3   1 <1>   0.1400 
  6 C        2.9680     0.7850     2.0490 C.3   1 <1>   0.1400 
  7 C        0.6050    -2.8950     0.4020 C.ar  1 <1>  -0.1440 
  8 C        1.9250    -3.8100     2.1820 C.ar  1 <1>  -0.1500 
  9 C        3.7540    -0.1090    -0.6460 C.3   1 <1>  -0.1600 
 10 C        3.0320     1.7630     0.8740 C.3   1 <1>  -0.1600 
 11 C        0.3760    -4.1790    -0.0650 C.ar  1 <1>  -0.1500 
 12 C       -0.0260    -1.7190    -0.3390 C.3   1 <1>  -0.0170 
 13 C        1.6930    -5.0890     1.7120 C.ar  1 <1>  -0.1500 
 14 C        4.0670     1.3220    -0.1750 C.3   1 <1>  -0.0190 
 15 C        0.9180    -5.2740     0.5830 C.ar  1 <1>  -0.1500 
 16 C       -1.3150    -1.2580     0.3480 C.3   1 <1>  -0.0170 
 17 C        4.1210     2.2980    -1.3490 C.2   1 <1>   0.5690 
 18 C       -1.9290    -0.0940    -0.4120 C.ar  1 <1>  -0.1440 
 19 O        3.1500     2.4840    -2.0360 O.2   1 <1>  -0.5700 
 20 N        5.2630     2.9560    -1.6180 N.am  1 <1>  -0.8000 
 21 C       -3.0080    -0.2910    -1.2600 C.ar  1 <1>  -0.1500 
 22 C       -1.4020     1.1790    -0.2650 C.ar  1 <1>  -0.1500 
 23 C       -3.5530     0.7750    -1.9560 C.ar  1 <1>  -0.1500 
 24 C       -1.9430     2.2450    -0.9620 C.ar  1 <1>  -0.1500 
 25 C       -3.0200     2.0440    -1.8080 C.ar  1 <1>  -0.1500 
 26 H        3.3930    -2.0600     0.1620 H     1 <1>   0.0800 
 27 H        4.6450    -1.1800     0.9900 H     1 <1>   0.0800 
 28 H        3.9010     0.7900     2.5870 H     1 <1>   0.0800 
 29 H        2.1930     1.0980     2.7280 H     1 <1>   0.0800 
 30 H        2.5230    -3.6650     3.0650 H     1 <1>   0.1500 
 31 H        2.8170    -0.1190    -1.1750 H     1 <1>   0.0800 
 32 H        4.5140    -0.4380    -1.3320 H     1 <1>   0.0800 
 33 H        3.2810     2.7430     1.2420 H     1 <1>   0.0800 
 34 H        2.0570     1.8250     0.4210 H     1 <1>   0.0800 
 35 H       -0.2320    -4.3370    -0.9400 H     1 <1>   0.1500 
 36 H       -0.2520    -2.0030    -1.3520 H     1 <1>   0.0800 
 37 H        0.6640    -0.8970    -0.3910 H     1 <1>   0.0800 
 38 H        2.1120    -5.9380     2.2240 H     1 <1>   0.1500 
 39 H        5.0340     1.3140     0.2960 H     1 <1>   0.0800 
 40 H        0.7330    -6.2680     0.2120 H     1 <1>   0.1500 
 41 H       -1.1040    -0.9500     1.3580 H     1 <1>   0.0800 
 42 H       -2.0110    -2.0770     0.3980 H     1 <1>   0.0800 
 43 H        5.2800     3.6050    -2.4060 H     1 <1>   0.3700 
 44 H        6.1270     2.8600    -1.0870 H     1 <1>   0.3700 
 45 H       -3.4280    -1.2730    -1.3830 H     1 <1>   0.1500 
 46 H       -0.5650     1.3430     0.3920 H     1 <1>   0.1500 
 47 H       -4.3900     0.6170    -2.6120 H     1 <1>   0.1500 
 48 H       -1.5240     3.2290    -0.8460 H     1 <1>   0.1500 
 49 H       -3.4400     2.8730    -2.3490 H     1 <1>   0.1500 
@<TRIPOS>BOND
  1   1   2  2   
  2   2   3  am  
  3   2   4  1   
  4   3   5  1   
  5   3   6  1   
  6   4   7  ar  
  7   4   8  ar  
  8   5   9  1   
  9   5  26  1   
 10   5  27  1   
 11   6  10  1   
 12   6  28  1   
 13   6  29  1   
 14   7  11  ar  
 15   7  12  1   
 16   8  13  ar  
 17   8  30  1   
 18   9  14  1   
 19   9  31  1   
 20   9  32  1   
 21  10  14  1   
 22  10  33  1   
 23  10  34  1   
 24  11  15  ar  
 25  11  35  1   
 26  12  16  1   
 27  12  36  1   
 28  12  37  1   
 29  13  15  ar  
 30  13  38  1   
 31  14  17  1   
 32  14  39  1   
 33  15  40  1   
 34  16  18  1   
 35  16  41  1   
 36  16  42  1   
 37  17  19  2   
 38  17  20  am  
 39  18  21  ar  
 40  18  22  ar  
 41  20  43  1   
 42  20  44  1   
 43  21  23  ar  
 44  21  45  1   
 45  22  24  ar  
 46  22  46  1   
 47  23  25  ar  
 48  23  47  1   
 49  24  25  ar  
 50  24  48  1   
 51  25  49  1   
@<TRIPOS>SUBSTRUCTURE
  1 ****  12 GROUP 4 **** **** 0

# MOE 2024.06 (io_trps.svl 2023.06)
