@<TRIPOS>MOLECULE
NONAME
48 50 1 0 0 
SMALL
USER_CHARGES


@<TRIPOS>ATOM
  1 CL       1.1400    -0.4070     0.3330 Cl    1 <1>  -0.1770 
  2 C        0.8800    -2.1260     0.2090 C.ar  1 <1>   0.1770 
  3 C        1.3050    -2.9530     1.2320 C.ar  1 <1>  -0.1500 
  4 C        0.2530    -2.6410    -0.9090 C.ar  1 <1>  -0.1500 
  5 C        1.0950    -4.3170     1.1300 C.ar  1 <1>  -0.1500 
  6 C        0.0460    -4.0050    -1.0020 C.ar  1 <1>  -0.1500 
  7 C        0.4590    -4.8680     0.0160 C.ar  1 <1>   0.0000 
  8 C        0.2300    -6.2900    -0.0800 C.ar  1 <1>   0.3100 
  9 N        1.2600    -7.0520    -0.3920 N.ar  1 <1>  -0.3100 
 10 C       -1.0640    -6.8140     0.1570 C.ar  1 <1>   0.0000 
 11 N        1.1150    -8.3610    -0.5220 N.ar  1 <1>  -0.3100 
 12 C       -1.2180    -8.2000     0.0190 C.ar  1 <1>   0.0000 
 13 C       -2.1920    -6.0450     0.5230 C.ar  1 <1>  -0.1500 
 14 C       -0.0590    -8.9190    -0.3290 C.ar  1 <1>   0.3930 
 15 C       -2.4900    -8.7750     0.2350 C.ar  1 <1>  -0.1500 
 16 C       -3.4140    -6.6240     0.7300 C.ar  1 <1>  -0.1500 
 17 O       -0.1630   -10.2590    -0.4590 O.3   1 <1>  -0.3630 
 18 C       -3.5650    -8.0060     0.5820 C.ar  1 <1>  -0.1500 
 19 C        0.9140   -11.0720    -0.8930 C.3   1 <1>   0.1200 
 20 C        1.9660   -11.1780     0.2270 C.3   1 <1>   0.3430 
 21 N        3.3760   -11.2770    -0.2900 N.4   1 <1>  -0.9590 
 22 C        4.3040   -11.7010     0.7940 C.3   1 <1>   0.3430 
 23 C        3.8080    -9.9720    -0.8770 C.3   1 <1>   0.3430 
 24 C        4.1380   -13.1930     1.0570 C.3   1 <1>  -0.2400 
 25 C        5.0280   -10.1830    -1.7670 C.3   1 <1>  -0.2400 
 26 H        1.7940    -2.5300     2.0910 H     1 <1>   0.1500 
 27 H       -0.0660    -1.9770    -1.6930 H     1 <1>   0.1500 
 28 H        1.4260    -4.9670     1.9220 H     1 <1>   0.1500 
 29 H       -0.4390    -4.4120    -1.8730 H     1 <1>   0.1500 
 30 H       -2.0880    -4.9810     0.6430 H     1 <1>   0.1500 
 31 H       -2.6090    -9.8380     0.1210 H     1 <1>   0.1500 
 32 H       -4.2680    -6.0310     1.0080 H     1 <1>   0.1500 
 33 H       -4.5340    -8.4470     0.7470 H     1 <1>   0.1500 
 34 H        1.3100   -10.6380    -1.7940 H     1 <1>   0.0800 
 35 H        0.5130   -12.0440    -1.1190 H     1 <1>   0.0800 
 36 H        1.7320   -12.0430     0.8240 H     1 <1>   0.0800 
 37 H        1.8900   -10.3100     0.8610 H     1 <1>   0.0800 
 38 H        3.4160   -11.9860    -1.0330 H     1 <1>   0.4500 
 39 H        4.1120   -11.1370     1.6940 H     1 <1>   0.0800 
 40 H        5.3250   -11.5180     0.4990 H     1 <1>   0.0800 
 41 H        4.0280    -9.2610    -0.0950 H     1 <1>   0.0800 
 42 H        3.0170    -9.5570    -1.4820 H     1 <1>   0.0800 
 43 H        3.1620   -13.4240     1.4430 H     1 <1>   0.0800 
 44 H        4.8590   -13.5000     1.7950 H     1 <1>   0.0800 
 45 H        4.3210   -13.7620     0.1630 H     1 <1>   0.0800 
 46 H        5.8850   -10.4990    -1.2020 H     1 <1>   0.0800 
 47 H        5.2780    -9.2480    -2.2390 H     1 <1>   0.0800 
 48 H        4.8180   -10.8970    -2.5420 H     1 <1>   0.0800 
@<TRIPOS>BOND
  1   1   2  1   
  2   2   3  ar  
  3   2   4  ar  
  4   3   5  ar  
  5   3  26  1   
  6   4   6  ar  
  7   4  27  1   
  8   5   7  ar  
  9   5  28  1   
 10   6   7  ar  
 11   6  29  1   
 12   7   8  1   
 13   8   9  ar  
 14   8  10  ar  
 15   9  11  ar  
 16  10  12  ar  
 17  10  13  ar  
 18  11  14  ar  
 19  12  14  ar  
 20  12  15  ar  
 21  13  16  ar  
 22  13  30  1   
 23  14  17  1   
 24  15  18  ar  
 25  15  31  1   
 26  16  18  ar  
 27  16  32  1   
 28  17  19  1   
 29  18  33  1   
 30  19  20  1   
 31  19  34  1   
 32  19  35  1   
 33  20  21  1   
 34  20  36  1   
 35  20  37  1   
 36  21  22  1   
 37  21  23  1   
 38  21  38  1   
 39  22  24  1   
 40  22  39  1   
 41  22  40  1   
 42  23  25  1   
 43  23  41  1   
 44  23  42  1   
 45  24  43  1   
 46  24  44  1   
 47  24  45  1   
 48  25  46  1   
 49  25  47  1   
 50  25  48  1   
@<TRIPOS>SUBSTRUCTURE
  1 ****   9 GROUP 4 **** **** 0

# MOE 2024.06 (io_trps.svl 2023.06)
