@<TRIPOS>MOLECULE
NONAME
35 36 1 0 0 
SMALL
USER_CHARGES


@<TRIPOS>ATOM
  1 S        0.7870     1.6020    -0.4530 S.3   1 <1>  -0.3320 
  2 C       -0.9230     1.8570     0.0320 C.ar  1 <1>   0.4120 
  3 C        1.2120    -0.0790     0.2160 C.3   1 <1>   0.1310 
  4 N       -1.4460     0.8520     0.7190 N.ar  1 <1>  -0.6200 
  5 C       -1.5660     3.0430    -0.3320 C.ar  1 <1>   0.0730 
  6 C        2.6550    -0.4260    -0.0930 C.2   1 <1>   0.6590 
  7 C       -2.7010     1.0520     1.0660 C.ar  1 <1>   0.1660 
  8 C       -0.8680     4.0400    -1.0880 C.1   1 <1>   0.4840 
  9 C       -2.8940     3.2110     0.0600 C.ar  1 <1>  -0.1430 
 10 O        2.9440    -1.3010    -0.8690 O.2   1 <1>  -0.5700 
 11 O        3.5800     0.2730     0.5570 O.3   1 <1>  -0.4300 
 12 C       -3.4490     2.1680     0.7770 C.ar  1 <1>  -0.1440 
 13 C       -3.4960     0.0350     1.8430 C.3   1 <1>  -0.0170 
 14 N       -0.3570     4.8650    -1.6890 N.1   1 <1>  -0.5570 
 15 C       -3.7080     4.4590    -0.2870 C.3   1 <1>  -0.0170 
 16 C        4.9590     0.0550     0.3460 C.3   1 <1>   0.0400 
 17 C       -4.8530     2.0340     1.3290 C.3   1 <1>  -0.0160 
 18 C       -4.7870     0.7820     2.2200 C.3   1 <1>  -0.1600 
 19 C       -4.3440     4.3160    -1.6710 C.3   1 <1>  -0.2400 
 20 H        0.5470    -0.7840    -0.2480 H     1 <1>   0.0800 
 21 H        1.0480    -0.0550     1.2760 H     1 <1>   0.0800 
 22 H       -2.9570    -0.2890     2.7160 H     1 <1>   0.0800 
 23 H       -3.7060    -0.8080     1.2110 H     1 <1>   0.0800 
 24 H       -3.0840     5.3360    -0.2660 H     1 <1>   0.0800 
 25 H       -4.4810     4.6150     0.4430 H     1 <1>   0.0800 
 26 H        5.5120     0.7330     0.9720 H     1 <1>   0.0800 
 27 H        5.1850     0.2390    -0.6900 H     1 <1>   0.0800 
 28 H        5.1940    -0.9640     0.6020 H     1 <1>   0.0800 
 29 H       -5.5470     1.8870     0.5200 H     1 <1>   0.0800 
 30 H       -5.1410     2.8960     1.9040 H     1 <1>   0.0800 
 31 H       -4.7240     1.0880     3.2500 H     1 <1>   0.0800 
 32 H       -5.6560     0.1590     2.0960 H     1 <1>   0.0800 
 33 H       -3.5840     4.2050    -2.4250 H     1 <1>   0.0800 
 34 H       -4.9260     5.1900    -1.9010 H     1 <1>   0.0800 
 35 H       -4.9880     3.4550    -1.7000 H     1 <1>   0.0800 
@<TRIPOS>BOND
  1   1   2  1   
  2   1   3  1   
  3   2   4  ar  
  4   2   5  ar  
  5   3   6  1   
  6   3  20  1   
  7   3  21  1   
  8   4   7  ar  
  9   5   8  1   
 10   5   9  ar  
 11   6  10  2   
 12   6  11  1   
 13   7  12  ar  
 14   7  13  1   
 15   8  14  3   
 16   9  12  ar  
 17   9  15  1   
 18  11  16  1   
 19  12  17  1   
 20  13  18  1   
 21  13  22  1   
 22  13  23  1   
 23  15  19  1   
 24  15  24  1   
 25  15  25  1   
 26  16  26  1   
 27  16  27  1   
 28  16  28  1   
 29  17  18  1   
 30  17  29  1   
 31  17  30  1   
 32  18  31  1   
 33  18  32  1   
 34  19  33  1   
 35  19  34  1   
 36  19  35  1   
@<TRIPOS>SUBSTRUCTURE
  1 ****   2 GROUP 4 **** **** 0

# MOE 2024.06 (io_trps.svl 2023.06)
