@<TRIPOS>MOLECULE
NONAME
49 51 1 0 0 
SMALL
USER_CHARGES


@<TRIPOS>ATOM
  1 F       -0.7130    -2.9600    -2.4680 F     1 <1>  -0.1900 
  2 C       -1.5270    -2.4270    -1.5860 C.ar  1 <1>   0.1900 
  3 C       -1.1580    -2.4040    -0.2340 C.ar  1 <1>   0.1000 
  4 C       -2.7220    -1.9100    -2.0460 C.ar  1 <1>  -0.1500 
  5 N        0.0440    -2.9180     0.2710 N.pl3 1 <1>  -0.8380 
  6 C       -2.0590    -1.8270     0.6510 C.ar  1 <1>  -0.1500 
  7 C       -3.5980    -1.3420    -1.1360 C.ar  1 <1>  -0.1500 
  8 C        1.2710    -2.1660    -0.1320 C.3   1 <1>   0.2090 
  9 C        0.1870    -4.4020     0.1780 C.3   1 <1>   0.2090 
 10 C       -3.2640    -1.3020     0.2090 C.ar  1 <1>  -0.1500 
 11 C        2.5100    -2.6700     0.6360 C.3   1 <1>   0.3430 
 12 C        1.4310    -4.8880     0.9510 C.3   1 <1>   0.3430 
 13 N        2.6890    -4.1690     0.5330 N.4   1 <1>  -0.9590 
 14 C        3.8730    -4.6390     1.3020 C.3   1 <1>   0.4860 
 15 C        5.1200    -4.0230     0.6970 C.ar  1 <1>  -0.1430 
 16 C        5.6750    -2.8930     1.2770 C.ar  1 <1>  -0.1500 
 17 C        5.7090    -4.5690    -0.4350 C.ar  1 <1>  -0.1500 
 18 C        6.7910    -2.2760     0.7380 C.ar  1 <1>   0.0830 
 19 C        6.8380    -3.9740    -0.9910 C.ar  1 <1>   0.0830 
 20 O        7.1940    -1.1670     1.4220 O.3   1 <1>  -0.3630 
 21 C        7.3740    -2.8250    -0.4130 C.ar  1 <1>   0.0830 
 22 O        7.4640    -4.4630    -2.1020 O.3   1 <1>  -0.3630 
 23 C        8.4140    -0.5090     1.1610 C.3   1 <1>   0.0400 
 24 O        8.4560    -2.2970    -1.0300 O.3   1 <1>  -0.5330 
 25 C        7.1750    -5.7470    -2.6130 C.3   1 <1>   0.0400 
 26 H       -2.9620    -1.9510    -3.0930 H     1 <1>   0.1500 
 27 H       -1.8110    -1.7900     1.6960 H     1 <1>   0.1500 
 28 H       -4.5360    -0.9320    -1.4720 H     1 <1>   0.1500 
 29 H        1.1270    -1.1190     0.0750 H     1 <1>   0.0800 
 30 H        1.4340    -2.2710    -1.1910 H     1 <1>   0.0800 
 31 H        0.2620    -4.6990    -0.8530 H     1 <1>   0.0800 
 32 H       -0.6930    -4.8660     0.5910 H     1 <1>   0.0800 
 33 H       -3.9460    -0.8600     0.9150 H     1 <1>   0.1500 
 34 H        2.3980    -2.3890     1.6700 H     1 <1>   0.0800 
 35 H        3.3830    -2.1670     0.2510 H     1 <1>   0.0800 
 36 H        1.5440    -5.9490     0.7970 H     1 <1>   0.0800 
 37 H        1.2530    -4.7230     2.0010 H     1 <1>   0.0800 
 38 H        2.8670    -4.3730    -0.4580 H     1 <1>   0.4500 
 39 H        3.9480    -5.7130     1.2530 H     1 <1>   0.0800 
 40 H        3.7860    -4.3500     2.3370 H     1 <1>   0.0800 
 41 H        5.2510    -2.4600     2.1660 H     1 <1>   0.1500 
 42 H        5.2900    -5.4510    -0.8800 H     1 <1>   0.1500 
 43 H        8.5490     0.2570     1.9020 H     1 <1>   0.0800 
 44 H        8.3700    -0.0660     0.1820 H     1 <1>   0.0800 
 45 H        9.2170    -1.2230     1.2210 H     1 <1>   0.0800 
 46 H        8.6840    -2.8500    -1.8060 H     1 <1>   0.4500 
 47 H        7.8660    -5.9510    -3.4120 H     1 <1>   0.0800 
 48 H        6.1700    -5.7570    -2.9950 H     1 <1>   0.0800 
 49 H        7.3020    -6.4740    -1.8310 H     1 <1>   0.0800 
@<TRIPOS>BOND
  1   1   2  1   
  2   2   3  ar  
  3   2   4  ar  
  4   3   5  1   
  5   3   6  ar  
  6   4   7  ar  
  7   4  26  1   
  8   5   8  1   
  9   5   9  1   
 10   6  10  ar  
 11   6  27  1   
 12   7  10  ar  
 13   7  28  1   
 14   8  11  1   
 15   8  29  1   
 16   8  30  1   
 17   9  12  1   
 18   9  31  1   
 19   9  32  1   
 20  10  33  1   
 21  11  13  1   
 22  11  34  1   
 23  11  35  1   
 24  12  13  1   
 25  12  36  1   
 26  12  37  1   
 27  13  14  1   
 28  13  38  1   
 29  14  15  1   
 30  14  39  1   
 31  14  40  1   
 32  15  16  ar  
 33  15  17  ar  
 34  16  18  ar  
 35  16  41  1   
 36  17  19  ar  
 37  17  42  1   
 38  18  20  1   
 39  18  21  ar  
 40  19  21  ar  
 41  19  22  1   
 42  20  23  1   
 43  21  24  1   
 44  22  25  1   
 45  23  43  1   
 46  23  44  1   
 47  23  45  1   
 48  24  46  1   
 49  25  47  1   
 50  25  48  1   
 51  25  49  1   
@<TRIPOS>SUBSTRUCTURE
  1 ****  11 GROUP 4 **** **** 0

# MOE 2024.06 (io_trps.svl 2023.06)
