@<TRIPOS>MOLECULE
NONAME
28 28 1 0 0 
SMALL
USER_CHARGES


@<TRIPOS>ATOM
  1 O       -0.4220    -0.7870     1.7580 O.2   1 <1>  -0.5700 
  2 C       -0.9860    -1.3990     0.8850 C.2   1 <1>   0.5690 
  3 N       -2.3050    -1.1830     0.6920 N.am  1 <1>  -0.7300 
  4 C       -0.2410    -2.4340     0.0300 C.3   1 <1>  -0.0190 
  5 C       -3.2400    -1.9810    -0.1220 C.3   1 <1>   0.1400 
  6 C       -0.6800    -3.8620     0.4200 C.3   1 <1>  -0.1600 
  7 C        1.2990    -2.3100     0.1080 C.3   1 <1>  -0.1600 
  8 C       -3.2460    -3.4390     0.3490 C.3   1 <1>  -0.1600 
  9 C       -2.0500    -4.2690    -0.1500 C.3   1 <1>  -0.1600 
 10 C        1.8240    -1.0040    -0.5090 C.3   1 <1>  -0.1600 
 11 C        3.3530    -0.9470    -0.4560 C.3   1 <1>  -0.2400 
 12 H       -2.7230    -0.5000     1.3260 H     1 <1>   0.3700 
 13 H       -0.5150    -2.2680    -0.9960 H     1 <1>   0.0800 
 14 H       -2.9680    -1.9180    -1.1620 H     1 <1>   0.0800 
 15 H       -4.2280    -1.5670    -0.0080 H     1 <1>   0.0800 
 16 H       -0.6880    -3.9510     1.4940 H     1 <1>   0.0800 
 17 H        0.0410    -4.5690     0.0490 H     1 <1>   0.0800 
 18 H        1.7490    -3.1320    -0.4210 H     1 <1>   0.0800 
 19 H        1.6100    -2.3740     1.1370 H     1 <1>   0.0800 
 20 H       -4.1390    -3.8990    -0.0350 H     1 <1>   0.0800 
 21 H       -3.3070    -3.4770     1.4230 H     1 <1>   0.0800 
 22 H       -2.2250    -5.2970     0.1180 H     1 <1>   0.0800 
 23 H       -2.0120    -4.2280    -1.2250 H     1 <1>   0.0800 
 24 H        1.4270    -0.1570     0.0260 H     1 <1>   0.0800 
 25 H        1.5030    -0.9300    -1.5340 H     1 <1>   0.0800 
 26 H        3.6930    -0.9960     0.5640 H     1 <1>   0.0800 
 27 H        3.7020    -0.0260    -0.8880 H     1 <1>   0.0800 
 28 H        3.7820    -1.7670    -1.0050 H     1 <1>   0.0800 
@<TRIPOS>BOND
  1   1   2  2   
  2   2   3  am  
  3   2   4  1   
  4   3   5  1   
  5   3  12  1   
  6   4   6  1   
  7   4   7  1   
  8   4  13  1   
  9   5   8  1   
 10   5  14  1   
 11   5  15  1   
 12   6   9  1   
 13   6  16  1   
 14   6  17  1   
 15   7  10  1   
 16   7  18  1   
 17   7  19  1   
 18   8   9  1   
 19   8  20  1   
 20   8  21  1   
 21   9  22  1   
 22   9  23  1   
 23  10  11  1   
 24  10  24  1   
 25  10  25  1   
 26  11  26  1   
 27  11  27  1   
 28  11  28  1   
@<TRIPOS>SUBSTRUCTURE
  1 ****   4 GROUP 4 **** **** 0

# MOE 2024.06 (io_trps.svl 2023.06)
