@<TRIPOS>MOLECULE
NONAME
38 40 1 0 0 
SMALL
USER_CHARGES


@<TRIPOS>ATOM
  1 O        0.1390     0.4310     1.1050 O.2   1 <1>  -0.5700 
  2 C       -0.3130    -0.6840     1.1950 C.2   1 <1>   0.5690 
  3 N       -1.6270    -0.9590     1.0200 N.am  1 <1>  -0.7300 
  4 C        0.6200    -1.8240     1.4850 C.3   1 <1>  -0.0380 
  5 C       -2.6700     0.0150     0.6420 C.3   1 <1>   0.2200 
  6 C        0.5730    -2.7780     0.3200 C.2   1 <1>   0.4480 
  7 C       -3.9280    -0.1870     1.5130 C.3   1 <1>  -0.0800 
  8 C       -3.0400    -0.1610    -0.8460 C.3   1 <1>  -0.0800 
  9 O       -0.0990    -3.7630     0.3600 O.2   1 <1>  -0.5700 
 10 C        1.3890    -2.4290    -0.9050 C.3   1 <1>  -0.1790 
 11 C       -4.5550    -1.5780     1.2610 C.3   1 <1>  -0.1600 
 12 C       -4.9630     0.8930     1.1320 C.3   1 <1>  -0.1600 
 13 C       -3.6650    -1.5530    -1.0960 C.3   1 <1>  -0.1600 
 14 C       -4.0760     0.9180    -1.2230 C.3   1 <1>  -0.1600 
 15 C       -4.9270    -1.7270    -0.2270 C.3   1 <1>  -0.0800 
 16 C       -5.3420     0.7610    -0.3570 C.3   1 <1>  -0.0800 
 17 C       -5.9470    -0.6350    -0.6000 C.3   1 <1>  -0.1600 
 18 H       -1.9430    -1.9320     1.0110 H     1 <1>   0.3700 
 19 H        0.3000    -2.3240     2.3790 H     1 <1>   0.0800 
 20 H        1.6190    -1.4600     1.6310 H     1 <1>   0.0800 
 21 H       -2.2880     1.0110     0.7960 H     1 <1>   0.0800 
 22 H       -3.6660    -0.0770     2.5510 H     1 <1>   0.0800 
 23 H       -2.1590    -0.0330    -1.4510 H     1 <1>   0.0800 
 24 H        2.4320    -2.3890    -0.6540 H     1 <1>   0.0800 
 25 H        1.0790    -1.4760    -1.2940 H     1 <1>   0.0800 
 26 H        1.2420    -3.1770    -1.6630 H     1 <1>   0.0800 
 27 H       -3.8710    -2.3570     1.5470 H     1 <1>   0.0800 
 28 H       -5.4370    -1.6910     1.8660 H     1 <1>   0.0800 
 29 H       -4.5540     1.8710     1.3180 H     1 <1>   0.0800 
 30 H       -5.8430     0.7870     1.7430 H     1 <1>   0.0800 
 31 H       -2.9550    -2.3300    -0.8720 H     1 <1>   0.0800 
 32 H       -3.9260    -1.6510    -2.1350 H     1 <1>   0.0800 
 33 H       -4.3340     0.8290    -2.2640 H     1 <1>   0.0800 
 34 H       -3.6530     1.8970    -1.0750 H     1 <1>   0.0800 
 35 H       -5.3560    -2.7000    -0.4000 H     1 <1>   0.0800 
 36 H       -6.0600     1.5190    -0.6190 H     1 <1>   0.0800 
 37 H       -6.8390    -0.7530    -0.0100 H     1 <1>   0.0800 
 38 H       -6.2260    -0.7350    -1.6350 H     1 <1>   0.0800 
@<TRIPOS>BOND
  1   1   2  2   
  2   2   3  am  
  3   2   4  1   
  4   3   5  1   
  5   3  18  1   
  6   4   6  1   
  7   4  19  1   
  8   4  20  1   
  9   5   7  1   
 10   5   8  1   
 11   5  21  1   
 12   6   9  2   
 13   6  10  1   
 14   7  11  1   
 15   7  12  1   
 16   7  22  1   
 17   8  13  1   
 18   8  14  1   
 19   8  23  1   
 20  10  24  1   
 21  10  25  1   
 22  10  26  1   
 23  11  15  1   
 24  11  27  1   
 25  11  28  1   
 26  12  16  1   
 27  12  29  1   
 28  12  30  1   
 29  13  15  1   
 30  13  31  1   
 31  13  32  1   
 32  14  16  1   
 33  14  33  1   
 34  14  34  1   
 35  15  17  1   
 36  15  35  1   
 37  16  17  1   
 38  16  36  1   
 39  17  37  1   
 40  17  38  1   
@<TRIPOS>SUBSTRUCTURE
  1 ****   5 GROUP 4 **** **** 0

# MOE 2024.06 (io_trps.svl 2023.06)
