@<TRIPOS>MOLECULE
ka-06862
28 27 1 0 0 
SMALL
USER_CHARGES


@<TRIPOS>ATOM
  1 O       -0.6070     0.0610    -1.4710 O.3   1 <1>  -0.6800 
  2 C       -1.6620     0.8660    -1.0750 C.3   1 <1>   0.2000 
  3 C       -1.2100     1.6940     0.1450 C.3   1 <1>   0.1200 
  4 C       -2.8530    -0.0680    -0.7790 C.3   1 <1>   0.3430 
  5 O       -2.2750     2.4340     0.6610 O.3   1 <1>  -0.6800 
  6 N       -4.1000     0.7000    -0.4760 N.4   1 <1>  -0.9060 
  7 C       -5.1970    -0.0130     0.1700 C.3   1 <1>   0.5030 
  8 C       -4.7490    -0.5050     1.5450 C.3   1 <1>  -0.2400 
  9 C       -5.6470    -1.1750    -0.7140 C.3   1 <1>  -0.2400 
 10 C       -6.3300     0.9960     0.3250 C.3   1 <1>  -0.2400 
 11 H        0.1500     0.5890    -1.8050 H     1 <1>   0.4000 
 12 H       -1.8930     1.5130    -1.9030 H     1 <1>   0.0800 
 13 H       -0.4350     2.3840    -0.1420 H     1 <1>   0.0800 
 14 H       -0.8460     1.0480     0.9270 H     1 <1>   0.0800 
 15 H       -2.5890    -0.6820     0.0640 H     1 <1>   0.0800 
 16 H       -3.0200    -0.7080    -1.6300 H     1 <1>   0.0800 
 17 H       -1.9440     3.0690     1.3380 H     1 <1>   0.4000 
 18 H       -4.4550     1.1470    -1.3250 H     1 <1>   0.4500 
 19 H       -3.8040     1.4730     0.1490 H     1 <1>   0.4500 
 20 H       -5.5870    -0.9330     2.0680 H     1 <1>   0.0800 
 21 H       -4.3690     0.3060     2.1410 H     1 <1>   0.0800 
 22 H       -3.9990    -1.2710     1.4690 H     1 <1>   0.0800 
 23 H       -6.5080    -1.6490    -0.2770 H     1 <1>   0.0800 
 24 H       -4.8800    -1.9240    -0.8020 H     1 <1>   0.0800 
 25 H       -5.9230    -0.8310    -1.6950 H     1 <1>   0.0800 
 26 H       -7.1730     0.5290     0.8050 H     1 <1>   0.0800 
 27 H       -6.6600     1.3600    -0.6320 H     1 <1>   0.0800 
 28 H       -6.0260     1.8280     0.9350 H     1 <1>   0.0800 
@<TRIPOS>BOND
  1   1   2  1   
  2   1  11  1   
  3   2   3  1   
  4   2   4  1   
  5   2  12  1   
  6   3   5  1   
  7   3  13  1   
  8   3  14  1   
  9   4   6  1   
 10   4  15  1   
 11   4  16  1   
 12   5  17  1   
 13   6   7  1   
 14   6  18  1   
 15   6  19  1   
 16   7   8  1   
 17   7   9  1   
 18   7  10  1   
 19   8  20  1   
 20   8  21  1   
 21   8  22  1   
 22   9  23  1   
 23   9  24  1   
 24   9  25  1   
 25  10  26  1   
 26  10  27  1   
 27  10  28  1   
@<TRIPOS>SUBSTRUCTURE
  1 ****   6 GROUP 4 **** **** 0

# MOE 2024.06 (io_trps.svl 2023.06)
