@<TRIPOS>MOLECULE
NONAME
49 53 1 0 0 
SMALL
USER_CHARGES


@<TRIPOS>ATOM
  1 O       -0.6340    -0.9270    -0.3700 O.3   1 <1>  -0.3630 
  2 C       -1.9120    -0.9060     0.0510 C.ar  1 <1>   0.0830 
  3 C       -0.2700    -2.2930    -0.5480 C.3   1 <1>   0.4000 
  4 C       -2.7420     0.1660     0.3800 C.ar  1 <1>   0.0830 
  5 C       -2.3760    -2.1880     0.1350 C.ar  1 <1>   0.0830 
  6 O       -1.4280    -3.0580    -0.2230 O.3   1 <1>  -0.3630 
  7 O       -2.4060     1.4830     0.3360 O.3   1 <1>  -0.3630 
  8 C       -4.0390    -0.1200     0.7890 C.ar  1 <1>  -0.1500 
  9 C       -3.6620    -2.4860     0.5390 C.ar  1 <1>  -0.1500 
 10 C       -1.0990     1.8890    -0.0090 C.3   1 <1>   0.0400 
 11 C       -4.5060    -1.4310     0.8670 C.ar  1 <1>  -0.1430 
 12 C       -5.9300    -1.6970     1.2920 C.3   1 <1>   0.4870 
 13 N       -6.7500    -1.5830     0.0720 N.4   1 <1>  -0.9060 
 14 C       -8.2070    -1.7450     0.2680 C.3   1 <1>   0.4230 
 15 C       -8.8950    -1.8150    -1.1130 C.3   1 <1>  -0.0800 
 16 C       -8.7970    -0.5640     1.0760 C.3   1 <1>  -0.0800 
 17 C       -8.7260    -0.4830    -1.8830 C.3   1 <1>  -0.1600 
 18 C      -10.4010    -2.0680    -0.8980 C.3   1 <1>  -0.1600 
 19 C       -8.6270     0.7680     0.3080 C.3   1 <1>  -0.1600 
 20 C      -10.3040    -0.8210     1.2840 C.3   1 <1>  -0.1600 
 21 C       -9.3240     0.6770    -1.0640 C.3   1 <1>  -0.0800 
 22 C      -11.0170    -0.9190    -0.0780 C.3   1 <1>  -0.0800 
 23 C      -10.8240     0.4050    -0.8420 C.3   1 <1>  -0.1600 
 24 H        0.5300    -2.5450     0.1260 H     1 <1>   0.0800 
 25 H        0.0020    -2.4660    -1.5740 H     1 <1>   0.0800 
 26 H       -4.6700     0.7130     1.0480 H     1 <1>   0.1500 
 27 H       -3.9660    -3.5170     0.5890 H     1 <1>   0.1500 
 28 H       -1.0540     2.9620     0.0490 H     1 <1>   0.0800 
 29 H       -0.8860     1.5680    -1.0130 H     1 <1>   0.0800 
 30 H       -0.4030     1.4560     0.6870 H     1 <1>   0.0800 
 31 H       -6.2330    -0.9680     2.0270 H     1 <1>   0.0800 
 32 H       -6.0150    -2.6840     1.7190 H     1 <1>   0.0800 
 33 H       -6.4090    -2.2630    -0.6140 H     1 <1>   0.4500 
 34 H       -6.5880    -0.6600    -0.3430 H     1 <1>   0.4500 
 35 H       -8.4000    -2.6660     0.7950 H     1 <1>   0.0800 
 36 H       -8.4910    -2.6300    -1.6890 H     1 <1>   0.0800 
 37 H       -8.3350    -0.4950     2.0440 H     1 <1>   0.0800 
 38 H       -9.2370    -0.5480    -2.8300 H     1 <1>   0.0800 
 39 H       -7.6920    -0.2850    -2.1030 H     1 <1>   0.0800 
 40 H      -10.5550    -3.0030    -0.3860 H     1 <1>   0.0800 
 41 H      -10.9010    -2.1390    -1.8500 H     1 <1>   0.0800 
 42 H       -7.5890     1.0160     0.1780 H     1 <1>   0.0800 
 43 H       -9.0700     1.5700     0.8760 H     1 <1>   0.0800 
 44 H      -10.4560    -1.7310     1.8390 H     1 <1>   0.0800 
 45 H      -10.7370    -0.0190     1.8590 H     1 <1>   0.0800 
 46 H       -9.2040     1.6050    -1.5990 H     1 <1>   0.0800 
 47 H      -12.0690    -1.0990     0.0720 H     1 <1>   0.0800 
 48 H      -11.3310     0.3550    -1.7910 H     1 <1>   0.0800 
 49 H      -11.2650     1.2150    -0.2860 H     1 <1>   0.0800 
@<TRIPOS>BOND
  1   1   2  1   
  2   1   3  1   
  3   2   4  ar  
  4   2   5  ar  
  5   3   6  1   
  6   3  24  1   
  7   3  25  1   
  8   4   7  1   
  9   4   8  ar  
 10   5   6  1   
 11   5   9  ar  
 12   7  10  1   
 13   8  11  ar  
 14   8  26  1   
 15   9  11  ar  
 16   9  27  1   
 17  10  28  1   
 18  10  29  1   
 19  10  30  1   
 20  11  12  1   
 21  12  13  1   
 22  12  31  1   
 23  12  32  1   
 24  13  14  1   
 25  13  33  1   
 26  13  34  1   
 27  14  15  1   
 28  14  16  1   
 29  14  35  1   
 30  15  17  1   
 31  15  18  1   
 32  15  36  1   
 33  16  19  1   
 34  16  20  1   
 35  16  37  1   
 36  17  21  1   
 37  17  38  1   
 38  17  39  1   
 39  18  22  1   
 40  18  40  1   
 41  18  41  1   
 42  19  21  1   
 43  19  42  1   
 44  19  43  1   
 45  20  22  1   
 46  20  44  1   
 47  20  45  1   
 48  21  23  1   
 49  21  46  1   
 50  22  23  1   
 51  22  47  1   
 52  23  48  1   
 53  23  49  1   
@<TRIPOS>SUBSTRUCTURE
  1 ****  13 GROUP 4 **** **** 0

# MOE 2024.06 (io_trps.svl 2023.06)
