@<TRIPOS>MOLECULE
NONAME
51 53 1 0 0 
SMALL
USER_CHARGES


@<TRIPOS>ATOM
  1 O      -13.7650    -1.1860     1.6460 O.3   1 <1>  -0.3630 
  2 C      -13.2030    -0.5780     0.5960 C.ar  1 <1>   0.0830 
  3 C      -14.9660    -0.4740     1.9340 C.3   1 <1>   0.4000 
  4 C      -13.9730     0.4740     0.1940 C.ar  1 <1>   0.0830 
  5 C      -12.0250    -0.8970    -0.0480 C.ar  1 <1>  -0.1500 
  6 O      -15.0560     0.5750     0.9720 O.3   1 <1>  -0.3630 
  7 C      -13.6050     1.2670    -0.8730 C.ar  1 <1>  -0.1500 
  8 C      -11.6290    -0.1130    -1.1280 C.ar  1 <1>  -0.1440 
  9 C      -12.4210     0.9630    -1.5330 C.ar  1 <1>  -0.1500 
 10 C      -10.3370    -0.4380    -1.8590 C.3   1 <1>   0.2640 
 11 O       -9.2970    -0.4210    -0.9300 O.3   1 <1>  -0.5600 
 12 C       -8.0280    -0.6580    -1.4550 C.3   1 <1>   0.1200 
 13 C       -7.0250    -0.6260    -0.2930 C.3   1 <1>   0.2000 
 14 O       -7.3130     0.4830     0.5050 O.3   1 <1>  -0.6800 
 15 C       -5.5530    -0.5610    -0.7570 C.3   1 <1>   0.3430 
 16 N       -4.7180     0.1510     0.2640 N.4   1 <1>  -0.9590 
 17 C       -3.9510     1.2690    -0.3460 C.3   1 <1>   0.4230 
 18 C       -3.8870    -0.7200     1.1370 C.3   1 <1>   0.4230 
 19 C       -2.4480     0.9540    -0.4800 C.3   1 <1>  -0.1600 
 20 C       -4.1840     2.5090     0.5080 C.3   1 <1>  -0.2400 
 21 C       -2.8010    -1.4260     0.3060 C.3   1 <1>  -0.1600 
 22 C       -4.7500    -1.7060     1.9180 C.3   1 <1>  -0.2400 
 23 C       -2.1890    -0.5290    -0.7870 C.3   1 <1>  -0.1600 
 24 H      -14.9080    -0.0540     2.9220 H     1 <1>   0.0800 
 25 H      -15.8100    -1.1330     1.8290 H     1 <1>   0.0800 
 26 H      -11.4350    -1.7290     0.2920 H     1 <1>   0.1500 
 27 H      -14.2250     2.0920    -1.1730 H     1 <1>   0.1500 
 28 H      -12.1190     1.5730    -2.3660 H     1 <1>   0.1500 
 29 H      -10.1360     0.2950    -2.6210 H     1 <1>   0.0800 
 30 H      -10.3970    -1.4180    -2.2990 H     1 <1>   0.0800 
 31 H       -7.8040     0.1120    -2.1740 H     1 <1>   0.0800 
 32 H       -8.0220    -1.6210    -1.9380 H     1 <1>   0.0800 
 33 H       -7.1760    -1.5030     0.3120 H     1 <1>   0.0800 
 34 H       -8.3000     0.5620     0.5340 H     1 <1>   0.4000 
 35 H       -5.5180    -0.0220    -1.6880 H     1 <1>   0.0800 
 36 H       -5.1770    -1.5530    -0.9390 H     1 <1>   0.0800 
 37 H       -5.4430     0.5960     0.8590 H     1 <1>   0.4500 
 38 H       -4.3440     1.4640    -1.3310 H     1 <1>   0.0800 
 39 H       -3.3890    -0.0830     1.8520 H     1 <1>   0.0800 
 40 H       -1.9330     1.2180     0.4290 H     1 <1>   0.0800 
 41 H       -2.0320     1.5660    -1.2610 H     1 <1>   0.0800 
 42 H       -3.8240     2.3650     1.5110 H     1 <1>   0.0800 
 43 H       -5.2310     2.7540     0.5350 H     1 <1>   0.0800 
 44 H       -3.6610     3.3460     0.0800 H     1 <1>   0.0800 
 45 H       -3.1880    -2.3230    -0.1430 H     1 <1>   0.0800 
 46 H       -2.0220    -1.7320     0.9840 H     1 <1>   0.0800 
 47 H       -5.1920    -2.4460     1.2770 H     1 <1>   0.0800 
 48 H       -5.5210    -1.1850     2.4580 H     1 <1>   0.0800 
 49 H       -4.1370    -2.2200     2.6360 H     1 <1>   0.0800 
 50 H       -1.1300    -0.7130    -0.8640 H     1 <1>   0.0800 
 51 H       -2.6290    -0.7710    -1.7390 H     1 <1>   0.0800 
@<TRIPOS>BOND
  1   1   2  1   
  2   1   3  1   
  3   2   4  ar  
  4   2   5  ar  
  5   3   6  1   
  6   3  24  1   
  7   3  25  1   
  8   4   6  1   
  9   4   7  ar  
 10   5   8  ar  
 11   5  26  1   
 12   7   9  ar  
 13   7  27  1   
 14   8   9  ar  
 15   8  10  1   
 16   9  28  1   
 17  10  11  1   
 18  10  29  1   
 19  10  30  1   
 20  11  12  1   
 21  12  13  1   
 22  12  31  1   
 23  12  32  1   
 24  13  14  1   
 25  13  15  1   
 26  13  33  1   
 27  14  34  1   
 28  15  16  1   
 29  15  35  1   
 30  15  36  1   
 31  16  17  1   
 32  16  18  1   
 33  16  37  1   
 34  17  19  1   
 35  17  20  1   
 36  17  38  1   
 37  18  21  1   
 38  18  22  1   
 39  18  39  1   
 40  19  23  1   
 41  19  40  1   
 42  19  41  1   
 43  20  42  1   
 44  20  43  1   
 45  20  44  1   
 46  21  23  1   
 47  21  45  1   
 48  21  46  1   
 49  22  47  1   
 50  22  48  1   
 51  22  49  1   
 52  23  50  1   
 53  23  51  1   
@<TRIPOS>SUBSTRUCTURE
  1 ****  11 GROUP 4 **** **** 0

# MOE 2024.06 (io_trps.svl 2023.06)
