@<TRIPOS>MOLECULE
NONAME
41 41 1 0 0 
SMALL
USER_CHARGES


@<TRIPOS>ATOM
  1 O        0.6860     2.4660     2.7610 O.2   1 <1>  -0.5700 
  2 C        0.1340     2.2530     1.7080 C.2   1 <1>   0.5690 
  3 N        0.7980     1.7100     0.6560 N.am  1 <1>  -0.7300 
  4 C       -1.3430     2.6080     1.5370 C.3   1 <1>   0.1810 
  5 C        2.2070     1.3140     0.6630 C.3   1 <1>   0.2200 
  6 O       -1.7860     2.3450     0.2240 O.3   1 <1>  -0.5600 
  7 C        3.0290     2.4120     0.0000 C.3   1 <1>  -0.1600 
  8 C        2.3690     0.0100    -0.1070 C.3   1 <1>  -0.1600 
  9 C       -3.1270     2.6520     0.0130 C.3   1 <1>   0.0400 
 10 C        4.5170     2.0490    -0.0730 C.3   1 <1>   0.5030 
 11 C        3.8370    -0.4280    -0.1880 C.3   1 <1>   0.5030 
 12 N        4.7080     0.6860    -0.6010 N.4   1 <1>  -0.9060 
 13 C        5.2130     2.1920     1.2830 C.3   1 <1>  -0.2400 
 14 C        5.2190     2.9740    -1.0660 C.3   1 <1>  -0.2400 
 15 C        4.3340    -1.0220     1.1330 C.3   1 <1>  -0.2400 
 16 C        3.9920    -1.4920    -1.2730 C.3   1 <1>  -0.2400 
 17 H        0.2470     1.5990    -0.2030 H     1 <1>   0.3700 
 18 H       -1.4800     3.6530     1.7460 H     1 <1>   0.0800 
 19 H       -1.9270     2.0220     2.2240 H     1 <1>   0.0800 
 20 H        2.5210     1.1820     1.6860 H     1 <1>   0.0800 
 21 H        2.9130     3.3250     0.5590 H     1 <1>   0.0800 
 22 H        2.6480     2.5880    -0.9900 H     1 <1>   0.0800 
 23 H        1.9750     0.1370    -1.1000 H     1 <1>   0.0800 
 24 H        1.7920    -0.7610     0.3750 H     1 <1>   0.0800 
 25 H       -3.3680     2.4200    -1.0090 H     1 <1>   0.0800 
 26 H       -3.2840     3.7020     0.1920 H     1 <1>   0.0800 
 27 H       -3.7370     2.0590     0.6730 H     1 <1>   0.0800 
 28 H        5.6760     0.4140    -0.4220 H     1 <1>   0.4500 
 29 H        4.6140     0.7600    -1.6150 H     1 <1>   0.4500 
 30 H        4.6910     1.6850     2.0690 H     1 <1>   0.0800 
 31 H        5.2410     3.2300     1.5640 H     1 <1>   0.0800 
 32 H        6.2270     1.8390     1.2430 H     1 <1>   0.0800 
 33 H        4.7870     2.8980    -2.0480 H     1 <1>   0.0800 
 34 H        6.2710     2.7570    -1.1250 H     1 <1>   0.0800 
 35 H        5.1150     3.9980    -0.7470 H     1 <1>   0.0800 
 36 H        4.1300    -0.3870     1.9720 H     1 <1>   0.0800 
 37 H        5.3880    -1.2330     1.0960 H     1 <1>   0.0800 
 38 H        3.8240    -1.9500     1.3260 H     1 <1>   0.0800 
 39 H        3.6810    -1.1220    -2.2340 H     1 <1>   0.0800 
 40 H        3.3760    -2.3440    -1.0410 H     1 <1>   0.0800 
 41 H        5.0090    -1.8360    -1.3390 H     1 <1>   0.0800 
@<TRIPOS>BOND
  1   1   2  2   
  2   2   3  am  
  3   2   4  1   
  4   3   5  1   
  5   3  17  1   
  6   4   6  1   
  7   4  18  1   
  8   4  19  1   
  9   5   7  1   
 10   5   8  1   
 11   5  20  1   
 12   6   9  1   
 13   7  10  1   
 14   7  21  1   
 15   7  22  1   
 16   8  11  1   
 17   8  23  1   
 18   8  24  1   
 19   9  25  1   
 20   9  26  1   
 21   9  27  1   
 22  10  12  1   
 23  10  13  1   
 24  10  14  1   
 25  11  12  1   
 26  11  15  1   
 27  11  16  1   
 28  12  28  1   
 29  12  29  1   
 30  13  30  1   
 31  13  31  1   
 32  13  32  1   
 33  14  33  1   
 34  14  34  1   
 35  14  35  1   
 36  15  36  1   
 37  15  37  1   
 38  15  38  1   
 39  16  39  1   
 40  16  40  1   
 41  16  41  1   
@<TRIPOS>SUBSTRUCTURE
  1 ****   5 GROUP 4 **** **** 0

# MOE 2024.06 (io_trps.svl 2023.06)
