@<TRIPOS>MOLECULE
NONAME
51 53 1 0 0 
SMALL
USER_CHARGES


@<TRIPOS>ATOM
  1 O        1.4120     0.8460    -2.5900 O.2   1 <1>  -0.5700 
  2 C        1.6320     1.6650    -1.7330 C.2   1 <1>   0.6900 
  3 N        1.2110     2.9430    -1.9060 N.am  1 <1>  -0.5390 
  4 N        2.2880     1.3470    -0.6090 N.am  1 <1>  -0.7300 
  5 C        1.4140     3.9560    -0.9800 C.2   1 <1>  -0.0290 
  6 C        2.8030     2.3450     0.3470 C.3   1 <1>   0.5020 
  7 C        2.1450     3.7180     0.1470 C.2   1 <1>  -0.1240 
  8 C        0.7440     5.2900    -1.3160 C.3   1 <1>   0.4810 
  9 C        4.3200     2.4270     0.1570 C.ar  1 <1>  -0.1440 
 10 C        2.3990     4.6100     1.2390 C.2   1 <1>   0.7060 
 11 N       -0.4700     5.4740    -0.4730 N.4   1 <1>  -0.9590 
 12 C        5.2200     2.0210     1.1420 C.ar  1 <1>  -0.1430 
 13 C        4.8160     2.9250    -1.0440 C.ar  1 <1>  -0.1500 
 14 O        2.8260     4.2470     2.3140 O.2   1 <1>  -0.5700 
 15 O        2.0910     5.9050     1.0890 O.3   1 <1>  -0.4300 
 16 C       -1.4480     4.3600    -0.5460 C.3   1 <1>   0.3430 
 17 C       -1.2230     6.7110    -0.7770 C.3   1 <1>   0.3430 
 18 C        6.5820     2.1380     0.9090 C.ar  1 <1>  -0.1500 
 19 C        4.7750     1.4430     2.4800 C.3   1 <1>  -0.0970 
 20 C        6.1750     3.0350    -1.2730 C.ar  1 <1>  -0.1430 
 21 C        2.3950     6.8530     2.1020 C.3   1 <1>   0.0400 
 22 C       -2.7390     4.9600    -0.0060 C.3   1 <1>  -0.1600 
 23 C       -2.5910     6.4780    -0.1490 C.3   1 <1>  -0.1600 
 24 C        7.0580     2.6430    -0.2860 C.ar  1 <1>  -0.1500 
 25 C        6.6950     3.5790    -2.5920 C.3   1 <1>  -0.0970 
 26 H        0.7620     3.0650    -2.8170 H     1 <1>   0.3700 
 27 H        2.7870     0.4580    -0.6180 H     1 <1>   0.3700 
 28 H        2.5610     1.9900     1.3320 H     1 <1>   0.0800 
 29 H        0.4780     5.3070    -2.3600 H     1 <1>   0.0800 
 30 H        1.4380     6.0950    -1.1370 H     1 <1>   0.0800 
 31 H       -0.1510     5.5440     0.5040 H     1 <1>   0.4500 
 32 H        4.1380     3.2270    -1.8220 H     1 <1>   0.1500 
 33 H       -1.1280     3.5060     0.0320 H     1 <1>   0.0800 
 34 H       -1.5900     4.0620    -1.5720 H     1 <1>   0.0800 
 35 H       -1.3330     6.8220    -1.8440 H     1 <1>   0.0800 
 36 H       -0.7400     7.5860    -0.3710 H     1 <1>   0.0800 
 37 H        7.2900     1.8360     1.6610 H     1 <1>   0.1500 
 38 H        4.2590     2.1900     3.0560 H     1 <1>   0.0800 
 39 H        5.6190     1.1090     3.0550 H     1 <1>   0.0800 
 40 H        4.1270     0.5990     2.3270 H     1 <1>   0.0800 
 41 H        3.4570     6.8380     2.2850 H     1 <1>   0.0800 
 42 H        1.8660     6.5910     3.0020 H     1 <1>   0.0800 
 43 H        2.0970     7.8300     1.7660 H     1 <1>   0.0800 
 44 H       -2.8620     4.6900     1.0290 H     1 <1>   0.0800 
 45 H       -3.5850     4.5860    -0.5570 H     1 <1>   0.0800 
 46 H       -3.3650     6.8990    -0.7680 H     1 <1>   0.0800 
 47 H       -2.6340     6.9520     0.8170 H     1 <1>   0.0800 
 48 H        8.1190     2.7250    -0.4430 H     1 <1>   0.1500 
 49 H        6.0040     3.3660    -3.3870 H     1 <1>   0.0800 
 50 H        7.6390     3.1270    -2.8360 H     1 <1>   0.0800 
 51 H        6.8290     4.6440    -2.5200 H     1 <1>   0.0800 
@<TRIPOS>BOND
  1   1   2  2   
  2   2   3  am  
  3   2   4  am  
  4   3   5  1   
  5   3  26  1   
  6   4   6  1   
  7   4  27  1   
  8   5   7  2   
  9   5   8  1   
 10   6   7  1   
 11   6   9  1   
 12   6  28  1   
 13   7  10  1   
 14   8  11  1   
 15   8  29  1   
 16   8  30  1   
 17   9  12  ar  
 18   9  13  ar  
 19  10  14  2   
 20  10  15  1   
 21  11  16  1   
 22  11  17  1   
 23  11  31  1   
 24  12  18  ar  
 25  12  19  1   
 26  13  20  ar  
 27  13  32  1   
 28  15  21  1   
 29  16  22  1   
 30  16  33  1   
 31  16  34  1   
 32  17  23  1   
 33  17  35  1   
 34  17  36  1   
 35  18  24  ar  
 36  18  37  1   
 37  19  38  1   
 38  19  39  1   
 39  19  40  1   
 40  20  24  ar  
 41  20  25  1   
 42  21  41  1   
 43  21  42  1   
 44  21  43  1   
 45  22  23  1   
 46  22  44  1   
 47  22  45  1   
 48  23  46  1   
 49  23  47  1   
 50  24  48  1   
 51  25  49  1   
 52  25  50  1   
 53  25  51  1   
@<TRIPOS>SUBSTRUCTURE
  1 ****   7 GROUP 4 **** **** 0

# MOE 2024.06 (io_trps.svl 2023.06)
