@<TRIPOS>MOLECULE
NONAME
60 63 1 0 0 
SMALL
USER_CHARGES


@<TRIPOS>ATOM
  1 O       -1.9070     1.7660    -0.1770 O.2   1 <1>  -0.5700 
  2 C       -1.3730     2.8160     0.2180 C.2   1 <1>   0.6160 
  3 N       -0.2250     3.3760    -0.2680 N.am  1 <1>  -0.1570 
  4 C       -1.9010     3.6550     1.2080 C.2   1 <1>  -0.1240 
  5 N       -0.0760     4.6160     0.4330 N.pl3 1 <1>  -0.4890 
  6 C        0.8950     2.5930    -0.6040 C.ar  1 <1>   0.1170 
  7 C       -1.0960     4.7430     1.3140 C.2   1 <1>  -0.0380 
  8 C       -3.1600     3.2890     1.9540 C.3   1 <1>   0.4810 
  9 C        0.9500     5.6050     0.0070 C.3   1 <1>   0.1290 
 10 C        1.9200     2.3690     0.3100 C.ar  1 <1>  -0.1500 
 11 C        0.9910     2.0210    -1.8680 C.ar  1 <1>  -0.1500 
 12 C       -1.2340     5.9510     2.2230 C.3   1 <1>  -0.1020 
 13 N       -4.1980     2.8360     0.9900 N.4   1 <1>  -0.9590 
 14 C        3.0150     1.5960    -0.0310 C.ar  1 <1>  -0.1500 
 15 C        2.0850     1.2480    -2.2120 C.ar  1 <1>  -0.1500 
 16 C       -4.6610     3.9380     0.0700 C.3   1 <1>   0.3430 
 17 C       -5.3550     2.1420     1.6570 C.3   1 <1>   0.3430 
 18 C        3.0990     1.0360    -1.2940 C.ar  1 <1>  -0.1500 
 19 C       -5.6980     3.4530    -0.9650 C.3   1 <1>   0.2090 
 20 C       -6.3830     1.6060     0.6390 C.3   1 <1>   0.2090 
 21 N       -6.7920     2.6650    -0.3250 N.pl3 1 <1>  -0.8380 
 22 C       -8.0420     3.2580    -0.1400 C.ar  1 <1>   0.1000 
 23 C       -9.1910     2.7480    -0.7570 C.ar  1 <1>  -0.1430 
 24 C       -8.1540     4.3660     0.6920 C.ar  1 <1>  -0.1500 
 25 C      -10.4270     3.3420    -0.5130 C.ar  1 <1>  -0.1430 
 26 C       -9.0870     1.5410    -1.6920 C.3   1 <1>  -0.0970 
 27 C       -9.3770     4.9600     0.9210 C.ar  1 <1>  -0.1500 
 28 C      -10.5100     4.4470     0.3210 C.ar  1 <1>  -0.1500 
 29 C      -11.7150     2.8190    -1.1350 C.3   1 <1>  -0.0970 
 30 H       -3.5170     4.1330     2.5200 H     1 <1>   0.0800 
 31 H       -2.9310     2.4890     2.6400 H     1 <1>   0.0800 
 32 H        0.9040     5.7320    -1.0610 H     1 <1>   0.0800 
 33 H        1.9280     5.2490     0.2750 H     1 <1>   0.0800 
 34 H        0.7790     6.5550     0.4800 H     1 <1>   0.0800 
 35 H        1.8560     2.8010     1.2920 H     1 <1>   0.1500 
 36 H        0.2030     2.1810    -2.5810 H     1 <1>   0.1500 
 37 H       -0.3430     6.0620     2.8160 H     1 <1>   0.0800 
 38 H       -2.0720     5.8480     2.8860 H     1 <1>   0.0800 
 39 H       -1.3680     6.8410     1.6350 H     1 <1>   0.0800 
 40 H       -3.7180     2.1350     0.3880 H     1 <1>   0.4500 
 41 H        3.8020     1.4290     0.6840 H     1 <1>   0.1500 
 42 H        2.1500     0.8100    -3.1930 H     1 <1>   0.1500 
 43 H       -3.8190     4.3580    -0.4550 H     1 <1>   0.0800 
 44 H       -5.1110     4.7260     0.6500 H     1 <1>   0.0800 
 45 H       -5.8630     2.8310     2.3110 H     1 <1>   0.0800 
 46 H       -4.9960     1.3190     2.2530 H     1 <1>   0.0800 
 47 H        3.9500     0.4330    -1.5610 H     1 <1>   0.1500 
 48 H       -5.2100     2.8380    -1.7020 H     1 <1>   0.0800 
 49 H       -6.1200     4.3010    -1.4780 H     1 <1>   0.0800 
 50 H       -7.2510     1.2450     1.1640 H     1 <1>   0.0800 
 51 H       -5.9620     0.7780     0.0960 H     1 <1>   0.0800 
 52 H       -7.2840     4.7670     1.1690 H     1 <1>   0.1500 
 53 H       -8.1040     1.4530    -2.1140 H     1 <1>   0.0800 
 54 H       -9.7710     1.6300    -2.5140 H     1 <1>   0.0800 
 55 H       -9.3100     0.6430    -1.1470 H     1 <1>   0.0800 
 56 H       -9.4570     5.8190     1.5640 H     1 <1>   0.1500 
 57 H      -11.4600     4.9150     0.5080 H     1 <1>   0.1500 
 58 H      -11.7970     1.7570    -0.9860 H     1 <1>   0.0800 
 59 H      -11.7250     3.0290    -2.1890 H     1 <1>   0.0800 
 60 H      -12.5760     3.2830    -0.6900 H     1 <1>   0.0800 
@<TRIPOS>BOND
  1   1   2  2   
  2   2   3  am  
  3   2   4  1   
  4   3   5  1   
  5   3   6  1   
  6   4   7  2   
  7   4   8  1   
  8   5   7  1   
  9   5   9  1   
 10   6  10  ar  
 11   6  11  ar  
 12   7  12  1   
 13   8  13  1   
 14   8  30  1   
 15   8  31  1   
 16   9  32  1   
 17   9  33  1   
 18   9  34  1   
 19  10  14  ar  
 20  10  35  1   
 21  11  15  ar  
 22  11  36  1   
 23  12  37  1   
 24  12  38  1   
 25  12  39  1   
 26  13  16  1   
 27  13  17  1   
 28  13  40  1   
 29  14  18  ar  
 30  14  41  1   
 31  15  18  ar  
 32  15  42  1   
 33  16  19  1   
 34  16  43  1   
 35  16  44  1   
 36  17  20  1   
 37  17  45  1   
 38  17  46  1   
 39  18  47  1   
 40  19  21  1   
 41  19  48  1   
 42  19  49  1   
 43  20  21  1   
 44  20  50  1   
 45  20  51  1   
 46  21  22  1   
 47  22  23  ar  
 48  22  24  ar  
 49  23  25  ar  
 50  23  26  1   
 51  24  27  ar  
 52  24  52  1   
 53  25  28  ar  
 54  25  29  1   
 55  26  53  1   
 56  26  54  1   
 57  26  55  1   
 58  27  28  ar  
 59  27  56  1   
 60  28  57  1   
 61  29  58  1   
 62  29  59  1   
 63  29  60  1   
@<TRIPOS>SUBSTRUCTURE
  1 ****  13 GROUP 4 **** **** 0

# MOE 2024.06 (io_trps.svl 2023.06)
