@<TRIPOS>MOLECULE
NONAME
43 43 1 0 0 
SMALL
USER_CHARGES


@<TRIPOS>ATOM
  1 O       -4.8890     0.9490    -0.6190 O.3   1 <1>  -0.6800 
  2 C       -5.1160     0.7430     0.7360 C.3   1 <1>   0.2000 
  3 C       -5.2790    -0.7730     0.9950 C.3   1 <1>   0.3430 
  4 C       -6.3770     1.5220     1.1330 C.3   1 <1>  -0.1600 
  5 N       -6.5360    -1.4040     0.4130 N.4   1 <1>  -0.9590 
  6 C       -7.7030     0.7920     0.7730 C.3   1 <1>  -0.0800 
  7 C       -6.2670    -2.5700    -0.4750 C.3   1 <1>   0.5030 
  8 C       -7.4520    -0.3760    -0.2000 C.3   1 <1>   0.3430 
  9 C       -8.8370     1.7380     0.2760 C.3   1 <1>   0.0000 
 10 C       -5.4650    -2.1570    -1.7130 C.3   1 <1>  -0.2400 
 11 C       -5.4950    -3.6270     0.3220 C.3   1 <1>  -0.2400 
 12 C       -7.5980    -3.1920    -0.9090 C.3   1 <1>  -0.2400 
 13 C       -9.0890     2.8620     1.2980 C.3   1 <1>  -0.2400 
 14 C       -8.5130     2.3750    -1.0880 C.3   1 <1>  -0.2400 
 15 C      -10.1580     0.9580     0.1310 C.3   1 <1>  -0.2400 
 16 H       -4.6820     1.8900    -0.7990 H     1 <1>   0.4000 
 17 H       -4.2560     1.1170     1.2650 H     1 <1>   0.0800 
 18 H       -5.2840    -0.9250     2.0610 H     1 <1>   0.0800 
 19 H       -4.4020    -1.2630     0.6100 H     1 <1>   0.0800 
 20 H       -6.3630     1.6700     2.1990 H     1 <1>   0.0800 
 21 H       -6.3210     2.5010     0.6940 H     1 <1>   0.0800 
 22 H       -7.0530    -1.7970     1.2040 H     1 <1>   0.4500 
 23 H       -8.0670     0.3450     1.6820 H     1 <1>   0.0800 
 24 H       -8.3910    -0.8350    -0.4510 H     1 <1>   0.0800 
 25 H       -7.0140     0.0100    -1.1060 H     1 <1>   0.0800 
 26 H       -5.9940    -1.4300    -2.3000 H     1 <1>   0.0800 
 27 H       -5.2940    -3.0160    -2.3380 H     1 <1>   0.0800 
 28 H       -4.5040    -1.7560    -1.4490 H     1 <1>   0.0800 
 29 H       -4.5020    -3.3030     0.5710 H     1 <1>   0.0800 
 30 H       -5.3880    -4.5200    -0.2680 H     1 <1>   0.0800 
 31 H       -6.0210    -3.8920     1.2220 H     1 <1>   0.0800 
 32 H       -8.1350    -2.5540    -1.5870 H     1 <1>   0.0800 
 33 H       -8.2170    -3.4160    -0.0590 H     1 <1>   0.0800 
 34 H       -7.4160    -4.1130    -1.4340 H     1 <1>   0.0800 
 35 H       -8.2430     3.5200     1.3870 H     1 <1>   0.0800 
 36 H       -9.3050     2.4530     2.2690 H     1 <1>   0.0800 
 37 H       -9.9290     3.4640     0.9980 H     1 <1>   0.0800 
 38 H       -8.3830     1.6290    -1.8520 H     1 <1>   0.0800 
 39 H       -7.6220     2.9740    -1.0460 H     1 <1>   0.0800 
 40 H       -9.3190     3.0180    -1.3970 H     1 <1>   0.0800 
 41 H      -10.4150     0.4650     1.0510 H     1 <1>   0.0800 
 42 H      -10.1090     0.2260    -0.6540 H     1 <1>   0.0800 
 43 H      -10.9620     1.6300    -0.1150 H     1 <1>   0.0800 
@<TRIPOS>BOND
  1   1   2  1   
  2   1  16  1   
  3   2   3  1   
  4   2   4  1   
  5   2  17  1   
  6   3   5  1   
  7   3  18  1   
  8   3  19  1   
  9   4   6  1   
 10   4  20  1   
 11   4  21  1   
 12   5   7  1   
 13   5   8  1   
 14   5  22  1   
 15   6   8  1   
 16   6   9  1   
 17   6  23  1   
 18   7  10  1   
 19   7  11  1   
 20   7  12  1   
 21   8  24  1   
 22   8  25  1   
 23   9  13  1   
 24   9  14  1   
 25   9  15  1   
 26  10  26  1   
 27  10  27  1   
 28  10  28  1   
 29  11  29  1   
 30  11  30  1   
 31  11  31  1   
 32  12  32  1   
 33  12  33  1   
 34  12  34  1   
 35  13  35  1   
 36  13  36  1   
 37  13  37  1   
 38  14  38  1   
 39  14  39  1   
 40  14  40  1   
 41  15  41  1   
 42  15  42  1   
 43  15  43  1   
@<TRIPOS>SUBSTRUCTURE
  1 ****   8 GROUP 4 **** **** 0

# MOE 2024.06 (io_trps.svl 2023.06)
