@<TRIPOS>MOLECULE
NONAME
35 36 1 0 0 
SMALL
USER_CHARGES


@<TRIPOS>ATOM
  1 O       -0.1750     0.9120    -1.0670 O.3   1 <1>  -0.3630 
  2 C       -1.2620     1.1790    -0.2960 C.ar  1 <1>   0.0830 
  3 C        0.5910     1.9680    -1.6100 C.3   1 <1>   0.0400 
  4 C       -2.2620     0.2100    -0.2080 C.ar  1 <1>  -0.1440 
  5 C       -1.3930     2.3720     0.4100 C.ar  1 <1>  -0.1500 
  6 C       -3.3740     0.4500     0.5840 C.ar  1 <1>  -0.1500 
  7 C       -2.1670    -1.1120    -0.9630 C.3   1 <1>  -0.0160 
  8 C       -2.5070     2.5970     1.1970 C.ar  1 <1>  -0.1500 
  9 C       -3.4980     1.6370     1.2840 C.ar  1 <1>  -0.1500 
 10 C       -1.4890    -2.1920    -0.1040 C.3   1 <1>  -0.0800 
 11 C       -0.1110    -1.7110     0.3780 C.3   1 <1>   0.3430 
 12 C       -1.3710    -3.5130    -0.8840 C.3   1 <1>  -0.1600 
 13 N        0.5700    -2.7780     1.1650 N.4   1 <1>  -0.9060 
 14 C       -0.5930    -4.5610    -0.0750 C.3   1 <1>  -0.1600 
 15 C        0.7660    -4.0300     0.3870 C.3   1 <1>   0.3430 
 16 H        1.2640     1.5560    -2.3410 H     1 <1>   0.0800 
 17 H        1.1530     2.4380    -0.8230 H     1 <1>   0.0800 
 18 H       -0.0700     2.6740    -2.0820 H     1 <1>   0.0800 
 19 H       -0.6370     3.1330     0.3640 H     1 <1>   0.1500 
 20 H       -4.1590    -0.2840     0.6600 H     1 <1>   0.1500 
 21 H       -1.6270    -0.9690    -1.8830 H     1 <1>   0.0800 
 22 H       -3.1580    -1.4360    -1.2320 H     1 <1>   0.0800 
 23 H       -2.6060     3.5210     1.7410 H     1 <1>   0.1500 
 24 H       -4.3670     1.8150     1.8940 H     1 <1>   0.1500 
 25 H       -2.1090    -2.3520     0.7620 H     1 <1>   0.0800 
 26 H       -0.2340    -0.8270     0.9850 H     1 <1>   0.0800 
 27 H        0.4890    -1.4440    -0.4770 H     1 <1>   0.0800 
 28 H       -0.8620    -3.3390    -1.8190 H     1 <1>   0.0800 
 29 H       -2.3540    -3.8920    -1.1150 H     1 <1>   0.0800 
 30 H       -0.0010    -2.9820     1.9930 H     1 <1>   0.4500 
 31 H        1.4750    -2.4250     1.4990 H     1 <1>   0.4500 
 32 H       -0.4390    -5.4360    -0.6840 H     1 <1>   0.0800 
 33 H       -1.1700    -4.8670     0.7810 H     1 <1>   0.0800 
 34 H        1.2590    -4.7730     0.9940 H     1 <1>   0.0800 
 35 H        1.3830    -3.8300    -0.4750 H     1 <1>   0.0800 
@<TRIPOS>BOND
  1   1   2  1   
  2   1   3  1   
  3   2   4  ar  
  4   2   5  ar  
  5   3  16  1   
  6   3  17  1   
  7   3  18  1   
  8   4   6  ar  
  9   4   7  1   
 10   5   8  ar  
 11   5  19  1   
 12   6   9  ar  
 13   6  20  1   
 14   7  10  1   
 15   7  21  1   
 16   7  22  1   
 17   8   9  ar  
 18   8  23  1   
 19   9  24  1   
 20  10  11  1   
 21  10  12  1   
 22  10  25  1   
 23  11  13  1   
 24  11  26  1   
 25  11  27  1   
 26  12  14  1   
 27  12  28  1   
 28  12  29  1   
 29  13  15  1   
 30  13  30  1   
 31  13  31  1   
 32  14  15  1   
 33  14  32  1   
 34  14  33  1   
 35  15  34  1   
 36  15  35  1   
@<TRIPOS>SUBSTRUCTURE
  1 ****   4 GROUP 4 **** **** 0

# MOE 2024.06 (io_trps.svl 2023.06)
