@<TRIPOS>MOLECULE
NONAME
38 40 1 0 0 
SMALL
USER_CHARGES


@<TRIPOS>ATOM
  1 S        0.1840    -0.2060     0.8050 S.o2  1 <1>   1.4470 
  2 O        0.2250     1.1870     0.4180 O.2   1 <1>  -0.6500 
  3 O       -0.1690    -0.5520     2.1660 O.2   1 <1>  -0.6500 
  4 N       -0.9520    -0.9540    -0.2050 N.am  1 <1>  -0.8490 
  5 C        1.7390    -1.0130     0.3320 C.ar  1 <1>  -0.0090 
  6 C       -2.2250    -0.2590    -0.2330 C.3   1 <1>   0.1960 
  7 C       -1.2680    -2.3280     0.1450 C.3   1 <1>   0.1960 
  8 C        2.5800    -1.5800     1.2820 C.ar  1 <1>  -0.1500 
  9 C        2.1320    -1.0800    -0.9990 C.ar  1 <1>  -0.1500 
 10 C       -3.1980    -1.2620    -0.8450 C.3   1 <1>  -0.1600 
 11 C       -2.5410    -2.6270    -0.6350 C.3   1 <1>  -0.1600 
 12 C        3.7660    -2.1930     0.9170 C.ar  1 <1>  -0.1500 
 13 C        3.3160    -1.6910    -1.3720 C.ar  1 <1>  -0.1500 
 14 C        4.1460    -2.2540    -0.4150 C.ar  1 <1>  -0.1430 
 15 C        5.4580    -2.9180    -0.8330 C.3   1 <1>   0.0630 
 16 C        5.5180    -4.3890    -0.3690 C.3   1 <1>   0.1400 
 17 C        6.6680    -2.2120    -0.1850 C.3   1 <1>  -0.0990 
 18 N        6.5360    -4.3810     0.6900 N.am  1 <1>  -0.7300 
 19 C        7.1660    -3.2070     0.8220 C.2   1 <1>   0.5690 
 20 O        8.0180    -2.9750     1.6380 O.2   1 <1>  -0.5700 
 21 H       -2.1570     0.6460    -0.8140 H     1 <1>   0.0800 
 22 H       -2.5330    -0.0160     0.7720 H     1 <1>   0.0800 
 23 H       -1.4700    -2.4110     1.2020 H     1 <1>   0.0800 
 24 H       -0.4650    -2.9940    -0.1220 H     1 <1>   0.0800 
 25 H        2.3040    -1.5400     2.3230 H     1 <1>   0.1500 
 26 H        1.4960    -0.6440    -1.7520 H     1 <1>   0.1500 
 27 H       -3.3160    -1.0600    -1.8950 H     1 <1>   0.0800 
 28 H       -4.1580    -1.1970    -0.3640 H     1 <1>   0.0800 
 29 H       -3.1760    -3.3050    -0.0930 H     1 <1>   0.0800 
 30 H       -2.2860    -3.0650    -1.5840 H     1 <1>   0.0800 
 31 H        4.3930    -2.6180     1.6830 H     1 <1>   0.1500 
 32 H        3.5840    -1.7190    -2.4140 H     1 <1>   0.1500 
 33 H        5.5490    -2.8850    -1.9040 H     1 <1>   0.0800 
 34 H        5.8350    -5.0320    -1.1720 H     1 <1>   0.0800 
 35 H        4.5700    -4.7260     0.0160 H     1 <1>   0.0800 
 36 H        6.4000    -1.2900     0.2970 H     1 <1>   0.0800 
 37 H        7.4410    -2.0310    -0.9080 H     1 <1>   0.0800 
 38 H        6.7550    -5.1890     1.2770 H     1 <1>   0.3700 
@<TRIPOS>BOND
  1   1   2  2   
  2   1   3  2   
  3   1   4  am  
  4   1   5  1   
  5   4   6  1   
  6   4   7  1   
  7   5   8  ar  
  8   5   9  ar  
  9   6  10  1   
 10   6  21  1   
 11   6  22  1   
 12   7  11  1   
 13   7  23  1   
 14   7  24  1   
 15   8  12  ar  
 16   8  25  1   
 17   9  13  ar  
 18   9  26  1   
 19  10  11  1   
 20  10  27  1   
 21  10  28  1   
 22  11  29  1   
 23  11  30  1   
 24  12  14  ar  
 25  12  31  1   
 26  13  14  ar  
 27  13  32  1   
 28  14  15  1   
 29  15  16  1   
 30  15  17  1   
 31  15  33  1   
 32  16  18  1   
 33  16  34  1   
 34  16  35  1   
 35  17  19  1   
 36  17  36  1   
 37  17  37  1   
 38  18  19  am  
 39  18  38  1   
 40  19  20  2   
@<TRIPOS>SUBSTRUCTURE
  1 ****   5 GROUP 4 **** **** 0

# MOE 2024.06 (io_trps.svl 2023.06)
