@<TRIPOS>MOLECULE
NONAME
48 51 1 0 0 
SMALL
USER_CHARGES


@<TRIPOS>ATOM
  1 F        0.4680     0.4580    -1.4670 F     1 <1>  -0.3400 
  2 C        1.4090    -0.2080    -0.8100 C.3   1 <1>   1.0200 
  3 F        2.5600     0.3170    -1.2180 F     1 <1>  -0.3400 
  4 F        1.2970     0.1330     0.4700 F     1 <1>  -0.3400 
  5 C        1.3870    -1.7250    -1.0430 C.3   1 <1>   0.1760 
  6 N        0.1790    -2.3170    -0.4300 N.pl3 1 <1>   0.3140 
  7 C        2.6780    -2.4290    -0.5290 C.3   1 <1>  -0.1600 
  8 N       -1.0780    -1.8830    -0.6340 N.2   1 <1>  -0.7070 
  9 C        0.2000    -3.4760     0.2680 C.2   1 <1>  -0.0680 
 10 C        2.5060    -3.9440    -0.3690 C.3   1 <1>   0.4330 
 11 C       -1.8610    -2.7480    -0.0060 C.2   1 <1>   0.2030 
 12 N        1.3780    -4.1760     0.5530 N.pl3 1 <1>  -0.8530 
 13 C       -1.0820    -3.7650     0.5650 C.2   1 <1>  -0.1500 
 14 C        3.7720    -4.5930     0.1790 C.ar  1 <1>  -0.1430 
 15 C       -3.3210    -2.7300     0.0920 C.2   1 <1>   0.7160 
 16 C        4.1290    -4.4520     1.5130 C.ar  1 <1>  -0.1500 
 17 C        4.5910    -5.3340    -0.6620 C.ar  1 <1>  -0.1500 
 18 O       -3.9070    -3.7860     0.2800 O.2   1 <1>  -0.5700 
 19 N       -4.0900    -1.5790    -0.0170 N.am  1 <1>  -0.6600 
 20 C        5.2850    -5.0380     1.9990 C.ar  1 <1>  -0.1500 
 21 C        5.7470    -5.9220    -0.1770 C.ar  1 <1>  -0.1500 
 22 C       -3.5420    -0.2010     0.1390 C.3   1 <1>   0.1400 
 23 C       -5.5430    -1.6370    -0.3490 C.3   1 <1>   0.1400 
 24 C        6.0950    -5.7740     1.1530 C.ar  1 <1>  -0.1500 
 25 C       -4.3630     0.5840     1.1690 C.3   1 <1>  -0.1600 
 26 C       -6.3570    -0.8730     0.6990 C.3   1 <1>  -0.1600 
 27 C       -5.8620     0.5710     0.8470 C.3   1 <1>  -0.1600 
 28 H        1.3060    -1.8890    -2.0990 H     1 <1>   0.0800 
 29 H        2.9570    -2.0210     0.4270 H     1 <1>   0.0800 
 30 H        3.4910    -2.2350    -1.2060 H     1 <1>   0.0800 
 31 H        2.2640    -4.3840    -1.3230 H     1 <1>   0.0800 
 32 H        1.2650    -5.1750     0.7690 H     1 <1>   0.4000 
 33 H       -1.4670    -4.6030     1.1160 H     1 <1>   0.1500 
 34 H        3.5020    -3.8840     2.1810 H     1 <1>   0.1500 
 35 H        4.3380    -5.4620    -1.7000 H     1 <1>   0.1500 
 36 H        5.5510    -4.9220     3.0350 H     1 <1>   0.1500 
 37 H        6.3770    -6.4950    -0.8350 H     1 <1>   0.1500 
 38 H       -3.5700     0.2970    -0.8160 H     1 <1>   0.0800 
 39 H       -2.5220    -0.2260     0.4740 H     1 <1>   0.0800 
 40 H       -5.8860    -2.6570    -0.3980 H     1 <1>   0.0800 
 41 H       -5.6920    -1.1930    -1.3180 H     1 <1>   0.0800 
 42 H        6.9940    -6.2310     1.5300 H     1 <1>   0.1500 
 43 H       -4.0090     1.5990     1.2020 H     1 <1>   0.0800 
 44 H       -4.1990     0.1510     2.1400 H     1 <1>   0.0800 
 45 H       -6.2760    -1.3880     1.6410 H     1 <1>   0.0800 
 46 H       -7.3930    -0.8740     0.4120 H     1 <1>   0.0800 
 47 H       -6.0360     1.1060    -0.0710 H     1 <1>   0.0800 
 48 H       -6.4090     1.0650     1.6320 H     1 <1>   0.0800 
@<TRIPOS>BOND
  1   1   2  1   
  2   2   3  1   
  3   2   4  1   
  4   2   5  1   
  5   5   6  1   
  6   5   7  1   
  7   5  28  1   
  8   6   8  1   
  9   6   9  1   
 10   7  10  1   
 11   7  29  1   
 12   7  30  1   
 13   8  11  2   
 14   9  12  1   
 15   9  13  2   
 16  10  12  1   
 17  10  14  1   
 18  10  31  1   
 19  11  13  1   
 20  11  15  1   
 21  12  32  1   
 22  13  33  1   
 23  14  16  ar  
 24  14  17  ar  
 25  15  18  2   
 26  15  19  am  
 27  16  20  ar  
 28  16  34  1   
 29  17  21  ar  
 30  17  35  1   
 31  19  22  1   
 32  19  23  1   
 33  20  24  ar  
 34  20  36  1   
 35  21  24  ar  
 36  21  37  1   
 37  22  25  1   
 38  22  38  1   
 39  22  39  1   
 40  23  26  1   
 41  23  40  1   
 42  23  41  1   
 43  24  42  1   
 44  25  27  1   
 45  25  43  1   
 46  25  44  1   
 47  26  27  1   
 48  26  45  1   
 49  26  46  1   
 50  27  47  1   
 51  27  48  1   
@<TRIPOS>SUBSTRUCTURE
  1 ****   6 GROUP 4 **** **** 0

# MOE 2024.06 (io_trps.svl 2023.06)
