@<TRIPOS>MOLECULE
NONAME
35 36 1 0 0 
SMALL
USER_CHARGES


@<TRIPOS>ATOM
  1 F       -0.5650    -0.0150    -0.9790 F     1 <1>  -0.3400 
  2 C       -1.4120    -0.7950    -0.3090 C.3   1 <1>   1.0200 
  3 F       -2.5750    -0.6830    -0.9440 F     1 <1>  -0.3400 
  4 F       -1.5970    -0.2070     0.8710 F     1 <1>  -0.3400 
  5 C       -0.9160    -2.2850    -0.1810 C.3   1 <1>   0.6610 
  6 N       -0.7600    -3.0270    -1.4530 N.am  1 <1>  -0.7300 
  7 N       -1.7060    -3.1770     0.7190 N.am  1 <1>  -0.7300 
  8 C        0.5480    -2.2170     0.2610 C.2   1 <1>   0.5690 
  9 C        0.5280    -3.3510    -1.6510 C.2   1 <1>   0.6900 
 10 C       -2.9410    -3.6300     0.4570 C.2   1 <1>   0.7800 
 11 O        0.9190    -1.7490     1.3130 O.2   1 <1>  -0.5700 
 12 N        1.3310    -2.8300    -0.6780 N.am  1 <1>  -0.4200 
 13 O        0.9020    -4.0530    -2.5610 O.2   1 <1>  -0.5700 
 14 O       -3.4330    -3.5880    -0.6500 O.2   1 <1>  -0.5700 
 15 O       -3.6050    -4.1350     1.4880 O.3   1 <1>  -0.4300 
 16 C        2.8020    -3.0250    -0.6600 C.3   1 <1>   0.2200 
 17 C       -4.9160    -4.6430     1.3310 C.3   1 <1>   0.0400 
 18 C        3.2360    -3.9410     0.4930 C.3   1 <1>  -0.1600 
 19 C        3.5600    -1.7010    -0.4760 C.3   1 <1>  -0.1600 
 20 C        4.4580    -3.2720     1.1210 C.3   1 <1>  -0.1600 
 21 C        4.2350    -1.7820     0.8930 C.3   1 <1>  -0.1600 
 22 H       -1.5470    -3.5700    -1.8190 H     1 <1>   0.3700 
 23 H       -1.4210    -3.1630     1.6990 H     1 <1>   0.3700 
 24 H        3.1130    -3.4650    -1.5940 H     1 <1>   0.0800 
 25 H       -5.2610    -4.9970     2.2860 H     1 <1>   0.0800 
 26 H       -4.8940    -5.4520     0.6210 H     1 <1>   0.0800 
 27 H       -5.5560    -3.8530     0.9750 H     1 <1>   0.0800 
 28 H        3.4750    -4.9280     0.1380 H     1 <1>   0.0800 
 29 H        2.4620    -4.0130     1.2370 H     1 <1>   0.0800 
 30 H        2.9250    -0.8360    -0.5550 H     1 <1>   0.0800 
 31 H        4.3230    -1.6380    -1.2320 H     1 <1>   0.0800 
 32 H        5.3490    -3.5850     0.6020 H     1 <1>   0.0800 
 33 H        4.5570    -3.5090     2.1670 H     1 <1>   0.0800 
 34 H        3.5670    -1.4010     1.6470 H     1 <1>   0.0800 
 35 H        5.1550    -1.2230     0.9260 H     1 <1>   0.0800 
@<TRIPOS>BOND
  1   1   2  1   
  2   2   3  1   
  3   2   4  1   
  4   2   5  1   
  5   5   6  1   
  6   5   7  1   
  7   5   8  1   
  8   6   9  am  
  9   6  22  1   
 10   7  10  am  
 11   7  23  1   
 12   8  11  2   
 13   8  12  am  
 14   9  12  am  
 15   9  13  2   
 16  10  14  2   
 17  10  15  1   
 18  12  16  1   
 19  15  17  1   
 20  16  18  1   
 21  16  19  1   
 22  16  24  1   
 23  17  25  1   
 24  17  26  1   
 25  17  27  1   
 26  18  20  1   
 27  18  28  1   
 28  18  29  1   
 29  19  21  1   
 30  19  30  1   
 31  19  31  1   
 32  20  21  1   
 33  20  32  1   
 34  20  33  1   
 35  21  34  1   
 36  21  35  1   
@<TRIPOS>SUBSTRUCTURE
  1 ****   8 GROUP 4 **** **** 0

# MOE 2024.06 (io_trps.svl 2023.06)
