@<TRIPOS>MOLECULE
NONAME
47 49 1 0 0 
SMALL
USER_CHARGES


@<TRIPOS>ATOM
  1 N        1.9600     4.0410    -3.8400 N.1   1 <1>  -0.5570 
  2 C        1.4710     3.7760    -2.8430 C.1   1 <1>   0.3570 
  3 C        0.8540     3.3590    -1.5380 C.3   1 <1>   0.5710 
  4 N       -0.1500     4.3490    -1.0150 N.pl3 1 <1>  -0.4870 
  5 C        1.9410     3.1370    -0.4870 C.2   1 <1>  -0.1810 
  6 N       -0.9520     5.1220    -1.8100 N.2   1 <1>  -0.5030 
  7 C       -0.7080     4.2050     0.3500 C.3   1 <1>   0.3340 
  8 C        2.2940     1.9110     0.0730 C.2   1 <1>   0.1080 
  9 C        2.7660     4.0330     0.1090 C.2   1 <1>  -0.3320 
 10 C       -1.8740     5.6220    -1.1150 C.2   1 <1>   0.3280 
 11 C       -1.1980     2.7800     0.6070 C.ar  1 <1>  -0.1440 
 12 C       -1.8540     5.2180     0.3390 C.3   1 <1>  -0.0990 
 13 N        3.2400     2.0280     0.9460 N.2   1 <1>  -0.7070 
 14 C        1.6980     0.5580    -0.2560 C.3   1 <1>  -0.0590 
 15 N        3.5440     3.3370     0.9680 N.pl3 1 <1>   0.3140 
 16 C        2.8620     5.5380    -0.1080 C.3   1 <1>  -0.0600 
 17 C       -2.9560     6.5500    -1.6160 C.3   1 <1>  -0.1790 
 18 C       -0.7300     2.0820     1.7110 C.ar  1 <1>  -0.1500 
 19 C       -2.1020     2.1620    -0.2470 C.ar  1 <1>  -0.1500 
 20 C        4.6160     3.8520     1.8460 C.3   1 <1>   0.0960 
 21 C       -1.1640     0.7920     1.9630 C.ar  1 <1>  -0.1500 
 22 C       -2.5360     0.8720     0.0020 C.ar  1 <1>  -0.1500 
 23 C        5.9640     3.8790     1.1150 C.3   1 <1>  -0.2400 
 24 C       -2.0680     0.1860     1.1090 C.ar  1 <1>  -0.1500 
 25 H        0.3350     2.4370    -1.7160 H     1 <1>   0.0800 
 26 H        0.0390     4.4900     1.0710 H     1 <1>   0.0800 
 27 H       -1.6220     6.0610     0.9620 H     1 <1>   0.0800 
 28 H       -2.7850     4.7770     0.6440 H     1 <1>   0.0800 
 29 H        0.6340     0.6250    -0.3800 H     1 <1>   0.0800 
 30 H        1.9030    -0.1290     0.5440 H     1 <1>   0.0800 
 31 H        2.1400     0.1800    -1.1580 H     1 <1>   0.0800 
 32 H        2.1540     5.8660    -0.8480 H     1 <1>   0.0800 
 33 H        3.8460     5.8000    -0.4510 H     1 <1>   0.0800 
 34 H        2.6570     6.0610     0.8080 H     1 <1>   0.0800 
 35 H       -3.9210     6.1050    -1.4620 H     1 <1>   0.0800 
 36 H       -2.8190     6.7300    -2.6670 H     1 <1>   0.0800 
 37 H       -2.9060     7.4870    -1.0930 H     1 <1>   0.0800 
 38 H       -0.0160     2.5350     2.3790 H     1 <1>   0.1500 
 39 H       -2.4700     2.6870    -1.1130 H     1 <1>   0.1500 
 40 H        4.6790     3.2090     2.7040 H     1 <1>   0.0800 
 41 H        4.3480     4.8380     2.1770 H     1 <1>   0.0800 
 42 H       -0.7930     0.2600     2.8220 H     1 <1>   0.1500 
 43 H       -3.2390     0.4020    -0.6640 H     1 <1>   0.1500 
 44 H        6.2280     2.8850     0.7990 H     1 <1>   0.0800 
 45 H        6.7310     4.2440     1.7740 H     1 <1>   0.0800 
 46 H        5.9140     4.5220     0.2540 H     1 <1>   0.0800 
 47 H       -2.4060    -0.8160     1.3050 H     1 <1>   0.1500 
@<TRIPOS>BOND
  1   1   2  3   
  2   2   3  1   
  3   3   4  1   
  4   3   5  1   
  5   3  25  1   
  6   4   6  1   
  7   4   7  1   
  8   5   8  1   
  9   5   9  2   
 10   6  10  2   
 11   7  11  1   
 12   7  12  1   
 13   7  26  1   
 14   8  13  2   
 15   8  14  1   
 16   9  15  1   
 17   9  16  1   
 18  10  12  1   
 19  10  17  1   
 20  11  18  ar  
 21  11  19  ar  
 22  12  27  1   
 23  12  28  1   
 24  13  15  1   
 25  14  29  1   
 26  14  30  1   
 27  14  31  1   
 28  15  20  1   
 29  16  32  1   
 30  16  33  1   
 31  16  34  1   
 32  17  35  1   
 33  17  36  1   
 34  17  37  1   
 35  18  21  ar  
 36  18  38  1   
 37  19  22  ar  
 38  19  39  1   
 39  20  23  1   
 40  20  40  1   
 41  20  41  1   
 42  21  24  ar  
 43  21  42  1   
 44  22  24  ar  
 45  22  43  1   
 46  23  44  1   
 47  23  45  1   
 48  23  46  1   
 49  24  47  1   
@<TRIPOS>SUBSTRUCTURE
  1 ****   5 GROUP 4 **** **** 0

# MOE 2024.06 (io_trps.svl 2023.06)
