@<TRIPOS>MOLECULE
NONAME
54 56 1 0 0 
SMALL
USER_CHARGES


@<TRIPOS>ATOM
  1 CL       2.4200    -0.1260     2.0810 Cl    1 <1>  -0.1770 
  2 C        2.7170     1.5560     1.7230 C.ar  1 <1>   0.1770 
  3 C        3.6970     2.2350     2.4210 C.ar  1 <1>  -0.1500 
  4 C        1.9680     2.1840     0.7460 C.ar  1 <1>  -0.1500 
  5 C        3.9290     3.5710     2.1350 C.ar  1 <1>  -0.1500 
  6 C        2.2040     3.5200     0.4650 C.ar  1 <1>  -0.1500 
  7 C        3.1830     4.2190     1.1600 C.ar  1 <1>  -0.1430 
  8 C        3.4400     5.6870     0.8610 C.3   1 <1>   0.2640 
  9 O        4.6790     5.7950     0.2330 O.3   1 <1>  -0.5600 
 10 C        5.0620     7.1060    -0.0670 C.3   1 <1>   0.1200 
 11 C        6.4610     7.0800    -0.6980 C.3   1 <1>   0.2000 
 12 O        7.2620     6.2560     0.0840 O.3   1 <1>  -0.6800 
 13 C        7.0740     8.4960    -0.8370 C.3   1 <1>   0.1100 
 14 N        8.5350     8.5050    -1.0730 N.3   1 <1>  -0.8100 
 15 C        8.9760     7.7940    -2.2970 C.3   1 <1>   0.1100 
 16 C        9.1530     9.8450    -0.9710 C.3   1 <1>   0.1100 
 17 C       10.5190     7.6790    -2.3600 C.3   1 <1>   0.3430 
 18 C       10.6990     9.7620    -1.0410 C.3   1 <1>   0.3430 
 19 N       11.1420     8.3320    -1.1660 N.4   1 <1>  -0.9590 
 20 C       12.6010     8.1110    -1.0220 C.3   1 <1>   0.4860 
 21 C       13.0640     8.7170     0.2890 C.ar  1 <1>  -0.1430 
 22 C       12.6830     8.1500     1.4980 C.ar  1 <1>  -0.1500 
 23 C       13.8630     9.8520     0.2900 C.ar  1 <1>  -0.1500 
 24 C       13.0900     8.7170     2.6920 C.ar  1 <1>  -0.1500 
 25 C       14.2690    10.4170     1.4850 C.ar  1 <1>  -0.1500 
 26 C       13.8810     9.8510     2.6860 C.ar  1 <1>  -0.1500 
 27 H        4.2700     1.7250     3.1740 H     1 <1>   0.1500 
 28 H        1.2140     1.6320     0.2150 H     1 <1>   0.1500 
 29 H        4.6950     4.1060     2.6690 H     1 <1>   0.1500 
 30 H        1.6250     4.0090    -0.2990 H     1 <1>   0.1500 
 31 H        3.4630     6.2520     1.7770 H     1 <1>   0.0800 
 32 H        2.6840     6.0840     0.2070 H     1 <1>   0.0800 
 33 H        5.0790     7.6790     0.8450 H     1 <1>   0.0800 
 34 H        4.3490     7.5330    -0.7500 H     1 <1>   0.0800 
 35 H        6.3850     6.6260    -1.6700 H     1 <1>   0.0800 
 36 H        6.6890     5.5140     0.3810 H     1 <1>   0.4000 
 37 H        6.8770     9.0300     0.0760 H     1 <1>   0.0800 
 38 H        6.5740     9.0200    -1.6330 H     1 <1>   0.0800 
 39 H        8.6120     8.3050    -3.1720 H     1 <1>   0.0800 
 40 H        8.5690     6.7970    -2.3060 H     1 <1>   0.0800 
 41 H        8.8760    10.2960    -0.0330 H     1 <1>   0.0800 
 42 H        8.7890    10.4810    -1.7600 H     1 <1>   0.0800 
 43 H       10.8760     8.1400    -3.2660 H     1 <1>   0.0800 
 44 H       10.7860     6.6350    -2.3900 H     1 <1>   0.0800 
 45 H       11.1080    10.1980    -0.1430 H     1 <1>   0.0800 
 46 H       11.0550    10.3370    -1.8790 H     1 <1>   0.0800 
 47 H       10.6560     7.8840    -0.3710 H     1 <1>   0.4500 
 48 H       13.1280     8.5700    -1.8420 H     1 <1>   0.0800 
 49 H       12.8170     7.0560    -1.0230 H     1 <1>   0.0800 
 50 H       12.0700     7.2640     1.5270 H     1 <1>   0.1500 
 51 H       14.1800    10.3080    -0.6330 H     1 <1>   0.1500 
 52 H       12.7940     8.2760     3.6290 H     1 <1>   0.1500 
 53 H       14.8900    11.2970     1.4860 H     1 <1>   0.1500 
 54 H       14.1980    10.2910     3.6170 H     1 <1>   0.1500 
@<TRIPOS>BOND
  1   1   2  1   
  2   2   3  ar  
  3   2   4  ar  
  4   3   5  ar  
  5   3  27  1   
  6   4   6  ar  
  7   4  28  1   
  8   5   7  ar  
  9   5  29  1   
 10   6   7  ar  
 11   6  30  1   
 12   7   8  1   
 13   8   9  1   
 14   8  31  1   
 15   8  32  1   
 16   9  10  1   
 17  10  11  1   
 18  10  33  1   
 19  10  34  1   
 20  11  12  1   
 21  11  13  1   
 22  11  35  1   
 23  12  36  1   
 24  13  14  1   
 25  13  37  1   
 26  13  38  1   
 27  14  15  1   
 28  14  16  1   
 29  15  17  1   
 30  15  39  1   
 31  15  40  1   
 32  16  18  1   
 33  16  41  1   
 34  16  42  1   
 35  17  19  1   
 36  17  43  1   
 37  17  44  1   
 38  18  19  1   
 39  18  45  1   
 40  18  46  1   
 41  19  20  1   
 42  19  47  1   
 43  20  21  1   
 44  20  48  1   
 45  20  49  1   
 46  21  22  ar  
 47  21  23  ar  
 48  22  24  ar  
 49  22  50  1   
 50  23  25  ar  
 51  23  51  1   
 52  24  26  ar  
 53  24  52  1   
 54  25  26  ar  
 55  25  53  1   
 56  26  54  1   
@<TRIPOS>SUBSTRUCTURE
  1 ****  12 GROUP 4 **** **** 0

# MOE 2024.06 (io_trps.svl 2023.06)
