@<TRIPOS>MOLECULE
Structure2316
26 27 1 0 0 
SMALL
USER_CHARGES


@<TRIPOS>ATOM
  1 O       -0.1210     0.2590    -0.2910 O.3   1 <1>  -0.3400 
  2 C       -1.2970     0.9260    -0.2110 C.ar  1 <1>   0.0830 
  3 C        1.0540     0.9580    -0.6430 C.3   1 <1>   0.2580 
  4 C       -2.2340     0.4530     0.6920 C.ar  1 <1>  -0.1500 
  5 C       -1.5860     2.0520    -0.9770 C.ar  1 <1>  -0.1500 
  6 C        2.3110     0.1530    -0.2430 C.3   1 <1>   0.4720 
  7 C        1.4720     1.9730     0.4490 C.3   1 <1>   0.4720 
  8 C       -3.4420     1.1090     0.8510 C.ar  1 <1>  -0.1500 
  9 C       -2.7950     2.7050    -0.8120 C.ar  1 <1>  -0.1500 
 10 N        2.8530     1.3810     0.4350 N.4   1 <1>  -0.8440 
 11 C       -3.7260     2.2400     0.1020 C.ar  1 <1>  -0.1430 
 12 C       -5.0510     2.9590     0.2800 C.3   1 <1>  -0.0970 
 13 H        1.0450     1.3150    -1.6570 H     1 <1>   0.0000 
 14 H       -2.0230    -0.4270     1.2730 H     1 <1>   0.1500 
 15 H       -0.9000     2.4300    -1.7110 H     1 <1>   0.1500 
 16 H        2.9280    -0.1450    -1.0710 H     1 <1>   0.0000 
 17 H        2.1090    -0.6230     0.4740 H     1 <1>   0.0000 
 18 H        0.9900     1.8030     1.3950 H     1 <1>   0.0000 
 19 H        1.4780     2.9970     0.1220 H     1 <1>   0.0000 
 20 H       -4.1620     0.7360     1.5590 H     1 <1>   0.1500 
 21 H       -3.0160     3.5770    -1.4040 H     1 <1>   0.1500 
 22 H        3.5080     1.9080    -0.1530 H     1 <1>   0.4500 
 23 H        3.2180     1.1940     1.3760 H     1 <1>   0.4500 
 24 H       -5.8270     2.2580     0.5350 H     1 <1>   0.0800 
 25 H       -5.3350     3.4600    -0.6280 H     1 <1>   0.0800 
 26 H       -4.9690     3.6860     1.0680 H     1 <1>   0.0800 
@<TRIPOS>BOND
  1   1   2  1   
  2   1   3  1   
  3   2   4  ar  
  4   2   5  ar  
  5   3   6  1   
  6   3   7  1   
  7   3  13  1   
  8   4   8  ar  
  9   4  14  1   
 10   5   9  ar  
 11   5  15  1   
 12   6  10  1   
 13   6  16  1   
 14   6  17  1   
 15   7  10  1   
 16   7  18  1   
 17   7  19  1   
 18   8  11  ar  
 19   8  20  1   
 20   9  11  ar  
 21   9  21  1   
 22  10  22  1   
 23  10  23  1   
 24  11  12  1   
 25  12  24  1   
 26  12  25  1   
 27  12  26  1   
@<TRIPOS>SUBSTRUCTURE
  1 ****   2 GROUP 4 **** **** 0

# MOE 2024.06 (io_trps.svl 2023.06)
