@<TRIPOS>MOLECULE
NONAME
43 45 1 0 0 
SMALL
USER_CHARGES


@<TRIPOS>ATOM
  1 CL       1.0780     1.6000     2.8990 Cl    1 <1>  -0.1770 
  2 C        1.9650     1.5120     1.3990 C.ar  1 <1>   0.1770 
  3 C        3.1950     0.8870     1.3770 C.ar  1 <1>  -0.1500 
  4 C        1.4190     2.0710     0.2580 C.ar  1 <1>  -0.1500 
  5 C        3.9090     0.8110     0.1890 C.ar  1 <1>   0.1000 
  6 C        2.1260     1.9990    -0.9310 C.ar  1 <1>  -0.1500 
  7 N        5.1460     0.1810     0.1730 N.pl3 1 <1>  -0.8380 
  8 C        3.3610     1.3730    -0.9620 C.ar  1 <1>  -0.1500 
  9 C        6.3380     1.0560    -0.0200 C.3   1 <1>   0.2090 
 10 C        5.2150    -1.1320    -0.5290 C.3   1 <1>   0.2090 
 11 C        7.6370     0.2940     0.3180 C.3   1 <1>   0.3430 
 12 C        6.5280    -1.8690    -0.1840 C.3   1 <1>   0.3430 
 13 N        7.7570    -1.0210    -0.4240 N.4   1 <1>  -0.9590 
 14 C        8.9880    -1.7820    -0.0450 C.3   1 <1>   0.3430 
 15 C       10.2680    -1.0900    -0.5200 C.3   1 <1>  -0.0170 
 16 C       11.4460    -1.9860    -0.1920 C.ar  1 <1>  -0.1430 
 17 C       12.0680    -1.8970     1.0440 C.ar  1 <1>  -0.1500 
 18 C       11.9040    -2.9080    -1.1210 C.ar  1 <1>  -0.1500 
 19 C       13.1330    -2.7270     1.3510 C.ar  1 <1>  -0.1500 
 20 C       12.9680    -3.7380    -0.8130 C.ar  1 <1>  -0.1500 
 21 C       13.5820    -3.6480     0.4230 C.ar  1 <1>  -0.1500 
 22 H        3.5980     0.4610     2.2760 H     1 <1>   0.1500 
 23 H        0.4590     2.5520     0.3040 H     1 <1>   0.1500 
 24 H        1.7130     2.4290    -1.8270 H     1 <1>   0.1500 
 25 H        3.9030     1.3210    -1.8870 H     1 <1>   0.1500 
 26 H        6.2510     1.9170     0.6220 H     1 <1>   0.0800 
 27 H        6.3710     1.4050    -1.0380 H     1 <1>   0.0800 
 28 H        5.1470    -0.9800    -1.5920 H     1 <1>   0.0800 
 29 H        4.3770    -1.7380    -0.2280 H     1 <1>   0.0800 
 30 H        7.6450     0.1090     1.3800 H     1 <1>   0.0800 
 31 H        8.4780     0.9270     0.0890 H     1 <1>   0.0800 
 32 H        6.5850    -2.7720    -0.7680 H     1 <1>   0.0800 
 33 H        6.4840    -2.1510     0.8550 H     1 <1>   0.0800 
 34 H        7.7930    -0.8130    -1.4300 H     1 <1>   0.4500 
 35 H        8.9550    -2.7640    -0.4880 H     1 <1>   0.0800 
 36 H        9.0290    -1.9080     1.0260 H     1 <1>   0.0800 
 37 H       10.4000    -0.1440    -0.0270 H     1 <1>   0.0800 
 38 H       10.2320    -0.9260    -1.5820 H     1 <1>   0.0800 
 39 H       11.7400    -1.1840     1.7810 H     1 <1>   0.1500 
 40 H       11.4450    -2.9930    -2.0910 H     1 <1>   0.1500 
 41 H       13.6160    -2.6560     2.3110 H     1 <1>   0.1500 
 42 H       13.3230    -4.4530    -1.5360 H     1 <1>   0.1500 
 43 H       14.4110    -4.2930     0.6610 H     1 <1>   0.1500 
@<TRIPOS>BOND
  1   1   2  1   
  2   2   3  ar  
  3   2   4  ar  
  4   3   5  ar  
  5   3  22  1   
  6   4   6  ar  
  7   4  23  1   
  8   5   7  1   
  9   5   8  ar  
 10   6   8  ar  
 11   6  24  1   
 12   7   9  1   
 13   7  10  1   
 14   8  25  1   
 15   9  11  1   
 16   9  26  1   
 17   9  27  1   
 18  10  12  1   
 19  10  28  1   
 20  10  29  1   
 21  11  13  1   
 22  11  30  1   
 23  11  31  1   
 24  12  13  1   
 25  12  32  1   
 26  12  33  1   
 27  13  14  1   
 28  13  34  1   
 29  14  15  1   
 30  14  35  1   
 31  14  36  1   
 32  15  16  1   
 33  15  37  1   
 34  15  38  1   
 35  16  17  ar  
 36  16  18  ar  
 37  17  19  ar  
 38  17  39  1   
 39  18  20  ar  
 40  18  40  1   
 41  19  21  ar  
 42  19  41  1   
 43  20  21  ar  
 44  20  42  1   
 45  21  43  1   
@<TRIPOS>SUBSTRUCTURE
  1 ****  13 GROUP 4 **** **** 0

# MOE 2024.06 (io_trps.svl 2023.06)
