@<TRIPOS>MOLECULE
NONAME
51 54 1 0 0 
SMALL
USER_CHARGES


@<TRIPOS>ATOM
  1 O       -1.2400     1.2280     1.1250 O.2   1 <1>  -0.5700 
  2 C       -0.9120     2.1250     0.3830 C.2   1 <1>   0.5690 
  3 N       -1.6980     3.2580     0.1880 N.am  1 <1>  -0.2980 
  4 C        0.4030     1.9180    -0.3700 C.3   1 <1>  -0.0990 
  5 N       -3.0050     3.3870     0.6110 N.2   1 <1>  -0.5120 
  6 C       -1.2970     4.4430    -0.6130 C.3   1 <1>   0.3640 
  7 C        1.6430     2.0620     0.5270 C.3   1 <1>  -0.2400 
  8 C       -3.4910     4.5010     0.2380 C.2   1 <1>   0.3030 
  9 C       -0.0240     5.1120    -0.0950 C.ar  1 <1>  -0.1440 
 10 C       -2.4980     5.3810    -0.4710 C.3   1 <1>  -0.0190 
 11 C       -4.8390     4.9870     0.3690 C.ar  1 <1>   0.0860 
 12 C        0.1650     5.3270     1.2640 C.ar  1 <1>  -0.1500 
 13 C        0.9590     5.5220    -0.9860 C.ar  1 <1>  -0.1500 
 14 C       -3.1180     5.9050    -1.7740 C.3   1 <1>  -0.1600 
 15 C       -5.2910     6.0510    -0.4250 C.ar  1 <1>  -0.1440 
 16 C       -5.7360     4.4050     1.2640 C.ar  1 <1>  -0.1500 
 17 C        1.3170     5.9400     1.7220 C.ar  1 <1>  -0.1500 
 18 C        2.1130     6.1340    -0.5290 C.ar  1 <1>  -0.1500 
 19 C       -4.3700     6.7350    -1.4390 C.3   1 <1>  -0.0170 
 20 C       -6.5920     6.5060    -0.2970 C.ar  1 <1>  -0.1500 
 21 C       -7.0340     4.8610     1.3870 C.ar  1 <1>  -0.1500 
 22 C        2.2980     6.3470     0.8340 C.ar  1 <1>   0.0820 
 23 C       -7.4700     5.9240     0.6020 C.ar  1 <1>   0.0820 
 24 O        3.3970     6.9380     1.3650 O.3   1 <1>  -0.3620 
 25 O       -8.7220     6.4380     0.6550 O.3   1 <1>  -0.3620 
 26 C        4.4580     7.3830     0.5510 C.3   1 <1>   0.0400 
 27 C       -9.6980     5.9080     1.5240 C.3   1 <1>   0.0400 
 28 H        0.3870     0.9180    -0.7650 H     1 <1>   0.0800 
 29 H        0.4840     2.5810    -1.2080 H     1 <1>   0.0800 
 30 H       -1.1860     4.1400    -1.6380 H     1 <1>   0.0800 
 31 H        1.5860     1.3660     1.3470 H     1 <1>   0.0800 
 32 H        1.7110     3.0550     0.9300 H     1 <1>   0.0800 
 33 H        2.5360     1.8580    -0.0360 H     1 <1>   0.0800 
 34 H       -2.2530     6.2080     0.1720 H     1 <1>   0.0800 
 35 H       -0.5840     5.0130     1.9730 H     1 <1>   0.1500 
 36 H        0.8340     5.3670    -2.0440 H     1 <1>   0.1500 
 37 H       -3.4000     5.0740    -2.3990 H     1 <1>   0.0800 
 38 H       -2.4090     6.5120    -2.3100 H     1 <1>   0.0800 
 39 H       -5.3990     3.5790     1.8690 H     1 <1>   0.1500 
 40 H        1.4630     6.1050     2.7750 H     1 <1>   0.1500 
 41 H        2.8550     6.4370    -1.2430 H     1 <1>   0.1500 
 42 H       -4.9150     6.9320    -2.3470 H     1 <1>   0.0800 
 43 H       -4.0660     7.6820    -1.0300 H     1 <1>   0.0800 
 44 H       -6.9480     7.3240    -0.8970 H     1 <1>   0.1500 
 45 H       -7.6860     4.3820     2.0910 H     1 <1>   0.1500 
 46 H        5.2100     7.8120     1.1880 H     1 <1>   0.0800 
 47 H        4.0880     8.1290    -0.1300 H     1 <1>   0.0800 
 48 H        4.8660     6.5420     0.0190 H     1 <1>   0.0800 
 49 H      -10.6060     6.4690     1.3880 H     1 <1>   0.0800 
 50 H       -9.3550     6.0100     2.5380 H     1 <1>   0.0800 
 51 H       -9.8650     4.8760     1.2730 H     1 <1>   0.0800 
@<TRIPOS>BOND
  1   1   2  2   
  2   2   3  am  
  3   2   4  1   
  4   3   5  1   
  5   3   6  1   
  6   4   7  1   
  7   4  28  1   
  8   4  29  1   
  9   5   8  2   
 10   6   9  1   
 11   6  10  1   
 12   6  30  1   
 13   7  31  1   
 14   7  32  1   
 15   7  33  1   
 16   8  10  1   
 17   8  11  1   
 18   9  12  ar  
 19   9  13  ar  
 20  10  14  1   
 21  10  34  1   
 22  11  15  ar  
 23  11  16  ar  
 24  12  17  ar  
 25  12  35  1   
 26  13  18  ar  
 27  13  36  1   
 28  14  19  1   
 29  14  37  1   
 30  14  38  1   
 31  15  19  1   
 32  15  20  ar  
 33  16  21  ar  
 34  16  39  1   
 35  17  22  ar  
 36  17  40  1   
 37  18  22  ar  
 38  18  41  1   
 39  19  42  1   
 40  19  43  1   
 41  20  23  ar  
 42  20  44  1   
 43  21  23  ar  
 44  21  45  1   
 45  22  24  1   
 46  23  25  1   
 47  24  26  1   
 48  25  27  1   
 49  26  46  1   
 50  26  47  1   
 51  26  48  1   
 52  27  49  1   
 53  27  50  1   
 54  27  51  1   
@<TRIPOS>SUBSTRUCTURE
  1 ****  10 GROUP 4 **** **** 0

# MOE 2024.06 (io_trps.svl 2023.06)
