@<TRIPOS>MOLECULE
NONAME
37 38 1 0 0 
SMALL
USER_CHARGES


@<TRIPOS>ATOM
  1 O        0.4800     1.1480     0.3380 O.2   1 <1>  -0.5700 
  2 C        0.2550     2.3400     0.2450 C.2   1 <1>   0.5440 
  3 N        1.2190     3.2080     0.6690 N.am  1 <1>  -0.7300 
  4 C       -0.9890     2.8200    -0.3300 C.ar  1 <1>   0.0860 
  5 C        2.5270     2.8350     1.2760 C.3   1 <1>   0.1400 
  6 C       -1.5970     4.0340     0.0320 C.ar  1 <1>   0.0830 
  7 C       -1.6270     2.0570    -1.3100 C.ar  1 <1>  -0.1500 
  8 C        3.4810     2.2160     0.2440 C.3   1 <1>   0.2000 
  9 O       -1.0710     4.8080     1.0070 O.3   1 <1>  -0.3630 
 10 C       -2.7570     4.4810    -0.6000 C.ar  1 <1>  -0.1430 
 11 C       -2.7870     2.4830    -1.9250 C.ar  1 <1>  -0.1500 
 12 O        4.7490     2.0950     0.8010 O.3   1 <1>  -0.5600 
 13 C        3.7120     3.0540    -1.0080 C.3   1 <1>  -0.1600 
 14 C       -1.3650     4.4330     2.3360 C.3   1 <1>   0.0400 
 15 C       -3.3480     3.6970    -1.5740 C.ar  1 <1>  -0.1500 
 16 C       -3.3870     5.8170    -0.2310 C.3   1 <1>  -0.0970 
 17 C        5.6930     1.9510    -0.2090 C.3   1 <1>   0.1200 
 18 C        5.1220     2.6700    -1.4290 C.3   1 <1>  -0.1600 
 19 H        0.9770     4.2050     0.6730 H     1 <1>   0.3700 
 20 H        2.3570     2.1210     2.0630 H     1 <1>   0.0800 
 21 H        2.9810     3.7150     1.6950 H     1 <1>   0.0800 
 22 H       -1.1950     1.1120    -1.5950 H     1 <1>   0.1500 
 23 H        3.1470     1.2260    -0.0200 H     1 <1>   0.0800 
 24 H       -3.2540     1.8730    -2.6790 H     1 <1>   0.1500 
 25 H        3.6680     4.1000    -0.7600 H     1 <1>   0.0800 
 26 H        2.9770     2.8380    -1.7640 H     1 <1>   0.0800 
 27 H       -0.9250     5.1570     2.9970 H     1 <1>   0.0800 
 28 H       -0.9510     3.4580     2.5300 H     1 <1>   0.0800 
 29 H       -2.4330     4.4150     2.4650 H     1 <1>   0.0800 
 30 H       -4.2490     4.0240    -2.0660 H     1 <1>   0.1500 
 31 H       -2.6400     6.5910    -0.2440 H     1 <1>   0.0800 
 32 H       -3.8120     5.7620     0.7550 H     1 <1>   0.0800 
 33 H       -4.1630     6.0850    -0.9250 H     1 <1>   0.0800 
 34 H        5.8200     0.8990    -0.4000 H     1 <1>   0.0800 
 35 H        6.6220     2.3820     0.1240 H     1 <1>   0.0800 
 36 H        5.7080     3.5380    -1.6750 H     1 <1>   0.0800 
 37 H        5.1100     2.0030    -2.2730 H     1 <1>   0.0800 
@<TRIPOS>BOND
  1   1   2  2   
  2   2   3  am  
  3   2   4  1   
  4   3   5  1   
  5   3  19  1   
  6   4   6  ar  
  7   4   7  ar  
  8   5   8  1   
  9   5  20  1   
 10   5  21  1   
 11   6   9  1   
 12   6  10  ar  
 13   7  11  ar  
 14   7  22  1   
 15   8  12  1   
 16   8  13  1   
 17   8  23  1   
 18   9  14  1   
 19  10  15  ar  
 20  10  16  1   
 21  11  15  ar  
 22  11  24  1   
 23  12  17  1   
 24  13  18  1   
 25  13  25  1   
 26  13  26  1   
 27  14  27  1   
 28  14  28  1   
 29  14  29  1   
 30  15  30  1   
 31  16  31  1   
 32  16  32  1   
 33  16  33  1   
 34  17  18  1   
 35  17  34  1   
 36  17  35  1   
 37  18  36  1   
 38  18  37  1   
@<TRIPOS>SUBSTRUCTURE
  1 ****   2 GROUP 4 **** **** 0

# MOE 2024.06 (io_trps.svl 2023.06)
