@<TRIPOS>MOLECULE
NONAME
43 44 1 0 0 
SMALL
USER_CHARGES


@<TRIPOS>ATOM
  1 BR      -0.7470    -0.3000    -0.6480 Br    1 <1>  -0.1110 
  2 C       -0.9650     1.5760    -0.2870 C.ar  1 <1>   0.1110 
  3 C       -1.2990     2.4220    -1.3250 C.ar  1 <1>  -0.1500 
  4 C       -0.7820     2.0330     1.0030 C.ar  1 <1>  -0.1500 
  5 C       -1.4530     3.7710    -1.0530 C.ar  1 <1>  -0.1500 
  6 C       -0.9410     3.3860     1.2530 C.ar  1 <1>  -0.1500 
  7 C       -1.2790     4.2760     0.2340 C.ar  1 <1>  -0.0090 
  8 S       -1.4650     6.0520     0.5600 S.o2  1 <1>   1.4470 
  9 O       -1.2820     6.3280     1.9690 O.2   1 <1>  -0.6500 
 10 O       -2.6580     6.5290    -0.1060 O.2   1 <1>  -0.6500 
 11 N       -0.1400     6.7350    -0.2490 N.am  1 <1>  -0.8490 
 12 C        1.1380     6.3850     0.3930 C.3   1 <1>   0.1960 
 13 C       -0.2830     8.1910    -0.3470 C.3   1 <1>   0.1960 
 14 C        2.3200     6.8800    -0.4530 C.3   1 <1>  -0.0190 
 15 C        0.8450     8.7810    -1.2010 C.3   1 <1>  -0.1600 
 16 C        3.6460     6.4830     0.1790 C.2   1 <1>   0.5690 
 17 C        2.2290     8.4040    -0.6540 C.3   1 <1>  -0.1600 
 18 O        3.7130     6.3120     1.3720 O.2   1 <1>  -0.5700 
 19 N        4.7270     6.3370    -0.6310 N.am  1 <1>  -0.7300 
 20 C        6.0880     5.9840    -0.1760 C.3   1 <1>   0.1400 
 21 C        7.0720     7.0360    -0.6870 C.3   1 <1>  -0.1600 
 22 C        8.5050     6.7180    -0.2450 C.3   1 <1>  -0.2400 
 23 H       -1.4360     2.0340    -2.3190 H     1 <1>   0.1500 
 24 H       -0.5230     1.3470     1.7900 H     1 <1>   0.1500 
 25 H       -1.7130     4.4490    -1.8490 H     1 <1>   0.1500 
 26 H       -0.8020     3.7580     2.2560 H     1 <1>   0.1500 
 27 H        1.2160     5.3160     0.4990 H     1 <1>   0.0800 
 28 H        1.1870     6.8200     1.3800 H     1 <1>   0.0800 
 29 H       -0.2690     8.6270     0.6400 H     1 <1>   0.0800 
 30 H       -1.2270     8.4350    -0.8070 H     1 <1>   0.0800 
 31 H        2.2550     6.3950    -1.4100 H     1 <1>   0.0800 
 32 H        0.7460     9.8520    -1.2270 H     1 <1>   0.0800 
 33 H        0.7380     8.4180    -2.2090 H     1 <1>   0.0800 
 34 H        2.9950     8.7360    -1.3320 H     1 <1>   0.0800 
 35 H        2.3840     8.8950     0.2920 H     1 <1>   0.0800 
 36 H        4.6310     6.4950    -1.6340 H     1 <1>   0.3700 
 37 H        6.3500     5.0120    -0.5580 H     1 <1>   0.0800 
 38 H        6.1190     5.9450     0.9010 H     1 <1>   0.0800 
 39 H        6.7920     8.0000    -0.2980 H     1 <1>   0.0800 
 40 H        7.0380     7.0740    -1.7610 H     1 <1>   0.0800 
 41 H        8.5700     6.6950     0.8290 H     1 <1>   0.0800 
 42 H        9.1790     7.4730    -0.6100 H     1 <1>   0.0800 
 43 H        8.8180     5.7650    -0.6330 H     1 <1>   0.0800 
@<TRIPOS>BOND
  1   1   2  1   
  2   2   3  ar  
  3   2   4  ar  
  4   3   5  ar  
  5   3  23  1   
  6   4   6  ar  
  7   4  24  1   
  8   5   7  ar  
  9   5  25  1   
 10   6   7  ar  
 11   6  26  1   
 12   7   8  1   
 13   8   9  2   
 14   8  10  2   
 15   8  11  am  
 16  11  12  1   
 17  11  13  1   
 18  12  14  1   
 19  12  27  1   
 20  12  28  1   
 21  13  15  1   
 22  13  29  1   
 23  13  30  1   
 24  14  16  1   
 25  14  17  1   
 26  14  31  1   
 27  15  17  1   
 28  15  32  1   
 29  15  33  1   
 30  16  18  2   
 31  16  19  am  
 32  17  34  1   
 33  17  35  1   
 34  19  20  1   
 35  19  36  1   
 36  20  21  1   
 37  20  37  1   
 38  20  38  1   
 39  21  22  1   
 40  21  39  1   
 41  21  40  1   
 42  22  41  1   
 43  22  42  1   
 44  22  43  1   
@<TRIPOS>SUBSTRUCTURE
  1 ****  12 GROUP 4 **** **** 0

# MOE 2024.06 (io_trps.svl 2023.06)
