@<TRIPOS>MOLECULE
NONAME
38 39 1 0 0 
SMALL
USER_CHARGES


@<TRIPOS>ATOM
  1 O       -0.7680     0.5970    -1.5890 O.3   1 <1>  -0.3630 
  2 C       -1.1010     1.4460    -0.5800 C.ar  1 <1>   0.0830 
  3 C        0.3680     0.8110    -2.3970 C.3   1 <1>   0.0400 
  4 C       -2.2090     1.1220     0.2000 C.ar  1 <1>  -0.1440 
  5 C       -0.3730     2.6020    -0.3030 C.ar  1 <1>  -0.1500 
  6 C       -2.5600     1.9550     1.2550 C.ar  1 <1>  -0.1500 
  7 C       -2.9980    -0.1610    -0.0960 C.3   1 <1>   0.5340 
  8 C       -0.7390     3.4230     0.7470 C.ar  1 <1>  -0.1500 
  9 C       -1.8320     3.0990     1.5280 C.ar  1 <1>  -0.1500 
 10 N       -4.4950     0.0030     0.1130 N.pl3 1 <1>  -0.4870 
 11 C       -2.4000    -1.2690     0.7210 C.1   1 <1>   0.3570 
 12 N       -5.0930     1.1500    -0.3470 N.2   1 <1>  -0.5030 
 13 C       -5.4630    -1.1390     0.0700 C.3   1 <1>   0.2700 
 14 N       -1.9550    -2.1390     1.3110 N.1   1 <1>  -0.5570 
 15 C       -6.3160     0.9610    -0.5600 C.2   1 <1>   0.3280 
 16 C       -6.7840    -0.4400    -0.2950 C.3   1 <1>  -0.0990 
 17 C       -5.0910    -2.1640    -1.0100 C.3   1 <1>  -0.2400 
 18 C       -5.5790    -1.7980     1.4490 C.3   1 <1>  -0.2400 
 19 C       -7.2990     1.9990    -1.0510 C.3   1 <1>  -0.1790 
 20 H        0.4330     0.0030    -3.1030 H     1 <1>   0.0800 
 21 H        1.2430     0.8210    -1.7720 H     1 <1>   0.0800 
 22 H        0.2540     1.7440    -2.9190 H     1 <1>   0.0800 
 23 H        0.4810     2.8800    -0.8900 H     1 <1>   0.1500 
 24 H       -3.4130     1.7150     1.8670 H     1 <1>   0.1500 
 25 H       -2.8650    -0.4200    -1.1290 H     1 <1>   0.0800 
 26 H       -0.1750     4.3150     0.9580 H     1 <1>   0.1500 
 27 H       -2.1210     3.7360     2.3460 H     1 <1>   0.1500 
 28 H       -7.4850    -0.4440     0.5190 H     1 <1>   0.0800 
 29 H       -7.2440    -0.8620    -1.1680 H     1 <1>   0.0800 
 30 H       -4.9500    -1.6760    -1.9580 H     1 <1>   0.0800 
 31 H       -5.8810    -2.8860    -1.1150 H     1 <1>   0.0800 
 32 H       -4.1990    -2.7040    -0.7510 H     1 <1>   0.0800 
 33 H       -5.7540    -1.0520     2.2040 H     1 <1>   0.0800 
 34 H       -4.6900    -2.3440     1.7000 H     1 <1>   0.0800 
 35 H       -6.3990    -2.4930     1.4570 H     1 <1>   0.0800 
 36 H       -7.7200     1.6910    -1.9900 H     1 <1>   0.0800 
 37 H       -6.7940     2.9380    -1.1870 H     1 <1>   0.0800 
 38 H       -8.0850     2.1280    -0.3300 H     1 <1>   0.0800 
@<TRIPOS>BOND
  1   1   2  1   
  2   1   3  1   
  3   2   4  ar  
  4   2   5  ar  
  5   3  20  1   
  6   3  21  1   
  7   3  22  1   
  8   4   6  ar  
  9   4   7  1   
 10   5   8  ar  
 11   5  23  1   
 12   6   9  ar  
 13   6  24  1   
 14   7  10  1   
 15   7  11  1   
 16   7  25  1   
 17   8   9  ar  
 18   8  26  1   
 19   9  27  1   
 20  10  12  1   
 21  10  13  1   
 22  11  14  3   
 23  12  15  2   
 24  13  16  1   
 25  13  17  1   
 26  13  18  1   
 27  15  16  1   
 28  15  19  1   
 29  16  28  1   
 30  16  29  1   
 31  17  30  1   
 32  17  31  1   
 33  17  32  1   
 34  18  33  1   
 35  18  34  1   
 36  18  35  1   
 37  19  36  1   
 38  19  37  1   
 39  19  38  1   
@<TRIPOS>SUBSTRUCTURE
  1 ****   7 GROUP 4 **** **** 0

# MOE 2024.06 (io_trps.svl 2023.06)
