@<TRIPOS>MOLECULE
NONAME
31 32 1 0 0 
SMALL
USER_CHARGES


@<TRIPOS>ATOM
  1 O       -0.9190     0.5970    -1.1850 O.2   1 <1>  -0.5700 
  2 C       -1.5170     0.6900    -0.1310 C.2   1 <1>   0.6900 
  3 N       -2.1380    -0.3730     0.4110 N.am  1 <1>  -0.7300 
  4 N       -1.5860     1.8630     0.5380 N.am  1 <1>  -0.7300 
  5 C       -2.2870    -1.6740    -0.2530 C.3   1 <1>   0.3640 
  6 C       -0.9650     3.1370     0.0980 C.3   1 <1>   0.0600 
  7 C       -3.7250    -2.1610    -0.0580 C.ar  1 <1>  -0.1430 
  8 C       -1.2350    -2.6230     0.3340 C.3   1 <1>  -0.1600 
  9 C       -4.0120    -3.4450     0.3990 C.ar  1 <1>  -0.1430 
 10 C       -4.7740    -1.3040    -0.3680 C.ar  1 <1>  -0.1500 
 11 C       -1.5850    -4.0880     0.0550 C.3   1 <1>  -0.1600 
 12 C       -5.3320    -3.8390     0.5600 C.ar  1 <1>  -0.1500 
 13 C       -2.9110    -4.4430     0.7340 C.3   1 <1>  -0.0170 
 14 C       -6.0880    -1.7040    -0.2070 C.ar  1 <1>  -0.1500 
 15 C       -6.3680    -2.9740     0.2600 C.ar  1 <1>  -0.1500 
 16 H       -2.7710    -0.2430     1.1930 H     1 <1>   0.3700 
 17 H       -2.0180     1.8620     1.4600 H     1 <1>   0.3700 
 18 H       -2.1100    -1.5690    -1.3120 H     1 <1>   0.0800 
 19 H       -0.5410     3.0270    -0.8860 H     1 <1>   0.0800 
 20 H       -0.1840     3.4160     0.7830 H     1 <1>   0.0800 
 21 H       -1.7090     3.9130     0.0690 H     1 <1>   0.0800 
 22 H       -1.1730    -2.4790     1.3980 H     1 <1>   0.0800 
 23 H       -0.2780    -2.3870    -0.0970 H     1 <1>   0.0800 
 24 H       -4.5690    -0.3160    -0.7430 H     1 <1>   0.1500 
 25 H       -0.8050    -4.7290     0.4260 H     1 <1>   0.0800 
 26 H       -1.6720    -4.2420    -1.0070 H     1 <1>   0.0800 
 27 H       -5.5600    -4.8270     0.9190 H     1 <1>   0.1500 
 28 H       -3.2090    -5.4310     0.4270 H     1 <1>   0.0800 
 29 H       -2.7740    -4.4560     1.8010 H     1 <1>   0.0800 
 30 H       -6.8910    -1.0290    -0.4490 H     1 <1>   0.1500 
 31 H       -7.3890    -3.2890     0.3880 H     1 <1>   0.1500 
@<TRIPOS>BOND
  1   1   2  2   
  2   2   3  am  
  3   2   4  am  
  4   3   5  1   
  5   3  16  1   
  6   4   6  1   
  7   4  17  1   
  8   5   7  1   
  9   5   8  1   
 10   5  18  1   
 11   6  19  1   
 12   6  20  1   
 13   6  21  1   
 14   7   9  ar  
 15   7  10  ar  
 16   8  11  1   
 17   8  22  1   
 18   8  23  1   
 19   9  12  ar  
 20   9  13  1   
 21  10  14  ar  
 22  10  24  1   
 23  11  13  1   
 24  11  25  1   
 25  11  26  1   
 26  12  15  ar  
 27  12  27  1   
 28  13  28  1   
 29  13  29  1   
 30  14  15  ar  
 31  14  30  1   
 32  15  31  1   
@<TRIPOS>SUBSTRUCTURE
  1 ****   5 GROUP 4 **** **** 0

# MOE 2024.06 (io_trps.svl 2023.06)
