@<TRIPOS>MOLECULE
NONAME
36 36 1 0 0 
SMALL
USER_CHARGES


@<TRIPOS>ATOM
  1 O        0.5010    -0.8930    -2.0420 O.2   1 <1>  -0.5700 
  2 C        0.8190    -1.3340    -0.9660 C.2   1 <1>   0.5690 
  3 N       -0.0590    -1.8360    -0.0450 N.am  1 <1>  -0.5470 
  4 C        2.2810    -1.3210    -0.6050 C.3   1 <1>  -0.0380 
  5 C       -1.4500    -2.0120    -0.0770 C.ar  1 <1>   0.1170 
  6 C        2.4420    -0.6310     0.7250 C.2   1 <1>   0.4480 
  7 C       -2.1920    -2.0250    -1.2530 C.ar  1 <1>  -0.1500 
  8 C       -2.1210    -2.1960     1.1260 C.ar  1 <1>  -0.1500 
  9 O        2.2330    -1.2190     1.7410 O.2   1 <1>  -0.5700 
 10 C        2.8440     0.8270     0.7200 C.3   1 <1>  -0.1790 
 11 C       -3.5620    -2.2110    -1.2260 C.ar  1 <1>  -0.1500 
 12 C       -3.4910    -2.3840     1.1560 C.ar  1 <1>  -0.1500 
 13 C       -4.2230    -2.3930    -0.0210 C.ar  1 <1>  -0.1430 
 14 C       -5.7290    -2.5970     0.0080 C.3   1 <1>  -0.0170 
 15 C       -6.4510    -1.2500     0.1320 C.3   1 <1>  -0.1600 
 16 C       -7.9740    -1.4280     0.1620 C.3   1 <1>  -0.1600 
 17 C       -8.6830    -0.0760     0.2850 C.3   1 <1>  -0.2400 
 18 H        0.3710    -2.0410     0.8640 H     1 <1>   0.3700 
 19 H        2.8460    -0.8150    -1.3650 H     1 <1>   0.0800 
 20 H        2.6310    -2.3330    -0.5310 H     1 <1>   0.0800 
 21 H       -1.7040    -1.8910    -2.2000 H     1 <1>   0.1500 
 22 H       -1.5710    -2.1910     2.0480 H     1 <1>   0.1500 
 23 H        3.8170     0.9400     0.2800 H     1 <1>   0.0800 
 24 H        2.8750     1.1980     1.7290 H     1 <1>   0.0800 
 25 H        2.1290     1.4030     0.1610 H     1 <1>   0.0800 
 26 H       -4.1140    -2.2120    -2.1490 H     1 <1>   0.1500 
 27 H       -3.9890    -2.5210     2.1000 H     1 <1>   0.1500 
 28 H       -5.9900    -3.2280     0.8400 H     1 <1>   0.0800 
 29 H       -6.0410    -3.0960    -0.8920 H     1 <1>   0.0800 
 30 H       -6.1760    -0.6260    -0.7020 H     1 <1>   0.0800 
 31 H       -6.1260    -0.7580     1.0330 H     1 <1>   0.0800 
 32 H       -8.2510    -2.0490     0.9970 H     1 <1>   0.0800 
 33 H       -8.2990    -1.9160    -0.7410 H     1 <1>   0.0800 
 34 H       -8.3890     0.4210     1.1930 H     1 <1>   0.0800 
 35 H       -9.7490    -0.2190     0.3030 H     1 <1>   0.0800 
 36 H       -8.4360     0.5550    -0.5510 H     1 <1>   0.0800 
@<TRIPOS>BOND
  1   1   2  2   
  2   2   3  am  
  3   2   4  1   
  4   3   5  1   
  5   3  18  1   
  6   4   6  1   
  7   4  19  1   
  8   4  20  1   
  9   5   7  ar  
 10   5   8  ar  
 11   6   9  2   
 12   6  10  1   
 13   7  11  ar  
 14   7  21  1   
 15   8  12  ar  
 16   8  22  1   
 17  10  23  1   
 18  10  24  1   
 19  10  25  1   
 20  11  13  ar  
 21  11  26  1   
 22  12  13  ar  
 23  12  27  1   
 24  13  14  1   
 25  14  15  1   
 26  14  28  1   
 27  14  29  1   
 28  15  16  1   
 29  15  30  1   
 30  15  31  1   
 31  16  17  1   
 32  16  32  1   
 33  16  33  1   
 34  17  34  1   
 35  17  35  1   
 36  17  36  1   
@<TRIPOS>SUBSTRUCTURE
  1 ****   5 GROUP 4 **** **** 0

# MOE 2024.06 (io_trps.svl 2023.06)
