@<TRIPOS>MOLECULE
NONAME
31 31 1 0 0 
SMALL
USER_CHARGES


@<TRIPOS>ATOM
  1 O        0.4290    -1.1120    -1.1450 O.2   1 <1>  -0.5700 
  2 C        0.3810    -1.5660    -0.0210 C.2   1 <1>   0.6900 
  3 N       -0.7800    -1.6720     0.7130 N.am  1 <1>  -0.3680 
  4 N        1.5280    -1.9990     0.5260 N.am  1 <1>  -0.8000 
  5 N       -2.0830    -1.2350     0.4610 N.2   1 <1>  -0.5120 
  6 C       -2.4190    -0.1120    -0.0440 C.2   1 <1>   0.3280 
  7 C       -3.9070     0.2100    -0.3680 C.3   1 <1>   0.3410 
  8 C       -1.4490     1.0370    -0.3270 C.3   1 <1>  -0.1790 
  9 O       -3.9950     0.9610    -1.5410 O.3   1 <1>  -0.6800 
 10 C       -4.7520    -1.0620    -0.6070 C.3   1 <1>  -0.1600 
 11 C       -4.5430     1.0480     0.7630 C.3   1 <1>  -0.1600 
 12 C       -6.2480    -0.7740    -0.8310 C.3   1 <1>  -0.1600 
 13 C       -6.0410     1.3360     0.5500 C.3   1 <1>  -0.1600 
 14 C       -6.8310     0.0390     0.3320 C.3   1 <1>  -0.1600 
 15 H       -0.7150    -2.4060     1.4180 H     1 <1>   0.3700 
 16 H        2.3810    -1.8780    -0.0200 H     1 <1>   0.3700 
 17 H        1.6430    -2.1820     1.5190 H     1 <1>   0.3700 
 18 H       -1.8850     1.9830    -0.0690 H     1 <1>   0.0800 
 19 H       -1.1950     1.0400    -1.3720 H     1 <1>   0.0800 
 20 H       -0.5480     0.9370     0.2460 H     1 <1>   0.0800 
 21 H       -3.5110     1.7980    -1.4330 H     1 <1>   0.4000 
 22 H       -4.3500    -1.5980    -1.4490 H     1 <1>   0.0800 
 23 H       -4.6640    -1.7040     0.2510 H     1 <1>   0.0800 
 24 H       -4.4330     0.4990     1.6820 H     1 <1>   0.0800 
 25 H       -4.0140     1.9750     0.8840 H     1 <1>   0.0800 
 26 H       -6.3730    -0.2270    -1.7500 H     1 <1>   0.0800 
 27 H       -6.7820    -1.7030    -0.9280 H     1 <1>   0.0800 
 28 H       -6.4350     1.8570     1.4050 H     1 <1>   0.0800 
 29 H       -6.1660     1.9730    -0.3100 H     1 <1>   0.0800 
 30 H       -6.8030    -0.5530     1.2300 H     1 <1>   0.0800 
 31 H       -7.8610     0.2750     0.1240 H     1 <1>   0.0800 
@<TRIPOS>BOND
  1   1   2  2   
  2   2   3  am  
  3   2   4  am  
  4   3   5  1   
  5   3  15  1   
  6   4  16  1   
  7   4  17  1   
  8   5   6  2   
  9   6   7  1   
 10   6   8  1   
 11   7   9  1   
 12   7  10  1   
 13   7  11  1   
 14   8  18  1   
 15   8  19  1   
 16   8  20  1   
 17   9  21  1   
 18  10  12  1   
 19  10  22  1   
 20  10  23  1   
 21  11  13  1   
 22  11  24  1   
 23  11  25  1   
 24  12  14  1   
 25  12  26  1   
 26  12  27  1   
 27  13  14  1   
 28  13  28  1   
 29  13  29  1   
 30  14  30  1   
 31  14  31  1   
@<TRIPOS>SUBSTRUCTURE
  1 ****   6 GROUP 4 **** **** 0

# MOE 2024.06 (io_trps.svl 2023.06)
