@<TRIPOS>MOLECULE
boc
39 39 1 0 0 
SMALL
USER_CHARGES


@<TRIPOS>ATOM
  1 O       -0.6050    -0.2120    -1.4110 O.2   1 <1>  -0.5700 
  2 C       -1.5120     0.3860    -0.8710 C.2   1 <1>   0.7800 
  3 O       -2.5240    -0.2810    -0.3100 O.3   1 <1>  -0.4300 
  4 N       -1.5720     1.7560    -0.8220 N.am  1 <1>  -0.6600 
  5 C       -2.6830    -1.6800    -0.2140 C.3   1 <1>   0.2800 
  6 C       -0.3650     2.6390    -1.0820 C.3   1 <1>   0.2810 
  7 C       -2.8970     2.4430    -0.8370 C.3   1 <1>   0.1400 
  8 C       -3.9980    -1.8800     0.5400 C.3   1 <1>  -0.2400 
  9 C       -1.5360    -2.2890     0.6020 C.3   1 <1>  -0.2400 
 10 C       -2.8030    -2.2990    -1.6110 C.3   1 <1>  -0.2400 
 11 C        1.0290     1.9890    -0.9570 C.2   1 <1>   0.6590 
 12 C       -0.4120     3.8610    -0.1470 C.3   1 <1>  -0.1600 
 13 C       -2.9000     3.6270     0.1260 C.3   1 <1>  -0.1600 
 14 O        1.8310     2.0490    -1.8570 O.2   1 <1>  -0.5700 
 15 O        1.3220     1.4080     0.2060 O.3   1 <1>  -0.4300 
 16 C       -1.7570     4.5740    -0.2170 C.3   1 <1>   0.2000 
 17 C        2.5420     0.7270     0.4030 C.3   1 <1>   0.0400 
 18 O       -1.7540     5.6010     0.6980 O.3   1 <1>  -0.6800 
 19 H       -0.4440     2.9910    -2.0960 H     1 <1>   0.0800 
 20 H       -3.0950     2.7900    -1.8380 H     1 <1>   0.0800 
 21 H       -3.6870     1.7650    -0.5640 H     1 <1>   0.0800 
 22 H       -4.2030    -2.9280     0.6630 H     1 <1>   0.0800 
 23 H       -4.8120    -1.4380    -0.0060 H     1 <1>   0.0800 
 24 H       -3.9420    -1.4290     1.5140 H     1 <1>   0.0800 
 25 H       -1.7340    -3.3280     0.7950 H     1 <1>   0.0800 
 26 H       -1.4360    -1.7800     1.5440 H     1 <1>   0.0800 
 27 H       -0.6060    -2.2310     0.0680 H     1 <1>   0.0800 
 28 H       -3.5670    -1.8000    -2.1780 H     1 <1>   0.0800 
 29 H       -3.0620    -3.3390    -1.5300 H     1 <1>   0.0800 
 30 H       -1.8720    -2.2400    -2.1440 H     1 <1>   0.0800 
 31 H        0.3660     4.5470    -0.4310 H     1 <1>   0.0800 
 32 H       -0.2250     3.5310     0.8600 H     1 <1>   0.0800 
 33 H       -2.7990     3.2560     1.1310 H     1 <1>   0.0800 
 34 H       -3.8370     4.1460     0.0410 H     1 <1>   0.0800 
 35 H       -1.9050     5.0070    -1.1930 H     1 <1>   0.0800 
 36 H        2.5560     0.3360     1.4040 H     1 <1>   0.0800 
 37 H        3.3550     1.4170     0.2590 H     1 <1>   0.0800 
 38 H        2.6040    -0.0770    -0.3100 H     1 <1>   0.0800 
 39 H       -1.6350     5.2480     1.6000 H     1 <1>   0.4000 
@<TRIPOS>BOND
  1   1   2  2   
  2   2   3  1   
  3   2   4  am  
  4   3   5  1   
  5   4   6  1   
  6   4   7  1   
  7   5   8  1   
  8   5   9  1   
  9   5  10  1   
 10   6  11  1   
 11   6  12  1   
 12   6  19  1   
 13   7  13  1   
 14   7  20  1   
 15   7  21  1   
 16   8  22  1   
 17   8  23  1   
 18   8  24  1   
 19   9  25  1   
 20   9  26  1   
 21   9  27  1   
 22  10  28  1   
 23  10  29  1   
 24  10  30  1   
 25  11  14  2   
 26  11  15  1   
 27  12  16  1   
 28  12  31  1   
 29  12  32  1   
 30  13  16  1   
 31  13  33  1   
 32  13  34  1   
 33  15  17  1   
 34  16  18  1   
 35  16  35  1   
 36  17  36  1   
 37  17  37  1   
 38  17  38  1   
 39  18  39  1   
@<TRIPOS>SUBSTRUCTURE
  1 ****   4 GROUP 4 **** **** 0

# MOE 2024.06 (io_trps.svl 2023.06)
