@<TRIPOS>MOLECULE
NONAME
46 47 1 0 0 
SMALL
USER_CHARGES


@<TRIPOS>ATOM
  1 S        0.3700    -0.2410    -0.7320 S.o2  1 <1>   1.3330 
  2 O        1.3680    -0.4120    -1.7660 O.2   1 <1>  -0.6500 
  3 O       -0.8880     0.3760    -1.0790 O.2   1 <1>  -0.6500 
  4 N        0.0950    -1.7590    -0.0230 N.am  1 <1>  -0.8490 
  5 C        1.0620     0.7000     0.6140 C.3   1 <1>  -0.1350 
  6 C       -1.2770    -2.2690    -0.2380 C.3   1 <1>   0.2760 
  7 C        1.2250    -2.7250    -0.1890 C.3   1 <1>   0.2570 
  8 C       -2.1720    -1.7150     0.8850 C.3   1 <1>  -0.1600 
  9 C       -1.4060    -3.8070    -0.2720 C.3   1 <1>  -0.1600 
 10 C        2.6070    -2.2510     0.2890 C.2   1 <1>   0.5690 
 11 C       -3.6360    -2.1460     0.7150 C.3   1 <1>  -0.1600 
 12 C       -2.8650    -4.2450    -0.4640 C.3   1 <1>  -0.1600 
 13 O        2.8880    -2.3400     1.4580 O.2   1 <1>  -0.5700 
 14 N        3.4820    -1.7280    -0.6230 N.am  1 <1>  -0.5470 
 15 C       -3.7620    -3.6720     0.6390 C.3   1 <1>  -0.1600 
 16 C        4.7650    -1.2230    -0.3900 C.ar  1 <1>   0.1170 
 17 C        5.8410    -1.9800     0.0930 C.ar  1 <1>  -0.1440 
 18 C        4.9540     0.1250    -0.6730 C.ar  1 <1>  -0.1500 
 19 C        7.0580    -1.3390     0.3170 C.ar  1 <1>  -0.1500 
 20 C        5.7540    -3.4910     0.3790 C.3   1 <1>   1.1630 
 21 C        6.1700     0.7410    -0.4570 C.ar  1 <1>  -0.1500 
 22 C        7.2250     0.0070     0.0460 C.ar  1 <1>  -0.1500 
 23 F        4.8560    -4.1510    -0.3490 F     1 <1>  -0.3400 
 24 F        5.4860    -3.7590     1.6490 F     1 <1>  -0.3400 
 25 F        6.9090    -4.1010     0.1270 F     1 <1>  -0.3400 
 26 H        1.9760     0.2620     0.9620 H     1 <1>   0.0800 
 27 H        0.3680     0.7340     1.4310 H     1 <1>   0.0800 
 28 H        1.2630     1.7040     0.2940 H     1 <1>   0.0800 
 29 H       -1.6440    -1.9090    -1.1870 H     1 <1>   0.0800 
 30 H        1.2980    -3.0110    -1.2230 H     1 <1>   0.0800 
 31 H        1.0260    -3.6100     0.3840 H     1 <1>   0.0800 
 32 H       -2.1370    -0.6420     0.8960 H     1 <1>   0.0800 
 33 H       -1.8070    -2.0710     1.8320 H     1 <1>   0.0800 
 34 H       -1.0510    -4.2230     0.6550 H     1 <1>   0.0800 
 35 H       -0.8310    -4.2080    -1.0870 H     1 <1>   0.0800 
 36 H       -4.0320    -1.7090    -0.1860 H     1 <1>   0.0800 
 37 H       -4.2190    -1.7770     1.5420 H     1 <1>   0.0800 
 38 H       -2.9250    -5.3200    -0.4520 H     1 <1>   0.0800 
 39 H       -3.2190    -3.9060    -1.4230 H     1 <1>   0.0800 
 40 H        3.0250    -1.3870    -1.4820 H     1 <1>   0.3700 
 41 H       -4.7870    -3.9410     0.4490 H     1 <1>   0.0800 
 42 H       -3.4800    -4.1000     1.5870 H     1 <1>   0.0800 
 43 H        4.1340     0.7030    -1.0620 H     1 <1>   0.1500 
 44 H        7.9010    -1.8870     0.7050 H     1 <1>   0.1500 
 45 H        6.2960     1.7870    -0.6770 H     1 <1>   0.1500 
 46 H        8.1750     0.4810     0.2250 H     1 <1>   0.1500 
@<TRIPOS>BOND
  1   1   2  2   
  2   1   3  2   
  3   1   4  am  
  4   1   5  1   
  5   4   6  1   
  6   4   7  1   
  7   5  26  1   
  8   5  27  1   
  9   5  28  1   
 10   6   8  1   
 11   6   9  1   
 12   6  29  1   
 13   7  10  1   
 14   7  30  1   
 15   7  31  1   
 16   8  11  1   
 17   8  32  1   
 18   8  33  1   
 19   9  12  1   
 20   9  34  1   
 21   9  35  1   
 22  10  13  2   
 23  10  14  am  
 24  11  15  1   
 25  11  36  1   
 26  11  37  1   
 27  12  15  1   
 28  12  38  1   
 29  12  39  1   
 30  14  16  1   
 31  14  40  1   
 32  15  41  1   
 33  15  42  1   
 34  16  17  ar  
 35  16  18  ar  
 36  17  19  ar  
 37  17  20  1   
 38  18  21  ar  
 39  18  43  1   
 40  19  22  ar  
 41  19  44  1   
 42  20  23  1   
 43  20  24  1   
 44  20  25  1   
 45  21  22  ar  
 46  21  45  1   
 47  22  46  1   
@<TRIPOS>SUBSTRUCTURE
  1 ****  10 GROUP 4 **** **** 0

# MOE 2024.06 (io_trps.svl 2023.06)
