@<TRIPOS>MOLECULE
NONAME
42 43 1 0 0 
SMALL
USER_CHARGES


@<TRIPOS>ATOM
  1 O       -1.1550     0.6850     0.2150 O.2   1 <1>  -0.5700 
  2 C       -2.2010     0.2730    -0.2520 C.2   1 <1>   0.5440 
  3 N       -2.9220     1.1480    -1.0350 N.am  1 <1>  -0.6600 
  4 C       -2.6910    -1.0580     0.0670 C.ar  1 <1>   0.0860 
  5 C       -4.3240     1.4860    -0.6590 C.3   1 <1>   0.1400 
  6 C       -2.2070     2.2640    -1.7180 C.3   1 <1>   0.1400 
  7 C       -3.5710    -1.7350    -0.7760 C.ar  1 <1>  -0.1500 
  8 C       -2.3020    -1.7080     1.2400 C.ar  1 <1>  -0.1500 
  9 C       -4.3390     2.7500     0.2270 C.3   1 <1>   0.3430 
 10 C       -2.1980     3.5040    -0.8080 C.3   1 <1>   0.3430 
 11 C       -4.0660    -2.9870    -0.4610 C.ar  1 <1>   0.0830 
 12 C       -2.7850    -2.9630     1.5650 C.ar  1 <1>  -0.1500 
 13 N       -3.5950     3.9110    -0.3970 N.4   1 <1>  -0.9590 
 14 O       -4.9280    -3.5390    -1.3500 O.3   1 <1>  -0.3620 
 15 C       -3.6700    -3.6060     0.7200 C.ar  1 <1>  -0.1500 
 16 C       -3.5670     5.1420     0.4350 C.3   1 <1>   0.4230 
 17 C       -5.4330    -4.8440    -1.1710 C.3   1 <1>   0.0400 
 18 C       -3.0380     4.8720     1.8460 C.3   1 <1>  -0.2400 
 19 C       -4.9690     5.7400     0.4830 C.3   1 <1>  -0.2400 
 20 H       -4.7720     0.6710    -0.1150 H     1 <1>   0.0800 
 21 H       -4.9080     1.6470    -1.5480 H     1 <1>   0.0800 
 22 H       -2.6880     2.4860    -2.6540 H     1 <1>   0.0800 
 23 H       -1.1930     1.9700    -1.9320 H     1 <1>   0.0800 
 24 H       -3.8770    -1.2880    -1.7030 H     1 <1>   0.1500 
 25 H       -1.6090    -1.2200     1.9040 H     1 <1>   0.1500 
 26 H       -3.8810     2.4960     1.1690 H     1 <1>   0.0800 
 27 H       -5.3600     3.0290     0.4230 H     1 <1>   0.0800 
 28 H       -1.7120     4.3170    -1.3220 H     1 <1>   0.0800 
 29 H       -1.6130     3.2670     0.0660 H     1 <1>   0.0800 
 30 H       -2.4680    -3.4410     2.4770 H     1 <1>   0.1500 
 31 H       -4.0950     4.1550    -1.2600 H     1 <1>   0.4500 
 32 H       -4.0350    -4.5780     0.9940 H     1 <1>   0.1500 
 33 H       -2.9160     5.8620    -0.0370 H     1 <1>   0.0800 
 34 H       -6.0650    -5.0760    -2.0090 H     1 <1>   0.0800 
 35 H       -6.0060    -4.8750    -0.2610 H     1 <1>   0.0800 
 36 H       -4.6090    -5.5350    -1.1320 H     1 <1>   0.0800 
 37 H       -3.7060     4.2490     2.4130 H     1 <1>   0.0800 
 38 H       -2.9480     5.8060     2.3720 H     1 <1>   0.0800 
 39 H       -2.0630     4.4220     1.8200 H     1 <1>   0.0800 
 40 H       -5.6580     5.1020     1.0060 H     1 <1>   0.0800 
 41 H       -5.3370     5.9320    -0.5100 H     1 <1>   0.0800 
 42 H       -4.9370     6.6810     1.0040 H     1 <1>   0.0800 
@<TRIPOS>BOND
  1   1   2  2   
  2   2   3  am  
  3   2   4  1   
  4   3   5  1   
  5   3   6  1   
  6   4   7  ar  
  7   4   8  ar  
  8   5   9  1   
  9   5  20  1   
 10   5  21  1   
 11   6  10  1   
 12   6  22  1   
 13   6  23  1   
 14   7  11  ar  
 15   7  24  1   
 16   8  12  ar  
 17   8  25  1   
 18   9  13  1   
 19   9  26  1   
 20   9  27  1   
 21  10  13  1   
 22  10  28  1   
 23  10  29  1   
 24  11  14  1   
 25  11  15  ar  
 26  12  15  ar  
 27  12  30  1   
 28  13  16  1   
 29  13  31  1   
 30  14  17  1   
 31  15  32  1   
 32  16  18  1   
 33  16  19  1   
 34  16  33  1   
 35  17  34  1   
 36  17  35  1   
 37  17  36  1   
 38  18  37  1   
 39  18  38  1   
 40  18  39  1   
 41  19  40  1   
 42  19  41  1   
 43  19  42  1   
@<TRIPOS>SUBSTRUCTURE
  1 ****   2 GROUP 4 **** **** 0

# MOE 2024.06 (io_trps.svl 2023.06)
