@<TRIPOS>MOLECULE
NONAME
52 54 1 0 0 
SMALL
USER_CHARGES


@<TRIPOS>ATOM
  1 O        0.1060     0.3120     0.0240 O.2   1 <1>  -0.5700 
  2 C        0.3830     1.4830    -0.0400 C.2   1 <1>   0.5690 
  3 N       -0.4800     2.5410    -0.1000 N.am  1 <1>  -0.4770 
  4 C        1.8140     1.9440    -0.0460 C.3   1 <1>  -0.0990 
  5 C       -1.8890     2.5300    -0.0730 C.ar  1 <1>   0.1170 
  6 C        0.2720     3.8110    -0.1660 C.3   1 <1>   0.1400 
  7 C        1.6950     3.4400     0.2780 C.3   1 <1>  -0.0190 
  8 C       -2.5890     1.5860     0.6710 C.ar  1 <1>  -0.1500 
  9 C       -2.6240     3.4770    -0.7820 C.ar  1 <1>  -0.1500 
 10 C        2.7920     4.2920    -0.3440 C.2   1 <1>   0.5690 
 11 C       -3.9720     1.5890     0.7110 C.ar  1 <1>  -0.1500 
 12 C       -4.0070     3.4830    -0.7430 C.ar  1 <1>  -0.1500 
 13 O        2.4950     5.1180    -1.1710 O.2   1 <1>  -0.5700 
 14 N        4.0750     4.0690     0.0770 N.am  1 <1>  -0.5470 
 15 C       -4.6910     2.5390     0.0050 C.ar  1 <1>  -0.1430 
 16 C        5.2870     4.6840    -0.2720 C.ar  1 <1>   0.1170 
 17 C       -6.2080     2.5430     0.0500 C.3   1 <1>  -0.0970 
 18 C        6.5160     3.9910    -0.3190 C.ar  1 <1>  -0.1430 
 19 C        5.2610     6.0500    -0.5480 C.ar  1 <1>  -0.1500 
 20 C        7.6490     4.7320    -0.6550 C.ar  1 <1>  -0.1500 
 21 C        6.7630     2.4720    -0.0500 C.3   1 <1>   0.1430 
 22 C        6.4000     6.7500    -0.8770 C.ar  1 <1>  -0.1500 
 23 C        7.6040     6.0850    -0.9300 C.ar  1 <1>  -0.1500 
 24 C        7.3460     1.8260    -1.3200 C.3   1 <1>  -0.2400 
 25 C        7.7710     2.3130     1.1030 C.3   1 <1>  -0.2400 
 26 C        5.5430     1.6140     0.3360 C.3   1 <1>  -0.2400 
 27 H        2.2190     1.7840    -1.0290 H     1 <1>   0.0800 
 28 H        2.3890     1.4110     0.6880 H     1 <1>   0.0800 
 29 H       -0.1620     4.5520     0.4840 H     1 <1>   0.0800 
 30 H        0.2560     4.1650    -1.1830 H     1 <1>   0.0800 
 31 H        1.7380     3.5680     1.3450 H     1 <1>   0.0800 
 32 H       -2.0500     0.8400     1.2250 H     1 <1>   0.1500 
 33 H       -2.1190     4.2130    -1.3780 H     1 <1>   0.1500 
 34 H       -4.4850     0.8460     1.2960 H     1 <1>   0.1500 
 35 H       -4.5510     4.2270    -1.2990 H     1 <1>   0.1500 
 36 H        4.2010     3.2700     0.6910 H     1 <1>   0.3700 
 37 H       -6.5810     1.5410     0.1620 H     1 <1>   0.0800 
 38 H       -6.6110     2.9550    -0.8570 H     1 <1>   0.0800 
 39 H       -6.5450     3.1350     0.8820 H     1 <1>   0.0800 
 40 H        4.3320     6.5880    -0.5030 H     1 <1>   0.1500 
 41 H        8.6150     4.2650    -0.7130 H     1 <1>   0.1500 
 42 H        6.3500     7.8040    -1.0890 H     1 <1>   0.1500 
 43 H        8.5040     6.6160    -1.1870 H     1 <1>   0.1500 
 44 H        8.2900     2.2600    -1.5910 H     1 <1>   0.0800 
 45 H        6.6680     1.9620    -2.1440 H     1 <1>   0.0800 
 46 H        7.5040     0.7720    -1.1790 H     1 <1>   0.0800 
 47 H        7.4010     2.8060     1.9840 H     1 <1>   0.0800 
 48 H        8.7270     2.7370     0.8600 H     1 <1>   0.0800 
 49 H        7.9290     1.2750     1.3340 H     1 <1>   0.0800 
 50 H        5.1240     1.9400     1.2700 H     1 <1>   0.0800 
 51 H        5.8350     0.5860     0.4640 H     1 <1>   0.0800 
 52 H        4.8040     1.6370    -0.4440 H     1 <1>   0.0800 
@<TRIPOS>BOND
  1   1   2  2   
  2   2   3  am  
  3   2   4  1   
  4   3   5  1   
  5   3   6  1   
  6   4   7  1   
  7   4  27  1   
  8   4  28  1   
  9   5   8  ar  
 10   5   9  ar  
 11   6   7  1   
 12   6  29  1   
 13   6  30  1   
 14   7  10  1   
 15   7  31  1   
 16   8  11  ar  
 17   8  32  1   
 18   9  12  ar  
 19   9  33  1   
 20  10  13  2   
 21  10  14  am  
 22  11  15  ar  
 23  11  34  1   
 24  12  15  ar  
 25  12  35  1   
 26  14  16  1   
 27  14  36  1   
 28  15  17  1   
 29  16  18  ar  
 30  16  19  ar  
 31  17  37  1   
 32  17  38  1   
 33  17  39  1   
 34  18  20  ar  
 35  18  21  1   
 36  19  22  ar  
 37  19  40  1   
 38  20  23  ar  
 39  20  41  1   
 40  21  24  1   
 41  21  25  1   
 42  21  26  1   
 43  22  23  ar  
 44  22  42  1   
 45  23  43  1   
 46  24  44  1   
 47  24  45  1   
 48  24  46  1   
 49  25  47  1   
 50  25  48  1   
 51  25  49  1   
 52  26  50  1   
 53  26  51  1   
 54  26  52  1   
@<TRIPOS>SUBSTRUCTURE
  1 ****   7 GROUP 4 **** **** 0

# MOE 2024.06 (io_trps.svl 2023.06)
