@<TRIPOS>MOLECULE
NONAME
49 50 1 0 0 
SMALL
USER_CHARGES


@<TRIPOS>ATOM
  1 S       -0.0650     0.1050    -0.4230 S.o2  1 <1>   1.4470 
  2 O       -0.4430     0.1660    -1.8190 O.2   1 <1>  -0.6500 
  3 O       -0.4710    -1.0340     0.3720 O.2   1 <1>  -0.6500 
  4 N       -0.7100     1.4860     0.3180 N.am  1 <1>  -0.8490 
  5 C        1.7230     0.3450    -0.2390 C.ar  1 <1>  -0.0090 
  6 C       -0.4370     2.7020    -0.4600 C.3   1 <1>   0.1960 
  7 C       -2.1470     1.3350     0.5600 C.3   1 <1>   0.1960 
  8 C        2.5610     0.4410    -1.3440 C.ar  1 <1>  -0.1500 
  9 C        2.3020     0.4540     1.0190 C.ar  1 <1>  -0.1500 
 10 C       -0.8940     3.9520     0.3090 C.3   1 <1>  -0.0800 
 11 C       -2.6800     2.5300     1.3580 C.3   1 <1>  -0.1600 
 12 C        3.9210     0.6430    -1.1980 C.ar  1 <1>  -0.1500 
 13 C        3.6620     0.6560     1.1700 C.ar  1 <1>  -0.1500 
 14 C       -2.3880     3.8580     0.6480 C.3   1 <1>  -0.1600 
 15 C       -0.6060     5.2260    -0.4970 C.3   1 <1>  -0.2400 
 16 C        4.4950     0.7580     0.0640 C.ar  1 <1>   0.1170 
 17 N        5.8680     0.9500     0.2620 N.am  1 <1>  -0.5470 
 18 C        6.8250     1.4680    -0.5660 C.2   1 <1>   0.5690 
 19 O        6.5880     1.9480    -1.6460 O.2   1 <1>  -0.5700 
 20 C        8.2630     1.4490    -0.0810 C.3   1 <1>  -0.0990 
 21 C        8.8080     0.0320     0.1910 C.3   1 <1>  -0.0800 
 22 C       10.2510     0.1120     0.7030 C.3   1 <1>  -0.2400 
 23 C        8.7540    -0.8420    -1.0690 C.3   1 <1>  -0.2400 
 24 H       -0.9450     2.6530    -1.4100 H     1 <1>   0.0800 
 25 H        0.6200     2.7820    -0.6500 H     1 <1>   0.0800 
 26 H       -2.3280     0.4350     1.1260 H     1 <1>   0.0800 
 27 H       -2.6690     1.2510    -0.3790 H     1 <1>   0.0800 
 28 H        2.1450     0.3580    -2.3340 H     1 <1>   0.1500 
 29 H        1.6710     0.3820     1.8900 H     1 <1>   0.1500 
 30 H       -0.3300     4.0000     1.2260 H     1 <1>   0.0800 
 31 H       -2.2190     2.5270     2.3300 H     1 <1>   0.0800 
 32 H       -3.7410     2.4190     1.4970 H     1 <1>   0.0800 
 33 H        4.5380     0.7080    -2.0760 H     1 <1>   0.1500 
 34 H        4.0760     0.7380     2.1590 H     1 <1>   0.1500 
 35 H       -2.9700     3.9110    -0.2560 H     1 <1>   0.0800 
 36 H       -2.6770     4.6790     1.2810 H     1 <1>   0.0800 
 37 H       -1.1420     5.2170    -1.4300 H     1 <1>   0.0800 
 38 H        0.4470     5.3050    -0.7050 H     1 <1>   0.0800 
 39 H       -0.9050     6.0950     0.0630 H     1 <1>   0.0800 
 40 H        6.2120     0.6580     1.1740 H     1 <1>   0.3700 
 41 H        8.3240     2.0410     0.8140 H     1 <1>   0.0800 
 42 H        8.8760     1.9280    -0.8240 H     1 <1>   0.0800 
 43 H        8.2110    -0.4380     0.9550 H     1 <1>   0.0800 
 44 H       10.8910     0.5640    -0.0360 H     1 <1>   0.0800 
 45 H       10.6250    -0.8720     0.9210 H     1 <1>   0.0800 
 46 H       10.3000     0.6980     1.6040 H     1 <1>   0.0800 
 47 H        9.3210    -0.3940    -1.8660 H     1 <1>   0.0800 
 48 H        7.7390    -0.9690    -1.4050 H     1 <1>   0.0800 
 49 H        9.1610    -1.8170    -0.8670 H     1 <1>   0.0800 
@<TRIPOS>BOND
  1   1   2  2   
  2   1   3  2   
  3   1   4  am  
  4   1   5  1   
  5   4   6  1   
  6   4   7  1   
  7   5   8  ar  
  8   5   9  ar  
  9   6  10  1   
 10   6  24  1   
 11   6  25  1   
 12   7  11  1   
 13   7  26  1   
 14   7  27  1   
 15   8  12  ar  
 16   8  28  1   
 17   9  13  ar  
 18   9  29  1   
 19  10  14  1   
 20  10  15  1   
 21  10  30  1   
 22  11  14  1   
 23  11  31  1   
 24  11  32  1   
 25  12  16  ar  
 26  12  33  1   
 27  13  16  ar  
 28  13  34  1   
 29  14  35  1   
 30  14  36  1   
 31  15  37  1   
 32  15  38  1   
 33  15  39  1   
 34  16  17  1   
 35  17  18  am  
 36  17  40  1   
 37  18  19  2   
 38  18  20  1   
 39  20  21  1   
 40  20  41  1   
 41  20  42  1   
 42  21  22  1   
 43  21  23  1   
 44  21  43  1   
 45  22  44  1   
 46  22  45  1   
 47  22  46  1   
 48  23  47  1   
 49  23  48  1   
 50  23  49  1   
@<TRIPOS>SUBSTRUCTURE
  1 ****   5 GROUP 4 **** **** 0

# MOE 2024.06 (io_trps.svl 2023.06)
