@<TRIPOS>MOLECULE
NONAME
46 48 1 0 0 
SMALL
USER_CHARGES


@<TRIPOS>ATOM
  1 O        0.3930     0.1550    -0.7400 O.2   1 <1>  -0.5700 
  2 C        0.8090     0.9770     0.0480 C.2   1 <1>   0.7800 
  3 O        2.0780     0.9160     0.4570 O.3   1 <1>  -0.4300 
  4 N        0.0770     1.9930     0.5780 N.am  1 <1>  -0.5470 
  5 C        2.9100    -0.1440     0.0350 C.3   1 <1>   0.1200 
  6 C       -1.2480     2.4040     0.3670 C.ar  1 <1>   0.1170 
  7 C        4.3580     0.1050     0.4880 C.3   1 <1>  -0.0800 
  8 C       -1.8250     3.2770     1.2830 C.ar  1 <1>  -0.1500 
  9 C       -2.0120     1.9920    -0.7220 C.ar  1 <1>  -0.1500 
 10 C        4.8840     1.4630    -0.0460 C.3   1 <1>   0.4230 
 11 C        5.2220    -1.0770     0.0060 C.3   1 <1>  -0.1600 
 12 C       -3.1240     3.7240     1.1220 C.ar  1 <1>  -0.1500 
 13 C       -3.3120     2.4360    -0.8860 C.ar  1 <1>  -0.1500 
 14 N        6.3420     1.4070    -0.4440 N.4   1 <1>  -0.9590 
 15 C        4.6730     2.6290     0.9330 C.3   1 <1>  -0.1600 
 16 C        6.6960    -0.8960     0.4040 C.3   1 <1>  -0.1600 
 17 C       -3.8710     3.3030     0.0360 C.ar  1 <1>  -0.1500 
 18 C        7.1450     0.5660     0.4850 C.3   1 <1>   0.3430 
 19 C        7.0050     2.7440    -0.6090 C.3   1 <1>   0.3430 
 20 C        4.9770     3.9830     0.2650 C.3   1 <1>  -0.1600 
 21 C        5.9840     3.8460    -0.8900 C.3   1 <1>  -0.1600 
 22 H        0.5770     2.5040     1.2990 H     1 <1>   0.3700 
 23 H        2.8540    -0.2110    -1.0390 H     1 <1>   0.0800 
 24 H        2.5250    -1.0560     0.4610 H     1 <1>   0.0800 
 25 H        4.3710     0.1120     1.5650 H     1 <1>   0.0800 
 26 H       -1.2590     3.6110     2.1320 H     1 <1>   0.1500 
 27 H       -1.6000     1.3230    -1.4540 H     1 <1>   0.1500 
 28 H        4.3150     1.6940    -0.9330 H     1 <1>   0.0800 
 29 H        5.1550    -1.1510    -1.0670 H     1 <1>   0.0800 
 30 H        4.8540    -2.0040     0.4150 H     1 <1>   0.0800 
 31 H       -3.5570     4.3980     1.8400 H     1 <1>   0.1500 
 32 H       -3.8890     2.1060    -1.7330 H     1 <1>   0.1500 
 33 H        6.3620     0.9360    -1.3560 H     1 <1>   0.4500 
 34 H        5.3060     2.4910     1.7920 H     1 <1>   0.0800 
 35 H        3.6600     2.6480     1.2920 H     1 <1>   0.0800 
 36 H        7.3200    -1.4240    -0.2960 H     1 <1>   0.0800 
 37 H        6.8640    -1.3450     1.3680 H     1 <1>   0.0800 
 38 H       -4.8820     3.6480    -0.0920 H     1 <1>   0.1500 
 39 H        7.0080     0.9250     1.4930 H     1 <1>   0.0800 
 40 H        8.1950     0.6310     0.2460 H     1 <1>   0.0800 
 41 H        7.7290     2.7000    -1.4070 H     1 <1>   0.0800 
 42 H        7.5280     3.0000     0.3000 H     1 <1>   0.0800 
 43 H        5.3620     4.6600     1.0100 H     1 <1>   0.0800 
 44 H        4.0670     4.4140    -0.1200 H     1 <1>   0.0800 
 45 H        5.4700     3.6260    -1.8100 H     1 <1>   0.0800 
 46 H        6.4960     4.7830    -1.0280 H     1 <1>   0.0800 
@<TRIPOS>BOND
  1   1   2  2   
  2   2   3  1   
  3   2   4  am  
  4   3   5  1   
  5   4   6  1   
  6   4  22  1   
  7   5   7  1   
  8   5  23  1   
  9   5  24  1   
 10   6   8  ar  
 11   6   9  ar  
 12   7  10  1   
 13   7  11  1   
 14   7  25  1   
 15   8  12  ar  
 16   8  26  1   
 17   9  13  ar  
 18   9  27  1   
 19  10  14  1   
 20  10  15  1   
 21  10  28  1   
 22  11  16  1   
 23  11  29  1   
 24  11  30  1   
 25  12  17  ar  
 26  12  31  1   
 27  13  17  ar  
 28  13  32  1   
 29  14  18  1   
 30  14  19  1   
 31  14  33  1   
 32  15  20  1   
 33  15  34  1   
 34  15  35  1   
 35  16  18  1   
 36  16  36  1   
 37  16  37  1   
 38  17  38  1   
 39  18  39  1   
 40  18  40  1   
 41  19  21  1   
 42  19  41  1   
 43  19  42  1   
 44  20  21  1   
 45  20  43  1   
 46  20  44  1   
 47  21  45  1   
 48  21  46  1   
@<TRIPOS>SUBSTRUCTURE
  1 ****   3 GROUP 4 **** **** 0

# MOE 2024.06 (io_trps.svl 2023.06)
