@<TRIPOS>MOLECULE
NONAME
50 51 1 0 0 
SMALL
USER_CHARGES


@<TRIPOS>ATOM
  1 CL       1.2310     4.8480     2.4240 Cl    1 <1>  -0.1770 
  2 C       -0.2360     5.2160     1.5450 C.ar  1 <1>   0.1770 
  3 C       -0.2320     6.1600     0.5240 C.ar  1 <1>   0.0830 
  4 C       -1.3910     4.5400     1.8880 C.ar  1 <1>  -0.1500 
  5 O        0.9020     6.8210     0.1920 O.3   1 <1>  -0.3630 
  6 C       -1.4200     6.4270    -0.1410 C.ar  1 <1>  -0.1500 
  7 C       -2.5840     4.7890     1.2180 C.ar  1 <1>  -0.0090 
  8 C        1.4220     6.6090    -1.1150 C.3   1 <1>   0.1810 
  9 C       -2.5750     5.7450     0.2050 C.ar  1 <1>  -0.1500 
 10 S       -4.1080     3.9070     1.6530 S.o2  1 <1>   1.4470 
 11 C        2.1830     5.2860    -1.1940 C.2   1 <1>   0.5690 
 12 O       -3.8050     2.7460     2.4560 O.2   1 <1>  -0.6500 
 13 O       -5.1210     4.8460     2.0750 O.2   1 <1>  -0.6500 
 14 N       -4.6080     3.2590     0.1900 N.am  1 <1>  -0.9140 
 15 O        1.7860     4.4650    -1.9860 O.2   1 <1>  -0.5700 
 16 N        3.2800     5.0280    -0.4020 N.am  1 <1>  -0.6600 
 17 C       -6.0160     2.9120     0.1830 C.3   1 <1>   0.1960 
 18 C        3.8080     3.6320    -0.2850 C.3   1 <1>   0.1400 
 19 C        3.8950     6.0220     0.5370 C.3   1 <1>   0.1400 
 20 C       -6.3380     2.2020    -1.1300 C.3   1 <1>  -0.1600 
 21 C        5.3460     3.6020    -0.2890 C.3   1 <1>   0.3430 
 22 C        5.4350     5.9370     0.5270 C.3   1 <1>   0.3430 
 23 C       -7.8190     1.8140    -1.2070 C.3   1 <1>  -0.2400 
 24 N        5.9290     4.5320     0.7420 N.4   1 <1>  -0.9590 
 25 C        7.4220     4.4740     0.7390 C.3   1 <1>   0.2630 
 26 H       -1.3600     3.8120     2.6810 H     1 <1>   0.1500 
 27 H       -1.4490     7.1680    -0.9200 H     1 <1>   0.1500 
 28 H        2.0790     7.4240    -1.3480 H     1 <1>   0.0800 
 29 H        0.6140     6.6080    -1.8240 H     1 <1>   0.0800 
 30 H       -3.4930     5.9570    -0.3190 H     1 <1>   0.1500 
 31 H       -4.0910     2.3840     0.1300 H     1 <1>   0.4200 
 32 H       -6.6110     3.8070     0.2690 H     1 <1>   0.0800 
 33 H       -6.2410     2.2670     1.0180 H     1 <1>   0.0800 
 34 H        3.4530     3.0240    -1.1000 H     1 <1>   0.0800 
 35 H        3.4390     3.1930     0.6260 H     1 <1>   0.0800 
 36 H        3.5380     5.8380     1.5340 H     1 <1>   0.0800 
 37 H        3.6060     7.0230     0.2720 H     1 <1>   0.0800 
 38 H       -5.7390     1.3120    -1.2170 H     1 <1>   0.0800 
 39 H       -6.1030     2.8560    -1.9530 H     1 <1>   0.0800 
 40 H        5.6890     3.8860    -1.2710 H     1 <1>   0.0800 
 41 H        5.6770     2.5930    -0.1040 H     1 <1>   0.0800 
 42 H        5.8250     6.5840     1.2960 H     1 <1>   0.0800 
 43 H        5.7900     6.3030    -0.4220 H     1 <1>   0.0800 
 44 H       -8.0770     1.1450    -0.4040 H     1 <1>   0.0800 
 45 H       -8.0220     1.3200    -2.1400 H     1 <1>   0.0800 
 46 H       -8.4410     2.6900    -1.1430 H     1 <1>   0.0800 
 47 H        5.5830     4.2210     1.6630 H     1 <1>   0.4500 
 48 H        7.8090     4.7920    -0.2160 H     1 <1>   0.0800 
 49 H        7.7580     3.4670     0.9280 H     1 <1>   0.0800 
 50 H        7.8240     5.1170     1.5060 H     1 <1>   0.0800 
@<TRIPOS>BOND
  1   1   2  1   
  2   2   3  ar  
  3   2   4  ar  
  4   3   5  1   
  5   3   6  ar  
  6   4   7  ar  
  7   4  26  1   
  8   5   8  1   
  9   6   9  ar  
 10   6  27  1   
 11   7   9  ar  
 12   7  10  1   
 13   8  11  1   
 14   8  28  1   
 15   8  29  1   
 16   9  30  1   
 17  10  12  2   
 18  10  13  2   
 19  10  14  am  
 20  11  15  2   
 21  11  16  am  
 22  14  17  1   
 23  14  31  1   
 24  16  18  1   
 25  16  19  1   
 26  17  20  1   
 27  17  32  1   
 28  17  33  1   
 29  18  21  1   
 30  18  34  1   
 31  18  35  1   
 32  19  22  1   
 33  19  36  1   
 34  19  37  1   
 35  20  23  1   
 36  20  38  1   
 37  20  39  1   
 38  21  24  1   
 39  21  40  1   
 40  21  41  1   
 41  22  24  1   
 42  22  42  1   
 43  22  43  1   
 44  23  44  1   
 45  23  45  1   
 46  23  46  1   
 47  24  25  1   
 48  24  47  1   
 49  25  48  1   
 50  25  49  1   
 51  25  50  1   
@<TRIPOS>SUBSTRUCTURE
  1 ****   2 GROUP 4 **** **** 0

# MOE 2024.06 (io_trps.svl 2023.06)
