@<TRIPOS>MOLECULE
NONAME
35 37 1 0 0 
SMALL
USER_CHARGES


@<TRIPOS>ATOM
  1 O        0.0160    -0.2180     0.0080 O.2   1 <1>  -0.5700 
  2 C       -0.0130    -1.4340     0.0590 C.2   1 <1>   0.5440 
  3 N        1.1620    -2.0980     0.3430 N.am  1 <1>  -0.6600 
  4 C       -1.2550    -2.1220    -0.2270 C.ar  1 <1>   0.0860 
  5 C        1.3380    -3.3360     1.1550 C.3   1 <1>   0.2200 
  6 C        2.4440    -1.5270    -0.1650 C.3   1 <1>   0.1400 
  7 C       -2.4470    -1.7330     0.3950 C.ar  1 <1>  -0.1500 
  8 C       -1.2980    -3.1890    -1.1380 C.ar  1 <1>  -0.1500 
  9 C        1.8700    -4.4610     0.2490 C.3   1 <1>  -0.1600 
 10 C        0.1120    -3.7640     1.9650 C.3   1 <1>  -0.2400 
 11 C        3.4990    -2.6220    -0.4200 C.3   1 <1>  -0.1600 
 12 C       -3.6070    -2.4200     0.1080 C.ar  1 <1>   0.0830 
 13 C       -2.4740    -3.8700    -1.4190 C.ar  1 <1>  -0.1500 
 14 C        2.8540    -3.9570    -0.8290 C.3   1 <1>  -0.1600 
 15 O       -4.8350    -2.2150     0.5970 O.3   1 <1>  -0.3630 
 16 C       -3.6230    -3.4620    -0.7730 C.ar  1 <1>   0.0830 
 17 C       -5.6860    -3.1810    -0.0160 C.3   1 <1>   0.4000 
 18 O       -4.8560    -3.9570    -0.8770 O.3   1 <1>  -0.3630 
 19 H        2.1060    -3.1130     1.8770 H     1 <1>   0.0800 
 20 H        2.8180    -0.8060     0.5420 H     1 <1>   0.0800 
 21 H        2.2440    -1.0090    -1.0880 H     1 <1>   0.0800 
 22 H       -2.4550    -0.9090     1.0850 H     1 <1>   0.1500 
 23 H       -0.3860    -3.4790    -1.6310 H     1 <1>   0.1500 
 24 H        1.0510    -4.9670    -0.2290 H     1 <1>   0.0800 
 25 H        2.3660    -5.1820     0.8740 H     1 <1>   0.0800 
 26 H       -0.6570    -4.1740     1.3390 H     1 <1>   0.0800 
 27 H       -0.2760    -2.9300     2.5220 H     1 <1>   0.0800 
 28 H        0.3990    -4.5270     2.6650 H     1 <1>   0.0800 
 29 H        4.0790    -2.7650     0.4750 H     1 <1>   0.0800 
 30 H        4.1750    -2.2870    -1.1870 H     1 <1>   0.0800 
 31 H       -2.5050    -4.6880    -2.1150 H     1 <1>   0.1500 
 32 H        2.3150    -3.8030    -1.7480 H     1 <1>   0.0800 
 33 H        3.6110    -4.6990    -1.0120 H     1 <1>   0.0800 
 34 H       -6.4400    -2.6800    -0.5970 H     1 <1>   0.0800 
 35 H       -6.1180    -3.8140     0.7380 H     1 <1>   0.0800 
@<TRIPOS>BOND
  1   1   2  2   
  2   2   3  am  
  3   2   4  1   
  4   3   5  1   
  5   3   6  1   
  6   4   7  ar  
  7   4   8  ar  
  8   5   9  1   
  9   5  10  1   
 10   5  19  1   
 11   6  11  1   
 12   6  20  1   
 13   6  21  1   
 14   7  12  ar  
 15   7  22  1   
 16   8  13  ar  
 17   8  23  1   
 18   9  14  1   
 19   9  24  1   
 20   9  25  1   
 21  10  26  1   
 22  10  27  1   
 23  10  28  1   
 24  11  14  1   
 25  11  29  1   
 26  11  30  1   
 27  12  15  1   
 28  12  16  ar  
 29  13  16  ar  
 30  13  31  1   
 31  14  32  1   
 32  14  33  1   
 33  15  17  1   
 34  16  18  1   
 35  17  18  1   
 36  17  34  1   
 37  17  35  1   
@<TRIPOS>SUBSTRUCTURE
  1 ****   4 GROUP 4 **** **** 0

# MOE 2024.06 (io_trps.svl 2023.06)
