@<TRIPOS>MOLECULE
NONAME
30 30 1 0 0 
SMALL
USER_CHARGES


@<TRIPOS>ATOM
  1 O       -0.4790    -2.3030     1.7250 O.2   1 <1>  -0.5700 
  2 C       -1.0740    -1.7830     0.8120 C.2   1 <1>   0.5690 
  3 N       -0.4430    -1.4130    -0.3350 N.am  1 <1>  -0.7300 
  4 C       -2.5700    -1.5320     0.9650 C.3   1 <1>   0.1810 
  5 C        0.9950    -1.6250    -0.6340 C.3   1 <1>   0.1400 
  6 O       -3.0910    -0.7960    -0.1360 O.3   1 <1>  -0.3620 
  7 C        1.8440    -0.5590     0.0560 C.3   1 <1>   0.1200 
  8 C       -4.4030    -0.4600    -0.1940 C.ar  1 <1>   0.0820 
  9 O        3.1560    -0.6760    -0.3990 O.3   1 <1>  -0.5600 
 10 C       -5.3350    -0.7980     0.7850 C.ar  1 <1>  -0.1500 
 11 C       -4.8130     0.2620    -1.3040 C.ar  1 <1>  -0.1500 
 12 C        4.0450     0.1940     0.2230 C.3   1 <1>   0.0400 
 13 C       -6.6570    -0.4130     0.6450 C.ar  1 <1>  -0.1500 
 14 C       -6.1350     0.6470    -1.4420 C.ar  1 <1>  -0.1500 
 15 C       -7.0570     0.3090    -0.4670 C.ar  1 <1>  -0.1500 
 16 H       -1.0040    -0.9510    -1.0560 H     1 <1>   0.3700 
 17 H       -2.7420    -0.9690     1.8630 H     1 <1>   0.0800 
 18 H       -3.0810    -2.4760     1.0160 H     1 <1>   0.0800 
 19 H        1.1450    -1.5760    -1.6980 H     1 <1>   0.0800 
 20 H        1.2930    -2.5970    -0.2810 H     1 <1>   0.0800 
 21 H        1.8280    -0.7100     1.1220 H     1 <1>   0.0800 
 22 H        1.4860     0.4250    -0.1910 H     1 <1>   0.0800 
 23 H       -5.0560    -1.3560     1.6590 H     1 <1>   0.1500 
 24 H       -4.0930     0.5230    -2.0580 H     1 <1>   0.1500 
 25 H        5.0220     0.0330    -0.1990 H     1 <1>   0.0800 
 26 H        4.0670    -0.0150     1.2780 H     1 <1>   0.0800 
 27 H        3.7350     1.2090     0.0430 H     1 <1>   0.0800 
 28 H       -7.3770    -0.6740     1.4010 H     1 <1>   0.1500 
 29 H       -6.4460     1.2070    -2.3060 H     1 <1>   0.1500 
 30 H       -8.0860     0.6070    -0.5730 H     1 <1>   0.1500 
@<TRIPOS>BOND
  1   1   2  2   
  2   2   3  am  
  3   2   4  1   
  4   3   5  1   
  5   3  16  1   
  6   4   6  1   
  7   4  17  1   
  8   4  18  1   
  9   5   7  1   
 10   5  19  1   
 11   5  20  1   
 12   6   8  1   
 13   7   9  1   
 14   7  21  1   
 15   7  22  1   
 16   8  10  ar  
 17   8  11  ar  
 18   9  12  1   
 19  10  13  ar  
 20  10  23  1   
 21  11  14  ar  
 22  11  24  1   
 23  12  25  1   
 24  12  26  1   
 25  12  27  1   
 26  13  15  ar  
 27  13  28  1   
 28  14  15  ar  
 29  14  29  1   
 30  15  30  1   
@<TRIPOS>SUBSTRUCTURE
  1 ****   6 GROUP 4 **** **** 0

# MOE 2024.06 (io_trps.svl 2023.06)
