@<TRIPOS>MOLECULE
NONAME
48 49 1 0 0 
SMALL
USER_CHARGES


@<TRIPOS>ATOM
  1 S       -0.5890     2.2010    -1.3260 S.3   1 <1>  -0.3610 
  2 C        0.7110     1.0660    -0.9970 C.cat 1 <1>   0.8400 
  3 C       -1.4880     2.6180     0.2530 C.3   1 <1>   0.2110 
  4 N        1.6180     1.0670    -1.9450 N.pl3 1 <1>  -0.7940 
  5 N        0.6650     0.3500     0.1050 N.pl3 1 <1>  -0.7940 
  6 C       -2.3430     1.4570     0.7210 C.2   1 <1>   0.5690 
  7 C       -2.5110     3.7160    -0.0560 C.3   1 <1>  -0.0990 
  8 C        2.9070     0.3730    -2.0890 C.3   1 <1>   0.3290 
  9 C        1.5410    -0.7070     0.6420 C.3   1 <1>   0.3290 
 10 O       -1.8480     0.4710     1.2120 O.2   1 <1>  -0.5700 
 11 N       -3.6720     1.7130     0.5320 N.am  1 <1>  -0.2370 
 12 C       -3.8310     2.9920     0.0650 C.2   1 <1>   0.5690 
 13 C        3.7500     1.1420    -3.0970 C.3   1 <1>  -0.2400 
 14 C        2.4260    -0.1000     1.7230 C.3   1 <1>  -0.2400 
 15 C       -4.7150     0.7840     0.7420 C.ar  1 <1>   0.1170 
 16 O       -4.8670     3.5280    -0.2220 O.2   1 <1>  -0.5700 
 17 C       -5.6410     0.5200    -0.2590 C.ar  1 <1>  -0.1500 
 18 C       -4.8330     0.1070     1.9520 C.ar  1 <1>  -0.1500 
 19 C       -6.6560    -0.4020    -0.0710 C.ar  1 <1>   0.0820 
 20 C       -5.8460    -0.8140     2.1520 C.ar  1 <1>  -0.1500 
 21 O       -7.5040    -0.5930    -1.1120 O.3   1 <1>  -0.3620 
 22 C       -6.7590    -1.0720     1.1450 C.ar  1 <1>  -0.1500 
 23 C       -8.6060    -1.4640    -1.0110 C.3   1 <1>   0.1200 
 24 C       -9.3620    -1.4230    -2.3360 C.3   1 <1>  -0.2400 
 25 H       -0.7650     2.9190     0.9890 H     1 <1>   0.0800 
 26 H        1.4230     1.6820    -2.7400 H     1 <1>   0.4500 
 27 H       -0.1840     0.4190     0.6850 H     1 <1>   0.4500 
 28 H       -2.3980     4.1340    -1.0400 H     1 <1>   0.0800 
 29 H       -2.4720     4.4990     0.6800 H     1 <1>   0.0800 
 30 H        2.7440    -0.6330    -2.4400 H     1 <1>   0.0800 
 31 H        3.4230     0.3420    -1.1440 H     1 <1>   0.0800 
 32 H        2.1380    -1.1520    -0.1340 H     1 <1>   0.0800 
 33 H        0.9300    -1.4860     1.0690 H     1 <1>   0.0800 
 34 H        3.2720     1.1590    -4.0610 H     1 <1>   0.0800 
 35 H        4.7040     0.6590    -3.2090 H     1 <1>   0.0800 
 36 H        3.9240     2.1490    -2.7590 H     1 <1>   0.0800 
 37 H        3.0380     0.6870     1.3200 H     1 <1>   0.0800 
 38 H        3.0730    -0.8590     2.1270 H     1 <1>   0.0800 
 39 H        1.8250     0.2900     2.5250 H     1 <1>   0.0800 
 40 H       -5.5850     1.0350    -1.2000 H     1 <1>   0.1500 
 41 H       -4.1300     0.2950     2.7440 H     1 <1>   0.1500 
 42 H       -5.9260    -1.3310     3.0930 H     1 <1>   0.1500 
 43 H       -7.5340    -1.7930     1.3230 H     1 <1>   0.1500 
 44 H       -9.2330    -1.1270    -0.2040 H     1 <1>   0.0800 
 45 H       -8.2400    -2.4570    -0.8130 H     1 <1>   0.0800 
 46 H       -9.7080    -0.4230    -2.5310 H     1 <1>   0.0800 
 47 H      -10.2120    -2.0790    -2.2910 H     1 <1>   0.0800 
 48 H       -8.7210    -1.7430    -3.1370 H     1 <1>   0.0800 
@<TRIPOS>BOND
  1   1   2  1   
  2   1   3  1   
  3   2   4  ar  
  4   2   5  ar  
  5   3   6  1   
  6   3   7  1   
  7   3  25  1   
  8   4   8  1   
  9   4  26  1   
 10   5   9  1   
 11   5  27  1   
 12   6  10  2   
 13   6  11  am  
 14   7  12  1   
 15   7  28  1   
 16   7  29  1   
 17   8  13  1   
 18   8  30  1   
 19   8  31  1   
 20   9  14  1   
 21   9  32  1   
 22   9  33  1   
 23  11  12  am  
 24  11  15  1   
 25  12  16  2   
 26  13  34  1   
 27  13  35  1   
 28  13  36  1   
 29  14  37  1   
 30  14  38  1   
 31  14  39  1   
 32  15  17  ar  
 33  15  18  ar  
 34  17  19  ar  
 35  17  40  1   
 36  18  20  ar  
 37  18  41  1   
 38  19  21  1   
 39  19  22  ar  
 40  20  22  ar  
 41  20  42  1   
 42  21  23  1   
 43  22  43  1   
 44  23  24  1   
 45  23  44  1   
 46  23  45  1   
 47  24  46  1   
 48  24  47  1   
 49  24  48  1   
@<TRIPOS>SUBSTRUCTURE
  1 ****   6 GROUP 4 **** **** 0

# MOE 2024.06 (io_trps.svl 2023.06)
