@<TRIPOS>MOLECULE
NONAME
41 42 1 0 0 
SMALL
USER_CHARGES


@<TRIPOS>ATOM
  1 S       -0.1230    -0.1560     0.2070 S.3   1 <1>  -0.3710 
  2 C        1.4390    -0.7660     0.7730 C.2   1 <1>   0.6410 
  3 C       -1.3480    -1.0280     1.3140 C.3   1 <1>   0.1310 
  4 N        2.5100    -0.2560     0.1190 N.pl3 1 <1>  -0.5500 
  5 N        1.4730    -1.6190     1.7240 N.2   1 <1>  -0.6610 
  6 C       -2.7870    -0.6600     0.9840 C.2   1 <1>   0.5690 
  7 C        3.7880    -0.6350     0.4460 C.2   1 <1>   0.0720 
  8 C        2.7190    -2.0390     2.0920 C.2   1 <1>   0.7670 
  9 O       -3.6530    -1.0580     1.7240 O.2   1 <1>  -0.5700 
 10 N       -3.0430     0.0920    -0.1220 N.am  1 <1>  -0.7300 
 11 C        4.9000    -0.0660    -0.2770 C.ar  1 <1>   0.0280 
 12 C        3.8810    -1.5440     1.4510 C.2   1 <1>  -0.1360 
 13 O        2.8070    -2.8590     2.9910 O.2   1 <1>  -0.5700 
 14 C       -4.3220     0.5690    -0.6490 C.3   1 <1>   0.3000 
 15 C        5.9060    -0.8770    -0.7970 C.ar  1 <1>  -0.1500 
 16 C        5.0010     1.3090    -0.4790 C.ar  1 <1>  -0.1500 
 17 C       -4.0000     1.3640    -1.9130 C.3   1 <1>  -0.2400 
 18 C       -4.9920     1.4820     0.3770 C.3   1 <1>  -0.2400 
 19 C       -5.2110    -0.6230    -1.0030 C.3   1 <1>  -0.2400 
 20 C        6.9700    -0.3370    -1.4960 C.ar  1 <1>  -0.1500 
 21 C        6.0620     1.8540    -1.1780 C.ar  1 <1>  -0.1500 
 22 C        7.0490     1.0310    -1.6890 C.ar  1 <1>  -0.1500 
 23 H       -1.1190    -0.7510     2.3260 H     1 <1>   0.0800 
 24 H       -1.2000    -2.0850     1.1870 H     1 <1>   0.0800 
 25 H        2.3370     0.3980    -0.6460 H     1 <1>   0.4000 
 26 H       -2.2360     0.3960    -0.6690 H     1 <1>   0.3700 
 27 H        4.8220    -1.9180     1.8020 H     1 <1>   0.1500 
 28 H        5.8550    -1.9420    -0.6580 H     1 <1>   0.1500 
 29 H        4.2460     1.9620    -0.0770 H     1 <1>   0.1500 
 30 H       -3.3640     2.2000    -1.6830 H     1 <1>   0.0800 
 31 H       -4.9060     1.7430    -2.3500 H     1 <1>   0.0800 
 32 H       -3.5150     0.7380    -2.6410 H     1 <1>   0.0800 
 33 H       -4.3380     2.2910     0.6480 H     1 <1>   0.0800 
 34 H       -5.2520     0.9310     1.2620 H     1 <1>   0.0800 
 35 H       -5.8960     1.8960    -0.0310 H     1 <1>   0.0800 
 36 H       -4.7070    -1.2780    -1.6890 H     1 <1>   0.0800 
 37 H       -6.1220    -0.2830    -1.4600 H     1 <1>   0.0800 
 38 H       -5.4710    -1.1760    -0.1190 H     1 <1>   0.0800 
 39 H        7.7380    -0.9790    -1.8920 H     1 <1>   0.1500 
 40 H        6.1250     2.9190    -1.3240 H     1 <1>   0.1500 
 41 H        7.8770     1.4530    -2.2330 H     1 <1>   0.1500 
@<TRIPOS>BOND
  1   1   2  1   
  2   1   3  1   
  3   2   4  1   
  4   2   5  2   
  5   3   6  1   
  6   3  23  1   
  7   3  24  1   
  8   4   7  1   
  9   4  25  1   
 10   5   8  1   
 11   6   9  2   
 12   6  10  am  
 13   7  11  1   
 14   7  12  2   
 15   8  12  1   
 16   8  13  2   
 17  10  14  1   
 18  10  26  1   
 19  11  15  ar  
 20  11  16  ar  
 21  12  27  1   
 22  14  17  1   
 23  14  18  1   
 24  14  19  1   
 25  15  20  ar  
 26  15  28  1   
 27  16  21  ar  
 28  16  29  1   
 29  17  30  1   
 30  17  31  1   
 31  17  32  1   
 32  18  33  1   
 33  18  34  1   
 34  18  35  1   
 35  19  36  1   
 36  19  37  1   
 37  19  38  1   
 38  20  22  ar  
 39  20  39  1   
 40  21  22  ar  
 41  21  40  1   
 42  22  41  1   
@<TRIPOS>SUBSTRUCTURE
  1 ****   2 GROUP 4 **** **** 0

# MOE 2024.06 (io_trps.svl 2023.06)
