@<TRIPOS>MOLECULE
NONAME
47 49 1 0 0 
SMALL
USER_CHARGES


@<TRIPOS>ATOM
  1 S        0.7880    -0.9480    -1.6910 S.3   1 <1>  -0.3710 
  2 C        1.8800     0.3610    -1.1940 C.2   1 <1>   0.6510 
  3 C       -0.3760    -1.1200    -0.2410 C.3   1 <1>   0.1310 
  4 N        1.7940     0.8150    -0.0080 N.2   1 <1>  -0.6210 
  5 N        2.7410     0.7890    -2.1450 N.am  1 <1>  -0.4900 
  6 C       -1.5850    -0.1970    -0.3920 C.2   1 <1>   0.5690 
  7 C        2.6270     1.8400     0.3400 C.2   1 <1>   0.0210 
  8 C        3.6020     1.8040    -1.8510 C.2   1 <1>   0.6160 
  9 O       -2.3880    -0.5130    -1.2430 O.2   1 <1>  -0.5700 
 10 N       -1.8070     0.9050     0.4040 N.am  1 <1>  -0.6600 
 11 O        2.4770     2.2810     1.4830 O.3   1 <1>  -0.8500 
 12 C        3.5560     2.3420    -0.5690 C.2   1 <1>  -0.1240 
 13 O        4.3420     2.1750    -2.7760 O.2   1 <1>  -0.5700 
 14 C       -0.9110     1.4280     1.4930 C.3   1 <1>   0.1400 
 15 C       -2.9500     1.8300     0.1390 C.3   1 <1>   0.1400 
 16 C        4.5020     3.4600    -0.1700 C.3   1 <1>   0.1220 
 17 C       -0.5290     2.8960     1.2300 C.3   1 <1>   0.1200 
 18 C       -2.4430     3.2660    -0.0650 C.3   1 <1>   0.1200 
 19 C        5.8790     2.9040     0.1660 C.ar  1 <1>  -0.1440 
 20 O       -1.6840     3.6780     1.0340 O.3   1 <1>  -0.5600 
 21 C        6.0560     2.2030     1.3470 C.ar  1 <1>  -0.1500 
 22 C        6.9550     3.0770    -0.6910 C.ar  1 <1>  -0.1500 
 23 C        7.2990     1.6940     1.6780 C.ar  1 <1>  -0.1500 
 24 C        8.2010     2.5680    -0.3640 C.ar  1 <1>  -0.1500 
 25 C        8.3800     1.8740     0.8300 C.ar  1 <1>   0.0820 
 26 O        9.5670     1.3460     1.2250 O.3   1 <1>  -0.3620 
 27 C       10.7120     1.4350     0.4070 C.3   1 <1>   0.0400 
 28 H        0.1750    -0.9520     0.6620 H     1 <1>   0.0800 
 29 H       -0.7130    -2.1380    -0.2510 H     1 <1>   0.0800 
 30 H        2.7590     0.3880    -3.0710 H     1 <1>   0.3700 
 31 H       -0.0160     0.8500     1.6030 H     1 <1>   0.0800 
 32 H       -1.4330     1.3780     2.4300 H     1 <1>   0.0800 
 33 H       -3.6250     1.8070     0.9760 H     1 <1>   0.0800 
 34 H       -3.4950     1.5240    -0.7360 H     1 <1>   0.0800 
 35 H        4.1110     3.9770     0.6880 H     1 <1>   0.0800 
 36 H        4.5710     4.1740    -0.9690 H     1 <1>   0.0800 
 37 H        0.1020     2.9710     0.3620 H     1 <1>   0.0800 
 38 H        0.0160     3.2920     2.0690 H     1 <1>   0.0800 
 39 H       -3.2710     3.9440    -0.1640 H     1 <1>   0.0800 
 40 H       -1.8320     3.3290    -0.9490 H     1 <1>   0.0800 
 41 H        5.2070     2.0540     2.0000 H     1 <1>   0.1500 
 42 H        6.8180     3.6030    -1.6200 H     1 <1>   0.1500 
 43 H        7.4310     1.1520     2.5960 H     1 <1>   0.1500 
 44 H        9.0100     2.7210    -1.0500 H     1 <1>   0.1500 
 45 H       11.5220     0.9400     0.9110 H     1 <1>   0.0800 
 46 H       10.9520     2.4730     0.2570 H     1 <1>   0.0800 
 47 H       10.5080     0.9460    -0.5290 H     1 <1>   0.0800 
@<TRIPOS>BOND
  1   1   2  1   
  2   1   3  1   
  3   2   4  2   
  4   2   5  1   
  5   3   6  1   
  6   3  28  1   
  7   3  29  1   
  8   4   7  1   
  9   5   8  am  
 10   5  30  1   
 11   6   9  2   
 12   6  10  am  
 13   7  11  1   
 14   7  12  2   
 15   8  12  1   
 16   8  13  2   
 17  10  14  1   
 18  10  15  1   
 19  12  16  1   
 20  14  17  1   
 21  14  31  1   
 22  14  32  1   
 23  15  18  1   
 24  15  33  1   
 25  15  34  1   
 26  16  19  1   
 27  16  35  1   
 28  16  36  1   
 29  17  20  1   
 30  17  37  1   
 31  17  38  1   
 32  18  20  1   
 33  18  39  1   
 34  18  40  1   
 35  19  21  ar  
 36  19  22  ar  
 37  21  23  ar  
 38  21  41  1   
 39  22  24  ar  
 40  22  42  1   
 41  23  25  ar  
 42  23  43  1   
 43  24  25  ar  
 44  24  44  1   
 45  25  26  1   
 46  26  27  1   
 47  27  45  1   
 48  27  46  1   
 49  27  47  1   
@<TRIPOS>SUBSTRUCTURE
  1 ****   7 GROUP 4 **** **** 0

# MOE 2024.06 (io_trps.svl 2023.06)
