@<TRIPOS>MOLECULE
NONAME
45 46 1 0 0 
SMALL
USER_CHARGES


@<TRIPOS>ATOM
  1 CL       0.5480    -0.6540    -0.3670 Cl    1 <1>  -0.1770 
  2 C       -0.8500    -1.5460     0.1760 C.ar  1 <1>   0.1770 
  3 C       -2.0760    -1.3050    -0.4020 C.ar  1 <1>  -0.1500 
  4 C       -0.7030    -2.4800     1.1800 C.ar  1 <1>  -0.1500 
  5 C       -3.2220    -1.9960     0.0060 C.ar  1 <1>   0.0860 
  6 C       -1.8140    -3.1830     1.6050 C.ar  1 <1>  -0.1500 
  7 C       -3.0660    -2.9550     1.0300 C.ar  1 <1>   0.0830 
  8 C       -4.4880    -1.6830    -0.6440 C.2   1 <1>   0.5440 
  9 O       -4.1550    -3.6570     1.4430 O.3   1 <1>  -0.3630 
 10 O       -4.4910    -1.1400    -1.7340 O.2   1 <1>  -0.5700 
 11 N       -5.6810    -1.9770    -0.0440 N.am  1 <1>  -0.4930 
 12 C       -4.0910    -4.6950     2.4000 C.3   1 <1>   0.0400 
 13 C       -7.0140    -1.7880    -0.4870 C.2   1 <1>   0.0630 
 14 C       -7.6120    -0.6760    -1.0870 C.2   1 <1>   0.1080 
 15 C       -8.0080    -2.6940    -0.3720 C.2   1 <1>  -0.3320 
 16 N       -8.8720    -0.8690    -1.3280 N.2   1 <1>  -0.7070 
 17 C       -6.9330     0.6310    -1.4280 C.3   1 <1>  -0.0590 
 18 N       -9.1240    -2.1130    -0.8860 N.pl3 1 <1>   0.3140 
 19 C       -7.9460    -4.1070     0.1960 C.3   1 <1>  -0.0600 
 20 C      -10.4570    -2.7020    -1.0500 C.3   1 <1>   0.1570 
 21 C      -11.0730    -2.9560     0.2990 C.2   1 <1>   0.6590 
 22 O      -11.1780    -4.0750     0.7350 O.2   1 <1>  -0.5700 
 23 O      -11.5110    -1.8920     0.9620 O.3   1 <1>  -0.4300 
 24 C      -12.1160    -1.9720     2.2330 C.3   1 <1>   0.1200 
 25 C      -13.6100    -2.2330     2.0530 C.3   1 <1>  -0.2400 
 26 H       -2.1430    -0.5680    -1.1830 H     1 <1>   0.1500 
 27 H        0.2660    -2.6490     1.6160 H     1 <1>   0.1500 
 28 H       -1.6770    -3.9050     2.3870 H     1 <1>   0.1500 
 29 H       -5.5920    -2.5900     0.7690 H     1 <1>   0.3700 
 30 H       -5.0780    -5.1060     2.5160 H     1 <1>   0.0800 
 31 H       -3.7540    -4.2890     3.3380 H     1 <1>   0.0800 
 32 H       -3.4200    -5.4580     2.0460 H     1 <1>   0.0800 
 33 H       -6.4990     0.5610    -2.4080 H     1 <1>   0.0800 
 34 H       -6.1610     0.8450    -0.7140 H     1 <1>   0.0800 
 35 H       -7.6510     1.4300    -1.4180 H     1 <1>   0.0800 
 36 H       -6.9270    -4.3950     0.3820 H     1 <1>   0.0800 
 37 H       -8.3700    -4.8100    -0.4990 H     1 <1>   0.0800 
 38 H       -8.4890    -4.1610     1.1230 H     1 <1>   0.0800 
 39 H      -10.3650    -3.6230    -1.5910 H     1 <1>   0.0800 
 40 H      -11.0730    -2.0220    -1.6050 H     1 <1>   0.0800 
 41 H      -11.9560    -1.0300     2.7290 H     1 <1>   0.0800 
 42 H      -11.6440    -2.7540     2.8040 H     1 <1>   0.0800 
 43 H      -14.0570    -1.4500     1.4660 H     1 <1>   0.0800 
 44 H      -14.0910    -2.2580     3.0140 H     1 <1>   0.0800 
 45 H      -13.7680    -3.1820     1.5720 H     1 <1>   0.0800 
@<TRIPOS>BOND
  1   1   2  1   
  2   2   3  ar  
  3   2   4  ar  
  4   3   5  ar  
  5   3  26  1   
  6   4   6  ar  
  7   4  27  1   
  8   5   7  ar  
  9   5   8  1   
 10   6   7  ar  
 11   6  28  1   
 12   7   9  1   
 13   8  10  2   
 14   8  11  am  
 15   9  12  1   
 16  11  13  1   
 17  11  29  1   
 18  12  30  1   
 19  12  31  1   
 20  12  32  1   
 21  13  14  1   
 22  13  15  2   
 23  14  16  2   
 24  14  17  1   
 25  15  18  1   
 26  15  19  1   
 27  16  18  1   
 28  17  33  1   
 29  17  34  1   
 30  17  35  1   
 31  18  20  1   
 32  19  36  1   
 33  19  37  1   
 34  19  38  1   
 35  20  21  1   
 36  20  39  1   
 37  20  40  1   
 38  21  22  2   
 39  21  23  1   
 40  23  24  1   
 41  24  25  1   
 42  24  41  1   
 43  24  42  1   
 44  25  43  1   
 45  25  44  1   
 46  25  45  1   
@<TRIPOS>SUBSTRUCTURE
  1 ****  11 GROUP 4 **** **** 0

# MOE 2024.06 (io_trps.svl 2023.06)
