@<TRIPOS>MOLECULE
NONAME
37 37 1 0 0 
SMALL
USER_CHARGES


@<TRIPOS>ATOM
  1 F       -1.0670     0.9240    -0.7720 F     1 <1>  -0.3400 
  2 C       -1.8970     0.8280     0.2700 C.3   1 <1>   1.0810 
  3 F       -1.2760     1.4410     1.2750 F     1 <1>  -0.3400 
  4 F       -2.9460     1.5870    -0.0410 F     1 <1>  -0.3400 
  5 C       -2.2750    -0.6550     0.5760 C.2   1 <1>   0.5690 
  6 O       -2.9350    -0.9260     1.5590 O.2   1 <1>  -0.5700 
  7 N       -1.8450    -1.6520    -0.2800 N.am  1 <1>  -0.5470 
  8 C       -2.0280    -3.0380    -0.1650 C.ar  1 <1>   0.1170 
  9 C       -3.2870    -3.6230    -0.3060 C.ar  1 <1>  -0.1440 
 10 C       -0.9240    -3.8560     0.0660 C.ar  1 <1>  -0.1430 
 11 C       -3.4240    -4.9980    -0.2050 C.ar  1 <1>  -0.1500 
 12 C       -4.5350    -2.7890    -0.5730 C.3   1 <1>  -0.0960 
 13 C       -1.0880    -5.2270     0.1580 C.ar  1 <1>  -0.1500 
 14 C        0.4740    -3.2690     0.2340 C.3   1 <1>  -0.0970 
 15 C       -2.3330    -5.8290     0.0270 C.ar  1 <1>  -0.1430 
 16 C       -2.4510    -7.3650     0.1460 C.3   1 <1>   0.1440 
 17 C       -1.9620    -7.8100     1.5320 C.3   1 <1>  -0.2400 
 18 C       -1.5920    -8.0330    -0.9380 C.3   1 <1>  -0.2400 
 19 C       -3.8910    -7.8800    -0.0240 C.3   1 <1>  -0.2400 
 20 H       -1.2240    -1.3720    -1.0410 H     1 <1>   0.3700 
 21 H       -4.4090    -5.4090    -0.3110 H     1 <1>   0.1500 
 22 H       -4.3360    -2.0370    -1.3140 H     1 <1>   0.0800 
 23 H       -4.8530    -2.3110     0.3360 H     1 <1>   0.0800 
 24 H       -5.3400    -3.4040    -0.9320 H     1 <1>   0.0800 
 25 H       -0.2240    -5.8390     0.3390 H     1 <1>   0.1500 
 26 H        0.4750    -2.5510     1.0350 H     1 <1>   0.0800 
 27 H        0.7850    -2.7880    -0.6750 H     1 <1>   0.0800 
 28 H        1.1890    -4.0360     0.4730 H     1 <1>   0.0800 
 29 H       -0.9270    -7.5650     1.6770 H     1 <1>   0.0800 
 30 H       -2.0730    -8.8730     1.6510 H     1 <1>   0.0800 
 31 H       -2.5350    -7.3180     2.2980 H     1 <1>   0.0800 
 32 H       -1.6900    -9.1030    -0.8960 H     1 <1>   0.0800 
 33 H       -0.5530    -7.7890    -0.8160 H     1 <1>   0.0800 
 34 H       -1.9040    -7.6980    -1.9120 H     1 <1>   0.0800 
 35 H       -3.9230    -8.9510     0.0650 H     1 <1>   0.0800 
 36 H       -4.2740    -7.6150    -0.9930 H     1 <1>   0.0800 
 37 H       -4.5320    -7.4640     0.7330 H     1 <1>   0.0800 
@<TRIPOS>BOND
  1   1   2  1   
  2   2   3  1   
  3   2   4  1   
  4   2   5  1   
  5   5   6  2   
  6   5   7  am  
  7   7   8  1   
  8   7  20  1   
  9   8   9  ar  
 10   8  10  ar  
 11   9  11  ar  
 12   9  12  1   
 13  10  13  ar  
 14  10  14  1   
 15  11  15  ar  
 16  11  21  1   
 17  12  22  1   
 18  12  23  1   
 19  12  24  1   
 20  13  15  ar  
 21  13  25  1   
 22  14  26  1   
 23  14  27  1   
 24  14  28  1   
 25  15  16  1   
 26  16  17  1   
 27  16  18  1   
 28  16  19  1   
 29  17  29  1   
 30  17  30  1   
 31  17  31  1   
 32  18  32  1   
 33  18  33  1   
 34  18  34  1   
 35  19  35  1   
 36  19  36  1   
 37  19  37  1   
@<TRIPOS>SUBSTRUCTURE
  1 ****   8 GROUP 4 **** **** 0

# MOE 2024.06 (io_trps.svl 2023.06)
