@<TRIPOS>MOLECULE
NONAME
36 37 1 0 0 
SMALL
USER_CHARGES


@<TRIPOS>ATOM
  1 I       -0.5980     0.2860    -0.5820 I     1 <1>  -0.0810 
  2 C        1.3720     1.0780    -0.4220 C.ar  1 <1>   0.0810 
  3 C        1.5300     2.3870    -0.0070 C.ar  1 <1>  -0.1500 
  4 C        2.4420     0.2630    -0.7370 C.ar  1 <1>  -0.1500 
  5 C        2.8110     2.9060     0.0980 C.ar  1 <1>  -0.1440 
  6 C        3.7200     0.7830    -0.6310 C.ar  1 <1>  -0.1500 
  7 C        3.9100     2.1030    -0.2130 C.ar  1 <1>   0.0830 
  8 C        2.9960     4.3470     0.5530 C.3   1 <1>  -0.0960 
  9 O        5.1440     2.6630    -0.0890 O.3   1 <1>  -0.3630 
 10 C        6.3190     1.9240    -0.3080 C.3   1 <1>   0.1200 
 11 C        7.4980     2.8670    -0.0520 C.3   1 <1>   0.3430 
 12 N        8.8280     2.1980    -0.2290 N.4   1 <1>  -0.9590 
 13 C        9.1180     1.1190     0.7820 C.3   1 <1>   0.3430 
 14 C        9.9580     3.1880    -0.2580 C.3   1 <1>   0.3430 
 15 C       10.5370     0.5330     0.5960 C.3   1 <1>   0.1200 
 16 C       11.3190     2.4810    -0.4710 C.3   1 <1>   0.1200 
 17 O       11.1670     1.0880    -0.5280 O.3   1 <1>  -0.5600 
 18 H        0.6660     2.9830     0.2260 H     1 <1>   0.1500 
 19 H        2.2780    -0.7510    -1.0580 H     1 <1>   0.1500 
 20 H        4.5420     0.1430    -0.8810 H     1 <1>   0.1500 
 21 H        2.0490     4.8180     0.7440 H     1 <1>   0.0800 
 22 H        3.5080     4.9070    -0.2090 H     1 <1>   0.0800 
 23 H        3.5790     4.3730     1.4560 H     1 <1>   0.0800 
 24 H        6.3140     1.5830    -1.3280 H     1 <1>   0.0800 
 25 H        6.3200     1.0970     0.3790 H     1 <1>   0.0800 
 26 H        7.4200     3.2560     0.9500 H     1 <1>   0.0800 
 27 H        7.4200     3.6920    -0.7420 H     1 <1>   0.0800 
 28 H        8.8730     1.7300    -1.1480 H     1 <1>   0.4500 
 29 H        8.3990     0.3220     0.6890 H     1 <1>   0.0800 
 30 H        9.0330     1.5150     1.7810 H     1 <1>   0.0800 
 31 H        9.9920     3.7360     0.6690 H     1 <1>   0.0800 
 32 H        9.8070     3.9010    -1.0520 H     1 <1>   0.0800 
 33 H       10.4840    -0.5320     0.4510 H     1 <1>   0.0800 
 34 H       11.1470     0.7240     1.4620 H     1 <1>   0.0800 
 35 H       12.0030     2.7230     0.3240 H     1 <1>   0.0800 
 36 H       11.7600     2.7990    -1.4000 H     1 <1>   0.0800 
@<TRIPOS>BOND
  1   1   2  1   
  2   2   3  ar  
  3   2   4  ar  
  4   3   5  ar  
  5   3  18  1   
  6   4   6  ar  
  7   4  19  1   
  8   5   7  ar  
  9   5   8  1   
 10   6   7  ar  
 11   6  20  1   
 12   7   9  1   
 13   8  21  1   
 14   8  22  1   
 15   8  23  1   
 16   9  10  1   
 17  10  11  1   
 18  10  24  1   
 19  10  25  1   
 20  11  12  1   
 21  11  26  1   
 22  11  27  1   
 23  12  13  1   
 24  12  14  1   
 25  12  28  1   
 26  13  15  1   
 27  13  29  1   
 28  13  30  1   
 29  14  16  1   
 30  14  31  1   
 31  14  32  1   
 32  15  17  1   
 33  15  33  1   
 34  15  34  1   
 35  16  17  1   
 36  16  35  1   
 37  16  36  1   
@<TRIPOS>SUBSTRUCTURE
  1 ****  10 GROUP 4 **** **** 0

# MOE 2024.06 (io_trps.svl 2023.06)
