@<TRIPOS>MOLECULE
NONAME
50 52 1 0 0 
SMALL
USER_CHARGES


@<TRIPOS>ATOM
  1 S       -0.6380    -0.0440     1.6270 S.o2  1 <1>   1.4470 
  2 O       -1.7800     0.5980     2.2430 O.2   1 <1>  -0.6500 
  3 O        0.2140    -0.8940     2.4250 O.2   1 <1>  -0.6500 
  4 N       -1.2460    -0.9660     0.3490 N.am  1 <1>  -0.8490 
  5 C        0.3780     1.2410     0.8410 C.ar  1 <1>  -0.0090 
  6 C       -0.2590    -1.2290    -0.6830 C.3   1 <1>   0.6490 
  7 C       -2.4840    -0.4660    -0.2500 C.3   1 <1>   0.1960 
  8 C       -0.1960     2.3800     0.2870 C.ar  1 <1>  -0.1500 
  9 C        1.7580     1.0940     0.7380 C.ar  1 <1>  -0.1500 
 10 S       -1.2420    -1.8920    -2.0370 S.3   1 <1>  -0.4600 
 11 C        0.8100    -2.2470    -0.3090 C.ar  1 <1>  -0.1430 
 12 C       -2.8450    -1.3980    -1.4000 C.3   1 <1>   0.0700 
 13 C        0.5780     3.3260    -0.3630 C.ar  1 <1>  -0.1500 
 14 C        2.5390     2.0330     0.0890 C.ar  1 <1>  -0.1500 
 15 C        2.1300    -2.0140    -0.6720 C.ar  1 <1>  -0.1500 
 16 C        0.4980    -3.4030     0.3940 C.ar  1 <1>  -0.1500 
 17 C        1.9480     3.1600    -0.4720 C.ar  1 <1>   0.0830 
 18 C        3.1290    -2.9100    -0.3310 C.ar  1 <1>   0.0830 
 19 C        1.4860    -4.3180     0.7180 C.ar  1 <1>  -0.1500 
 20 O        2.6250     4.1300    -1.1330 O.3   1 <1>  -0.3630 
 21 O        4.3990    -2.5750    -0.6730 O.3   1 <1>  -0.3630 
 22 C        2.7990    -4.0900     0.3450 C.ar  1 <1>   0.0830 
 23 C        4.0320     4.1460    -1.2590 C.3   1 <1>   0.1200 
 24 C        5.3280    -2.4480     0.3820 C.3   1 <1>   0.0400 
 25 O        3.7120    -5.0430     0.6480 O.3   1 <1>  -0.3630 
 26 C        4.6520     4.6740     0.0360 C.3   1 <1>  -0.2400 
 27 C        4.2430    -5.7560    -0.4470 C.3   1 <1>   0.0400 
 28 H        0.1770    -0.3220    -1.0640 H     1 <1>   0.0800 
 29 H       -2.3380     0.5330    -0.6260 H     1 <1>   0.0800 
 30 H       -3.2790    -0.4510     0.4790 H     1 <1>   0.0800 
 31 H       -1.2580     2.5340     0.3680 H     1 <1>   0.1500 
 32 H        2.2300     0.2270     1.1730 H     1 <1>   0.1500 
 33 H       -3.4060    -0.9160    -2.1800 H     1 <1>   0.0800 
 34 H       -3.3440    -2.2850    -1.0520 H     1 <1>   0.0800 
 35 H        0.1250     4.2040    -0.7880 H     1 <1>   0.1500 
 36 H        3.5990     1.8720     0.0340 H     1 <1>   0.1500 
 37 H        2.4040    -1.1310    -1.2200 H     1 <1>   0.1500 
 38 H       -0.5200    -3.5910     0.6910 H     1 <1>   0.1500 
 39 H        1.2390    -5.2130     1.2580 H     1 <1>   0.1500 
 40 H        4.2680     4.8100    -2.0720 H     1 <1>   0.0800 
 41 H        4.3810     3.1610    -1.5120 H     1 <1>   0.0800 
 42 H        6.2120    -1.9740    -0.0040 H     1 <1>   0.0800 
 43 H        5.5740    -3.4220     0.7610 H     1 <1>   0.0800 
 44 H        4.8940    -1.8440     1.1590 H     1 <1>   0.0800 
 45 H        4.2820     5.6630     0.2420 H     1 <1>   0.0800 
 46 H        5.7210     4.7270    -0.0700 H     1 <1>   0.0800 
 47 H        4.4240     4.0290     0.8640 H     1 <1>   0.0800 
 48 H        4.9010    -6.5160    -0.0680 H     1 <1>   0.0800 
 49 H        4.7870    -5.0800    -1.0810 H     1 <1>   0.0800 
 50 H        3.4320    -6.2070    -0.9920 H     1 <1>   0.0800 
@<TRIPOS>BOND
  1   1   2  2   
  2   1   3  2   
  3   1   4  am  
  4   1   5  1   
  5   4   6  1   
  6   4   7  1   
  7   5   8  ar  
  8   5   9  ar  
  9   6  10  1   
 10   6  11  1   
 11   6  28  1   
 12   7  12  1   
 13   7  29  1   
 14   7  30  1   
 15   8  13  ar  
 16   8  31  1   
 17   9  14  ar  
 18   9  32  1   
 19  10  12  1   
 20  11  15  ar  
 21  11  16  ar  
 22  12  33  1   
 23  12  34  1   
 24  13  17  ar  
 25  13  35  1   
 26  14  17  ar  
 27  14  36  1   
 28  15  18  ar  
 29  15  37  1   
 30  16  19  ar  
 31  16  38  1   
 32  17  20  1   
 33  18  21  1   
 34  18  22  ar  
 35  19  22  ar  
 36  19  39  1   
 37  20  23  1   
 38  21  24  1   
 39  22  25  1   
 40  23  26  1   
 41  23  40  1   
 42  23  41  1   
 43  24  42  1   
 44  24  43  1   
 45  24  44  1   
 46  25  27  1   
 47  26  45  1   
 48  26  46  1   
 49  26  47  1   
 50  27  48  1   
 51  27  49  1   
 52  27  50  1   
@<TRIPOS>SUBSTRUCTURE
  1 ****  15 GROUP 4 **** **** 0

# MOE 2024.06 (io_trps.svl 2023.06)
