@<TRIPOS>MOLECULE
NONAME
34 34 1 0 0 
SMALL
USER_CHARGES


@<TRIPOS>ATOM
  1 BR      -1.8770     1.1990    -2.1190 Br    1 <1>  -0.1110 
  2 C       -0.8590     2.4360    -1.0520 C.ar  1 <1>   0.1110 
  3 C        0.2880     2.9860    -1.5900 C.ar  1 <1>  -0.1500 
  4 C       -1.3020     2.7410     0.2190 C.ar  1 <1>  -0.1500 
  5 C        1.0240     3.8780    -0.8220 C.ar  1 <1>  -0.1440 
  6 C       -0.5660     3.6300     0.9830 C.ar  1 <1>  -0.1500 
  7 C        0.5990     4.2010     0.4670 C.ar  1 <1>   0.0830 
  8 C        2.2820     4.5030    -1.3860 C.3   1 <1>   0.4870 
  9 O        1.3690     5.0720     1.1760 O.3   1 <1>  -0.3630 
 10 N        3.4030     4.0690    -0.5310 N.4   1 <1>  -0.9060 
 11 C        0.9050     5.6310     2.3900 C.3   1 <1>   0.0400 
 12 C        4.6970     4.6960    -0.8660 C.3   1 <1>   0.3430 
 13 C        5.7490     4.2140     0.1290 C.3   1 <1>  -0.1600 
 14 C        7.1150     4.8420    -0.1720 C.3   1 <1>  -0.1600 
 15 C        8.1710     4.3600     0.8260 C.3   1 <1>  -0.2400 
 16 H        0.5780     2.7120    -2.5890 H     1 <1>   0.1500 
 17 H       -2.2030     2.2910     0.6000 H     1 <1>   0.1500 
 18 H       -0.9170     3.8590     1.9730 H     1 <1>   0.1500 
 19 H        2.1880     5.5770    -1.3610 H     1 <1>   0.0800 
 20 H        2.4370     4.1860    -2.4040 H     1 <1>   0.0800 
 21 H        3.4620     3.0460    -0.5470 H     1 <1>   0.4500 
 22 H        3.1140     4.3250     0.4280 H     1 <1>   0.4500 
 23 H        1.6220     6.3590     2.7260 H     1 <1>   0.0800 
 24 H        0.8090     4.8520     3.1260 H     1 <1>   0.0800 
 25 H       -0.0430     6.1120     2.2180 H     1 <1>   0.0800 
 26 H        4.6150     5.7700    -0.8100 H     1 <1>   0.0800 
 27 H        4.9950     4.4250    -1.8660 H     1 <1>   0.0800 
 28 H        5.8400     3.1420     0.0730 H     1 <1>   0.0800 
 29 H        5.4550     4.4860     1.1290 H     1 <1>   0.0800 
 30 H        7.0500     5.9170    -0.1160 H     1 <1>   0.0800 
 31 H        7.4330     4.5790    -1.1680 H     1 <1>   0.0800 
 32 H        7.9000     4.6330     1.8310 H     1 <1>   0.0800 
 33 H        9.1230     4.8100     0.6000 H     1 <1>   0.0800 
 34 H        8.2840     3.2910     0.7760 H     1 <1>   0.0800 
@<TRIPOS>BOND
  1   1   2  1   
  2   2   3  ar  
  3   2   4  ar  
  4   3   5  ar  
  5   3  16  1   
  6   4   6  ar  
  7   4  17  1   
  8   5   7  ar  
  9   5   8  1   
 10   6   7  ar  
 11   6  18  1   
 12   7   9  1   
 13   8  10  1   
 14   8  19  1   
 15   8  20  1   
 16   9  11  1   
 17  10  12  1   
 18  10  21  1   
 19  10  22  1   
 20  11  23  1   
 21  11  24  1   
 22  11  25  1   
 23  12  13  1   
 24  12  26  1   
 25  12  27  1   
 26  13  14  1   
 27  13  28  1   
 28  13  29  1   
 29  14  15  1   
 30  14  30  1   
 31  14  31  1   
 32  15  32  1   
 33  15  33  1   
 34  15  34  1   
@<TRIPOS>SUBSTRUCTURE
  1 ****   5 GROUP 4 **** **** 0

# MOE 2024.06 (io_trps.svl 2023.06)
