@<TRIPOS>MOLECULE
NONAME
38 38 1 0 0 
SMALL
USER_CHARGES


@<TRIPOS>ATOM
  1 O       -0.2600    -0.1270     0.9370 O.2   1 <1>  -0.5700 
  2 C       -0.1220     1.0580     1.1120 C.2   1 <1>   0.5690 
  3 N        1.0930     1.6630     1.2630 N.am  1 <1>  -0.5470 
  4 C       -1.3640     1.9300     1.1990 C.3   1 <1>  -0.0990 
  5 C        2.4030     1.1450     1.3520 C.ar  1 <1>   0.1170 
  6 C       -1.8020     2.6100    -0.1190 C.3   1 <1>   0.0000 
  7 C        3.4910     2.0030     1.1290 C.ar  1 <1>   0.1170 
  8 C        2.6590    -0.1820     1.6790 C.ar  1 <1>  -0.1500 
  9 C       -3.0940     3.3980     0.1430 C.3   1 <1>  -0.2400 
 10 C       -0.7350     3.5900    -0.6300 C.3   1 <1>  -0.2400 
 11 C       -2.0810     1.5620    -1.2070 C.3   1 <1>  -0.2400 
 12 N        3.2930     3.3500     0.7840 N.am  1 <1>  -0.5470 
 13 C        4.7870     1.5220     1.2440 C.ar  1 <1>  -0.1500 
 14 C        3.9560    -0.6540     1.7850 C.ar  1 <1>  -0.1500 
 15 C        2.9860     3.8620    -0.4320 C.2   1 <1>   0.5690 
 16 C        5.0230     0.1990     1.5690 C.ar  1 <1>  -0.1500 
 17 O        2.7190     5.0290    -0.5430 O.2   1 <1>  -0.5700 
 18 C        2.9730     2.9730    -1.6540 C.3   1 <1>  -0.1790 
 19 H        1.0620     2.6820     1.2500 H     1 <1>   0.3700 
 20 H       -1.2020     2.6770     1.9530 H     1 <1>   0.0800 
 21 H       -2.1660     1.3050     1.5490 H     1 <1>   0.0800 
 22 H        1.8460    -0.8610     1.8590 H     1 <1>   0.1500 
 23 H       -2.9330     4.1550     0.8900 H     1 <1>   0.0800 
 24 H       -3.8750     2.7420     0.4860 H     1 <1>   0.0800 
 25 H       -3.4340     3.8800    -0.7570 H     1 <1>   0.0800 
 26 H       -0.4790     4.3120     0.1250 H     1 <1>   0.0800 
 27 H       -1.0970     4.1230    -1.4920 H     1 <1>   0.0800 
 28 H        0.1540     3.0650    -0.9250 H     1 <1>   0.0800 
 29 H       -2.8210     0.8570    -0.8710 H     1 <1>   0.0800 
 30 H       -1.1870     1.0150    -1.4530 H     1 <1>   0.0800 
 31 H       -2.4420     2.0320    -2.1040 H     1 <1>   0.0800 
 32 H        3.4100     4.0510     1.5170 H     1 <1>   0.3700 
 33 H        5.6170     2.1850     1.0740 H     1 <1>   0.1500 
 34 H        4.1320    -1.6860     2.0370 H     1 <1>   0.1500 
 35 H        6.0320    -0.1680     1.6530 H     1 <1>   0.1500 
 36 H        3.9710     2.6380    -1.8640 H     1 <1>   0.0800 
 37 H        2.6030     3.5220    -2.5000 H     1 <1>   0.0800 
 38 H        2.3430     2.1200    -1.4890 H     1 <1>   0.0800 
@<TRIPOS>BOND
  1   1   2  2   
  2   2   3  am  
  3   2   4  1   
  4   3   5  1   
  5   3  19  1   
  6   4   6  1   
  7   4  20  1   
  8   4  21  1   
  9   5   7  ar  
 10   5   8  ar  
 11   6   9  1   
 12   6  10  1   
 13   6  11  1   
 14   7  12  1   
 15   7  13  ar  
 16   8  14  ar  
 17   8  22  1   
 18   9  23  1   
 19   9  24  1   
 20   9  25  1   
 21  10  26  1   
 22  10  27  1   
 23  10  28  1   
 24  11  29  1   
 25  11  30  1   
 26  11  31  1   
 27  12  15  am  
 28  12  32  1   
 29  13  16  ar  
 30  13  33  1   
 31  14  16  ar  
 32  14  34  1   
 33  15  17  2   
 34  15  18  1   
 35  16  35  1   
 36  18  36  1   
 37  18  37  1   
 38  18  38  1   
@<TRIPOS>SUBSTRUCTURE
  1 ****   3 GROUP 4 **** **** 0

# MOE 2024.06 (io_trps.svl 2023.06)
