@<TRIPOS>MOLECULE
Structure2250
31 32 1 0 0 
SMALL
USER_CHARGES


@<TRIPOS>ATOM
  1 N        0.1960     0.2360     0.1000 N.4   1 <1>  -0.9060 
  2 C        0.7260     0.7260    -1.2030 C.3   1 <1>   0.3430 
  3 C        0.8840    -0.9930     0.5870 C.3   1 <1>   0.3430 
  4 C        2.2090     1.0590    -1.0570 C.3   1 <1>  -0.1600 
  5 C        2.3770    -0.7170     0.7600 C.3   1 <1>  -0.1600 
  6 C        2.9950    -0.1510    -0.5270 C.3   1 <1>   0.0630 
  7 C        4.5070     0.0780    -0.3920 C.ar  1 <1>  -0.1430 
  8 C        5.1270     1.1110     0.3230 C.ar  1 <1>  -0.1430 
  9 C        5.3150    -0.8470    -1.0470 C.ar  1 <1>  -0.1500 
 10 C        6.5130     1.1860     0.3480 C.ar  1 <1>  -0.1500 
 11 C        4.4080     2.2090     1.0990 C.3   1 <1>  -0.0970 
 12 C        6.6930    -0.7630    -1.0110 C.ar  1 <1>  -0.1500 
 13 C        7.2960     0.2600    -0.3110 C.ar  1 <1>  -0.1500 
 14 H       -0.8140     0.0580     0.0180 H     1 <1>   0.4500 
 15 H        0.3100     0.9780     0.8030 H     1 <1>   0.4500 
 16 H        0.1870     1.6060    -1.5180 H     1 <1>   0.0800 
 17 H        0.6010    -0.0350    -1.9580 H     1 <1>   0.0800 
 18 H        0.7490    -1.7900    -0.1270 H     1 <1>   0.0800 
 19 H        0.4630    -1.3080     1.5290 H     1 <1>   0.0800 
 20 H        2.3030     1.9090    -0.4120 H     1 <1>   0.0800 
 21 H        2.6060     1.3410    -2.0170 H     1 <1>   0.0800 
 22 H        2.8750    -1.6380     1.0090 H     1 <1>   0.0800 
 23 H        2.5220    -0.0530     1.5890 H     1 <1>   0.0800 
 24 H        2.8620    -0.9170    -1.2740 H     1 <1>   0.0800 
 25 H        4.8860    -1.6610    -1.6040 H     1 <1>   0.1500 
 26 H        7.0050     1.9780     0.8860 H     1 <1>   0.1500 
 27 H        3.5040     1.8620     1.5530 H     1 <1>   0.0800 
 28 H        4.1870     3.0310     0.4420 H     1 <1>   0.0800 
 29 H        5.0350     2.5800     1.8910 H     1 <1>   0.0800 
 30 H        7.2960    -1.4900    -1.5270 H     1 <1>   0.1500 
 31 H        8.3690     0.3350    -0.2790 H     1 <1>   0.1500 
@<TRIPOS>BOND
  1   1   2  1   
  2   1   3  1   
  3   1  14  1   
  4   1  15  1   
  5   2   4  1   
  6   2  16  1   
  7   2  17  1   
  8   3   5  1   
  9   3  18  1   
 10   3  19  1   
 11   4   6  1   
 12   4  20  1   
 13   4  21  1   
 14   5   6  1   
 15   5  22  1   
 16   5  23  1   
 17   6   7  1   
 18   6  24  1   
 19   7   8  ar  
 20   7   9  ar  
 21   8  10  ar  
 22   8  11  1   
 23   9  12  ar  
 24   9  25  1   
 25  10  13  ar  
 26  10  26  1   
 27  11  27  1   
 28  11  28  1   
 29  11  29  1   
 30  12  13  ar  
 31  12  30  1   
 32  13  31  1   
@<TRIPOS>SUBSTRUCTURE
  1 ****   7 GROUP 4 **** **** 0

# MOE 2024.06 (io_trps.svl 2023.06)
