@<TRIPOS>MOLECULE
NONAME
47 50 1 0 0 
SMALL
USER_CHARGES


@<TRIPOS>ATOM
  1 S       -1.5030    -0.4940     0.4860 S.3   1 <1>  -0.0800 
  2 C       -1.6970    -0.9470    -1.2000 C.2   1 <1>  -0.0360 
  3 C        0.0540    -1.2920     0.5770 C.2   1 <1>  -0.1400 
  4 N       -2.8740    -0.5430    -1.8650 N.pl3 1 <1>   0.6460 
  5 C       -0.6190    -1.6490    -1.6350 C.2   1 <1>   0.0190 
  6 C        0.3690    -1.8630    -0.6040 C.2   1 <1>  -0.1810 
  7 C        0.7740    -1.2010     1.9110 C.3   1 <1>   0.0200 
  8 N       -2.8280     0.0660    -3.0530 N.2   1 <1>  -0.7070 
  9 C       -4.1720    -0.5770    -1.4610 C.2   1 <1>   0.1330 
 10 C       -0.4670    -2.1510    -2.9710 C.1   1 <1>   0.5380 
 11 C        1.6370    -2.6770    -0.8650 C.3   1 <1>   0.0210 
 12 C        2.2960    -1.2240     1.7260 C.3   1 <1>  -0.1600 
 13 C       -4.0600     0.3640    -3.2730 C.2   1 <1>   0.3660 
 14 N       -4.9340     0.0100    -2.3310 N.2   1 <1>  -0.5650 
 15 C       -4.6430    -1.1740    -0.2340 C.ar  1 <1>   0.0530 
 16 N       -0.3120    -2.6020    -4.0080 N.1   1 <1>  -0.5570 
 17 C        2.1010    -3.4480     0.3800 C.3   1 <1>  -0.1600 
 18 C        2.8800    -2.6100     1.4090 C.3   1 <1>  -0.1600 
 19 C       -4.3760    -2.5060     0.1110 C.ar  1 <1>   0.0830 
 20 C       -5.3920    -0.3970     0.6500 C.ar  1 <1>  -0.1500 
 21 O       -3.6270    -3.2420    -0.7590 O.3   1 <1>  -0.3630 
 22 C       -4.8860    -3.0290     1.3080 C.ar  1 <1>   0.0830 
 23 C       -5.8590    -0.9060     1.8460 C.ar  1 <1>  -0.1500 
 24 C       -2.6020    -4.0850    -0.2690 C.3   1 <1>   0.0400 
 25 O       -4.7320    -4.3250     1.6660 O.3   1 <1>  -0.3630 
 26 C       -5.6030    -2.2240     2.1760 C.ar  1 <1>  -0.1500 
 27 C       -5.6360    -5.2230     1.0600 C.3   1 <1>   0.0400 
 28 H        0.4530    -1.9950     2.5620 H     1 <1>   0.0800 
 29 H        0.5080    -0.2670     2.3760 H     1 <1>   0.0800 
 30 H        2.4210    -2.0350    -1.2280 H     1 <1>   0.0800 
 31 H        1.4410    -3.4100    -1.6270 H     1 <1>   0.0800 
 32 H        2.7600    -0.8610     2.6270 H     1 <1>   0.0800 
 33 H        2.5560    -0.5350     0.9400 H     1 <1>   0.0800 
 34 H       -4.3920     0.8760    -4.1640 H     1 <1>   0.1500 
 35 H        2.7360    -4.2580     0.0660 H     1 <1>   0.0800 
 36 H        1.2410    -3.8920     0.8530 H     1 <1>   0.0800 
 37 H        2.9420    -3.1780     2.3220 H     1 <1>   0.0800 
 38 H        3.8880    -2.4740     1.0550 H     1 <1>   0.0800 
 39 H       -5.6070     0.6240     0.3870 H     1 <1>   0.1500 
 40 H       -6.4250    -0.2830     2.5160 H     1 <1>   0.1500 
 41 H       -1.8910    -4.2430    -1.0580 H     1 <1>   0.0800 
 42 H       -3.0280    -5.0270     0.0220 H     1 <1>   0.0800 
 43 H       -2.1230    -3.6110     0.5700 H     1 <1>   0.0800 
 44 H       -5.9670    -2.6340     3.1010 H     1 <1>   0.1500 
 45 H       -5.4100    -6.2150     1.4060 H     1 <1>   0.0800 
 46 H       -5.5210    -5.1680    -0.0090 H     1 <1>   0.0800 
 47 H       -6.6370    -4.9510     1.3420 H     1 <1>   0.0800 
@<TRIPOS>BOND
  1   1   2  1   
  2   1   3  1   
  3   2   4  1   
  4   2   5  2   
  5   3   6  2   
  6   3   7  1   
  7   4   8  1   
  8   4   9  1   
  9   5   6  1   
 10   5  10  1   
 11   6  11  1   
 12   7  12  1   
 13   7  28  1   
 14   7  29  1   
 15   8  13  2   
 16   9  14  2   
 17   9  15  1   
 18  10  16  3   
 19  11  17  1   
 20  11  30  1   
 21  11  31  1   
 22  12  18  1   
 23  12  32  1   
 24  12  33  1   
 25  13  14  1   
 26  13  34  1   
 27  15  19  ar  
 28  15  20  ar  
 29  17  18  1   
 30  17  35  1   
 31  17  36  1   
 32  18  37  1   
 33  18  38  1   
 34  19  21  1   
 35  19  22  ar  
 36  20  23  ar  
 37  20  39  1   
 38  21  24  1   
 39  22  25  1   
 40  22  26  ar  
 41  23  26  ar  
 42  23  40  1   
 43  24  41  1   
 44  24  42  1   
 45  24  43  1   
 46  25  27  1   
 47  26  44  1   
 48  27  45  1   
 49  27  46  1   
 50  27  47  1   
@<TRIPOS>SUBSTRUCTURE
  1 ****   2 GROUP 4 **** **** 0

# MOE 2024.06 (io_trps.svl 2023.06)
