@<TRIPOS>MOLECULE
NONAME
43 44 1 0 0 
SMALL
USER_CHARGES


@<TRIPOS>ATOM
  1 CL      -2.2430    -1.7500    -2.7740 Cl    1 <1>  -0.1770 
  2 C       -2.2160    -2.2600    -1.0980 C.ar  1 <1>   0.1770 
  3 C       -1.0120    -2.6380    -0.5060 C.ar  1 <1>   0.1990 
  4 C       -3.4040    -2.2750    -0.3960 C.ar  1 <1>  -0.1500 
  5 N        0.1950    -2.6210    -1.2060 N.am  1 <1>  -0.6930 
  6 C       -1.0410    -3.0370     0.8260 C.ar  1 <1>  -0.1500 
  7 C       -3.4070    -2.6750     0.9300 C.ar  1 <1>  -0.1500 
  8 S        0.8970    -4.0910    -1.7890 S.o2  1 <1>   1.3330 
  9 C        1.1220    -1.4720    -0.9560 C.3   1 <1>   0.2570 
 10 C       -2.2260    -3.0620     1.5570 C.ar  1 <1>  -0.1440 
 11 O        0.6260    -5.1150    -0.8130 O.2   1 <1>  -0.6500 
 12 O        2.2570    -3.7860    -2.1680 O.2   1 <1>  -0.6500 
 13 C       -0.0470    -4.4020    -3.2650 C.3   1 <1>  -0.1350 
 14 C        1.9870    -1.6490     0.2950 C.2   1 <1>   0.5690 
 15 C       -2.2520    -3.5030     3.0310 C.3   1 <1>   1.1640 
 16 O        1.7200    -1.0110     1.2860 O.2   1 <1>  -0.5700 
 17 N        3.0120    -2.5380     0.2660 N.am  1 <1>  -0.7300 
 18 F       -3.1790    -4.4260     3.2550 F     1 <1>  -0.3400 
 19 F       -1.1050    -4.0180     3.4570 F     1 <1>  -0.3400 
 20 F       -2.5340    -2.4920     3.8430 F     1 <1>  -0.3400 
 21 C        3.8070    -2.9780     1.4190 C.3   1 <1>   0.2200 
 22 C        5.2480    -3.1710     0.9680 C.3   1 <1>  -0.1600 
 23 C        3.3660    -4.3870     1.7950 C.3   1 <1>  -0.1600 
 24 C        5.2830    -4.5370     0.2710 C.3   1 <1>  -0.1600 
 25 C        4.0800    -5.3220     0.8120 C.3   1 <1>  -0.1600 
 26 H       -4.3160    -1.9750    -0.8820 H     1 <1>   0.1500 
 27 H       -0.1110    -3.3320     1.2850 H     1 <1>   0.1500 
 28 H       -4.3390    -2.6830     1.4740 H     1 <1>   0.1500 
 29 H        0.5410    -0.5740    -0.8360 H     1 <1>   0.0800 
 30 H        1.7630    -1.3320    -1.8070 H     1 <1>   0.0800 
 31 H        0.0430    -3.5760    -3.9440 H     1 <1>   0.0800 
 32 H       -1.0820    -4.5380    -3.0210 H     1 <1>   0.0800 
 33 H        0.3110    -5.2880    -3.7500 H     1 <1>   0.0800 
 34 H        3.1460    -3.1170    -0.5750 H     1 <1>   0.3700 
 35 H        3.7140    -2.2820     2.2370 H     1 <1>   0.0800 
 36 H        5.8760    -3.2090     1.8410 H     1 <1>   0.0800 
 37 H        5.5880    -2.3710     0.3340 H     1 <1>   0.0800 
 38 H        2.2960    -4.5010     1.7680 H     1 <1>   0.0800 
 39 H        3.7090    -4.5980     2.7920 H     1 <1>   0.0800 
 40 H        6.2090    -5.0480     0.4680 H     1 <1>   0.0800 
 41 H        5.1760    -4.4070    -0.7930 H     1 <1>   0.0800 
 42 H        3.4170    -5.5730     0.0010 H     1 <1>   0.0800 
 43 H        4.3870    -6.2310     1.3000 H     1 <1>   0.0800 
@<TRIPOS>BOND
  1   1   2  1   
  2   2   3  ar  
  3   2   4  ar  
  4   3   5  1   
  5   3   6  ar  
  6   4   7  ar  
  7   4  26  1   
  8   5   8  am  
  9   5   9  1   
 10   6  10  ar  
 11   6  27  1   
 12   7  10  ar  
 13   7  28  1   
 14   8  11  2   
 15   8  12  2   
 16   8  13  1   
 17   9  14  1   
 18   9  29  1   
 19   9  30  1   
 20  10  15  1   
 21  13  31  1   
 22  13  32  1   
 23  13  33  1   
 24  14  16  2   
 25  14  17  am  
 26  15  18  1   
 27  15  19  1   
 28  15  20  1   
 29  17  21  1   
 30  17  34  1   
 31  21  22  1   
 32  21  23  1   
 33  21  35  1   
 34  22  24  1   
 35  22  36  1   
 36  22  37  1   
 37  23  25  1   
 38  23  38  1   
 39  23  39  1   
 40  24  25  1   
 41  24  40  1   
 42  24  41  1   
 43  25  42  1   
 44  25  43  1   
@<TRIPOS>SUBSTRUCTURE
  1 ****   6 GROUP 4 **** **** 0

# MOE 2024.06 (io_trps.svl 2023.06)
