@<TRIPOS>MOLECULE
NONAME
38 39 1 0 0 
SMALL
USER_CHARGES


@<TRIPOS>ATOM
  1 O       -0.1320     0.7300    -1.5420 O.2   1 <1>  -0.5700 
  2 C       -0.0380     1.6710    -0.7780 C.2   1 <1>   0.5440 
  3 N       -1.1470     2.0530    -0.0530 N.am  1 <1>  -0.6600 
  4 C        1.2350     2.3490    -0.6470 C.ar  1 <1>   0.0860 
  5 C       -2.5000     1.4810    -0.3210 C.3   1 <1>   0.1400 
  6 C       -1.1160     2.9330     1.1530 C.3   1 <1>   0.1400 
  7 C        2.3760     1.6490    -0.2630 C.ar  1 <1>  -0.1500 
  8 C        1.3650     3.7130    -0.9040 C.ar  1 <1>  -0.1500 
  9 C       -3.5700     2.5840    -0.2830 C.3   1 <1>   0.1200 
 10 C       -2.2590     3.9600     1.0980 C.3   1 <1>   0.1200 
 11 C        3.6050     2.2820    -0.1180 C.ar  1 <1>   0.0830 
 12 C        2.5780     4.3610    -0.7640 C.ar  1 <1>  -0.1500 
 13 O       -3.4890     3.3210     0.9070 O.3   1 <1>  -0.5600 
 14 O        4.7310     1.6120     0.2600 O.3   1 <1>  -0.3630 
 15 C        3.7090     3.6540    -0.3650 C.ar  1 <1>   0.0830 
 16 C        4.7680     0.2060     0.3230 C.3   1 <1>   0.1200 
 17 O        4.9230     4.2470    -0.2100 O.3   1 <1>  -0.3630 
 18 C        6.1980    -0.2120     0.6510 C.3   1 <1>  -0.2400 
 19 C        5.1420     5.6090    -0.5010 C.3   1 <1>   0.0400 
 20 H       -2.7250     0.7380     0.4230 H     1 <1>   0.0800 
 21 H       -2.5220     1.0020    -1.2850 H     1 <1>   0.0800 
 22 H       -0.1750     3.4450     1.2380 H     1 <1>   0.0800 
 23 H       -1.2380     2.3250     2.0320 H     1 <1>   0.0800 
 24 H        2.2650     0.5970    -0.0840 H     1 <1>   0.1500 
 25 H        0.4970     4.2650    -1.2210 H     1 <1>   0.1500 
 26 H       -4.5520     2.1490    -0.3330 H     1 <1>   0.0800 
 27 H       -3.4470     3.2570    -1.1140 H     1 <1>   0.0800 
 28 H       -2.1040     4.6590     0.2940 H     1 <1>   0.0800 
 29 H       -2.3130     4.5050     2.0240 H     1 <1>   0.0800 
 30 H        2.6250     5.4130    -0.9710 H     1 <1>   0.1500 
 31 H        4.4670    -0.1870    -0.6330 H     1 <1>   0.0800 
 32 H        4.0910    -0.1200     1.0940 H     1 <1>   0.0800 
 33 H        6.8670     0.1350    -0.1160 H     1 <1>   0.0800 
 34 H        6.2620    -1.2830     0.7060 H     1 <1>   0.0800 
 35 H        6.4940     0.2010     1.5990 H     1 <1>   0.0800 
 36 H        6.1800     5.8240    -0.3210 H     1 <1>   0.0800 
 37 H        4.5280     6.2070     0.1480 H     1 <1>   0.0800 
 38 H        4.9060     5.7870    -1.5350 H     1 <1>   0.0800 
@<TRIPOS>BOND
  1   1   2  2   
  2   2   3  am  
  3   2   4  1   
  4   3   5  1   
  5   3   6  1   
  6   4   7  ar  
  7   4   8  ar  
  8   5   9  1   
  9   5  20  1   
 10   5  21  1   
 11   6  10  1   
 12   6  22  1   
 13   6  23  1   
 14   7  11  ar  
 15   7  24  1   
 16   8  12  ar  
 17   8  25  1   
 18   9  13  1   
 19   9  26  1   
 20   9  27  1   
 21  10  13  1   
 22  10  28  1   
 23  10  29  1   
 24  11  14  1   
 25  11  15  ar  
 26  12  15  ar  
 27  12  30  1   
 28  14  16  1   
 29  15  17  1   
 30  16  18  1   
 31  16  31  1   
 32  16  32  1   
 33  17  19  1   
 34  18  33  1   
 35  18  34  1   
 36  18  35  1   
 37  19  36  1   
 38  19  37  1   
 39  19  38  1   
@<TRIPOS>SUBSTRUCTURE
  1 ****   4 GROUP 4 **** **** 0

# MOE 2024.06 (io_trps.svl 2023.06)
