@<TRIPOS>MOLECULE
NONAME
36 38 1 0 0 
SMALL
USER_CHARGES


@<TRIPOS>ATOM
  1 O        0.3430     0.4840     1.1700 O.2   1 <1>  -0.5700 
  2 C        0.5730     1.6380     0.9110 C.2   1 <1>   0.5690 
  3 N       -0.3470     2.6240     0.6700 N.am  1 <1>  -0.2370 
  4 C        1.9920     2.1630     0.8270 C.3   1 <1>  -0.0190 
  5 C       -1.7490     2.4390     0.6270 C.ar  1 <1>   0.1170 
  6 C        0.2920     3.8170     0.4510 C.2   1 <1>   0.5690 
  7 C        1.7980     3.6630     0.5030 C.3   1 <1>  -0.0190 
  8 C        2.8530     1.3500    -0.1600 C.3   1 <1>  -0.0220 
  9 C       -2.6030     3.2980     1.3120 C.ar  1 <1>  -0.1500 
 10 C       -2.3100     1.3970    -0.1060 C.ar  1 <1>  -0.1500 
 11 O       -0.2280     4.8850     0.2510 O.2   1 <1>  -0.5700 
 12 C        2.4760     4.1840    -0.7790 C.3   1 <1>  -0.0220 
 13 C        3.9730     2.1960    -0.7310 C.2   1 <1>  -0.2880 
 14 C       -3.9750     3.1270     1.2540 C.ar  1 <1>  -0.1500 
 15 C       -3.6810     1.2250    -0.1680 C.ar  1 <1>  -0.1500 
 16 C        3.8010     3.4870    -1.0130 C.2   1 <1>  -0.2880 
 17 C       -4.5250     2.0980     0.5090 C.ar  1 <1>   0.0820 
 18 O       -5.8810     2.0200     0.4900 O.3   1 <1>  -0.3630 
 19 C       -6.5810     1.2230    -0.4710 C.3   1 <1>   0.0140 
 20 C       -6.6870    -0.2610    -0.1340 C.2   1 <1>   0.9060 
 21 O       -7.4780    -0.6330     0.7420 O.co2 1 <1>  -0.9000 
 22 O       -6.0380    -1.0680    -0.8130 O.co2 1 <1>  -0.9000 
 23 H        2.4340     2.0820     1.8030 H     1 <1>   0.0800 
 24 H        2.1640     4.2400     1.3340 H     1 <1>   0.0800 
 25 H        2.2520     0.9860    -0.9760 H     1 <1>   0.0800 
 26 H        3.2600     0.4950     0.3530 H     1 <1>   0.0800 
 27 H       -2.1980     4.1100     1.8890 H     1 <1>   0.1500 
 28 H       -1.6760     0.7060    -0.6310 H     1 <1>   0.1500 
 29 H        2.6270     5.2460    -0.6880 H     1 <1>   0.0800 
 30 H        1.8470     4.0150    -1.6370 H     1 <1>   0.0800 
 31 H        4.8920     1.6600    -0.9050 H     1 <1>   0.1500 
 32 H       -4.6330     3.7920     1.7820 H     1 <1>   0.1500 
 33 H       -4.0760     0.4030    -0.7370 H     1 <1>   0.1500 
 34 H        4.5650     4.1160    -1.4420 H     1 <1>   0.1500 
 35 H       -6.1090     1.3400    -1.4270 H     1 <1>   0.0800 
 36 H       -7.5790     1.6090    -0.5300 H     1 <1>   0.0800 
@<TRIPOS>BOND
  1   1   2  2   
  2   2   3  am  
  3   2   4  1   
  4   3   5  1   
  5   3   6  am  
  6   4   7  1   
  7   4   8  1   
  8   4  23  1   
  9   5   9  ar  
 10   5  10  ar  
 11   6   7  1   
 12   6  11  2   
 13   7  12  1   
 14   7  24  1   
 15   8  13  1   
 16   8  25  1   
 17   8  26  1   
 18   9  14  ar  
 19   9  27  1   
 20  10  15  ar  
 21  10  28  1   
 22  12  16  1   
 23  12  29  1   
 24  12  30  1   
 25  13  16  2   
 26  13  31  1   
 27  14  17  ar  
 28  14  32  1   
 29  15  17  ar  
 30  15  33  1   
 31  16  34  1   
 32  17  18  1   
 33  18  19  1   
 34  19  20  1   
 35  19  35  1   
 36  19  36  1   
 37  20  21  ar  
 38  20  22  ar  
@<TRIPOS>SUBSTRUCTURE
  1 ****   5 GROUP 4 **** **** 0

# MOE 2024.06 (io_trps.svl 2023.06)
