@<TRIPOS>MOLECULE
NONAME
35 36 1 0 0 
SMALL
USER_CHARGES


@<TRIPOS>ATOM
  1 O       -0.7660     0.4060    -2.3780 O.2   1 <1>  -0.5700 
  2 C       -0.3230     1.3970    -1.8420 C.2   1 <1>   0.5690 
  3 N       -1.1310     2.2540    -1.1250 N.am  1 <1>  -0.6600 
  4 C        1.1710     1.6530    -2.0290 C.3   1 <1>   0.0440 
  5 C       -0.6360     3.4590    -0.4010 C.3   1 <1>   0.1400 
  6 C       -2.5950     1.9980    -1.0160 C.3   1 <1>   0.1400 
  7 C        1.9840     1.5110    -0.7450 C.ar  1 <1>  -0.1440 
  8 C       -0.4320     3.1300     1.0820 C.3   1 <1>  -0.1600 
  9 C       -3.0250     1.7070     0.4280 C.3   1 <1>  -0.1600 
 10 C        2.8480     2.5180    -0.3390 C.ar  1 <1>  -0.1500 
 11 C        1.8650     0.3660     0.0280 C.ar  1 <1>  -0.1500 
 12 C       -1.6790     3.2980     1.9670 C.3   1 <1>  -0.1600 
 13 C       -3.0330     2.9580     1.3220 C.3   1 <1>  -0.1600 
 14 C        3.5750     2.3850     0.8310 C.ar  1 <1>  -0.1500 
 15 C        2.5920     0.2330     1.1980 C.ar  1 <1>  -0.1500 
 16 C        3.4460     1.2430     1.6010 C.ar  1 <1>  -0.1500 
 17 H        1.3010     2.6270    -2.4580 H     1 <1>   0.0800 
 18 H        1.5480     0.9440    -2.7430 H     1 <1>   0.0800 
 19 H       -1.3310     4.2720    -0.5160 H     1 <1>   0.0800 
 20 H        0.3000     3.7810    -0.8180 H     1 <1>   0.0800 
 21 H       -2.8670     1.1540    -1.6260 H     1 <1>   0.0800 
 22 H       -3.1310     2.8490    -1.3970 H     1 <1>   0.0800 
 23 H        0.3390     3.7700     1.4710 H     1 <1>   0.0800 
 24 H       -0.0670     2.1220     1.1680 H     1 <1>   0.0800 
 25 H       -2.4120     0.9300     0.8490 H     1 <1>   0.0800 
 26 H       -4.0310     1.3290     0.3850 H     1 <1>   0.0800 
 27 H        2.9610     3.4100    -0.9290 H     1 <1>   0.1500 
 28 H        1.2010    -0.4250    -0.2780 H     1 <1>   0.1500 
 29 H       -1.7250     4.3170     2.3100 H     1 <1>   0.0800 
 30 H       -1.5480     2.6810     2.8390 H     1 <1>   0.0800 
 31 H       -3.7440     2.8070     2.1160 H     1 <1>   0.0800 
 32 H       -3.3810     3.8010     0.7500 H     1 <1>   0.0800 
 33 H        4.2430     3.1700     1.1430 H     1 <1>   0.1500 
 34 H        2.4900    -0.6580     1.7930 H     1 <1>   0.1500 
 35 H        4.0110     1.1390     2.5110 H     1 <1>   0.1500 
@<TRIPOS>BOND
  1   1   2  2   
  2   2   3  am  
  3   2   4  1   
  4   3   5  1   
  5   3   6  1   
  6   4   7  1   
  7   4  17  1   
  8   4  18  1   
  9   5   8  1   
 10   5  19  1   
 11   5  20  1   
 12   6   9  1   
 13   6  21  1   
 14   6  22  1   
 15   7  10  ar  
 16   7  11  ar  
 17   8  12  1   
 18   8  23  1   
 19   8  24  1   
 20   9  13  1   
 21   9  25  1   
 22   9  26  1   
 23  10  14  ar  
 24  10  27  1   
 25  11  15  ar  
 26  11  28  1   
 27  12  13  1   
 28  12  29  1   
 29  12  30  1   
 30  13  31  1   
 31  13  32  1   
 32  14  16  ar  
 33  14  33  1   
 34  15  16  ar  
 35  15  34  1   
 36  16  35  1   
@<TRIPOS>SUBSTRUCTURE
  1 ****   3 GROUP 4 **** **** 0

# MOE 2024.06 (io_trps.svl 2023.06)
