@<TRIPOS>MOLECULE
NONAME
30 31 1 0 0 
SMALL
USER_CHARGES


@<TRIPOS>ATOM
  1 O        0.3080     0.4580     0.9820 O.3   1 <1>  -0.4300 
  2 C        1.0510     1.1020     0.0710 C.2   1 <1>   0.5140 
  3 C       -0.9380     1.0930     1.0850 C.3   1 <1>   0.1200 
  4 N        0.4650     2.0740    -0.4970 N.2   1 <1>  -0.6960 
  5 C        2.3840     0.5910    -0.1640 C.ar  1 <1>   0.0860 
  6 C       -0.8560     2.2220     0.0510 C.3   1 <1>   0.2460 
  7 C        3.5270     1.3980    -0.0790 C.ar  1 <1>   0.0830 
  8 C        2.5560    -0.7550    -0.4890 C.ar  1 <1>  -0.1500 
  9 C       -0.9570     3.6080     0.6870 C.3   1 <1>  -0.2400 
 10 C       -1.8680     2.0530    -1.0820 C.3   1 <1>  -0.2400 
 11 O        3.3630     2.6970     0.2770 O.3   1 <1>  -0.3630 
 12 C        4.7860     0.8590    -0.3370 C.ar  1 <1>  -0.1500 
 13 C        3.8060    -1.2860    -0.7390 C.ar  1 <1>  -0.1500 
 14 C        4.4090     3.6410     0.2200 C.3   1 <1>   0.0400 
 15 C        4.9240    -0.4760    -0.6670 C.ar  1 <1>  -0.1500 
 16 H       -1.0550     1.4650     2.0870 H     1 <1>   0.0800 
 17 H       -1.7110     0.3820     0.8570 H     1 <1>   0.0800 
 18 H        1.6870    -1.3870    -0.5460 H     1 <1>   0.1500 
 19 H       -0.2060     3.7230     1.4480 H     1 <1>   0.0800 
 20 H       -1.9250     3.7450     1.1340 H     1 <1>   0.0800 
 21 H       -0.8130     4.3670    -0.0600 H     1 <1>   0.0800 
 22 H       -1.7520     1.0900    -1.5450 H     1 <1>   0.0800 
 23 H       -1.7180     2.8160    -1.8250 H     1 <1>   0.0800 
 24 H       -2.8690     2.1360    -0.7030 H     1 <1>   0.0800 
 25 H        5.6710     1.4620    -0.2800 H     1 <1>   0.1500 
 26 H        3.9100    -2.3280    -0.9910 H     1 <1>   0.1500 
 27 H        4.0000     4.6030     0.4700 H     1 <1>   0.0800 
 28 H        4.8050     3.6610    -0.7800 H     1 <1>   0.0800 
 29 H        5.1660     3.3680     0.9330 H     1 <1>   0.0800 
 30 H        5.8990    -0.8870    -0.8640 H     1 <1>   0.1500 
@<TRIPOS>BOND
  1   1   2  1   
  2   1   3  1   
  3   2   4  2   
  4   2   5  1   
  5   3   6  1   
  6   3  16  1   
  7   3  17  1   
  8   4   6  1   
  9   5   7  ar  
 10   5   8  ar  
 11   6   9  1   
 12   6  10  1   
 13   7  11  1   
 14   7  12  ar  
 15   8  13  ar  
 16   8  18  1   
 17   9  19  1   
 18   9  20  1   
 19   9  21  1   
 20  10  22  1   
 21  10  23  1   
 22  10  24  1   
 23  11  14  1   
 24  12  15  ar  
 25  12  25  1   
 26  13  15  ar  
 27  13  26  1   
 28  14  27  1   
 29  14  28  1   
 30  14  29  1   
 31  15  30  1   
@<TRIPOS>SUBSTRUCTURE
  1 ****   2 GROUP 4 **** **** 0

# MOE 2024.06 (io_trps.svl 2023.06)
