@<TRIPOS>MOLECULE
NONAME
56 58 1 0 0 
SMALL
USER_CHARGES


@<TRIPOS>ATOM
  1 O       -0.5270    -0.3450     0.5750 O.2   1 <1>  -0.5700 
  2 C       -1.6330     0.1390     0.5480 C.2   1 <1>   0.5690 
  3 N       -2.8140    -0.5370     0.3810 N.am  1 <1>  -0.2860 
  4 C       -1.9000     1.6350     0.6540 C.3   1 <1>   0.1190 
  5 C       -2.9140    -1.9290     0.1990 C.ar  1 <1>   0.1170 
  6 C       -3.8620     0.3660     0.4300 C.2   1 <1>  -0.0290 
  7 C       -3.4320     1.6400     0.5940 C.2   1 <1>  -0.1240 
  8 C       -1.2450     2.3990    -0.5140 C.3   1 <1>  -0.0990 
  9 C       -2.7240    -2.7950     1.2690 C.ar  1 <1>  -0.1500 
 10 C       -3.2080    -2.4600    -1.0510 C.ar  1 <1>  -0.1500 
 11 C       -5.2850    -0.1710     0.3310 C.3   1 <1>  -0.1020 
 12 C       -4.1220     2.8880     0.7360 C.2   1 <1>   0.7060 
 13 C        0.2090     2.7530    -0.2590 C.2   1 <1>   0.5690 
 14 C       -2.8330    -4.1630     1.0960 C.ar  1 <1>  -0.1500 
 15 C       -3.3180    -3.8280    -1.2280 C.ar  1 <1>  -0.1500 
 16 O       -3.5690     3.9020     1.1110 O.2   1 <1>  -0.5700 
 17 O       -5.4210     2.9410     0.4400 O.3   1 <1>  -0.4300 
 18 O        0.4710     3.9190    -0.0990 O.2   1 <1>  -0.5700 
 19 N        1.1500     1.7610    -0.2310 N.am  1 <1>  -0.5470 
 20 C       -3.1310    -4.6810    -0.1530 C.ar  1 <1>  -0.1500 
 21 C       -6.1580     4.1380     0.5580 C.3   1 <1>   0.1200 
 22 C        2.5560     1.8280    -0.1960 C.ar  1 <1>   0.1170 
 23 C       -7.6000     3.8450     0.1540 C.3   1 <1>  -0.2400 
 24 C        3.2980     0.7500     0.2950 C.ar  1 <1>  -0.1430 
 25 C        3.2430     2.9430    -0.6670 C.ar  1 <1>  -0.1500 
 26 C        4.6830     0.8120     0.3090 C.ar  1 <1>  -0.1500 
 27 C        2.6190    -0.5050     0.8270 C.3   1 <1>  -0.0970 
 28 C        4.6230     2.9970    -0.6470 C.ar  1 <1>  -0.1500 
 29 C        5.3540     1.9280    -0.1600 C.ar  1 <1>  -0.1430 
 30 C        6.8700     1.9800    -0.1330 C.3   1 <1>  -0.0970 
 31 H       -1.5630     2.0110     1.6040 H     1 <1>   0.0800 
 32 H       -1.7690     3.3220    -0.6800 H     1 <1>   0.0800 
 33 H       -1.3140     1.8280    -1.4220 H     1 <1>   0.0800 
 34 H       -2.4890    -2.3940     2.2380 H     1 <1>   0.1500 
 35 H       -3.3500    -1.7980    -1.8860 H     1 <1>   0.1500 
 36 H       -5.4330    -0.9520     1.0560 H     1 <1>   0.0800 
 37 H       -5.4580    -0.5770    -0.6490 H     1 <1>   0.0800 
 38 H       -6.0200     0.5880     0.5160 H     1 <1>   0.0800 
 39 H       -2.6850    -4.8270     1.9310 H     1 <1>   0.1500 
 40 H       -3.5470    -4.2310    -2.1990 H     1 <1>   0.1500 
 41 H        0.7800     0.8080    -0.1230 H     1 <1>   0.3700 
 42 H       -3.2150    -5.7450    -0.2890 H     1 <1>   0.1500 
 43 H       -5.7170     4.8770    -0.0900 H     1 <1>   0.0800 
 44 H       -6.1040     4.4740     1.5800 H     1 <1>   0.0800 
 45 H       -7.6380     3.5020    -0.8640 H     1 <1>   0.0800 
 46 H       -8.1870     4.7420     0.2340 H     1 <1>   0.0800 
 47 H       -8.0240     3.1000     0.8030 H     1 <1>   0.0800 
 48 H        2.6990     3.7830    -1.0570 H     1 <1>   0.1500 
 49 H        5.2510    -0.0180     0.6900 H     1 <1>   0.1500 
 50 H        1.9540    -0.2500     1.6320 H     1 <1>   0.0800 
 51 H        3.3410    -1.2090     1.2000 H     1 <1>   0.0800 
 52 H        2.0590    -0.9830     0.0430 H     1 <1>   0.0800 
 53 H        5.1230     3.8760    -1.0140 H     1 <1>   0.1500 
 54 H        7.2810     1.0020    -0.3090 H     1 <1>   0.0800 
 55 H        7.2040     2.3310     0.8270 H     1 <1>   0.0800 
 56 H        7.2380     2.6450    -0.8940 H     1 <1>   0.0800 
@<TRIPOS>BOND
  1   1   2  2   
  2   2   3  am  
  3   2   4  1   
  4   3   5  1   
  5   3   6  1   
  6   4   7  1   
  7   4   8  1   
  8   4  31  1   
  9   5   9  ar  
 10   5  10  ar  
 11   6   7  2   
 12   6  11  1   
 13   7  12  1   
 14   8  13  1   
 15   8  32  1   
 16   8  33  1   
 17   9  14  ar  
 18   9  34  1   
 19  10  15  ar  
 20  10  35  1   
 21  11  36  1   
 22  11  37  1   
 23  11  38  1   
 24  12  16  2   
 25  12  17  1   
 26  13  18  2   
 27  13  19  am  
 28  14  20  ar  
 29  14  39  1   
 30  15  20  ar  
 31  15  40  1   
 32  17  21  1   
 33  19  22  1   
 34  19  41  1   
 35  20  42  1   
 36  21  23  1   
 37  21  43  1   
 38  21  44  1   
 39  22  24  ar  
 40  22  25  ar  
 41  23  45  1   
 42  23  46  1   
 43  23  47  1   
 44  24  26  ar  
 45  24  27  1   
 46  25  28  ar  
 47  25  48  1   
 48  26  29  ar  
 49  26  49  1   
 50  27  50  1   
 51  27  51  1   
 52  27  52  1   
 53  28  29  ar  
 54  28  53  1   
 55  29  30  1   
 56  30  54  1   
 57  30  55  1   
 58  30  56  1   
@<TRIPOS>SUBSTRUCTURE
  1 ****   2 GROUP 4 **** **** 0

# MOE 2024.06 (io_trps.svl 2023.06)
