@<TRIPOS>MOLECULE
NONAME
40 42 1 0 0 
SMALL
USER_CHARGES


@<TRIPOS>ATOM
  1 S       -1.0250    -1.2820     0.5980 S.3   1 <1>  -0.3320 
  2 C        0.6780    -1.8640     0.6380 C.ar  1 <1>   0.1020 
  3 C       -1.5940    -1.4450    -1.1680 C.3   1 <1>   0.1310 
  4 C        1.3340    -2.3270    -0.4720 C.ar  1 <1>  -0.1500 
  5 C        1.3150    -1.8190     1.8820 C.ar  1 <1>  -0.1500 
  6 C       -3.0340    -0.9840    -1.3380 C.2   1 <1>   0.5690 
  7 C        2.6690    -2.7690    -0.3810 C.ar  1 <1>   0.0000 
  8 C        2.6100    -2.2430     1.9930 C.ar  1 <1>  -0.1500 
  9 O       -3.6320    -1.3260    -2.3290 O.2   1 <1>  -0.5700 
 10 N       -3.6140    -0.2080    -0.3860 N.am  1 <1>  -0.7300 
 11 C        3.3190    -2.7260     0.8730 C.ar  1 <1>   0.0000 
 12 C        3.3830    -3.2530    -1.4970 C.ar  1 <1>  -0.1500 
 13 C       -5.0200     0.2780    -0.4160 C.3   1 <1>   0.1400 
 14 C        4.6540    -3.1680     0.9590 C.ar  1 <1>  -0.1500 
 15 C        4.6790    -3.6750    -1.3830 C.ar  1 <1>  -0.1500 
 16 C       -6.0000    -0.8080     0.0490 C.3   1 <1>   0.2000 
 17 C        5.3220    -3.6320    -0.1410 C.ar  1 <1>  -0.1500 
 18 O       -7.2630    -0.2510     0.2050 O.3   1 <1>  -0.5600 
 19 C       -5.6960    -1.4130     1.4140 C.3   1 <1>  -0.1600 
 20 C       -8.0430    -1.0670     1.0190 C.3   1 <1>   0.1200 
 21 C       -7.0700    -1.8240     1.9210 C.3   1 <1>  -0.1600 
 22 H       -1.5080    -2.4800    -1.4380 H     1 <1>   0.0800 
 23 H       -0.9430    -0.8440    -1.7740 H     1 <1>   0.0800 
 24 H        0.8610    -2.3690    -1.4320 H     1 <1>   0.1500 
 25 H        0.7690    -1.4510     2.7320 H     1 <1>   0.1500 
 26 H        3.1110    -2.2140     2.9440 H     1 <1>   0.1500 
 27 H       -3.0850    -0.0190     0.4710 H     1 <1>   0.3700 
 28 H        2.8870    -3.2850    -2.4500 H     1 <1>   0.1500 
 29 H       -5.2730     0.5660    -1.4220 H     1 <1>   0.0800 
 30 H       -5.1080     1.1390     0.2230 H     1 <1>   0.0800 
 31 H        5.1450    -3.1340     1.9150 H     1 <1>   0.1500 
 32 H        5.2190    -4.0440    -2.2380 H     1 <1>   0.1500 
 33 H       -6.0770    -1.5790    -0.7000 H     1 <1>   0.0800 
 34 H        6.3410    -3.9690    -0.0680 H     1 <1>   0.1500 
 35 H       -5.2730    -0.6630     2.0590 H     1 <1>   0.0800 
 36 H       -5.0160    -2.2420     1.3360 H     1 <1>   0.0800 
 37 H       -8.5940    -1.7420     0.3860 H     1 <1>   0.0800 
 38 H       -8.7210    -0.4460     1.5780 H     1 <1>   0.0800 
 39 H       -7.2070    -1.5530     2.9530 H     1 <1>   0.0800 
 40 H       -7.2240    -2.8830     1.8120 H     1 <1>   0.0800 
@<TRIPOS>BOND
  1   1   2  1   
  2   1   3  1   
  3   2   4  ar  
  4   2   5  ar  
  5   3   6  1   
  6   3  22  1   
  7   3  23  1   
  8   4   7  ar  
  9   4  24  1   
 10   5   8  ar  
 11   5  25  1   
 12   6   9  2   
 13   6  10  am  
 14   7  11  ar  
 15   7  12  ar  
 16   8  11  ar  
 17   8  26  1   
 18  10  13  1   
 19  10  27  1   
 20  11  14  ar  
 21  12  15  ar  
 22  12  28  1   
 23  13  16  1   
 24  13  29  1   
 25  13  30  1   
 26  14  17  ar  
 27  14  31  1   
 28  15  17  ar  
 29  15  32  1   
 30  16  18  1   
 31  16  19  1   
 32  16  33  1   
 33  17  34  1   
 34  18  20  1   
 35  19  21  1   
 36  19  35  1   
 37  19  36  1   
 38  20  21  1   
 39  20  37  1   
 40  20  38  1   
 41  21  39  1   
 42  21  40  1   
@<TRIPOS>SUBSTRUCTURE
  1 ****   1 GROUP 4 **** **** 0

# MOE 2024.06 (io_trps.svl 2023.06)
