@<TRIPOS>MOLECULE
NONAME
40 42 1 0 0 
SMALL
USER_CHARGES


@<TRIPOS>ATOM
  1 CL      -0.3460     0.3470    -0.8420 Cl    1 <1>  -0.1770 
  2 C        1.2540     0.9030    -0.4240 C.ar  1 <1>   0.1770 
  3 C        2.3530     0.1950    -0.8670 C.ar  1 <1>  -0.1500 
  4 C        1.3930     2.0430     0.3460 C.ar  1 <1>  -0.1500 
  5 C        3.6330     0.6230    -0.5390 C.ar  1 <1>   0.1000 
  6 C        2.6650     2.4790     0.6750 C.ar  1 <1>  -0.1500 
  7 N        4.7370    -0.1040    -0.9820 N.pl3 1 <1>  -0.8380 
  8 C        3.7730     1.7730     0.2360 C.ar  1 <1>  -0.1500 
  9 C        5.9410     0.5790    -1.5480 C.3   1 <1>   0.2090 
 10 C        4.9190    -1.5110    -0.5140 C.3   1 <1>   0.2090 
 11 C        7.1710     0.3990    -0.6340 C.3   1 <1>   0.3430 
 12 C        6.1660    -1.6420     0.3860 C.3   1 <1>   0.3430 
 13 N        7.3980    -1.0420    -0.2410 N.4   1 <1>  -0.9590 
 14 C        8.6010    -1.1920     0.6180 C.3   1 <1>   0.5230 
 15 C        9.8060    -0.7500    -0.1830 C.2   1 <1>  -0.1400 
 16 S       10.1370    -1.6630    -1.6490 S.3   1 <1>  -0.0800 
 17 C       10.7140     0.2330    -0.0190 C.2   1 <1>  -0.1810 
 18 C       11.5300    -0.6630    -2.0090 C.2   1 <1>  -0.1100 
 19 C       11.6930     0.2780    -1.0630 C.2   1 <1>  -0.1500 
 20 C       10.7940     1.2400     1.1160 C.3   1 <1>  -0.0590 
 21 H        2.2130    -0.6800    -1.4720 H     1 <1>   0.1500 
 22 H        0.5200     2.5760     0.6770 H     1 <1>   0.1500 
 23 H        2.7880     3.3670     1.2730 H     1 <1>   0.1500 
 24 H        4.7510     2.1210     0.5040 H     1 <1>   0.1500 
 25 H        5.7380     1.6280    -1.6820 H     1 <1>   0.0800 
 26 H        6.1510     0.1670    -2.5200 H     1 <1>   0.0800 
 27 H        5.0130    -2.1580    -1.3690 H     1 <1>   0.0800 
 28 H        4.0500    -1.8250     0.0400 H     1 <1>   0.0800 
 29 H        7.0200     0.9930     0.2510 H     1 <1>   0.0800 
 30 H        8.0410     0.7820    -1.1430 H     1 <1>   0.0800 
 31 H        6.3320    -2.6850     0.6010 H     1 <1>   0.0800 
 32 H        5.9560    -1.1430     1.3170 H     1 <1>   0.0800 
 33 H        7.6060    -1.5530    -1.1090 H     1 <1>   0.4500 
 34 H        8.7280    -2.2220     0.9080 H     1 <1>   0.0800 
 35 H        8.5060    -0.5900     1.5060 H     1 <1>   0.0800 
 36 H       12.0900    -0.8880    -2.9010 H     1 <1>   0.1500 
 37 H       12.4810     1.0130    -1.0560 H     1 <1>   0.1500 
 38 H       10.0060     1.0930     1.8310 H     1 <1>   0.0800 
 39 H       10.7230     2.2400     0.7250 H     1 <1>   0.0800 
 40 H       11.7370     1.1400     1.6240 H     1 <1>   0.0800 
@<TRIPOS>BOND
  1   1   2  1   
  2   2   3  ar  
  3   2   4  ar  
  4   3   5  ar  
  5   3  21  1   
  6   4   6  ar  
  7   4  22  1   
  8   5   7  1   
  9   5   8  ar  
 10   6   8  ar  
 11   6  23  1   
 12   7   9  1   
 13   7  10  1   
 14   8  24  1   
 15   9  11  1   
 16   9  25  1   
 17   9  26  1   
 18  10  12  1   
 19  10  27  1   
 20  10  28  1   
 21  11  13  1   
 22  11  29  1   
 23  11  30  1   
 24  12  13  1   
 25  12  31  1   
 26  12  32  1   
 27  13  14  1   
 28  13  33  1   
 29  14  15  1   
 30  14  34  1   
 31  14  35  1   
 32  15  16  1   
 33  15  17  2   
 34  16  18  1   
 35  17  19  1   
 36  17  20  1   
 37  18  19  2   
 38  18  36  1   
 39  19  37  1   
 40  20  38  1   
 41  20  39  1   
 42  20  40  1   
@<TRIPOS>SUBSTRUCTURE
  1 ****  11 GROUP 4 **** **** 0

# MOE 2024.06 (io_trps.svl 2023.06)
