@<TRIPOS>MOLECULE
NONAME
36 38 1 0 0 
SMALL
USER_CHARGES


@<TRIPOS>ATOM
  1 O       -7.5680    -1.9410     1.9680 O.3   1 <1>  -0.6800 
  2 C       -6.6940    -1.6040     0.9680 C.3   1 <1>   0.2800 
  3 C       -5.2710    -1.8540     1.4790 C.3   1 <1>  -0.1600 
  4 C       -6.8780    -0.1240     0.6180 C.3   1 <1>  -0.1600 
  5 C       -6.9700    -2.4800    -0.2600 C.3   1 <1>  -0.1600 
  6 C       -4.2270    -1.4940     0.3890 C.3   1 <1>   0.0000 
  7 C       -5.8780     0.2520    -0.4900 C.3   1 <1>  -0.0800 
  8 C       -5.9690    -2.1130    -1.3720 C.3   1 <1>  -0.0800 
  9 C       -2.7830    -1.6960     0.9440 C.3   1 <1>   0.4230 
 10 C       -4.4440     0.0010     0.0130 C.3   1 <1>  -0.1600 
 11 C       -4.5320    -2.3580    -0.8680 C.3   1 <1>  -0.1600 
 12 C       -6.1370    -0.6240    -1.7300 C.3   1 <1>  -0.1600 
 13 N       -1.7770    -1.3300    -0.0680 N.4   1 <1>  -0.8530 
 14 C       -2.4370    -3.1160     1.3960 C.3   1 <1>  -0.2400 
 15 H       -8.4840    -1.7960     1.6670 H     1 <1>   0.4000 
 16 H       -5.1070    -1.2620     2.3630 H     1 <1>   0.0800 
 17 H       -5.1980    -2.8920     1.7490 H     1 <1>   0.0800 
 18 H       -6.7060     0.4850     1.4880 H     1 <1>   0.0800 
 19 H       -7.8810     0.0540     0.2720 H     1 <1>   0.0800 
 20 H       -7.9730    -2.3180    -0.6130 H     1 <1>   0.0800 
 21 H       -6.8650    -3.5200    -0.0020 H     1 <1>   0.0800 
 22 H       -6.0010     1.2910    -0.7490 H     1 <1>   0.0800 
 23 H       -6.1610    -2.7190    -2.2430 H     1 <1>   0.0800 
 24 H       -2.6710    -1.0430     1.7950 H     1 <1>   0.0800 
 25 H       -3.7680     0.3080    -0.7650 H     1 <1>   0.0800 
 26 H       -4.2640     0.6280     0.8700 H     1 <1>   0.0800 
 27 H       -4.4320    -3.4050    -0.6400 H     1 <1>   0.0800 
 28 H       -3.8520    -2.1300    -1.6680 H     1 <1>   0.0800 
 29 H       -7.1360    -0.4500    -2.0950 H     1 <1>   0.0800 
 30 H       -5.4580    -0.3560    -2.5210 H     1 <1>   0.0800 
 31 H       -1.8680    -1.9480    -0.8790 H     1 <1>   0.4500 
 32 H       -0.8310    -1.4220     0.3120 H     1 <1>   0.4500 
 33 H       -1.9210    -0.3640    -0.3770 H     1 <1>   0.4500 
 34 H       -2.5480    -3.8310     0.6010 H     1 <1>   0.0800 
 35 H       -3.0770    -3.4170     2.2060 H     1 <1>   0.0800 
 36 H       -1.4290    -3.1600     1.7680 H     1 <1>   0.0800 
@<TRIPOS>BOND
  1   1   2  1   
  2   1  15  1   
  3   2   3  1   
  4   2   4  1   
  5   2   5  1   
  6   3   6  1   
  7   3  16  1   
  8   3  17  1   
  9   4   7  1   
 10   4  18  1   
 11   4  19  1   
 12   5   8  1   
 13   5  20  1   
 14   5  21  1   
 15   6   9  1   
 16   6  10  1   
 17   6  11  1   
 18   7  10  1   
 19   7  12  1   
 20   7  22  1   
 21   8  11  1   
 22   8  12  1   
 23   8  23  1   
 24   9  13  1   
 25   9  14  1   
 26   9  24  1   
 27  10  25  1   
 28  10  26  1   
 29  11  27  1   
 30  11  28  1   
 31  12  29  1   
 32  12  30  1   
 33  13  31  1   
 34  13  32  1   
 35  13  33  1   
 36  14  34  1   
 37  14  35  1   
 38  14  36  1   
@<TRIPOS>SUBSTRUCTURE
  1 ****   6 GROUP 4 **** **** 0

# MOE 2024.06 (io_trps.svl 2023.06)
