@<TRIPOS>MOLECULE
NONAME
42 43 1 0 0 
SMALL
USER_CHARGES


@<TRIPOS>ATOM
  1 O       -0.9760     2.8980     3.1740 O.2   1 <1>  -0.5700 
  2 C       -0.9200     3.3120     2.0410 C.2   1 <1>   0.5690 
  3 N       -2.0700     3.6800     1.3770 N.am  1 <1>  -0.6600 
  4 C        0.4510     3.3330     1.3700 C.3   1 <1>   0.0440 
  5 C       -2.1370     4.1130    -0.0470 C.3   1 <1>   0.1400 
  6 C       -3.4000     3.2390     1.8850 C.3   1 <1>   0.1400 
  7 C        0.5150     2.4490     0.1170 C.ar  1 <1>  -0.1440 
  8 C       -2.5830     2.9210    -0.9180 C.3   1 <1>   0.3430 
  9 C       -3.8790     2.0350     1.0500 C.3   1 <1>   0.3430 
 10 C        0.2490     1.0800     0.1530 C.ar  1 <1>  -0.1440 
 11 C        0.8410     3.0430    -1.0960 C.ar  1 <1>  -0.1500 
 12 N       -3.8800     2.3180    -0.4370 N.4   1 <1>  -0.9590 
 13 C        0.2680     0.3490    -1.0250 C.ar  1 <1>  -0.1500 
 14 C       -0.0420     0.3340     1.4500 C.3   1 <1>  -0.0970 
 15 C        0.8590     2.3050    -2.2650 C.ar  1 <1>  -0.1500 
 16 C       -4.2010     1.1080    -1.2230 C.3   1 <1>   0.4810 
 17 C        0.5650     0.9570    -2.2310 C.ar  1 <1>  -0.1500 
 18 C       -5.6720     0.8260    -1.0250 C.2   1 <1>  -0.2880 
 19 C       -6.6310     1.0790    -1.9220 C.2   1 <1>  -0.3000 
 20 H        1.1890     2.9920     2.0740 H     1 <1>   0.0800 
 21 H        0.6940     4.3520     1.1350 H     1 <1>   0.0800 
 22 H       -1.1890     4.4900    -0.3790 H     1 <1>   0.0800 
 23 H       -2.8450     4.9180    -0.1410 H     1 <1>   0.0800 
 24 H       -4.1040     4.0490     1.8140 H     1 <1>   0.0800 
 25 H       -3.3400     2.9540     2.9220 H     1 <1>   0.0800 
 26 H       -1.8050     2.1750    -0.8930 H     1 <1>   0.0800 
 27 H       -2.6850     3.2500    -1.9400 H     1 <1>   0.0800 
 28 H       -4.8690     1.7570     1.3730 H     1 <1>   0.0800 
 29 H       -3.2210     1.2070     1.2580 H     1 <1>   0.0800 
 30 H        1.0890     4.0900    -1.1430 H     1 <1>   0.1500 
 31 H       -4.6400     2.9840    -0.6260 H     1 <1>   0.4500 
 32 H        0.0670    -0.7090    -1.0110 H     1 <1>   0.1500 
 33 H        0.1160    -0.7230     1.3270 H     1 <1>   0.0800 
 34 H        0.6140     0.6660     2.2350 H     1 <1>   0.0800 
 35 H       -1.0580     0.4910     1.7590 H     1 <1>   0.0800 
 36 H        1.1160     2.7760    -3.1990 H     1 <1>   0.1500 
 37 H       -3.5990     0.2690    -0.9110 H     1 <1>   0.0800 
 38 H       -4.0180     1.2940    -2.2690 H     1 <1>   0.0800 
 39 H        0.5870     0.3760    -3.1380 H     1 <1>   0.1500 
 40 H       -5.8930     0.3790    -0.0700 H     1 <1>   0.1500 
 41 H       -7.6760     0.8610    -1.7590 H     1 <1>   0.1500 
 42 H       -6.4740     1.5150    -2.8950 H     1 <1>   0.1500 
@<TRIPOS>BOND
  1   1   2  2   
  2   2   3  am  
  3   2   4  1   
  4   3   5  1   
  5   3   6  1   
  6   4   7  1   
  7   4  20  1   
  8   4  21  1   
  9   5   8  1   
 10   5  22  1   
 11   5  23  1   
 12   6   9  1   
 13   6  24  1   
 14   6  25  1   
 15   7  10  ar  
 16   7  11  ar  
 17   8  12  1   
 18   8  26  1   
 19   8  27  1   
 20   9  12  1   
 21   9  28  1   
 22   9  29  1   
 23  10  13  ar  
 24  10  14  1   
 25  11  15  ar  
 26  11  30  1   
 27  12  16  1   
 28  12  31  1   
 29  13  17  ar  
 30  13  32  1   
 31  14  33  1   
 32  14  34  1   
 33  14  35  1   
 34  15  17  ar  
 35  15  36  1   
 36  16  18  1   
 37  16  37  1   
 38  16  38  1   
 39  17  39  1   
 40  18  19  2   
 41  18  40  1   
 42  19  41  1   
 43  19  42  1   
@<TRIPOS>SUBSTRUCTURE
  1 ****   8 GROUP 4 **** **** 0

# MOE 2024.06 (io_trps.svl 2023.06)
