@<TRIPOS>MOLECULE
NONAME
47 50 1 0 0 
SMALL
USER_CHARGES


@<TRIPOS>ATOM
  1 O        0.7520    -1.0650     2.4800 O.3   1 <1>  -0.0190 
  2 N        1.6700    -0.1730     2.2770 N.2   1 <1>  -0.4100 
  3 C        0.7900    -1.8110     1.4070 C.2   1 <1>   0.2980 
  4 C        2.2040    -0.4070     1.1300 C.2   1 <1>   0.4620 
  5 N        1.6530    -1.4730     0.5390 N.2   1 <1>  -0.5650 
  6 C       -0.1770    -2.9870     1.2990 C.3   1 <1>   0.2900 
  7 C        3.2740     0.3680     0.5200 C.ar  1 <1>   0.0540 
  8 N       -1.5990    -2.5770     1.2420 N.3   1 <1>  -0.8100 
  9 C        3.8170     0.0250    -0.7200 C.ar  1 <1>  -0.1500 
 10 C        3.8020     1.4940     1.1540 C.ar  1 <1>  -0.1500 
 11 C       -2.4910    -3.7590     1.2370 C.3   1 <1>   0.1100 
 12 C       -1.8710    -1.7390     0.0460 C.3   1 <1>   0.1100 
 13 C        4.8340     0.7600    -1.3040 C.ar  1 <1>  -0.1440 
 14 C        4.8160     2.2380     0.5810 C.ar  1 <1>  -0.1500 
 15 C       -3.9790    -3.3660     1.1690 C.3   1 <1>   0.2090 
 16 C       -3.3500    -1.3190    -0.0490 C.3   1 <1>   0.2090 
 17 C        5.3330     1.8720    -0.6480 C.ar  1 <1>  -0.1500 
 18 C        5.4000     0.3580    -2.6540 C.3   1 <1>  -0.0960 
 19 N       -4.2480    -2.5100    -0.0220 N.pl3 1 <1>  -0.8380 
 20 C       -5.5860    -2.2730    -0.3130 C.ar  1 <1>   0.1000 
 21 C       -6.1370    -2.8010    -1.4720 C.ar  1 <1>  -0.1500 
 22 C       -6.3950    -1.5170     0.5280 C.ar  1 <1>  -0.1500 
 23 C       -7.4650    -2.5830    -1.7890 C.ar  1 <1>  -0.1500 
 24 C       -7.7250    -1.2950     0.2160 C.ar  1 <1>  -0.1500 
 25 C       -8.2620    -1.8280    -0.9440 C.ar  1 <1>  -0.1500 
 26 H       -0.0270    -3.6180     2.1580 H     1 <1>   0.0800 
 27 H        0.0690    -3.5560     0.4190 H     1 <1>   0.0800 
 28 H        3.4310    -0.8370    -1.2350 H     1 <1>   0.1500 
 29 H        3.4110     1.7930     2.1120 H     1 <1>   0.1500 
 30 H       -2.3290    -4.3320     2.1330 H     1 <1>   0.0800 
 31 H       -2.2660    -4.3850     0.3910 H     1 <1>   0.0800 
 32 H       -1.6110    -2.2790    -0.8480 H     1 <1>   0.0800 
 33 H       -1.2710    -0.8470     0.0830 H     1 <1>   0.0800 
 34 H        5.2050     3.1020     1.0910 H     1 <1>   0.1500 
 35 H       -4.2470    -2.8350     2.0650 H     1 <1>   0.0800 
 36 H       -4.5840    -4.2540     1.1090 H     1 <1>   0.0800 
 37 H       -3.5110    -0.7760    -0.9640 H     1 <1>   0.0800 
 38 H       -3.5850    -0.6680     0.7740 H     1 <1>   0.0800 
 39 H        6.1220     2.4560    -1.0900 H     1 <1>   0.1500 
 40 H        4.9230     0.9270    -3.4320 H     1 <1>   0.0800 
 41 H        5.2340    -0.6880    -2.8380 H     1 <1>   0.0800 
 42 H        6.4580     0.5440    -2.6870 H     1 <1>   0.0800 
 43 H       -5.5090    -3.3840    -2.1190 H     1 <1>   0.1500 
 44 H       -5.9770    -1.1040     1.4260 H     1 <1>   0.1500 
 45 H       -7.8780    -2.9980    -2.6910 H     1 <1>   0.1500 
 46 H       -8.3410    -0.7080     0.8740 H     1 <1>   0.1500 
 47 H       -9.2960    -1.6570    -1.1880 H     1 <1>   0.1500 
@<TRIPOS>BOND
  1   1   2  1   
  2   1   3  1   
  3   2   4  2   
  4   3   5  2   
  5   3   6  1   
  6   4   5  1   
  7   4   7  1   
  8   6   8  1   
  9   6  26  1   
 10   6  27  1   
 11   7   9  ar  
 12   7  10  ar  
 13   8  11  1   
 14   8  12  1   
 15   9  13  ar  
 16   9  28  1   
 17  10  14  ar  
 18  10  29  1   
 19  11  15  1   
 20  11  30  1   
 21  11  31  1   
 22  12  16  1   
 23  12  32  1   
 24  12  33  1   
 25  13  17  ar  
 26  13  18  1   
 27  14  17  ar  
 28  14  34  1   
 29  15  19  1   
 30  15  35  1   
 31  15  36  1   
 32  16  19  1   
 33  16  37  1   
 34  16  38  1   
 35  17  39  1   
 36  18  40  1   
 37  18  41  1   
 38  18  42  1   
 39  19  20  1   
 40  20  21  ar  
 41  20  22  ar  
 42  21  23  ar  
 43  21  43  1   
 44  22  24  ar  
 45  22  44  1   
 46  23  25  ar  
 47  23  45  1   
 48  24  25  ar  
 49  24  46  1   
 50  25  47  1   
@<TRIPOS>SUBSTRUCTURE
  1 ****  12 GROUP 4 **** **** 0

# MOE 2024.06 (io_trps.svl 2023.06)
