@<TRIPOS>MOLECULE
NONAME
38 41 1 0 0 
SMALL
USER_CHARGES


@<TRIPOS>ATOM
  1 S       -0.2900     0.1820     1.1940 S.3   1 <1>  -0.3320 
  2 C       -1.7270    -0.8510     0.9610 C.ar  1 <1>   0.7220 
  3 C        1.0740    -0.7430     0.3350 C.3   1 <1>   0.1310 
  4 N       -2.8660    -0.3720     1.5130 N.ar  1 <1>  -0.3100 
  5 N       -1.5530    -1.9590     0.2810 N.ar  1 <1>  -0.5670 
  6 C        2.4030    -0.0190     0.4930 C.2   1 <1>   0.5690 
  7 N       -3.9750    -1.0470     1.4000 N.ar  1 <1>  -0.2560 
  8 C       -2.6970    -2.6370     0.1810 C.ar  1 <1>   0.1050 
  9 O        3.2290    -0.5440     1.2040 O.2   1 <1>  -0.5700 
 10 N        2.6640     1.1630    -0.1580 N.am  1 <1>  -0.6600 
 11 C       -3.8910    -2.2000     0.7260 C.ar  1 <1>   0.2560 
 12 N       -2.9020    -3.8340    -0.4430 N.pl3 1 <1>   0.0330 
 13 C        1.7090     1.9170    -1.0260 C.3   1 <1>   0.1400 
 14 C        3.9390     1.9100     0.0650 C.3   1 <1>   0.1400 
 15 C       -4.8750    -3.1780     0.4160 C.ar  1 <1>   0.0000 
 16 C       -4.2310    -4.1780    -0.3090 C.ar  1 <1>  -0.1520 
 17 C        1.5300     3.3510    -0.4990 C.3   1 <1>   0.1200 
 18 C        3.6440     3.3490     0.5220 C.3   1 <1>   0.1200 
 19 C       -6.2390    -3.2910     0.6890 C.ar  1 <1>  -0.1500 
 20 C       -4.9300    -5.2940    -0.7670 C.ar  1 <1>  -0.1500 
 21 O        2.7720     3.9850    -0.3720 O.3   1 <1>  -0.5600 
 22 C       -6.9300    -4.3950     0.2360 C.ar  1 <1>  -0.1500 
 23 C       -6.2760    -5.3940    -0.4900 C.ar  1 <1>  -0.1500 
 24 H        0.8090    -0.8380    -0.7010 H     1 <1>   0.0800 
 25 H        1.1290    -1.7160     0.7880 H     1 <1>   0.0800 
 26 H       -2.1780    -4.3780    -0.9190 H     1 <1>   0.2700 
 27 H        0.7500     1.4360    -1.0700 H     1 <1>   0.0800 
 28 H        2.1010     1.9610    -2.0270 H     1 <1>   0.0800 
 29 H        4.5000     1.9370    -0.8510 H     1 <1>   0.0800 
 30 H        4.5440     1.4220     0.8090 H     1 <1>   0.0800 
 31 H        1.0440     3.3450     0.4610 H     1 <1>   0.0800 
 32 H        0.9360     3.9290    -1.1850 H     1 <1>   0.0800 
 33 H        4.5530     3.9210     0.5580 H     1 <1>   0.0800 
 34 H        3.1960     3.3480     1.5010 H     1 <1>   0.0800 
 35 H       -6.7300    -2.5150     1.2490 H     1 <1>   0.1500 
 36 H       -4.4250    -6.0630    -1.3260 H     1 <1>   0.1500 
 37 H       -7.9820    -4.4950     0.4400 H     1 <1>   0.1500 
 38 H       -6.8380    -6.2460    -0.8320 H     1 <1>   0.1500 
@<TRIPOS>BOND
  1   1   2  1   
  2   1   3  1   
  3   2   4  ar  
  4   2   5  ar  
  5   3   6  1   
  6   3  24  1   
  7   3  25  1   
  8   4   7  ar  
  9   5   8  ar  
 10   6   9  2   
 11   6  10  am  
 12   7  11  ar  
 13   8  11  ar  
 14   8  12  1   
 15  10  13  1   
 16  10  14  1   
 17  11  15  1   
 18  12  16  1   
 19  12  26  1   
 20  13  17  1   
 21  13  27  1   
 22  13  28  1   
 23  14  18  1   
 24  14  29  1   
 25  14  30  1   
 26  15  16  ar  
 27  15  19  ar  
 28  16  20  ar  
 29  17  21  1   
 30  17  31  1   
 31  17  32  1   
 32  18  21  1   
 33  18  33  1   
 34  18  34  1   
 35  19  22  ar  
 36  19  35  1   
 37  20  23  ar  
 38  20  36  1   
 39  22  23  ar  
 40  22  37  1   
 41  23  38  1   
@<TRIPOS>SUBSTRUCTURE
  1 ****   2 GROUP 4 **** **** 0

# MOE 2024.06 (io_trps.svl 2023.06)
