@<TRIPOS>MOLECULE
NONAME
25 25 1 0 0 
SMALL
USER_CHARGES


@<TRIPOS>ATOM
  1 I        0.4670    -0.1000    -0.3370 I     1 <1>  -0.0810 
  2 C       -1.4940    -0.9200    -0.0930 C.ar  1 <1>   0.0810 
  3 C       -1.6920    -2.2920    -0.0020 C.ar  1 <1>  -0.1440 
  4 C       -2.5370    -0.0130    -0.0320 C.ar  1 <1>  -0.1500 
  5 C       -2.9960    -2.7340     0.1530 C.ar  1 <1>  -0.1500 
  6 C       -0.5570    -3.3060    -0.0700 C.3   1 <1>  -0.0960 
  7 C       -3.8330    -0.4730     0.1280 C.ar  1 <1>  -0.1430 
  8 C       -4.0690    -1.8490     0.2160 C.ar  1 <1>   0.1170 
  9 C       -4.9630     0.5470     0.2030 C.3   1 <1>  -0.0960 
 10 N       -5.3520    -2.3860     0.3930 N.am  1 <1>  -0.5470 
 11 C       -6.4180    -2.3240    -0.4530 C.2   1 <1>   0.5690 
 12 O       -6.4020    -1.7550    -1.5140 O.2   1 <1>  -0.5700 
 13 C       -7.6850    -3.0230    -0.0270 C.3   1 <1>  -0.1790 
 14 H       -2.3330     1.0390    -0.1100 H     1 <1>   0.1500 
 15 H       -3.1970    -3.7870     0.2200 H     1 <1>   0.1500 
 16 H        0.1410    -3.1370     0.7310 H     1 <1>   0.0800 
 17 H       -0.0430    -3.2230    -1.0100 H     1 <1>   0.0800 
 18 H       -0.9320    -4.3100     0.0190 H     1 <1>   0.0800 
 19 H       -4.5830     1.5250     0.4360 H     1 <1>   0.0800 
 20 H       -5.6710     0.2710     0.9620 H     1 <1>   0.0800 
 21 H       -5.4700     0.5960    -0.7440 H     1 <1>   0.0800 
 22 H       -5.4650    -2.9730     1.2160 H     1 <1>   0.3700 
 23 H       -7.5120    -4.0800     0.0400 H     1 <1>   0.0800 
 24 H       -8.4580    -2.8430    -0.7520 H     1 <1>   0.0800 
 25 H       -8.0080    -2.6460     0.9250 H     1 <1>   0.0800 
@<TRIPOS>BOND
  1   1   2  1   
  2   2   3  ar  
  3   2   4  ar  
  4   3   5  ar  
  5   3   6  1   
  6   4   7  ar  
  7   4  14  1   
  8   5   8  ar  
  9   5  15  1   
 10   6  16  1   
 11   6  17  1   
 12   6  18  1   
 13   7   8  ar  
 14   7   9  1   
 15   8  10  1   
 16   9  19  1   
 17   9  20  1   
 18   9  21  1   
 19  10  11  am  
 20  10  22  1   
 21  11  12  2   
 22  11  13  1   
 23  13  23  1   
 24  13  24  1   
 25  13  25  1   
@<TRIPOS>SUBSTRUCTURE
  1 ****   8 GROUP 4 **** **** 0

# MOE 2024.06 (io_trps.svl 2023.06)
