@<TRIPOS>MOLECULE
NONAME
41 42 1 0 0 
SMALL
USER_CHARGES


@<TRIPOS>ATOM
  1 CL      -1.3610     1.1720    -1.2290 Cl    1 <1>  -0.1770 
  2 C       -2.6500     0.0670    -0.8180 C.ar  1 <1>   0.1770 
  3 C       -3.9700     0.4320    -1.0140 C.ar  1 <1>   0.1600 
  4 C       -2.3470    -1.1720    -0.2970 C.ar  1 <1>  -0.1500 
  5 N       -5.0100    -0.3420    -0.7310 N.ar  1 <1>  -0.6200 
  6 C       -3.4210    -1.9830     0.0010 C.ar  1 <1>  -0.1500 
  7 C       -4.7250    -1.5370    -0.2280 C.ar  1 <1>   0.4270 
  8 N       -5.8520    -2.2820     0.0400 N.am  1 <1>  -0.5470 
  9 C       -6.0650    -3.5300     0.5480 C.2   1 <1>   0.5690 
 10 O       -5.1760    -4.2730     0.8860 O.2   1 <1>  -0.5700 
 11 C       -7.5020    -4.0120     0.6970 C.3   1 <1>   0.1810 
 12 O       -8.4210    -3.0210     0.2570 O.3   1 <1>  -0.3630 
 13 C       -9.7660    -3.2120     0.2920 C.ar  1 <1>   0.0830 
 14 C      -10.5890    -2.1790    -0.1580 C.ar  1 <1>  -0.1430 
 15 C      -10.3320    -4.3980     0.7600 C.ar  1 <1>  -0.1500 
 16 C      -11.9650    -2.3630    -0.1290 C.ar  1 <1>  -0.1500 
 17 C      -10.0200    -0.8530    -0.6820 C.3   1 <1>   0.0630 
 18 C      -11.7050    -4.5650     0.7850 C.ar  1 <1>  -0.1430 
 19 C      -12.5190    -3.5420     0.3360 C.ar  1 <1>  -0.1500 
 20 C      -10.4840     0.3240     0.1830 C.3   1 <1>  -0.2400 
 21 C      -10.4040    -0.6330    -2.1490 C.3   1 <1>  -0.2400 
 22 C      -12.3190    -5.8580     1.2930 C.3   1 <1>  -0.0970 
 23 H       -4.1730     1.4060    -1.4230 H     1 <1>   0.1500 
 24 H       -1.3290    -1.4780    -0.1350 H     1 <1>   0.1500 
 25 H       -3.2440    -2.9590     0.4100 H     1 <1>   0.1500 
 26 H       -6.7050    -1.7750    -0.1990 H     1 <1>   0.3700 
 27 H       -7.7000    -4.2250     1.7320 H     1 <1>   0.0800 
 28 H       -7.6440    -4.8960     0.1030 H     1 <1>   0.0800 
 29 H       -9.7200    -5.2060     1.1090 H     1 <1>   0.1500 
 30 H      -12.6220    -1.5840    -0.4700 H     1 <1>   0.1500 
 31 H       -8.9460    -0.8690    -0.6390 H     1 <1>   0.0800 
 32 H      -13.5890    -3.6560     0.3460 H     1 <1>   0.1500 
 33 H      -11.5500     0.4480     0.1260 H     1 <1>   0.0800 
 34 H      -10.0140     1.2340    -0.1450 H     1 <1>   0.0800 
 35 H      -10.2130     0.1490     1.2090 H     1 <1>   0.0800 
 36 H      -11.4680    -0.5310    -2.2590 H     1 <1>   0.0800 
 37 H      -10.0760    -1.4710    -2.7390 H     1 <1>   0.0800 
 38 H       -9.9320     0.2560    -2.5280 H     1 <1>   0.0800 
 39 H      -11.6610    -6.3430     1.9900 H     1 <1>   0.0800 
 40 H      -12.5020    -6.5220     0.4670 H     1 <1>   0.0800 
 41 H      -13.2510    -5.6580     1.7900 H     1 <1>   0.0800 
@<TRIPOS>BOND
  1   1   2  1   
  2   2   3  ar  
  3   2   4  ar  
  4   3   5  ar  
  5   3  23  1   
  6   4   6  ar  
  7   4  24  1   
  8   5   7  ar  
  9   6   7  ar  
 10   6  25  1   
 11   7   8  1   
 12   8   9  am  
 13   8  26  1   
 14   9  10  2   
 15   9  11  1   
 16  11  12  1   
 17  11  27  1   
 18  11  28  1   
 19  12  13  1   
 20  13  14  ar  
 21  13  15  ar  
 22  14  16  ar  
 23  14  17  1   
 24  15  18  ar  
 25  15  29  1   
 26  16  19  ar  
 27  16  30  1   
 28  17  20  1   
 29  17  21  1   
 30  17  31  1   
 31  18  19  ar  
 32  18  22  1   
 33  19  32  1   
 34  20  33  1   
 35  20  34  1   
 36  20  35  1   
 37  21  36  1   
 38  21  37  1   
 39  21  38  1   
 40  22  39  1   
 41  22  40  1   
 42  22  41  1   
@<TRIPOS>SUBSTRUCTURE
  1 ****  12 GROUP 4 **** **** 0

# MOE 2024.06 (io_trps.svl 2023.06)
