@<TRIPOS>MOLECULE
NONAME
49 51 1 0 0 
SMALL
USER_CHARGES


@<TRIPOS>ATOM
  1 CL      -2.7230    -0.0340    -2.9760 Cl    1 <1>  -0.1770 
  2 C       -3.3680     0.8270    -1.6010 C.ar  1 <1>   0.1770 
  3 C       -4.5840     0.4460    -1.0760 C.ar  1 <1>  -0.1500 
  4 C       -2.6490     1.8750    -1.0620 C.ar  1 <1>  -0.1500 
  5 C       -5.1110     1.1210     0.0190 C.ar  1 <1>   0.1000 
  6 C       -3.1660     2.5530     0.0290 C.ar  1 <1>  -0.1500 
  7 N       -6.3400     0.7400     0.5530 N.pl3 1 <1>  -0.8380 
  8 C       -4.3890     2.1830     0.5700 C.ar  1 <1>  -0.1430 
  9 C       -6.4150    -0.5310     1.3330 C.3   1 <1>   0.2090 
 10 C       -7.5800     1.0550    -0.2170 C.3   1 <1>   0.2090 
 11 C       -4.9390     2.9420     1.7690 C.3   1 <1>  -0.0970 
 12 C       -6.9880    -1.6970     0.5020 C.3   1 <1>   0.1100 
 13 C       -8.1130    -0.1650    -0.9940 C.3   1 <1>   0.1100 
 14 N       -8.2810    -1.3600    -0.1310 N.3   1 <1>  -0.8100 
 15 C       -8.8060    -2.5160    -0.9180 C.3   1 <1>   0.1710 
 16 C      -10.2630    -2.3650    -1.3670 C.2   1 <1>   0.5690 
 17 O      -10.6460    -2.9400    -2.3580 O.2   1 <1>  -0.5700 
 18 N      -11.0740    -1.5720    -0.6260 N.am  1 <1>  -0.7300 
 19 C      -12.4770    -1.2360    -0.9020 C.3   1 <1>   0.2200 
 20 C      -12.5650     0.2470    -1.2390 C.3   1 <1>  -0.1600 
 21 C      -13.2690    -1.3480     0.3940 C.3   1 <1>  -0.1600 
 22 C      -12.5410     0.9790     0.1080 C.3   1 <1>  -0.1600 
 23 C      -13.0140    -0.0400     1.1530 C.3   1 <1>  -0.1600 
 24 H       -5.1200    -0.3710    -1.5150 H     1 <1>   0.1500 
 25 H       -1.7030     2.1530    -1.4890 H     1 <1>   0.1500 
 26 H       -2.6100     3.3710     0.4530 H     1 <1>   0.1500 
 27 H       -7.0430    -0.3720     2.1920 H     1 <1>   0.0800 
 28 H       -5.4330    -0.7910     1.6860 H     1 <1>   0.0800 
 29 H       -7.3780     1.8580    -0.9050 H     1 <1>   0.0800 
 30 H       -8.3370     1.3920     0.4690 H     1 <1>   0.0800 
 31 H       -5.0780     2.2640     2.5920 H     1 <1>   0.0800 
 32 H       -5.8910     3.3740     1.5170 H     1 <1>   0.0800 
 33 H       -4.2740     3.7270     2.0760 H     1 <1>   0.0800 
 34 H       -7.1220    -2.5440     1.1530 H     1 <1>   0.0800 
 35 H       -6.2710    -1.9710    -0.2520 H     1 <1>   0.0800 
 36 H       -7.4330    -0.3870    -1.7980 H     1 <1>   0.0800 
 37 H       -9.0580     0.1030    -1.4330 H     1 <1>   0.0800 
 38 H       -8.7580    -3.4040    -0.3140 H     1 <1>   0.0800 
 39 H       -8.1940    -2.6760    -1.7870 H     1 <1>   0.0800 
 40 H      -10.6370    -1.0760     0.1550 H     1 <1>   0.3700 
 41 H      -12.8700    -1.8640    -1.6860 H     1 <1>   0.0800 
 42 H      -13.5100     0.4290    -1.7200 H     1 <1>   0.0800 
 43 H      -11.7770     0.5600    -1.9010 H     1 <1>   0.0800 
 44 H      -12.9980    -2.2200     0.9620 H     1 <1>   0.0800 
 45 H      -14.3140    -1.4110     0.1470 H     1 <1>   0.0800 
 46 H      -13.1760     1.8480     0.0860 H     1 <1>   0.0800 
 47 H      -11.5350     1.2880     0.3360 H     1 <1>   0.0800 
 48 H      -12.2430    -0.1880     1.8900 H     1 <1>   0.0800 
 49 H      -13.9090     0.2940     1.6500 H     1 <1>   0.0800 
@<TRIPOS>BOND
  1   1   2  1   
  2   2   3  ar  
  3   2   4  ar  
  4   3   5  ar  
  5   3  24  1   
  6   4   6  ar  
  7   4  25  1   
  8   5   7  1   
  9   5   8  ar  
 10   6   8  ar  
 11   6  26  1   
 12   7   9  1   
 13   7  10  1   
 14   8  11  1   
 15   9  12  1   
 16   9  27  1   
 17   9  28  1   
 18  10  13  1   
 19  10  29  1   
 20  10  30  1   
 21  11  31  1   
 22  11  32  1   
 23  11  33  1   
 24  12  14  1   
 25  12  34  1   
 26  12  35  1   
 27  13  14  1   
 28  13  36  1   
 29  13  37  1   
 30  14  15  1   
 31  15  16  1   
 32  15  38  1   
 33  15  39  1   
 34  16  17  2   
 35  16  18  am  
 36  18  19  1   
 37  18  40  1   
 38  19  20  1   
 39  19  21  1   
 40  19  41  1   
 41  20  22  1   
 42  20  42  1   
 43  20  43  1   
 44  21  23  1   
 45  21  44  1   
 46  21  45  1   
 47  22  23  1   
 48  22  46  1   
 49  22  47  1   
 50  23  48  1   
 51  23  49  1   
@<TRIPOS>SUBSTRUCTURE
  1 ****  13 GROUP 4 **** **** 0

# MOE 2024.06 (io_trps.svl 2023.06)
