@<TRIPOS>MOLECULE
NONAME
54 56 1 0 0 
SMALL
USER_CHARGES


@<TRIPOS>ATOM
  1 O       -4.9720     2.5810    -1.8240 O.2   1 <1>  -0.5700 
  2 C       -4.9900     2.3600    -0.6410 C.2   1 <1>   0.6590 
  3 O       -3.8920     2.3120     0.0960 O.3   1 <1>  -0.4300 
  4 C       -6.3030     2.1180     0.0970 C.3   1 <1>  -0.0190 
  5 C       -2.6180     2.5200    -0.4690 C.3   1 <1>   0.1200 
  6 C       -7.0520     0.9060    -0.4890 C.3   1 <1>  -0.1600 
  7 C       -7.1970     3.3720     0.0490 C.3   1 <1>  -0.1600 
  8 C       -1.5810     2.3990     0.6430 C.3   1 <1>  -0.2400 
  9 C       -8.4260     0.7180     0.1500 C.3   1 <1>   0.3430 
 10 C       -8.5690     3.1240     0.6730 C.3   1 <1>   0.3430 
 11 N       -9.2260     1.9670    -0.0060 N.4   1 <1>  -0.9590 
 12 C      -10.6270     1.7550     0.4570 C.3   1 <1>   0.3430 
 13 C      -11.5310     2.8720    -0.0580 C.3   1 <1>  -0.1600 
 14 C      -12.9900     2.6020     0.3090 C.3   1 <1>   0.1200 
 15 O      -13.7430     3.6780    -0.1860 O.3   1 <1>  -0.3630 
 16 C      -15.0880     3.7350    -0.0150 C.ar  1 <1>   0.0820 
 17 C      -15.7350     4.8440    -0.5430 C.ar  1 <1>  -0.1500 
 18 C      -15.8280     2.7550     0.6510 C.ar  1 <1>  -0.1500 
 19 C      -17.1040     4.9630    -0.4020 C.ar  1 <1>  -0.1440 
 20 C      -17.2020     2.8860     0.7850 C.ar  1 <1>  -0.1500 
 21 C      -17.8270     3.9980     0.2520 C.ar  1 <1>  -0.1440 
 22 C      -17.9940     6.0760    -0.8950 C.3   1 <1>  -0.0170 
 23 C      -19.2960     4.3400     0.2820 C.3   1 <1>  -0.0170 
 24 C      -19.4120     5.5050    -0.7160 C.3   1 <1>  -0.1600 
 25 H       -6.0660     1.9070     1.1250 H     1 <1>   0.0800 
 26 H       -2.5960     3.5020    -0.9130 H     1 <1>   0.0800 
 27 H       -2.4560     1.7760    -1.2320 H     1 <1>   0.0800 
 28 H       -6.4660     0.0170    -0.3320 H     1 <1>   0.0800 
 29 H       -7.1710     1.0240    -1.5530 H     1 <1>   0.0800 
 30 H       -7.3260     3.6940    -0.9700 H     1 <1>   0.0800 
 31 H       -6.7110     4.1750     0.5770 H     1 <1>   0.0800 
 32 H       -1.7580     3.1410     1.4000 H     1 <1>   0.0800 
 33 H       -0.5970     2.5540     0.2380 H     1 <1>   0.0800 
 34 H       -1.6180     1.4180     1.0820 H     1 <1>   0.0800 
 35 H       -8.3100     0.4840     1.1970 H     1 <1>   0.0800 
 36 H       -8.9310    -0.1080    -0.3280 H     1 <1>   0.0800 
 37 H       -9.1700     4.0130     0.5650 H     1 <1>   0.0800 
 38 H       -8.4570     2.9170     1.7260 H     1 <1>   0.0800 
 39 H       -9.2570     2.1820    -1.0130 H     1 <1>   0.4500 
 40 H      -10.6610     1.7190     1.5340 H     1 <1>   0.0800 
 41 H      -10.9920     0.8140     0.0770 H     1 <1>   0.0800 
 42 H      -11.4590     2.9330    -1.1300 H     1 <1>   0.0800 
 43 H      -11.2490     3.8140     0.3760 H     1 <1>   0.0800 
 44 H      -13.1250     2.5610     1.3770 H     1 <1>   0.0800 
 45 H      -13.3510     1.6980    -0.1520 H     1 <1>   0.0800 
 46 H      -15.1680     5.5990    -1.0550 H     1 <1>   0.1500 
 47 H      -15.3610     1.8860     1.0700 H     1 <1>   0.1500 
 48 H      -17.7760     2.1350     1.2970 H     1 <1>   0.1500 
 49 H      -17.7910     6.3190    -1.9230 H     1 <1>   0.0800 
 50 H      -17.8530     6.9460    -0.2780 H     1 <1>   0.0800 
 51 H      -19.5680     4.6600     1.2730 H     1 <1>   0.0800 
 52 H      -19.9030     3.5030    -0.0140 H     1 <1>   0.0800 
 53 H      -19.7480     5.1170    -1.6620 H     1 <1>   0.0800 
 54 H      -20.1050     6.2550    -0.3780 H     1 <1>   0.0800 
@<TRIPOS>BOND
  1   1   2  2   
  2   2   3  1   
  3   2   4  1   
  4   3   5  1   
  5   4   6  1   
  6   4   7  1   
  7   4  25  1   
  8   5   8  1   
  9   5  26  1   
 10   5  27  1   
 11   6   9  1   
 12   6  28  1   
 13   6  29  1   
 14   7  10  1   
 15   7  30  1   
 16   7  31  1   
 17   8  32  1   
 18   8  33  1   
 19   8  34  1   
 20   9  11  1   
 21   9  35  1   
 22   9  36  1   
 23  10  11  1   
 24  10  37  1   
 25  10  38  1   
 26  11  12  1   
 27  11  39  1   
 28  12  13  1   
 29  12  40  1   
 30  12  41  1   
 31  13  14  1   
 32  13  42  1   
 33  13  43  1   
 34  14  15  1   
 35  14  44  1   
 36  14  45  1   
 37  15  16  1   
 38  16  17  ar  
 39  16  18  ar  
 40  17  19  ar  
 41  17  46  1   
 42  18  20  ar  
 43  18  47  1   
 44  19  21  ar  
 45  19  22  1   
 46  20  21  ar  
 47  20  48  1   
 48  21  23  1   
 49  22  24  1   
 50  22  49  1   
 51  22  50  1   
 52  23  24  1   
 53  23  51  1   
 54  23  52  1   
 55  24  53  1   
 56  24  54  1   
@<TRIPOS>SUBSTRUCTURE
  1 ****  13 GROUP 4 **** **** 0

# MOE 2024.06 (io_trps.svl 2023.06)
