@<TRIPOS>MOLECULE
NONAME
25 26 1 0 0 
SMALL
USER_CHARGES


@<TRIPOS>ATOM
  1 S       -0.0750     0.0510    -0.8440 S.3   1 <1>  -0.2860 
  2 C       -1.8490     0.0220    -0.5660 C.2   1 <1>   0.2420 
  3 C        0.6370    -1.0840     0.4260 C.3   1 <1>  -0.0100 
  4 N       -2.5360     1.1070    -0.5410 N.2   1 <1>  -0.5650 
  5 N       -2.5480    -1.1310    -0.3730 N.pl3 1 <1>   0.0480 
  6 C       -3.8000     0.6660    -0.2990 C.ar  1 <1>   0.2270 
  7 C       -3.8310    -0.7150    -0.1890 C.ar  1 <1>  -0.1520 
  8 C       -2.1220    -2.5280    -0.5780 C.3   1 <1>   0.0160 
  9 C       -4.9740     1.4030    -0.1620 C.ar  1 <1>  -0.1500 
 10 C       -5.0320    -1.3860     0.0570 C.ar  1 <1>  -0.1500 
 11 C       -6.1650     0.7500     0.0820 C.ar  1 <1>  -0.1440 
 12 C       -6.1860    -0.6460     0.1910 C.ar  1 <1>  -0.1500 
 13 C       -7.4610     1.5240     0.2360 C.3   1 <1>  -0.0970 
 14 H        1.6560    -0.7820     0.5920 H     1 <1>   0.0800 
 15 H        0.5960    -2.0870     0.0450 H     1 <1>   0.0800 
 16 H        0.0570    -0.9770     1.3250 H     1 <1>   0.0800 
 17 H       -1.3150    -2.5580    -1.2860 H     1 <1>   0.0800 
 18 H       -2.9450    -3.0990    -0.9650 H     1 <1>   0.0800 
 19 H       -1.8050    -2.9440     0.3600 H     1 <1>   0.0800 
 20 H       -4.9130     2.4710    -0.2530 H     1 <1>   0.1500 
 21 H       -5.0510    -2.4580     0.1420 H     1 <1>   0.1500 
 22 H       -7.1210    -1.1430     0.3810 H     1 <1>   0.1500 
 23 H       -7.2910     2.5810     0.1290 H     1 <1>   0.0800 
 24 H       -7.8830     1.3420     1.2080 H     1 <1>   0.0800 
 25 H       -8.1650     1.2130    -0.5150 H     1 <1>   0.0800 
@<TRIPOS>BOND
  1   1   2  1   
  2   1   3  1   
  3   2   4  2   
  4   2   5  1   
  5   3  14  1   
  6   3  15  1   
  7   3  16  1   
  8   4   6  1   
  9   5   7  1   
 10   5   8  1   
 11   6   7  ar  
 12   6   9  ar  
 13   7  10  ar  
 14   8  17  1   
 15   8  18  1   
 16   8  19  1   
 17   9  11  ar  
 18   9  20  1   
 19  10  12  ar  
 20  10  21  1   
 21  11  12  ar  
 22  11  13  1   
 23  12  22  1   
 24  13  23  1   
 25  13  24  1   
 26  13  25  1   
@<TRIPOS>SUBSTRUCTURE
  1 ****   7 GROUP 4 **** **** 0

# MOE 2024.06 (io_trps.svl 2023.06)
