@<TRIPOS>MOLECULE
NONAME
38 38 1 0 0 
SMALL
USER_CHARGES


@<TRIPOS>ATOM
  1 BR       0.4180     0.1960    -0.8620 Br    1 <1>  -0.1110 
  2 C        2.2070    -0.4610    -0.5890 C.ar  1 <1>   0.1110 
  3 C        2.6020    -0.8050     0.6910 C.ar  1 <1>  -0.1500 
  4 C        3.0490    -0.5710    -1.6780 C.ar  1 <1>  -0.1500 
  5 C        3.8890    -1.2770     0.8860 C.ar  1 <1>  -0.1500 
  6 C        4.3340    -1.0450    -1.4730 C.ar  1 <1>  -0.1500 
  7 C        4.7600    -1.3980    -0.1980 C.ar  1 <1>   0.0830 
  8 O        6.0340    -1.8520    -0.0920 O.3   1 <1>  -0.3630 
  9 C        6.5780    -2.2260     1.1690 C.3   1 <1>   0.1810 
 10 C        8.0230    -2.6920     1.0300 C.2   1 <1>   0.5690 
 11 O        8.6670    -2.9130     2.0290 O.2   1 <1>  -0.5700 
 12 N        8.5710    -2.8480    -0.2070 N.am  1 <1>  -0.7300 
 13 C        9.9170    -3.3880    -0.4640 C.3   1 <1>   0.1400 
 14 C       10.9470    -2.2820    -0.2270 C.3   1 <1>  -0.1600 
 15 C       12.3550    -2.8690    -0.1660 C.3   1 <1>   0.3430 
 16 N       13.3190    -1.8460     0.3340 N.4   1 <1>  -0.9590 
 17 C       13.5470    -0.7390    -0.6490 C.3   1 <1>   0.2630 
 18 C       14.6160    -2.4870     0.7110 C.3   1 <1>   0.2630 
 19 H        1.9150    -0.7040     1.5120 H     1 <1>   0.1500 
 20 H        2.7070    -0.2940    -2.6590 H     1 <1>   0.1500 
 21 H        4.1870    -1.5430     1.8830 H     1 <1>   0.1500 
 22 H        5.0120    -1.1410    -2.3010 H     1 <1>   0.1500 
 23 H        5.9860    -3.0260     1.5720 H     1 <1>   0.0800 
 24 H        6.5420    -1.3730     1.8210 H     1 <1>   0.0800 
 25 H        7.9750    -2.6360    -1.0140 H     1 <1>   0.3700 
 26 H        9.9720    -3.7610    -1.4740 H     1 <1>   0.0800 
 27 H       10.0890    -4.2080     0.2150 H     1 <1>   0.0800 
 28 H       10.7300    -1.8090     0.7150 H     1 <1>   0.0800 
 29 H       10.8690    -1.5590    -1.0180 H     1 <1>   0.0800 
 30 H       12.6540    -3.2240    -1.1400 H     1 <1>   0.0800 
 31 H       12.3470    -3.7080     0.5120 H     1 <1>   0.0800 
 32 H       12.9080    -1.4380     1.1900 H     1 <1>   0.4500 
 33 H       13.9510    -1.1310    -1.5680 H     1 <1>   0.0800 
 34 H       14.2410    -0.0190    -0.2460 H     1 <1>   0.0800 
 35 H       12.6200    -0.2330    -0.8670 H     1 <1>   0.0800 
 36 H       15.0780    -2.9380    -0.1530 H     1 <1>   0.0800 
 37 H       14.4530    -3.2520     1.4540 H     1 <1>   0.0800 
 38 H       15.2920    -1.7530     1.1200 H     1 <1>   0.0800 
@<TRIPOS>BOND
  1   1   2  1   
  2   2   3  ar  
  3   2   4  ar  
  4   3   5  ar  
  5   3  19  1   
  6   4   6  ar  
  7   4  20  1   
  8   5   7  ar  
  9   5  21  1   
 10   6   7  ar  
 11   6  22  1   
 12   7   8  1   
 13   8   9  1   
 14   9  10  1   
 15   9  23  1   
 16   9  24  1   
 17  10  11  2   
 18  10  12  am  
 19  12  13  1   
 20  12  25  1   
 21  13  14  1   
 22  13  26  1   
 23  13  27  1   
 24  14  15  1   
 25  14  28  1   
 26  14  29  1   
 27  15  16  1   
 28  15  30  1   
 29  15  31  1   
 30  16  17  1   
 31  16  18  1   
 32  16  32  1   
 33  17  33  1   
 34  17  34  1   
 35  17  35  1   
 36  18  36  1   
 37  18  37  1   
 38  18  38  1   
@<TRIPOS>SUBSTRUCTURE
  1 ****   8 GROUP 4 **** **** 0

# MOE 2024.06 (io_trps.svl 2023.06)
