@<TRIPOS>MOLECULE
NONAME
34 34 1 0 0 
SMALL
USER_CHARGES


@<TRIPOS>ATOM
  1 CL       0.1090    -0.4300     0.0060 Cl    1 <1>  -0.1770 
  2 C       -1.5240    -1.0490     0.0050 C.ar  1 <1>   0.1770 
  3 C       -1.7310    -2.4160    -0.0010 C.ar  1 <1>  -0.1500 
  4 C       -2.5850    -0.1620     0.0100 C.ar  1 <1>  -0.1500 
  5 C       -3.0280    -2.9010    -0.0010 C.ar  1 <1>  -0.1500 
  6 C       -3.8810    -0.6500     0.0090 C.ar  1 <1>  -0.1500 
  7 C       -4.1060    -2.0270     0.0030 C.ar  1 <1>   0.0830 
  8 O       -5.3400    -2.5900     0.0020 O.3   1 <1>  -0.3630 
  9 C       -6.5080    -1.8070     0.0060 C.3   1 <1>   0.1200 
 10 C       -7.6950    -2.7730     0.0030 C.3   1 <1>   0.3430 
 11 N       -9.0050    -2.0520     0.0060 N.4   1 <1>  -0.9060 
 12 C      -10.1520    -2.9910     0.0030 C.3   1 <1>   0.3430 
 13 C      -11.4500    -2.1880     0.0060 C.3   1 <1>  -0.1600 
 14 C      -12.6680    -3.1200     0.0030 C.3   1 <1>  -0.1600 
 15 C      -13.9710    -2.3160     0.0060 C.3   1 <1>  -0.2400 
 16 H       -0.8890    -3.0850    -0.0050 H     1 <1>   0.1500 
 17 H       -2.3890     0.8950     0.0140 H     1 <1>   0.1500 
 18 H       -3.2050    -3.9620    -0.0060 H     1 <1>   0.1500 
 19 H       -4.6880     0.0570     0.0130 H     1 <1>   0.1500 
 20 H       -6.5010    -1.1950    -0.8790 H     1 <1>   0.0800 
 21 H       -6.5000    -1.2020     0.8970 H     1 <1>   0.0800 
 22 H       -7.6280    -3.4030     0.8750 H     1 <1>   0.0800 
 23 H       -7.6280    -3.3960    -0.8740 H     1 <1>   0.0800 
 24 H       -9.0780    -1.4420    -0.8190 H     1 <1>   0.4500 
 25 H       -9.0770    -1.4490     0.8360 H     1 <1>   0.4500 
 26 H      -10.1180    -3.6240     0.8760 H     1 <1>   0.0800 
 27 H      -10.1180    -3.6180    -0.8750 H     1 <1>   0.0800 
 28 H      -11.4930    -1.5600    -0.8680 H     1 <1>   0.0800 
 29 H      -11.4930    -1.5660     0.8850 H     1 <1>   0.0800 
 30 H      -12.6510    -3.7560     0.8730 H     1 <1>   0.0800 
 31 H      -12.6510    -3.7500    -0.8710 H     1 <1>   0.0800 
 32 H      -14.0370    -1.6960     0.8830 H     1 <1>   0.0800 
 33 H      -14.8150    -2.9850     0.0040 H     1 <1>   0.0800 
 34 H      -14.0370    -1.6900    -0.8670 H     1 <1>   0.0800 
@<TRIPOS>BOND
  1   1   2  1   
  2   2   3  ar  
  3   2   4  ar  
  4   3   5  ar  
  5   3  16  1   
  6   4   6  ar  
  7   4  17  1   
  8   5   7  ar  
  9   5  18  1   
 10   6   7  ar  
 11   6  19  1   
 12   7   8  1   
 13   8   9  1   
 14   9  10  1   
 15   9  20  1   
 16   9  21  1   
 17  10  11  1   
 18  10  22  1   
 19  10  23  1   
 20  11  12  1   
 21  11  24  1   
 22  11  25  1   
 23  12  13  1   
 24  12  26  1   
 25  12  27  1   
 26  13  14  1   
 27  13  28  1   
 28  13  29  1   
 29  14  15  1   
 30  14  30  1   
 31  14  31  1   
 32  15  32  1   
 33  15  33  1   
 34  15  34  1   
@<TRIPOS>SUBSTRUCTURE
  1 ****   9 GROUP 4 **** **** 0

# MOE 2024.06 (io_trps.svl 2023.06)
