@<TRIPOS>MOLECULE
NONAME
46 48 1 0 0 
SMALL
USER_CHARGES


@<TRIPOS>ATOM
  1 F        1.6500     1.5650     2.1590 F     1 <1>  -0.1900 
  2 C        1.8490     2.0480     0.9590 C.ar  1 <1>   0.1900 
  3 C        1.5800     3.3850     0.7190 C.ar  1 <1>   0.1900 
  4 C        2.3220     1.2110    -0.0490 C.ar  1 <1>   0.0860 
  5 F        1.1260     4.1480     1.6790 F     1 <1>  -0.1900 
  6 C        1.7780     3.9440    -0.5280 C.ar  1 <1>  -0.1500 
  7 C        2.6080    -0.1900     0.1670 C.2   1 <1>   0.5440 
  8 C        2.5260     1.7940    -1.3040 C.ar  1 <1>  -0.1500 
  9 C        2.2590     3.1340    -1.5450 C.ar  1 <1>  -0.1500 
 10 O        3.7370    -0.5880    -0.0420 O.2   1 <1>  -0.5700 
 11 N        1.6430    -1.0940     0.5570 N.am  1 <1>  -0.6600 
 12 C        1.9760    -2.5160     0.8950 C.3   1 <1>   0.1400 
 13 C        0.1700    -0.8120     0.5870 C.3   1 <1>   0.1400 
 14 C        1.1980    -3.5000     0.0050 C.3   1 <1>   0.2090 
 15 C       -0.6100    -1.8050    -0.2940 C.3   1 <1>   0.2090 
 16 N       -0.2690    -3.2170     0.0550 N.pl3 1 <1>  -0.8380 
 17 C       -1.1690    -4.2550    -0.1890 C.ar  1 <1>   0.1000 
 18 C       -1.9880    -4.3760    -1.3180 C.ar  1 <1>   0.1900 
 19 C       -1.2900    -5.2640     0.7590 C.ar  1 <1>  -0.1500 
 20 F       -1.9380    -3.4680    -2.2650 F     1 <1>  -0.1900 
 21 C       -2.8530    -5.4280    -1.5020 C.ar  1 <1>  -0.1500 
 22 C       -2.1570    -6.3340     0.6000 C.ar  1 <1>  -0.1430 
 23 C       -2.9490    -6.4500    -0.5570 C.ar  1 <1>   0.0860 
 24 C       -2.2400    -7.3470     1.7370 C.3   1 <1>  -0.0970 
 25 C       -3.8500    -7.5430    -0.8300 C.2   1 <1>   0.4230 
 26 O       -4.9860    -7.3790    -1.1930 O.2   1 <1>  -0.5700 
 27 C       -3.3680    -8.9770    -0.7330 C.3   1 <1>  -0.1790 
 28 H        1.5650     4.9860    -0.6960 H     1 <1>   0.1500 
 29 H        2.9080     1.1750    -2.0990 H     1 <1>   0.1500 
 30 H        2.4280     3.5480    -2.5260 H     1 <1>   0.1500 
 31 H        1.7200    -2.6990     1.9230 H     1 <1>   0.0800 
 32 H        3.0300    -2.6990     0.7840 H     1 <1>   0.0800 
 33 H       -0.0370     0.1850     0.2460 H     1 <1>   0.0800 
 34 H       -0.1810    -0.8970     1.6000 H     1 <1>   0.0800 
 35 H        1.3880    -4.5070     0.3320 H     1 <1>   0.0800 
 36 H        1.5440    -3.4070    -1.0100 H     1 <1>   0.0800 
 37 H       -0.3670    -1.6250    -1.3270 H     1 <1>   0.0800 
 38 H       -1.6660    -1.6480    -0.1640 H     1 <1>   0.0800 
 39 H       -0.6880    -5.1810     1.6460 H     1 <1>   0.1500 
 40 H       -3.4620    -5.4660    -2.3880 H     1 <1>   0.1500 
 41 H       -1.8510    -6.9300     2.6490 H     1 <1>   0.0800 
 42 H       -1.6670    -8.2250     1.4990 H     1 <1>   0.0800 
 43 H       -3.2620    -7.6270     1.9190 H     1 <1>   0.0800 
 44 H       -2.2950    -9.0190    -0.7430 H     1 <1>   0.0800 
 45 H       -3.7420    -9.5340    -1.5720 H     1 <1>   0.0800 
 46 H       -3.7420    -9.4240     0.1690 H     1 <1>   0.0800 
@<TRIPOS>BOND
  1   1   2  1   
  2   2   3  ar  
  3   2   4  ar  
  4   3   5  1   
  5   3   6  ar  
  6   4   7  1   
  7   4   8  ar  
  8   6   9  ar  
  9   6  28  1   
 10   7  10  2   
 11   7  11  am  
 12   8   9  ar  
 13   8  29  1   
 14   9  30  1   
 15  11  12  1   
 16  11  13  1   
 17  12  14  1   
 18  12  31  1   
 19  12  32  1   
 20  13  15  1   
 21  13  33  1   
 22  13  34  1   
 23  14  16  1   
 24  14  35  1   
 25  14  36  1   
 26  15  16  1   
 27  15  37  1   
 28  15  38  1   
 29  16  17  1   
 30  17  18  ar  
 31  17  19  ar  
 32  18  20  1   
 33  18  21  ar  
 34  19  22  ar  
 35  19  39  1   
 36  21  23  ar  
 37  21  40  1   
 38  22  23  ar  
 39  22  24  1   
 40  23  25  1   
 41  24  41  1   
 42  24  42  1   
 43  24  43  1   
 44  25  26  2   
 45  25  27  1   
 46  27  44  1   
 47  27  45  1   
 48  27  46  1   
@<TRIPOS>SUBSTRUCTURE
  1 ****  15 GROUP 4 **** **** 0

# MOE 2024.06 (io_trps.svl 2023.06)
