@<TRIPOS>MOLECULE
NONAME
36 37 1 0 0 
SMALL
USER_CHARGES


@<TRIPOS>ATOM
  1 O        0.2270    -0.7490     0.6040 O.3   1 <1>  -0.5600 
  2 C        0.9670    -1.8220     1.1130 C.3   1 <1>   0.1200 
  3 C        0.9750     0.3930     0.3030 C.3   1 <1>   0.1200 
  4 C        2.0370    -2.2610     0.0960 C.3   1 <1>   0.3430 
  5 C        2.0460     0.0630    -0.7550 C.3   1 <1>   0.3430 
  6 N        2.8930    -1.1030    -0.3310 N.4   1 <1>  -0.9590 
  7 C        3.8730    -1.4920    -1.3630 C.3   1 <1>   0.4810 
  8 C        5.2020    -0.9200    -0.9150 C.2   1 <1>  -0.2760 
  9 C        6.1220    -1.6900    -0.3030 C.2   1 <1>  -0.1780 
 10 C        5.4050     0.5580    -1.2470 C.3   1 <1>  -0.1020 
 11 C        7.4210    -1.3190     0.2070 C.ar  1 <1>   0.0280 
 12 C        8.5470    -2.0540    -0.1510 C.ar  1 <1>  -0.1500 
 13 C        7.5910    -0.2450     1.0760 C.ar  1 <1>  -0.1500 
 14 C        9.8000    -1.7250     0.3340 C.ar  1 <1>  -0.1500 
 15 C        8.8410     0.0900     1.5640 C.ar  1 <1>  -0.1500 
 16 C        9.9490    -0.6510     1.1920 C.ar  1 <1>  -0.1500 
 17 H        1.4130    -1.5250     2.0470 H     1 <1>   0.0800 
 18 H        0.2810    -2.6300     1.3040 H     1 <1>   0.0800 
 19 H        0.2960     1.1370    -0.0760 H     1 <1>   0.0800 
 20 H        1.4220     0.7650     1.2080 H     1 <1>   0.0800 
 21 H        1.5360    -2.6800    -0.7610 H     1 <1>   0.0800 
 22 H        2.6500    -3.0320     0.5340 H     1 <1>   0.0800 
 23 H        2.6620     0.9310    -0.9200 H     1 <1>   0.0800 
 24 H        1.5440    -0.1680    -1.6810 H     1 <1>   0.0800 
 25 H        3.4630    -0.8140     0.4750 H     1 <1>   0.4500 
 26 H        3.9520    -2.5660    -1.4090 H     1 <1>   0.0800 
 27 H        3.5960    -1.1240    -2.3370 H     1 <1>   0.0800 
 28 H        5.9250    -2.7370    -0.1450 H     1 <1>   0.1500 
 29 H        5.1520     0.7510    -2.2750 H     1 <1>   0.0800 
 30 H        6.4340     0.8460    -1.1170 H     1 <1>   0.0800 
 31 H        4.8050     1.1840    -0.6130 H     1 <1>   0.0800 
 32 H        8.4440    -2.8910    -0.8180 H     1 <1>   0.1500 
 33 H        6.7380     0.3320     1.3790 H     1 <1>   0.1500 
 34 H       10.6600    -2.3040     0.0450 H     1 <1>   0.1500 
 35 H        8.9560     0.9240     2.2340 H     1 <1>   0.1500 
 36 H       10.9230    -0.3920     1.5700 H     1 <1>   0.1500 
@<TRIPOS>BOND
  1   1   2  1   
  2   1   3  1   
  3   2   4  1   
  4   2  17  1   
  5   2  18  1   
  6   3   5  1   
  7   3  19  1   
  8   3  20  1   
  9   4   6  1   
 10   4  21  1   
 11   4  22  1   
 12   5   6  1   
 13   5  23  1   
 14   5  24  1   
 15   6   7  1   
 16   6  25  1   
 17   7   8  1   
 18   7  26  1   
 19   7  27  1   
 20   8   9  2   
 21   8  10  1   
 22   9  11  1   
 23   9  28  1   
 24  10  29  1   
 25  10  30  1   
 26  10  31  1   
 27  11  12  ar  
 28  11  13  ar  
 29  12  14  ar  
 30  12  32  1   
 31  13  15  ar  
 32  13  33  1   
 33  14  16  ar  
 34  14  34  1   
 35  15  16  ar  
 36  15  35  1   
 37  16  36  1   
@<TRIPOS>SUBSTRUCTURE
  1 ****   8 GROUP 4 **** **** 0

# MOE 2024.06 (io_trps.svl 2023.06)
