@<TRIPOS>MOLECULE
NONAME
47 49 1 0 0 
SMALL
USER_CHARGES


@<TRIPOS>ATOM
  1 BR      -0.8650    -0.5720     2.5130 Br    1 <1>  -0.1110 
  2 C       -2.1870     0.5120     1.6250 C.ar  1 <1>   0.1110 
  3 C       -3.4790     0.5230     2.1130 C.ar  1 <1>  -0.1500 
  4 C       -1.8090     1.2540     0.5230 C.ar  1 <1>  -0.1500 
  5 C       -4.4220     1.3070     1.4700 C.ar  1 <1>  -0.1500 
  6 C       -2.7650     2.0300    -0.1080 C.ar  1 <1>  -0.1500 
  7 C       -4.0780     2.0680     0.3530 C.ar  1 <1>   0.1170 
  8 N       -5.0060     2.8940    -0.2970 N.am  1 <1>  -0.5470 
  9 C       -6.3650     2.7550    -0.3970 C.2   1 <1>   0.5690 
 10 O       -6.9300     1.7270    -0.1150 O.2   1 <1>  -0.5700 
 11 C       -7.1780     3.9620    -0.8760 C.3   1 <1>  -0.0190 
 12 C       -7.6270     4.8450     0.3200 C.3   1 <1>  -0.0190 
 13 C       -8.3760     3.5740    -1.7750 C.3   1 <1>  -0.0220 
 14 C       -6.4250     5.2840     1.1480 C.2   1 <1>   0.6590 
 15 C       -8.7010     4.1480     1.1810 C.3   1 <1>  -0.0220 
 16 C       -9.6580     3.3270    -0.9950 C.2   1 <1>  -0.2880 
 17 O       -6.3170     5.0850     2.3300 O.2   1 <1>  -0.5700 
 18 O       -5.4530     5.8370     0.4430 O.3   1 <1>  -0.4300 
 19 C       -9.8010     3.5710     0.3100 C.2   1 <1>  -0.2880 
 20 C       -4.1350     5.9550     0.9340 C.3   1 <1>   0.1200 
 21 C       -3.1880     6.1380    -0.2600 C.3   1 <1>   0.2000 
 22 O       -3.4380     5.1900    -1.2530 O.3   1 <1>  -0.5600 
 23 C       -1.7110     5.9440     0.0620 C.3   1 <1>  -0.1600 
 24 C       -2.3560     5.1760    -2.1270 C.3   1 <1>   0.1200 
 25 C       -1.1310     5.4360    -1.2530 C.3   1 <1>  -0.1600 
 26 H       -3.7420    -0.0660     2.9730 H     1 <1>   0.1500 
 27 H       -0.7950     1.2190     0.1690 H     1 <1>   0.1500 
 28 H       -5.4310     1.3310     1.8410 H     1 <1>   0.1500 
 29 H       -2.4950     2.6100    -0.9690 H     1 <1>   0.1500 
 30 H       -4.6020     3.7580    -0.6900 H     1 <1>   0.3700 
 31 H       -6.5190     4.5430    -1.4960 H     1 <1>   0.0800 
 32 H       -8.0690     5.7370    -0.0830 H     1 <1>   0.0800 
 33 H       -8.1280     2.6940    -2.3440 H     1 <1>   0.0800 
 34 H       -8.5640     4.3690    -2.4740 H     1 <1>   0.0800 
 35 H       -9.1200     4.8640     1.8660 H     1 <1>   0.0800 
 36 H       -8.2650     3.3500     1.7590 H     1 <1>   0.0800 
 37 H      -10.4500     2.9200    -1.6010 H     1 <1>   0.1500 
 38 H      -10.7100     3.3630     0.8500 H     1 <1>   0.1500 
 39 H       -3.8860     5.0560     1.4720 H     1 <1>   0.0800 
 40 H       -4.0900     6.7950     1.6030 H     1 <1>   0.0800 
 41 H       -3.3430     7.1110    -0.6960 H     1 <1>   0.0800 
 42 H       -1.5930     5.1990     0.8300 H     1 <1>   0.0800 
 43 H       -1.2550     6.8630     0.3860 H     1 <1>   0.0800 
 44 H       -2.4970     5.9670    -2.8440 H     1 <1>   0.0800 
 45 H       -2.3160     4.2260    -2.6310 H     1 <1>   0.0800 
 46 H       -0.5730     4.5280    -1.1030 H     1 <1>   0.0800 
 47 H       -0.4920     6.1670    -1.7170 H     1 <1>   0.0800 
@<TRIPOS>BOND
  1   1   2  1   
  2   2   3  ar  
  3   2   4  ar  
  4   3   5  ar  
  5   3  26  1   
  6   4   6  ar  
  7   4  27  1   
  8   5   7  ar  
  9   5  28  1   
 10   6   7  ar  
 11   6  29  1   
 12   7   8  1   
 13   8   9  am  
 14   8  30  1   
 15   9  10  2   
 16   9  11  1   
 17  11  12  1   
 18  11  13  1   
 19  11  31  1   
 20  12  14  1   
 21  12  15  1   
 22  12  32  1   
 23  13  16  1   
 24  13  33  1   
 25  13  34  1   
 26  14  17  2   
 27  14  18  1   
 28  15  19  1   
 29  15  35  1   
 30  15  36  1   
 31  16  19  2   
 32  16  37  1   
 33  18  20  1   
 34  19  38  1   
 35  20  21  1   
 36  20  39  1   
 37  20  40  1   
 38  21  22  1   
 39  21  23  1   
 40  21  41  1   
 41  22  24  1   
 42  23  25  1   
 43  23  42  1   
 44  23  43  1   
 45  24  25  1   
 46  24  44  1   
 47  24  45  1   
 48  25  46  1   
 49  25  47  1   
@<TRIPOS>SUBSTRUCTURE
  1 ****   8 GROUP 4 **** **** 0

# MOE 2024.06 (io_trps.svl 2023.06)
