@<TRIPOS>MOLECULE
NONAME
35 35 1 0 0 
SMALL
USER_CHARGES


@<TRIPOS>ATOM
  1 F        0.8920    -1.1450    -1.4510 F     1 <1>  -0.1900 
  2 C        2.0860    -0.7380    -1.1060 C.ar  1 <1>   0.1900 
  3 C        3.1570    -1.5960    -1.2690 C.ar  1 <1>  -0.1500 
  4 C        2.2360     0.5350    -0.5900 C.ar  1 <1>  -0.1500 
  5 C        4.4180    -1.1590    -0.9020 C.ar  1 <1>  -0.1500 
  6 C        3.5030     0.9560    -0.2260 C.ar  1 <1>  -0.1500 
  7 C        4.6090     0.1200    -0.3790 C.ar  1 <1>   0.1170 
  8 N        5.9040     0.5080    -0.0090 N.am  1 <1>  -0.5470 
  9 C        6.4770     1.7440     0.0540 C.2   1 <1>   0.6900 
 10 O        5.8950     2.7310    -0.3430 O.2   1 <1>  -0.5700 
 11 N        7.7290     1.8080     0.5630 N.am  1 <1>  -0.7300 
 12 C        8.6100     2.9590     0.7960 C.3   1 <1>   0.5000 
 13 C        9.5930     2.4340     1.7920 C.1   1 <1>  -0.2000 
 14 C        9.3910     3.3010    -0.4950 C.3   1 <1>  -0.1600 
 15 C        7.8480     4.1550     1.4230 C.3   1 <1>  -0.1600 
 16 C       10.3740     2.0090     2.5840 C.1   1 <1>  -0.1770 
 17 C        8.5710     3.8310    -1.6850 C.3   1 <1>  -0.2400 
 18 C        8.7210     5.3420     1.8770 C.3   1 <1>  -0.2400 
 19 H        3.0000    -2.5790    -1.6750 H     1 <1>   0.1500 
 20 H        1.3810     1.1770    -0.4760 H     1 <1>   0.1500 
 21 H        5.2600    -1.8150    -1.0260 H     1 <1>   0.1500 
 22 H        3.6310     1.9430     0.1820 H     1 <1>   0.1500 
 23 H        6.5590    -0.2530     0.1300 H     1 <1>   0.3700 
 24 H        8.1100     0.9810     1.0090 H     1 <1>   0.3700 
 25 H        9.9220     2.4210    -0.8150 H     1 <1>   0.0800 
 26 H       10.1370     4.0360    -0.2540 H     1 <1>   0.0800 
 27 H        7.2980     3.7960     2.2750 H     1 <1>   0.0800 
 28 H        7.1350     4.5380     0.7190 H     1 <1>   0.0800 
 29 H       11.0830     1.6340     3.3020 H     1 <1>   0.1770 
 30 H        7.8760     3.0870    -2.0300 H     1 <1>   0.0800 
 31 H        9.2270     4.0780    -2.5000 H     1 <1>   0.0800 
 32 H        8.0220     4.7150    -1.4140 H     1 <1>   0.0800 
 33 H        9.4360     5.0380     2.6200 H     1 <1>   0.0800 
 34 H        8.0950     6.1040     2.3070 H     1 <1>   0.0800 
 35 H        9.2450     5.7730     1.0430 H     1 <1>   0.0800 
@<TRIPOS>BOND
  1   1   2  1   
  2   2   3  ar  
  3   2   4  ar  
  4   3   5  ar  
  5   3  19  1   
  6   4   6  ar  
  7   4  20  1   
  8   5   7  ar  
  9   5  21  1   
 10   6   7  ar  
 11   6  22  1   
 12   7   8  1   
 13   8   9  am  
 14   8  23  1   
 15   9  10  2   
 16   9  11  am  
 17  11  12  1   
 18  11  24  1   
 19  12  13  1   
 20  12  14  1   
 21  12  15  1   
 22  13  16  3   
 23  14  17  1   
 24  14  25  1   
 25  14  26  1   
 26  15  18  1   
 27  15  27  1   
 28  15  28  1   
 29  16  29  1   
 30  17  30  1   
 31  17  31  1   
 32  17  32  1   
 33  18  33  1   
 34  18  34  1   
 35  18  35  1   
@<TRIPOS>SUBSTRUCTURE
  1 ****   9 GROUP 4 **** **** 0

# MOE 2024.06 (io_trps.svl 2023.06)
