@<TRIPOS>MOLECULE
NONAME
49 50 1 0 0 
SMALL
USER_CHARGES


@<TRIPOS>ATOM
  1 O       -1.7740    -0.5900     1.0140 O.2   1 <1>  -0.5700 
  2 C       -1.7100    -0.5130    -0.1860 C.2   1 <1>   0.6590 
  3 O       -1.9990     0.6250    -0.8130 O.3   1 <1>  -0.4300 
  4 C       -1.2930    -1.6500    -1.1090 C.3   1 <1>   0.1810 
  5 C       -2.4680     1.7770    -0.1460 C.3   1 <1>   0.1200 
  6 C       -2.5700    -2.2040    -1.6330 C.1   1 <1>   0.3570 
  7 C       -0.2500    -2.7120    -0.5950 C.3   1 <1>   0.1440 
  8 C       -3.9830     1.6650     0.0170 C.3   1 <1>  -0.2400 
  9 N       -3.5570    -2.5380    -2.0900 N.1   1 <1>  -0.5570 
 10 C        1.1150    -2.0520    -0.1730 C.ar  1 <1>  -0.1440 
 11 C       -0.8530    -3.5130     0.6190 C.3   1 <1>  -0.1600 
 12 C        0.0890    -3.6370    -1.8110 C.3   1 <1>  -0.1600 
 13 C        2.1800    -2.8290     0.3250 C.ar  1 <1>   0.0830 
 14 C        1.3560    -0.6810    -0.3090 C.ar  1 <1>  -0.1500 
 15 C       -1.5360    -4.8780     0.3470 C.3   1 <1>   0.2800 
 16 C       -0.2330    -5.1130    -1.6070 C.3   1 <1>   0.1200 
 17 O        2.0400    -4.1810     0.3900 O.3   1 <1>  -0.3630 
 18 C        3.3760    -2.2310     0.7210 C.ar  1 <1>  -0.1500 
 19 C        2.5480    -0.0980     0.0780 C.ar  1 <1>  -0.1500 
 20 O       -1.4730    -5.2150    -0.9970 O.3   1 <1>  -0.5600 
 21 C       -0.9100    -6.0140     1.1710 C.3   1 <1>  -0.2400 
 22 C       -3.0290    -4.8370     0.6860 C.3   1 <1>  -0.2400 
 23 C        3.0490    -5.0390     0.8770 C.3   1 <1>   0.0400 
 24 C        3.5590    -0.8710     0.6030 C.ar  1 <1>  -0.1500 
 25 H       -0.8390    -1.1770    -1.9580 H     1 <1>   0.0800 
 26 H       -2.2190     2.6310    -0.7510 H     1 <1>   0.0800 
 27 H       -1.9740     1.8650     0.8080 H     1 <1>   0.0800 
 28 H       -4.4540     1.5540    -0.9440 H     1 <1>   0.0800 
 29 H       -4.3640     2.5540     0.4850 H     1 <1>   0.0800 
 30 H       -4.2310     0.8220     0.6380 H     1 <1>   0.0800 
 31 H       -1.5560    -2.9150     1.1570 H     1 <1>   0.0800 
 32 H       -0.0930    -3.6760     1.3560 H     1 <1>   0.0800 
 33 H        1.1320    -3.5700    -2.0620 H     1 <1>   0.0800 
 34 H       -0.4260    -3.3310    -2.7030 H     1 <1>   0.0800 
 35 H        0.6470     0.0020    -0.7240 H     1 <1>   0.1500 
 36 H        0.5120    -5.6060    -1.0120 H     1 <1>   0.0800 
 37 H       -0.2940    -5.6150    -2.5570 H     1 <1>   0.0800 
 38 H        4.1880    -2.8060     1.1210 H     1 <1>   0.1500 
 39 H        2.6890     0.9630    -0.0300 H     1 <1>   0.1500 
 40 H        0.1530    -6.0590     1.0410 H     1 <1>   0.0800 
 41 H       -1.3410    -6.9570     0.8880 H     1 <1>   0.0800 
 42 H       -1.1000    -5.8540     2.2170 H     1 <1>   0.0800 
 43 H       -3.5350    -4.0820     0.1190 H     1 <1>   0.0800 
 44 H       -3.1720    -4.6240     1.7300 H     1 <1>   0.0800 
 45 H       -3.4840    -5.7860     0.4680 H     1 <1>   0.0800 
 46 H        2.6850    -6.0490     0.8220 H     1 <1>   0.0800 
 47 H        3.2600    -4.7830     1.9010 H     1 <1>   0.0800 
 48 H        3.9250    -4.9340     0.2620 H     1 <1>   0.0800 
 49 H        4.4850    -0.4160     0.9120 H     1 <1>   0.1500 
@<TRIPOS>BOND
  1   1   2  2   
  2   2   3  1   
  3   2   4  1   
  4   3   5  1   
  5   4   6  1   
  6   4   7  1   
  7   4  25  1   
  8   5   8  1   
  9   5  26  1   
 10   5  27  1   
 11   6   9  3   
 12   7  10  1   
 13   7  11  1   
 14   7  12  1   
 15   8  28  1   
 16   8  29  1   
 17   8  30  1   
 18  10  13  ar  
 19  10  14  ar  
 20  11  15  1   
 21  11  31  1   
 22  11  32  1   
 23  12  16  1   
 24  12  33  1   
 25  12  34  1   
 26  13  17  1   
 27  13  18  ar  
 28  14  19  ar  
 29  14  35  1   
 30  15  20  1   
 31  15  21  1   
 32  15  22  1   
 33  16  20  1   
 34  16  36  1   
 35  16  37  1   
 36  17  23  1   
 37  18  24  ar  
 38  18  38  1   
 39  19  24  ar  
 40  19  39  1   
 41  21  40  1   
 42  21  41  1   
 43  21  42  1   
 44  22  43  1   
 45  22  44  1   
 46  22  45  1   
 47  23  46  1   
 48  23  47  1   
 49  23  48  1   
 50  24  49  1   
@<TRIPOS>SUBSTRUCTURE
  1 ****   7 GROUP 4 **** **** 0

# MOE 2024.06 (io_trps.svl 2023.06)
