@<TRIPOS>MOLECULE
NONAME
42 43 1 0 0 
SMALL
USER_CHARGES


@<TRIPOS>ATOM
  1 O        0.1860     0.2240     1.4440 O.2   1 <1>  -0.5700 
  2 C        0.3930     0.9940     0.5340 C.2   1 <1>   0.5690 
  3 N        1.6430     1.1160    -0.0320 N.am  1 <1>  -0.6600 
  4 C       -0.8150     1.7840     0.0460 C.3   1 <1>  -0.0990 
  5 C        1.9720     2.0440    -1.1540 C.3   1 <1>   0.1400 
  6 C        2.7100     0.1780     0.4400 C.3   1 <1>   0.1400 
  7 C       -0.8350     3.2360     0.5520 C.3   1 <1>  -0.1600 
  8 C        2.7300     3.2730    -0.6390 C.3   1 <1>  -0.1600 
  9 C        4.1560     0.5540     0.0870 C.3   1 <1>  -0.1600 
 10 C       -2.1270     3.9460     0.1520 C.3   1 <1>   0.1200 
 11 C        4.2360     3.0510    -0.4510 C.3   1 <1>  -0.1600 
 12 C        4.5770     1.9520     0.5610 C.3   1 <1>  -0.1600 
 13 O       -2.0330     5.2880     0.5690 O.3   1 <1>  -0.3630 
 14 C       -3.0330     6.1720     0.3300 C.ar  1 <1>   0.0820 
 15 C       -2.8260     7.4740     0.7580 C.ar  1 <1>  -0.1500 
 16 C       -4.2270     5.8430    -0.3080 C.ar  1 <1>  -0.1500 
 17 C       -3.7930     8.4430     0.5530 C.ar  1 <1>  -0.1500 
 18 C       -5.1930     6.8130    -0.5120 C.ar  1 <1>  -0.1500 
 19 C       -4.9770     8.1120    -0.0830 C.ar  1 <1>  -0.1500 
 20 H       -1.6950     1.2830     0.4110 H     1 <1>   0.0800 
 21 H       -0.8640     1.7500    -1.0250 H     1 <1>   0.0800 
 22 H        1.0730     2.3780    -1.6350 H     1 <1>   0.0800 
 23 H        2.5490     1.5290    -1.9020 H     1 <1>   0.0800 
 24 H        2.4970    -0.7990     0.0420 H     1 <1>   0.0800 
 25 H        2.6420     0.1020     1.5130 H     1 <1>   0.0800 
 26 H       -0.0030     3.7760     0.1420 H     1 <1>   0.0800 
 27 H       -0.7500     3.2370     1.6250 H     1 <1>   0.0800 
 28 H        2.2960     3.6060     0.2870 H     1 <1>   0.0800 
 29 H        2.6040     4.0650    -1.3550 H     1 <1>   0.0800 
 30 H        4.3270     0.4380    -0.9680 H     1 <1>   0.0800 
 31 H        4.7890    -0.1640     0.5770 H     1 <1>   0.0800 
 32 H       -2.9770     3.4970     0.6370 H     1 <1>   0.0800 
 33 H       -2.2550     3.9350    -0.9170 H     1 <1>   0.0800 
 34 H        4.6730     3.9740    -0.1110 H     1 <1>   0.0800 
 35 H        4.6860     2.8160    -1.4010 H     1 <1>   0.0800 
 36 H        5.6450     1.9550     0.7010 H     1 <1>   0.0800 
 37 H        4.1280     2.1720     1.5150 H     1 <1>   0.0800 
 38 H       -1.9040     7.7220     1.2510 H     1 <1>   0.1500 
 39 H       -4.4210     4.8450    -0.6500 H     1 <1>   0.1500 
 40 H       -3.6240     9.4510     0.8880 H     1 <1>   0.1500 
 41 H       -6.1160     6.5600    -1.0050 H     1 <1>   0.1500 
 42 H       -5.7300     8.8640    -0.2420 H     1 <1>   0.1500 
@<TRIPOS>BOND
  1   1   2  2   
  2   2   3  am  
  3   2   4  1   
  4   3   5  1   
  5   3   6  1   
  6   4   7  1   
  7   4  20  1   
  8   4  21  1   
  9   5   8  1   
 10   5  22  1   
 11   5  23  1   
 12   6   9  1   
 13   6  24  1   
 14   6  25  1   
 15   7  10  1   
 16   7  26  1   
 17   7  27  1   
 18   8  11  1   
 19   8  28  1   
 20   8  29  1   
 21   9  12  1   
 22   9  30  1   
 23   9  31  1   
 24  10  13  1   
 25  10  32  1   
 26  10  33  1   
 27  11  12  1   
 28  11  34  1   
 29  11  35  1   
 30  12  36  1   
 31  12  37  1   
 32  13  14  1   
 33  14  15  ar  
 34  14  16  ar  
 35  15  17  ar  
 36  15  38  1   
 37  16  18  ar  
 38  16  39  1   
 39  17  19  ar  
 40  17  40  1   
 41  18  19  ar  
 42  18  41  1   
 43  19  42  1   
@<TRIPOS>SUBSTRUCTURE
  1 ****   7 GROUP 4 **** **** 0

# MOE 2024.06 (io_trps.svl 2023.06)
