@<TRIPOS>MOLECULE
NONAME
38 40 1 0 0 
SMALL
USER_CHARGES


@<TRIPOS>ATOM
  1 CL      -0.3560    -0.8440    -0.9020 Cl    1 <1>  -0.1770 
  2 C       -2.0360    -0.6040    -0.5010 C.ar  1 <1>   0.1770 
  3 C       -2.9700    -1.5450    -0.8890 C.ar  1 <1>  -0.1500 
  4 C       -2.4150     0.5230     0.2010 C.ar  1 <1>  -0.1500 
  5 C       -4.3020    -1.3490    -0.5670 C.ar  1 <1>  -0.1500 
  6 C       -3.7500     0.7090     0.5170 C.ar  1 <1>  -0.1500 
  7 C       -4.7240    -0.2200     0.1420 C.ar  1 <1>   0.0530 
  8 C       -6.1180    -0.0190     0.4760 C.2   1 <1>   0.0870 
  9 O       -7.0390    -0.8830     0.0660 O.3   1 <1>  -0.2800 
 10 C       -6.7390     0.9600     1.1860 C.2   1 <1>  -0.1500 
 11 C       -8.2210    -0.4900     0.4870 C.2   1 <1>  -0.0400 
 12 C       -8.1010     0.6560     1.1960 C.2   1 <1>  -0.1500 
 13 C       -9.4120    -1.3570     0.1150 C.3   1 <1>   0.5230 
 14 N      -10.6920    -0.6090     0.2730 N.4   1 <1>  -0.9590 
 15 C      -11.8650    -1.5260     0.2060 C.3   1 <1>   0.3430 
 16 C      -10.7930     0.4970    -0.7270 C.3   1 <1>   0.3430 
 17 C      -13.1460    -0.7420     0.4990 C.3   1 <1>  -0.1600 
 18 C      -12.0510     1.3230    -0.4520 C.3   1 <1>  -0.1600 
 19 C      -13.3140     0.4510    -0.4520 C.3   1 <1>  -0.1600 
 20 H       -2.6550    -2.4160    -1.4340 H     1 <1>   0.1500 
 21 H       -1.6710     1.2430     0.4930 H     1 <1>   0.1500 
 22 H       -5.0250    -2.0850    -0.8710 H     1 <1>   0.1500 
 23 H       -4.0340     1.5890     1.0630 H     1 <1>   0.1500 
 24 H       -6.2940     1.8150     1.6640 H     1 <1>   0.1500 
 25 H       -8.8480     1.2520     1.6890 H     1 <1>   0.1500 
 26 H       -9.4100    -2.2320     0.7440 H     1 <1>   0.0800 
 27 H       -9.3040    -1.6790    -0.9080 H     1 <1>   0.0800 
 28 H      -10.6790    -0.1840     1.2070 H     1 <1>   0.4500 
 29 H      -11.7590    -2.3210     0.9270 H     1 <1>   0.0800 
 30 H      -11.9310    -1.9640    -0.7780 H     1 <1>   0.0800 
 31 H      -10.8440     0.0870    -1.7220 H     1 <1>   0.0800 
 32 H       -9.9250     1.1350    -0.6690 H     1 <1>   0.0800 
 33 H      -13.1310    -0.4000     1.5190 H     1 <1>   0.0800 
 34 H      -13.9920    -1.4000     0.3950 H     1 <1>   0.0800 
 35 H      -12.1440     2.0830    -1.2080 H     1 <1>   0.0800 
 36 H      -11.9500     1.8250     0.4950 H     1 <1>   0.0800 
 37 H      -14.1650     1.0400    -0.1530 H     1 <1>   0.0800 
 38 H      -13.5010     0.0910    -1.4500 H     1 <1>   0.0800 
@<TRIPOS>BOND
  1   1   2  1   
  2   2   3  ar  
  3   2   4  ar  
  4   3   5  ar  
  5   3  20  1   
  6   4   6  ar  
  7   4  21  1   
  8   5   7  ar  
  9   5  22  1   
 10   6   7  ar  
 11   6  23  1   
 12   7   8  1   
 13   8   9  1   
 14   8  10  2   
 15   9  11  1   
 16  10  12  1   
 17  10  24  1   
 18  11  12  2   
 19  11  13  1   
 20  12  25  1   
 21  13  14  1   
 22  13  26  1   
 23  13  27  1   
 24  14  15  1   
 25  14  16  1   
 26  14  28  1   
 27  15  17  1   
 28  15  29  1   
 29  15  30  1   
 30  16  18  1   
 31  16  31  1   
 32  16  32  1   
 33  17  19  1   
 34  17  33  1   
 35  17  34  1   
 36  18  19  1   
 37  18  35  1   
 38  18  36  1   
 39  19  37  1   
 40  19  38  1   
@<TRIPOS>SUBSTRUCTURE
  1 ****   9 GROUP 4 **** **** 0

# MOE 2024.06 (io_trps.svl 2023.06)
