@<TRIPOS>MOLECULE
NONAME
55 57 1 0 0 
SMALL
USER_CHARGES


@<TRIPOS>ATOM
  1 S        0.0040     0.5270    -0.5830 S.o2  1 <1>   1.4470 
  2 O       -0.3070     0.3520    -1.9860 O.2   1 <1>  -0.6500 
  3 O       -0.2330    -0.5630     0.3390 O.2   1 <1>  -0.6500 
  4 N       -0.9350     1.8320    -0.0450 N.am  1 <1>  -0.8490 
  5 C        1.7010     1.1310    -0.3720 C.ar  1 <1>  -0.0090 
  6 C       -0.9160     2.9630    -0.9710 C.3   1 <1>   0.1960 
  7 C       -2.3080     1.4080     0.2620 C.3   1 <1>   0.1960 
  8 C        2.1830     1.4800     0.8840 C.ar  1 <1>  -0.1500 
  9 C        2.5610     1.2750    -1.4540 C.ar  1 <1>  -0.1500 
 10 C       -1.4790     4.2140    -0.2790 C.3   1 <1>  -0.1600 
 11 C       -3.2540     2.5990     0.5010 C.3   1 <1>  -0.1600 
 12 C        3.4700     1.9590     1.0530 C.ar  1 <1>  -0.1500 
 13 C        3.8480     1.7530    -1.2900 C.ar  1 <1>  -0.1500 
 14 C       -2.4870     3.8880     0.8450 C.3   1 <1>  -0.0190 
 15 C        4.3230     2.1090    -0.0320 C.ar  1 <1>   0.1170 
 16 C       -3.4180     5.0590     1.1410 C.2   1 <1>   0.6590 
 17 N        5.6200     2.5900     0.1790 N.am  1 <1>  -0.5470 
 18 O       -3.3860     5.6390     2.1960 O.2   1 <1>  -0.5700 
 19 O       -4.2620     5.3990     0.1740 O.3   1 <1>  -0.4300 
 20 C        6.4660     3.2730    -0.6490 C.2   1 <1>   0.6900 
 21 C       -5.1710     6.4620     0.3340 C.3   1 <1>   0.1200 
 22 O        6.1000     3.6680    -1.7400 O.2   1 <1>  -0.5700 
 23 N        7.7370     3.5320    -0.2150 N.am  1 <1>  -0.6600 
 24 C       -5.9850     6.5840    -0.9500 C.3   1 <1>  -0.2400 
 25 C        8.4280     2.8620     0.9090 C.3   1 <1>   0.1400 
 26 C        8.6920     4.3030    -1.0400 C.3   1 <1>   0.1400 
 27 C        9.9130     3.0280     0.6060 C.3   1 <1>  -0.1600 
 28 C        9.9940     4.2910    -0.2470 C.3   1 <1>  -0.1600 
 29 H       -1.5080     2.7230    -1.8410 H     1 <1>   0.0800 
 30 H        0.0900     3.1670    -1.3000 H     1 <1>   0.0800 
 31 H       -2.2830     0.7960     1.1490 H     1 <1>   0.0800 
 32 H       -2.6960     0.8030    -0.5420 H     1 <1>   0.0800 
 33 H        1.5350     1.3760     1.7380 H     1 <1>   0.1500 
 34 H        2.2210     1.0100    -2.4420 H     1 <1>   0.1500 
 35 H       -1.9420     4.8270    -1.0320 H     1 <1>   0.0800 
 36 H       -0.6660     4.7830     0.1370 H     1 <1>   0.0800 
 37 H       -3.9400     2.3520     1.2920 H     1 <1>   0.0800 
 38 H       -3.8390     2.7580    -0.3890 H     1 <1>   0.0800 
 39 H        3.8100     2.2240     2.0380 H     1 <1>   0.1500 
 40 H        4.4900     1.8500    -2.1480 H     1 <1>   0.1500 
 41 H       -1.9270     3.6960     1.7440 H     1 <1>   0.0800 
 42 H        5.9690     2.5340     1.1270 H     1 <1>   0.3700 
 43 H       -4.6130     7.3630     0.5270 H     1 <1>   0.0800 
 44 H       -5.8060     6.2440     1.1770 H     1 <1>   0.0800 
 45 H       -5.3370     6.7940    -1.7820 H     1 <1>   0.0800 
 46 H       -6.6910     7.3890    -0.8550 H     1 <1>   0.0800 
 47 H       -6.5270     5.6740    -1.1340 H     1 <1>   0.0800 
 48 H        8.1570     1.8220     0.9720 H     1 <1>   0.0800 
 49 H        8.1780     3.3680     1.8270 H     1 <1>   0.0800 
 50 H        8.3310     5.3040    -1.2040 H     1 <1>   0.0800 
 51 H        8.8190     3.8060    -1.9870 H     1 <1>   0.0800 
 52 H       10.2490     2.1800     0.0330 H     1 <1>   0.0800 
 53 H       10.5010     3.0990     1.5040 H     1 <1>   0.0800 
 54 H       10.0240     5.1600     0.3870 H     1 <1>   0.0800 
 55 H       10.8540     4.2980    -0.8920 H     1 <1>   0.0800 
@<TRIPOS>BOND
  1   1   2  2   
  2   1   3  2   
  3   1   4  am  
  4   1   5  1   
  5   4   6  1   
  6   4   7  1   
  7   5   8  ar  
  8   5   9  ar  
  9   6  10  1   
 10   6  29  1   
 11   6  30  1   
 12   7  11  1   
 13   7  31  1   
 14   7  32  1   
 15   8  12  ar  
 16   8  33  1   
 17   9  13  ar  
 18   9  34  1   
 19  10  14  1   
 20  10  35  1   
 21  10  36  1   
 22  11  14  1   
 23  11  37  1   
 24  11  38  1   
 25  12  15  ar  
 26  12  39  1   
 27  13  15  ar  
 28  13  40  1   
 29  14  16  1   
 30  14  41  1   
 31  15  17  1   
 32  16  18  2   
 33  16  19  1   
 34  17  20  am  
 35  17  42  1   
 36  19  21  1   
 37  20  22  2   
 38  20  23  am  
 39  21  24  1   
 40  21  43  1   
 41  21  44  1   
 42  23  25  1   
 43  23  26  1   
 44  24  45  1   
 45  24  46  1   
 46  24  47  1   
 47  25  27  1   
 48  25  48  1   
 49  25  49  1   
 50  26  28  1   
 51  26  50  1   
 52  26  51  1   
 53  27  28  1   
 54  27  52  1   
 55  27  53  1   
 56  28  54  1   
 57  28  55  1   
@<TRIPOS>SUBSTRUCTURE
  1 ****   8 GROUP 4 **** **** 0

# MOE 2024.06 (io_trps.svl 2023.06)
