@<TRIPOS>MOLECULE
Structure1888
41 42 1 0 0 
SMALL
USER_CHARGES


@<TRIPOS>ATOM
  1 CL       0.8930     1.0160     1.6240 Cl    1 <1>  -0.1770 
  2 C        2.3450     0.1830     1.1270 C.ar  1 <1>   0.1770 
  3 C        2.4170    -1.1840     1.2420 C.ar  1 <1>  -0.1500 
  4 C        3.4060     0.9400     0.6190 C.ar  1 <1>  -0.1500 
  5 C        3.5940    -1.8170     0.8340 C.ar  1 <1>  -0.1520 
  6 C        4.5630     0.3120     0.2180 C.ar  1 <1>  -0.1500 
  7 N        3.9460    -3.1420     0.8280 N.pl3 1 <1>   0.0330 
  8 C        4.6630    -1.0820     0.3250 C.ar  1 <1>   0.0000 
  9 C        5.2100    -3.2430     0.3300 C.2   1 <1>  -0.3020 
 10 C        5.6790    -2.0130     0.0110 C.2   1 <1>  -0.1810 
 11 C        7.0260    -1.6180    -0.5820 C.3   1 <1>   0.0210 
 12 C        8.0440    -2.7620    -0.7080 C.3   1 <1>   0.1140 
 13 N        9.3990    -2.1530    -0.9420 N.am  1 <1>  -0.7300 
 14 C        7.6800    -3.7340    -1.8470 C.2   1 <1>   0.9060 
 15 C       10.3750    -1.9900    -0.0290 C.2   1 <1>   0.7800 
 16 O        7.2290    -4.8580    -1.5890 O.co2 1 <1>  -0.9000 
 17 O        7.9250    -3.3790    -3.0120 O.co2 1 <1>  -0.9000 
 18 O       10.1700    -2.0450     1.1670 O.2   1 <1>  -0.5700 
 19 O       11.5870    -1.7470    -0.5270 O.3   1 <1>  -0.4300 
 20 C       12.7810    -1.5540     0.1980 C.3   1 <1>   0.2800 
 21 C       12.6720    -0.3030     1.0780 C.3   1 <1>  -0.2400 
 22 C       13.8600    -1.3320    -0.8620 C.3   1 <1>  -0.2400 
 23 C       13.1190    -2.8120     1.0070 C.3   1 <1>  -0.2400 
 24 H        1.5940    -1.7510     1.6330 H     1 <1>   0.1500 
 25 H        3.2990     2.0070     0.5490 H     1 <1>   0.1500 
 26 H        5.3950     0.8640    -0.1780 H     1 <1>   0.1500 
 27 H        3.3570    -3.9270     1.1200 H     1 <1>   0.2700 
 28 H        5.7000    -4.1980     0.2200 H     1 <1>   0.1500 
 29 H        7.4470    -0.8620     0.0550 H     1 <1>   0.0800 
 30 H        6.8640    -1.1900    -1.5560 H     1 <1>   0.0800 
 31 H        8.0670    -3.3200     0.2090 H     1 <1>   0.0800 
 32 H        9.6650    -2.2290    -1.9300 H     1 <1>   0.3700 
 33 H       13.6260    -0.0800     1.5200 H     1 <1>   0.0800 
 34 H       11.9700    -0.4520     1.8770 H     1 <1>   0.0800 
 35 H       12.3620     0.5410     0.4890 H     1 <1>   0.0800 
 36 H       13.6240    -0.4680    -1.4570 H     1 <1>   0.0800 
 37 H       13.9290    -2.1910    -1.5060 H     1 <1>   0.0800 
 38 H       14.8160    -1.1760    -0.3980 H     1 <1>   0.0800 
 39 H       12.4170    -2.9580     1.8080 H     1 <1>   0.0800 
 40 H       14.0960    -2.7170     1.4440 H     1 <1>   0.0800 
 41 H       13.1110    -3.6770     0.3700 H     1 <1>   0.0800 
@<TRIPOS>BOND
  1   1   2  1   
  2   2   3  ar  
  3   2   4  ar  
  4   3   5  ar  
  5   3  24  1   
  6   4   6  ar  
  7   4  25  1   
  8   5   7  1   
  9   5   8  ar  
 10   6   8  ar  
 11   6  26  1   
 12   7   9  1   
 13   7  27  1   
 14   8  10  1   
 15   9  10  2   
 16   9  28  1   
 17  10  11  1   
 18  11  12  1   
 19  11  29  1   
 20  11  30  1   
 21  12  13  1   
 22  12  14  1   
 23  12  31  1   
 24  13  15  am  
 25  13  32  1   
 26  14  16  ar  
 27  14  17  ar  
 28  15  18  2   
 29  15  19  1   
 30  19  20  1   
 31  20  21  1   
 32  20  22  1   
 33  20  23  1   
 34  21  33  1   
 35  21  34  1   
 36  21  35  1   
 37  22  36  1   
 38  22  37  1   
 39  22  38  1   
 40  23  39  1   
 41  23  40  1   
 42  23  41  1   
@<TRIPOS>SUBSTRUCTURE
  1 ****  11 GROUP 4 **** **** 0

# MOE 2024.06 (io_trps.svl 2023.06)
