@<TRIPOS>MOLECULE
NONAME
53 55 1 0 0 
SMALL
USER_CHARGES


@<TRIPOS>ATOM
  1 S        0.8190    -0.6360     1.4210 S.o2  1 <1>   1.4470 
  2 O        0.5120     0.5720     2.1580 O.2   1 <1>  -0.6500 
  3 O        1.1920    -1.8200     2.1660 O.2   1 <1>  -0.6500 
  4 N       -0.5620    -1.0520     0.5300 N.am  1 <1>  -0.8490 
  5 C        2.0670    -0.2860     0.1370 C.ar  1 <1>  -0.0090 
  6 C       -0.3950    -2.3260    -0.1790 C.3   1 <1>   0.1960 
  7 C       -1.7520    -1.0800     1.3840 C.3   1 <1>   0.1960 
  8 C        1.9950     0.8110    -0.7280 C.ar  1 <1>  -0.1440 
  9 C        3.1360    -1.1610    -0.0180 C.ar  1 <1>  -0.1500 
 10 C       -1.5990    -2.5850    -1.0900 C.3   1 <1>  -0.1600 
 11 C       -3.0100    -1.3030     0.5370 C.3   1 <1>  -0.1600 
 12 C        2.9690     0.9990    -1.6970 C.ar  1 <1>  -0.1500 
 13 C        0.8590     1.8240    -0.6460 C.3   1 <1>  -0.0970 
 14 C        4.1220    -0.9900    -0.9820 C.ar  1 <1>   0.0860 
 15 C       -2.9090    -2.5870    -0.2940 C.3   1 <1>  -0.1600 
 16 C        4.0160     0.1100    -1.8240 C.ar  1 <1>  -0.1500 
 17 C        5.2140    -1.9350    -1.1050 C.2   1 <1>   0.5440 
 18 O        4.9660    -3.0570    -1.5040 O.2   1 <1>  -0.5700 
 19 N        6.5130    -1.6010    -0.7730 N.am  1 <1>  -0.6600 
 20 C        7.6260    -2.5630    -1.0080 C.3   1 <1>   0.1400 
 21 C        6.8810    -0.3330    -0.0870 C.3   1 <1>   0.1400 
 22 C        7.8540    -3.4080     0.2490 C.3   1 <1>  -0.1600 
 23 C        7.3590    -0.5840     1.3480 C.3   1 <1>  -0.1600 
 24 C        8.7460    -2.7700     1.3300 C.3   1 <1>  -0.1600 
 25 C        8.7490    -1.2360     1.4190 C.3   1 <1>  -0.1600 
 26 H       -0.2940    -3.1330     0.5300 H     1 <1>   0.0800 
 27 H        0.4960    -2.2960    -0.7830 H     1 <1>   0.0800 
 28 H       -1.8510    -0.1410     1.9040 H     1 <1>   0.0800 
 29 H       -1.6550    -1.8620     2.1200 H     1 <1>   0.0800 
 30 H        3.2150    -2.0200     0.6280 H     1 <1>   0.1500 
 31 H       -1.4740    -3.5320    -1.5850 H     1 <1>   0.0800 
 32 H       -1.6310    -1.8200    -1.8460 H     1 <1>   0.0800 
 33 H       -3.1400    -0.4570    -0.1150 H     1 <1>   0.0800 
 34 H       -3.8690    -1.3560     1.1820 H     1 <1>   0.0800 
 35 H        2.9150     1.8430    -2.3640 H     1 <1>   0.1500 
 36 H        0.9100     2.3650     0.2820 H     1 <1>   0.0800 
 37 H       -0.0940     1.3300    -0.7070 H     1 <1>   0.0800 
 38 H        0.9130     2.5350    -1.4500 H     1 <1>   0.0800 
 39 H       -2.9270    -3.4410     0.3620 H     1 <1>   0.0800 
 40 H       -3.7480    -2.6610    -0.9640 H     1 <1>   0.0800 
 41 H        4.7630     0.2600    -2.5840 H     1 <1>   0.1500 
 42 H        8.5230    -2.0400    -1.2890 H     1 <1>   0.0800 
 43 H        7.3620    -3.2140    -1.8240 H     1 <1>   0.0800 
 44 H        6.0380     0.3320    -0.0480 H     1 <1>   0.0800 
 45 H        7.6530     0.1620    -0.6510 H     1 <1>   0.0800 
 46 H        8.3070    -4.3370    -0.0490 H     1 <1>   0.0800 
 47 H        6.8940    -3.6570     0.6690 H     1 <1>   0.0800 
 48 H        6.6320    -1.1680     1.8870 H     1 <1>   0.0800 
 49 H        7.4210     0.3730     1.8340 H     1 <1>   0.0800 
 50 H        9.7610    -3.0880     1.1650 H     1 <1>   0.0800 
 51 H        8.4470    -3.1720     2.2830 H     1 <1>   0.0800 
 52 H        9.2050    -0.9660     2.3560 H     1 <1>   0.0800 
 53 H        9.3750    -0.8300     0.6420 H     1 <1>   0.0800 
@<TRIPOS>BOND
  1   1   2  2   
  2   1   3  2   
  3   1   4  am  
  4   1   5  1   
  5   4   6  1   
  6   4   7  1   
  7   5   8  ar  
  8   5   9  ar  
  9   6  10  1   
 10   6  26  1   
 11   6  27  1   
 12   7  11  1   
 13   7  28  1   
 14   7  29  1   
 15   8  12  ar  
 16   8  13  1   
 17   9  14  ar  
 18   9  30  1   
 19  10  15  1   
 20  10  31  1   
 21  10  32  1   
 22  11  15  1   
 23  11  33  1   
 24  11  34  1   
 25  12  16  ar  
 26  12  35  1   
 27  13  36  1   
 28  13  37  1   
 29  13  38  1   
 30  14  16  ar  
 31  14  17  1   
 32  15  39  1   
 33  15  40  1   
 34  16  41  1   
 35  17  18  2   
 36  17  19  am  
 37  19  20  1   
 38  19  21  1   
 39  20  22  1   
 40  20  42  1   
 41  20  43  1   
 42  21  23  1   
 43  21  44  1   
 44  21  45  1   
 45  22  24  1   
 46  22  46  1   
 47  22  47  1   
 48  23  25  1   
 49  23  48  1   
 50  23  49  1   
 51  24  25  1   
 52  24  50  1   
 53  24  51  1   
 54  25  52  1   
 55  25  53  1   
@<TRIPOS>SUBSTRUCTURE
  1 ****   9 GROUP 4 **** **** 0

# MOE 2024.06 (io_trps.svl 2023.06)
