@<TRIPOS>MOLECULE
NONAME
41 41 1 0 0 
SMALL
USER_CHARGES


@<TRIPOS>ATOM
  1 CL      -0.1120     1.0050     1.3090 Cl    1 <1>  -0.1770 
  2 C        1.2930     0.0900     0.7960 C.ar  1 <1>   0.1770 
  3 C        1.1340    -1.2310     0.3800 C.ar  1 <1>   0.1170 
  4 C        2.5280     0.7070     0.8180 C.ar  1 <1>  -0.1500 
  5 N       -0.1550    -1.8010     0.3860 N.am  1 <1>  -0.5470 
  6 C        2.2750    -1.9130    -0.0300 C.ar  1 <1>  -0.1500 
  7 C        3.6450     0.0000     0.4120 C.ar  1 <1>  -0.1500 
  8 C       -0.6050    -3.0870     0.2470 C.2   1 <1>   0.5690 
  9 C        3.5310    -1.3190    -0.0200 C.ar  1 <1>   0.1170 
 10 O        0.1440    -4.0200     0.0780 O.2   1 <1>  -0.5700 
 11 C       -2.1310    -3.3570     0.3140 C.3   1 <1>   0.0610 
 12 N        4.6290    -2.0870    -0.4360 N.am  1 <1>  -0.5470 
 13 C       -2.9640    -2.0820     0.5770 C.3   1 <1>  -0.2400 
 14 C       -2.4360    -4.3570     1.4450 C.3   1 <1>  -0.2400 
 15 C       -2.6090    -3.9640    -1.0180 C.3   1 <1>  -0.2400 
 16 C        5.8790    -1.7260    -0.8560 C.2   1 <1>   0.5690 
 17 O        6.2540    -0.5850    -0.9560 O.2   1 <1>  -0.5700 
 18 C        6.8420    -2.8400    -1.2250 C.3   1 <1>  -0.0990 
 19 C        7.3920    -3.5670     0.0120 C.3   1 <1>  -0.1600 
 20 C        8.3660    -4.6800    -0.3830 C.3   1 <1>  -0.2400 
 21 H        2.6150     1.7270     1.1470 H     1 <1>   0.1500 
 22 H       -0.8950    -1.1250     0.5810 H     1 <1>   0.3700 
 23 H        2.1930    -2.9260    -0.3710 H     1 <1>   0.1500 
 24 H        4.6060     0.4810     0.4380 H     1 <1>   0.1500 
 25 H        4.4510    -3.0900    -0.4580 H     1 <1>   0.3700 
 26 H       -2.6930    -1.6340     1.5170 H     1 <1>   0.0800 
 27 H       -4.0130    -2.3210     0.6170 H     1 <1>   0.0800 
 28 H       -2.8220    -1.3610    -0.2100 H     1 <1>   0.0800 
 29 H       -2.1140    -3.9610     2.3920 H     1 <1>   0.0800 
 30 H       -1.9150    -5.2830     1.2750 H     1 <1>   0.0800 
 31 H       -3.4900    -4.5670     1.5010 H     1 <1>   0.0800 
 32 H       -2.4140    -3.2870    -1.8310 H     1 <1>   0.0800 
 33 H       -3.6640    -4.1730    -0.9910 H     1 <1>   0.0800 
 34 H       -2.0870    -4.8840    -1.2170 H     1 <1>   0.0800 
 35 H        7.6580    -2.4110    -1.7800 H     1 <1>   0.0800 
 36 H        6.3380    -3.5360    -1.8700 H     1 <1>   0.0800 
 37 H        6.5820    -3.9900     0.5810 H     1 <1>   0.0800 
 38 H        7.9020    -2.8560     0.6420 H     1 <1>   0.0800 
 39 H        7.8750    -5.4140    -0.9980 H     1 <1>   0.0800 
 40 H        8.7420    -5.1710     0.4980 H     1 <1>   0.0800 
 41 H        9.2020    -4.2740    -0.9280 H     1 <1>   0.0800 
@<TRIPOS>BOND
  1   1   2  1   
  2   2   3  ar  
  3   2   4  ar  
  4   3   5  1   
  5   3   6  ar  
  6   4   7  ar  
  7   4  21  1   
  8   5   8  am  
  9   5  22  1   
 10   6   9  ar  
 11   6  23  1   
 12   7   9  ar  
 13   7  24  1   
 14   8  10  2   
 15   8  11  1   
 16   9  12  1   
 17  11  13  1   
 18  11  14  1   
 19  11  15  1   
 20  12  16  am  
 21  12  25  1   
 22  13  26  1   
 23  13  27  1   
 24  13  28  1   
 25  14  29  1   
 26  14  30  1   
 27  14  31  1   
 28  15  32  1   
 29  15  33  1   
 30  15  34  1   
 31  16  17  2   
 32  16  18  1   
 33  18  19  1   
 34  18  35  1   
 35  18  36  1   
 36  19  20  1   
 37  19  37  1   
 38  19  38  1   
 39  20  39  1   
 40  20  40  1   
 41  20  41  1   
@<TRIPOS>SUBSTRUCTURE
  1 ****   6 GROUP 4 **** **** 0

# MOE 2024.06 (io_trps.svl 2023.06)
