@<TRIPOS>MOLECULE
NONAME
36 37 1 0 0 
SMALL
USER_CHARGES


@<TRIPOS>ATOM
  1 N       -0.0300     0.1180     0.0940 N.4   1 <1>  -0.9590 
  2 C        1.1410     0.8210     0.6850 C.3   1 <1>   0.4230 
  3 C       -1.3380     0.7090     0.5610 C.3   1 <1>   0.3430 
  4 C       -0.0240    -1.3610     0.3960 C.3   1 <1>   0.3430 
  5 C        1.2090     2.2900     0.2380 C.3   1 <1>  -0.1600 
  6 C        2.4630     0.1890     0.2250 C.3   1 <1>  -0.1600 
  7 C       -2.5520    -0.0250    -0.0420 C.3   1 <1>   0.1100 
  8 C       -1.2480    -2.0790    -0.2060 C.3   1 <1>   0.1100 
  9 C        2.4930     2.4460    -0.5800 C.3   1 <1>  -0.0800 
 10 C        3.4100     1.3540    -0.0450 C.3   1 <1>  -0.1600 
 11 N       -2.5050    -1.4660     0.2590 N.3   1 <1>  -0.8100 
 12 C        3.1080     3.8440    -0.4730 C.3   1 <1>  -0.2400 
 13 C       -3.6760    -2.1670    -0.2850 C.3   1 <1>   0.0300 
 14 H        0.0210     0.2310    -0.9240 H     1 <1>   0.4500 
 15 H        1.0860     0.7860     1.7620 H     1 <1>   0.0800 
 16 H       -1.3950     1.7500     0.2930 H     1 <1>   0.0800 
 17 H       -1.4030     0.6400     1.6340 H     1 <1>   0.0800 
 18 H       -0.0350    -1.5130     1.4630 H     1 <1>   0.0800 
 19 H        0.8710    -1.8160     0.0060 H     1 <1>   0.0800 
 20 H        1.2760     2.9010     1.1220 H     1 <1>   0.0800 
 21 H        0.3640     2.6160    -0.3410 H     1 <1>   0.0800 
 22 H        2.3330    -0.3500    -0.6980 H     1 <1>   0.0800 
 23 H        2.8700    -0.4680     0.9730 H     1 <1>   0.0800 
 24 H       -2.5800     0.1310    -1.1080 H     1 <1>   0.0800 
 25 H       -3.4520     0.3920     0.3780 H     1 <1>   0.0800 
 26 H       -1.2280    -3.1120     0.0990 H     1 <1>   0.0800 
 27 H       -1.1960    -2.0500    -1.2810 H     1 <1>   0.0800 
 28 H        2.2770     2.2350    -1.6160 H     1 <1>   0.0800 
 29 H        4.1840     1.0970    -0.7500 H     1 <1>   0.0800 
 30 H        3.8680     1.6730     0.8770 H     1 <1>   0.0800 
 31 H        3.3490     4.0850     0.5480 H     1 <1>   0.0800 
 32 H        2.4220     4.5840    -0.8470 H     1 <1>   0.0800 
 33 H        4.0110     3.8960    -1.0570 H     1 <1>   0.0800 
 34 H       -4.5800    -1.7370     0.1150 H     1 <1>   0.0800 
 35 H       -3.6480    -3.2060    -0.0020 H     1 <1>   0.0800 
 36 H       -3.7000    -2.0960    -1.3590 H     1 <1>   0.0800 
@<TRIPOS>BOND
  1   1   2  1   
  2   1   3  1   
  3   1   4  1   
  4   1  14  1   
  5   2   5  1   
  6   2   6  1   
  7   2  15  1   
  8   3   7  1   
  9   3  16  1   
 10   3  17  1   
 11   4   8  1   
 12   4  18  1   
 13   4  19  1   
 14   5   9  1   
 15   5  20  1   
 16   5  21  1   
 17   6  10  1   
 18   6  22  1   
 19   6  23  1   
 20   7  11  1   
 21   7  24  1   
 22   7  25  1   
 23   8  11  1   
 24   8  26  1   
 25   8  27  1   
 26   9  10  1   
 27   9  12  1   
 28   9  28  1   
 29  10  29  1   
 30  10  30  1   
 31  11  13  1   
 32  12  31  1   
 33  12  32  1   
 34  12  33  1   
 35  13  34  1   
 36  13  35  1   
 37  13  36  1   
@<TRIPOS>SUBSTRUCTURE
  1 ****   1 GROUP 4 **** **** 0

# MOE 2024.06 (io_trps.svl 2023.06)
