@<TRIPOS>MOLECULE
NONAME
45 46 1 0 0 
SMALL
USER_CHARGES


@<TRIPOS>ATOM
  1 F        0.4050    -0.5120     0.8790 F     1 <1>  -0.3400 
  2 C        1.2030    -0.7570    -0.1540 C.3   1 <1>   1.1640 
  3 F        1.4200     0.4170    -0.7370 F     1 <1>  -0.3400 
  4 F        0.4890    -1.4730    -1.0130 F     1 <1>  -0.3400 
  5 C        2.4930    -1.4780     0.2620 C.ar  1 <1>  -0.1440 
  6 C        3.7260    -1.1250    -0.2770 C.ar  1 <1>  -0.1500 
  7 C        2.4490    -2.5150     1.1910 C.ar  1 <1>  -0.1500 
  8 C        4.8930    -1.7760     0.0930 C.ar  1 <1>   0.1000 
  9 C        3.6060    -3.1730     1.5690 C.ar  1 <1>  -0.1500 
 10 N        6.1010    -1.3850    -0.4690 N.pl3 1 <1>  -0.8380 
 11 C        4.8210    -2.8050     1.0230 C.ar  1 <1>  -0.1500 
 12 C        6.7890    -2.4040    -1.3230 C.3   1 <1>   0.2090 
 13 C        7.0570    -0.6990     0.4510 C.3   1 <1>   0.2090 
 14 C        7.9470    -1.7710    -2.1130 C.3   1 <1>   0.1400 
 15 C        8.2310    -0.0680    -0.3210 C.3   1 <1>   0.1400 
 16 N        8.9020    -1.0680    -1.2030 N.am  1 <1>  -0.6600 
 17 C       10.0380    -1.7050    -0.7770 C.2   1 <1>   0.6900 
 18 O       10.0760    -2.9240    -0.7990 O.2   1 <1>  -0.5700 
 19 N       11.1160    -0.9850    -0.3140 N.am  1 <1>  -0.6600 
 20 C       12.1930    -1.6720     0.4470 C.3   1 <1>   0.1400 
 21 C       11.4990     0.3070    -0.9480 C.3   1 <1>   0.1400 
 22 C       11.8170    -1.7060     1.9260 C.3   1 <1>  -0.2400 
 23 C       11.7110     1.3910     0.1090 C.3   1 <1>  -0.2400 
 24 H        3.8110    -0.3340    -1.0010 H     1 <1>   0.1500 
 25 H        1.5090    -2.8160     1.6250 H     1 <1>   0.1500 
 26 H        3.5620    -3.9720     2.2880 H     1 <1>   0.1500 
 27 H        5.7210    -3.3130     1.3150 H     1 <1>   0.1500 
 28 H        6.0790    -2.8330    -2.0080 H     1 <1>   0.0800 
 29 H        7.1800    -3.1940    -0.7050 H     1 <1>   0.0800 
 30 H        7.4460    -1.4100     1.1590 H     1 <1>   0.0800 
 31 H        6.5350     0.0670     0.9980 H     1 <1>   0.0800 
 32 H        7.5470    -1.0650    -2.8190 H     1 <1>   0.0800 
 33 H        8.4630    -2.5360    -2.6660 H     1 <1>   0.0800 
 34 H        8.9330     0.3290     0.3880 H     1 <1>   0.0800 
 35 H        7.8640     0.7450    -0.9220 H     1 <1>   0.0800 
 36 H       13.1290    -1.1570     0.3170 H     1 <1>   0.0800 
 37 H       12.3190    -2.6780     0.0810 H     1 <1>   0.0800 
 38 H       10.7330     0.6230    -1.6360 H     1 <1>   0.0800 
 39 H       12.4040     0.1660    -1.5140 H     1 <1>   0.0800 
 40 H       11.6930    -0.7080     2.3060 H     1 <1>   0.0800 
 41 H       12.5930    -2.1940     2.4860 H     1 <1>   0.0800 
 42 H       10.9030    -2.2560     2.0580 H     1 <1>   0.0800 
 43 H       10.8300     1.5120     0.7100 H     1 <1>   0.0800 
 44 H       11.9240     2.3260    -0.3760 H     1 <1>   0.0800 
 45 H       12.5430     1.1460     0.7430 H     1 <1>   0.0800 
@<TRIPOS>BOND
  1   1   2  1   
  2   2   3  1   
  3   2   4  1   
  4   2   5  1   
  5   5   6  ar  
  6   5   7  ar  
  7   6   8  ar  
  8   6  24  1   
  9   7   9  ar  
 10   7  25  1   
 11   8  10  1   
 12   8  11  ar  
 13   9  11  ar  
 14   9  26  1   
 15  10  12  1   
 16  10  13  1   
 17  11  27  1   
 18  12  14  1   
 19  12  28  1   
 20  12  29  1   
 21  13  15  1   
 22  13  30  1   
 23  13  31  1   
 24  14  16  1   
 25  14  32  1   
 26  14  33  1   
 27  15  16  1   
 28  15  34  1   
 29  15  35  1   
 30  16  17  am  
 31  17  18  2   
 32  17  19  am  
 33  19  20  1   
 34  19  21  1   
 35  20  22  1   
 36  20  36  1   
 37  20  37  1   
 38  21  23  1   
 39  21  38  1   
 40  21  39  1   
 41  22  40  1   
 42  22  41  1   
 43  22  42  1   
 44  23  43  1   
 45  23  44  1   
 46  23  45  1   
@<TRIPOS>SUBSTRUCTURE
  1 ****  10 GROUP 4 **** **** 0

# MOE 2024.06 (io_trps.svl 2023.06)
