@<TRIPOS>MOLECULE
NONAME
58 61 1 0 0 
SMALL
USER_CHARGES


@<TRIPOS>ATOM
  1 O       -0.4620    -0.6420     0.8640 O.2   1 <1>  -0.5700 
  2 C       -1.3670     0.0780     0.4600 C.2   1 <1>   0.6160 
  3 N       -2.5410    -0.5020    -0.0390 N.am  1 <1>  -0.2860 
  4 C       -1.2530     1.5000     0.4610 C.2   1 <1>   0.0290 
  5 C       -2.6060    -1.9130    -0.1260 C.ar  1 <1>   0.1170 
  6 C       -3.5860     0.2940    -0.4680 C.2   1 <1>  -0.0290 
  7 C       -0.0570     2.1000     0.9800 C.2   1 <1>   0.6160 
  8 C       -2.2930     2.2550    -0.0060 C.2   1 <1>  -0.1500 
  9 C       -2.9060    -2.6770     0.9960 C.ar  1 <1>  -0.1500 
 10 C       -2.3890    -2.5540    -1.3390 C.ar  1 <1>  -0.1500 
 11 C       -3.4880     1.6690    -0.4970 C.2   1 <1>   0.0140 
 12 C       -4.8790    -0.3910    -0.9350 C.3   1 <1>  -0.0220 
 13 O       -0.1540     2.7910     1.9780 O.2   1 <1>  -0.5700 
 14 N        1.1750     1.9810     0.3630 N.am  1 <1>  -0.6600 
 15 C       -3.0000    -4.0550     0.9090 C.ar  1 <1>  -0.1500 
 16 C       -2.4830    -3.9310    -1.4310 C.ar  1 <1>  -0.1500 
 17 C       -4.5400     2.5110    -1.0040 C.2   1 <1>   0.4950 
 18 C       -6.1180     0.5250    -0.8680 C.3   1 <1>   0.0000 
 19 C        2.4150     2.5350     0.9780 C.3   1 <1>   0.1400 
 20 C        1.4130     1.2100    -0.8900 C.3   1 <1>   0.1400 
 21 C       -2.7910    -4.6900    -0.3130 C.ar  1 <1>   0.0830 
 22 O       -4.4750     3.7140    -1.0450 O.2   1 <1>  -0.5700 
 23 C       -5.8000     1.8670    -1.5500 C.3   1 <1>  -0.0990 
 24 C       -7.2960    -0.1480    -1.5890 C.3   1 <1>  -0.2400 
 25 C       -6.5250     0.7600     0.6000 C.3   1 <1>  -0.2400 
 26 C        3.1400     3.4310    -0.0320 C.3   1 <1>  -0.1600 
 27 C        2.1330     2.0930    -1.9160 C.3   1 <1>  -0.1600 
 28 O       -2.8670    -6.0320    -0.4900 O.3   1 <1>  -0.3630 
 29 C        3.4270     2.6870    -1.3440 C.3   1 <1>  -0.1600 
 30 C       -3.1080    -6.9000     0.5950 C.3   1 <1>   0.0400 
 31 H       -2.2190     3.3310     0.0020 H     1 <1>   0.1500 
 32 H       -3.0600    -2.1850     1.9390 H     1 <1>   0.1500 
 33 H       -2.1450    -1.9740    -2.2100 H     1 <1>   0.1500 
 34 H       -5.0820    -1.2610    -0.3350 H     1 <1>   0.0800 
 35 H       -4.7310    -0.7280    -1.9470 H     1 <1>   0.0800 
 36 H       -3.2320    -4.6130     1.7950 H     1 <1>   0.1500 
 37 H       -2.3160    -4.4290    -2.3690 H     1 <1>   0.1500 
 38 H        3.0540     1.7180     1.2670 H     1 <1>   0.0800 
 39 H        2.1870     3.1050     1.8620 H     1 <1>   0.0800 
 40 H        0.4890     0.8630    -1.3160 H     1 <1>   0.0800 
 41 H        2.0160     0.3480    -0.6580 H     1 <1>   0.0800 
 42 H       -5.6600     1.7200    -2.6060 H     1 <1>   0.0800 
 43 H       -6.6230     2.5480    -1.4230 H     1 <1>   0.0800 
 44 H       -8.1720     0.4760    -1.5480 H     1 <1>   0.0800 
 45 H       -7.0610    -0.3280    -2.6240 H     1 <1>   0.0800 
 46 H       -7.5340    -1.0910    -1.1300 H     1 <1>   0.0800 
 47 H       -5.7310     1.2130     1.1670 H     1 <1>   0.0800 
 48 H       -6.7780    -0.1720     1.0750 H     1 <1>   0.0800 
 49 H       -7.3840     1.4050     0.6560 H     1 <1>   0.0800 
 50 H        4.0630     3.7750     0.3990 H     1 <1>   0.0800 
 51 H        2.5270     4.2940    -0.2280 H     1 <1>   0.0800 
 52 H        1.4710     2.8870    -2.2150 H     1 <1>   0.0800 
 53 H        2.3600     1.5090    -2.7900 H     1 <1>   0.0800 
 54 H        4.1320     1.8950    -1.1570 H     1 <1>   0.0800 
 55 H        3.8650     3.3630    -2.0580 H     1 <1>   0.0800 
 56 H       -3.1000    -7.9080     0.2240 H     1 <1>   0.0800 
 57 H       -4.0700    -6.6730     1.0170 H     1 <1>   0.0800 
 58 H       -2.3260    -6.7720     1.3230 H     1 <1>   0.0800 
@<TRIPOS>BOND
  1   1   2  2   
  2   2   3  am  
  3   2   4  1   
  4   3   5  1   
  5   3   6  1   
  6   4   7  1   
  7   4   8  2   
  8   5   9  ar  
  9   5  10  ar  
 10   6  11  2   
 11   6  12  1   
 12   7  13  2   
 13   7  14  am  
 14   8  11  1   
 15   8  31  1   
 16   9  15  ar  
 17   9  32  1   
 18  10  16  ar  
 19  10  33  1   
 20  11  17  1   
 21  12  18  1   
 22  12  34  1   
 23  12  35  1   
 24  14  19  1   
 25  14  20  1   
 26  15  21  ar  
 27  15  36  1   
 28  16  21  ar  
 29  16  37  1   
 30  17  22  2   
 31  17  23  1   
 32  18  23  1   
 33  18  24  1   
 34  18  25  1   
 35  19  26  1   
 36  19  38  1   
 37  19  39  1   
 38  20  27  1   
 39  20  40  1   
 40  20  41  1   
 41  21  28  1   
 42  23  42  1   
 43  23  43  1   
 44  24  44  1   
 45  24  45  1   
 46  24  46  1   
 47  25  47  1   
 48  25  48  1   
 49  25  49  1   
 50  26  29  1   
 51  26  50  1   
 52  26  51  1   
 53  27  29  1   
 54  27  52  1   
 55  27  53  1   
 56  28  30  1   
 57  29  54  1   
 58  29  55  1   
 59  30  56  1   
 60  30  57  1   
 61  30  58  1   
@<TRIPOS>SUBSTRUCTURE
  1 ****   3 GROUP 4 **** **** 0

# MOE 2024.06 (io_trps.svl 2023.06)
