@<TRIPOS>MOLECULE
NONAME
44 46 1 0 0 
SMALL
USER_CHARGES


@<TRIPOS>ATOM
  1 N       -0.1230    -0.3910     1.0020 N.pl3 1 <1>   0.0330 
  2 C       -0.8280    -1.4390     0.4730 C.ar  1 <1>  -0.1520 
  3 C        1.2100    -0.6440     0.8330 C.2   1 <1>  -0.3020 
  4 C        0.0770    -2.3640    -0.0350 C.ar  1 <1>   0.0000 
  5 C       -2.2050    -1.6590     0.3950 C.ar  1 <1>  -0.1500 
  6 C        1.3660    -1.8370     0.2050 C.2   1 <1>  -0.1810 
  7 C       -0.4020    -3.5350    -0.6350 C.ar  1 <1>  -0.1500 
  8 C       -2.6600    -2.8140    -0.1960 C.ar  1 <1>  -0.1500 
  9 C        2.6320    -2.5600    -0.2070 C.3   1 <1>   0.0210 
 10 C       -1.7590    -3.7520    -0.7110 C.ar  1 <1>  -0.1500 
 11 C        3.8680    -1.7500     0.1740 C.3   1 <1>   0.3430 
 12 N        5.1180    -2.4570    -0.2310 N.4   1 <1>  -0.9060 
 13 C        6.3560    -1.7450     0.1460 C.3   1 <1>   0.4230 
 14 C        6.5180    -0.5110    -0.7570 C.3   1 <1>  -0.1600 
 15 C        7.5070    -2.7550     0.0540 C.3   1 <1>  -0.1600 
 16 C        7.8140     0.2900    -0.5410 C.3   1 <1>  -0.1600 
 17 C        8.7710    -2.2550     0.7700 C.3   1 <1>  -0.1600 
 18 C        9.0540    -0.4320    -1.0850 C.3   1 <1>  -0.1600 
 19 C        9.7120    -1.4130    -0.1040 C.3   1 <1>  -0.1600 
 20 H       -0.5450     0.4330     1.4440 H     1 <1>   0.2700 
 21 H        1.9450     0.0600     1.1810 H     1 <1>   0.1500 
 22 H       -2.8920    -0.9330     0.7940 H     1 <1>   0.1500 
 23 H        0.2910    -4.2540    -1.0290 H     1 <1>   0.1500 
 24 H       -3.7160    -3.0080    -0.2690 H     1 <1>   0.1500 
 25 H        2.6030    -2.7100    -1.2720 H     1 <1>   0.0800 
 26 H        2.6500    -3.5170     0.2850 H     1 <1>   0.0800 
 27 H       -2.1420    -4.6470    -1.1690 H     1 <1>   0.1500 
 28 H        3.8640    -1.5900     1.2410 H     1 <1>   0.0800 
 29 H        3.8120    -0.7880    -0.3090 H     1 <1>   0.0800 
 30 H        5.1300    -2.6050    -1.2460 H     1 <1>   0.4500 
 31 H        5.1380    -3.3850     0.2080 H     1 <1>   0.4500 
 32 H        6.2800    -1.4190     1.1710 H     1 <1>   0.0800 
 33 H        5.7040     0.1660    -0.5670 H     1 <1>   0.0800 
 34 H        6.4670    -0.8030    -1.7910 H     1 <1>   0.0800 
 35 H        7.7330    -2.9990    -0.9700 H     1 <1>   0.0800 
 36 H        7.2100    -3.6610     0.5540 H     1 <1>   0.0800 
 37 H        7.9480     0.5470     0.4970 H     1 <1>   0.0800 
 38 H        7.7170     1.2170    -1.0820 H     1 <1>   0.0800 
 39 H        9.3330    -3.1060     1.1190 H     1 <1>   0.0800 
 40 H        8.4970    -1.6910     1.6450 H     1 <1>   0.0800 
 41 H        9.7930     0.3090    -1.3440 H     1 <1>   0.0800 
 42 H        8.8070    -0.9440    -1.9990 H     1 <1>   0.0800 
 43 H       10.3430    -2.0750    -0.6750 H     1 <1>   0.0800 
 44 H       10.3650    -0.8600     0.5510 H     1 <1>   0.0800 
@<TRIPOS>BOND
  1   1   2  1   
  2   1   3  1   
  3   1  20  1   
  4   2   4  ar  
  5   2   5  ar  
  6   3   6  2   
  7   3  21  1   
  8   4   6  1   
  9   4   7  ar  
 10   5   8  ar  
 11   5  22  1   
 12   6   9  1   
 13   7  10  ar  
 14   7  23  1   
 15   8  10  ar  
 16   8  24  1   
 17   9  11  1   
 18   9  25  1   
 19   9  26  1   
 20  10  27  1   
 21  11  12  1   
 22  11  28  1   
 23  11  29  1   
 24  12  13  1   
 25  12  30  1   
 26  12  31  1   
 27  13  14  1   
 28  13  15  1   
 29  13  32  1   
 30  14  16  1   
 31  14  33  1   
 32  14  34  1   
 33  15  17  1   
 34  15  35  1   
 35  15  36  1   
 36  16  18  1   
 37  16  37  1   
 38  16  38  1   
 39  17  19  1   
 40  17  39  1   
 41  17  40  1   
 42  18  19  1   
 43  18  41  1   
 44  18  42  1   
 45  19  43  1   
 46  19  44  1   
@<TRIPOS>SUBSTRUCTURE
  1 ****  11 GROUP 4 **** **** 0

# MOE 2024.06 (io_trps.svl 2023.06)
