@<TRIPOS>MOLECULE
NONAME
41 43 1 0 0 
SMALL
USER_CHARGES


@<TRIPOS>ATOM
  1 O       -0.4780    -0.4070     1.0260 O.co2 1 <1>  -0.9000 
  2 C        0.6790    -0.2290     1.4190 C.2   1 <1>   0.9060 
  3 O        1.1530    -0.8210     2.3940 O.co2 1 <1>  -0.9000 
  4 C        1.5470     0.7640     0.6810 C.3   1 <1>  -0.2660 
  5 C        1.5010     2.1580     1.3430 C.3   1 <1>  -0.1600 
  6 C        2.3140     3.2760     0.6520 C.3   1 <1>   0.0000 
  7 C        3.8190     2.9270     0.5680 C.3   1 <1>  -0.1600 
  8 C        1.7960     3.5590    -0.7790 C.3   1 <1>  -0.1600 
  9 C        2.1560     4.5690     1.4850 C.3   1 <1>  -0.1600 
 10 C        4.6060     4.0840    -0.0760 C.3   1 <1>   0.3000 
 11 C        2.5720     4.7250    -1.4250 C.3   1 <1>  -0.0800 
 12 C        2.9350     5.7350     0.8530 C.3   1 <1>  -0.0800 
 13 N        6.0490     3.7790    -0.0930 N.am  1 <1>  -0.7300 
 14 C        4.0670     4.3580    -1.4930 C.3   1 <1>  -0.1600 
 15 C        4.4240     5.3540     0.7750 C.3   1 <1>  -0.1600 
 16 C        2.3980     5.9900    -0.5670 C.3   1 <1>  -0.1600 
 17 C        6.7070     2.8230    -0.7950 C.2   1 <1>   0.5690 
 18 O        6.1820     2.0760    -1.5810 O.2   1 <1>  -0.5700 
 19 C        8.1900     2.6970    -0.5640 C.3   1 <1>  -0.1790 
 20 H        1.1930     0.8070    -0.3290 H     1 <1>   0.0800 
 21 H        2.5460     0.3750     0.6810 H     1 <1>   0.0800 
 22 H        1.8460     2.0450     2.3570 H     1 <1>   0.0800 
 23 H        0.4680     2.4570     1.3970 H     1 <1>   0.0800 
 24 H        3.9510     2.0440    -0.0300 H     1 <1>   0.0800 
 25 H        4.1990     2.7250     1.5520 H     1 <1>   0.0800 
 26 H        0.7470     3.7930    -0.7460 H     1 <1>   0.0800 
 27 H        1.9130     2.6830    -1.3910 H     1 <1>   0.0800 
 28 H        2.5110     4.4010     2.4870 H     1 <1>   0.0800 
 29 H        1.1140     4.8310     1.5530 H     1 <1>   0.0800 
 30 H        2.1960     4.9020    -2.4180 H     1 <1>   0.0800 
 31 H        2.8140     6.6210     1.4530 H     1 <1>   0.0800 
 32 H        6.5760     4.3290     0.5790 H     1 <1>   0.3700 
 33 H        4.6200     5.1580    -1.9490 H     1 <1>   0.0800 
 34 H        4.1750     3.4820    -2.1070 H     1 <1>   0.0800 
 35 H        4.9750     6.1670     0.3390 H     1 <1>   0.0800 
 36 H        4.7950     5.1830     1.7700 H     1 <1>   0.0800 
 37 H        1.3570     6.2560    -0.5200 H     1 <1>   0.0800 
 38 H        2.9270     6.8120    -1.0170 H     1 <1>   0.0800 
 39 H        8.6710     3.6320    -0.7780 H     1 <1>   0.0800 
 40 H        8.5940     1.9410    -1.2110 H     1 <1>   0.0800 
 41 H        8.3740     2.4190     0.4560 H     1 <1>   0.0800 
@<TRIPOS>BOND
  1   1   2  ar  
  2   2   3  ar  
  3   2   4  1   
  4   4   5  1   
  5   4  20  1   
  6   4  21  1   
  7   5   6  1   
  8   5  22  1   
  9   5  23  1   
 10   6   7  1   
 11   6   8  1   
 12   6   9  1   
 13   7  10  1   
 14   7  24  1   
 15   7  25  1   
 16   8  11  1   
 17   8  26  1   
 18   8  27  1   
 19   9  12  1   
 20   9  28  1   
 21   9  29  1   
 22  10  13  1   
 23  10  14  1   
 24  10  15  1   
 25  11  14  1   
 26  11  16  1   
 27  11  30  1   
 28  12  15  1   
 29  12  16  1   
 30  12  31  1   
 31  13  17  am  
 32  13  32  1   
 33  14  33  1   
 34  14  34  1   
 35  15  35  1   
 36  15  36  1   
 37  16  37  1   
 38  16  38  1   
 39  17  18  2   
 40  17  19  1   
 41  19  39  1   
 42  19  40  1   
 43  19  41  1   
@<TRIPOS>SUBSTRUCTURE
  1 ****   7 GROUP 4 **** **** 0

# MOE 2024.06 (io_trps.svl 2023.06)
