@<TRIPOS>MOLECULE
NONAME
40 42 1 0 0 
SMALL
USER_CHARGES


@<TRIPOS>ATOM
  1 CL      -0.0130    -0.8640    -0.0530 Cl    1 <1>  -0.1770 
  2 C        1.7160    -0.6600    -0.2530 C.ar  1 <1>   0.1770 
  3 C        2.3330     0.5400     0.1050 C.ar  1 <1>   0.1170 
  4 C        2.4410    -1.7220    -0.7600 C.ar  1 <1>  -0.1500 
  5 N        1.6240     1.6390     0.6150 N.am  1 <1>  -0.5470 
  6 C        3.7080     0.6390    -0.0490 C.ar  1 <1>  -0.1500 
  7 C        3.8100    -1.5950    -0.9110 C.ar  1 <1>  -0.1500 
  8 C        0.7630     2.4770    -0.0160 C.2   1 <1>   0.5690 
  9 C        4.4550    -0.4180    -0.5550 C.ar  1 <1>   0.1170 
 10 O        0.2510     3.3840     0.5860 O.2   1 <1>  -0.5700 
 11 C        0.4540     2.3010    -1.4850 C.3   1 <1>  -0.1790 
 12 N        5.8380    -0.3490    -0.7350 N.am  1 <1>  -0.5470 
 13 C        6.8070     0.2320     0.0320 C.2   1 <1>   0.5690 
 14 O        6.5230     0.9500     0.9640 O.2   1 <1>  -0.5700 
 15 C        8.2920     0.0510    -0.3410 C.3   1 <1>  -0.0190 
 16 C        8.8170    -1.3560    -0.8220 C.3   1 <1>  -0.1860 
 17 C        9.2320     0.3510     0.8560 C.3   1 <1>   0.0580 
 18 C        7.7930    -2.4670    -0.9460 C.2   1 <1>   0.9060 
 19 C        9.9380    -1.6820     0.1870 C.3   1 <1>   0.0580 
 20 C       10.6340     0.5100     0.2940 C.2   1 <1>  -0.2880 
 21 C        9.3830    -1.0430     1.4550 C.3   1 <1>  -0.1600 
 22 O        7.0630    -2.4460    -1.9440 O.co2 1 <1>  -0.9000 
 23 O        7.6520    -3.3070    -0.0570 O.co2 1 <1>  -0.9000 
 24 C       11.0520    -0.6900    -0.0970 C.2   1 <1>  -0.2880 
 25 H        1.9450    -2.6370    -1.0290 H     1 <1>   0.1500 
 26 H        1.8220     1.9120     1.5780 H     1 <1>   0.3700 
 27 H        4.2080     1.5500     0.2220 H     1 <1>   0.1500 
 28 H        4.3980    -2.4150    -1.2980 H     1 <1>   0.1500 
 29 H        0.0610     3.2190    -1.8810 H     1 <1>   0.0800 
 30 H        1.3450     2.0440    -2.0270 H     1 <1>   0.0800 
 31 H       -0.2790     1.5280    -1.6100 H     1 <1>   0.0800 
 32 H        6.2000    -1.0810    -1.3770 H     1 <1>   0.3700 
 33 H        8.4910     0.7720    -1.1120 H     1 <1>   0.0800 
 34 H        9.2540    -1.2550    -1.7970 H     1 <1>   0.0800 
 35 H        8.9360     1.1150     1.5530 H     1 <1>   0.0800 
 36 H       10.2320    -2.7140     0.2780 H     1 <1>   0.0800 
 37 H       11.1040     1.4770     0.2500 H     1 <1>   0.1500 
 38 H        8.4480    -1.4780     1.7680 H     1 <1>   0.0800 
 39 H       10.0920    -1.0670     2.2640 H     1 <1>   0.0800 
 40 H       11.9670    -1.0140    -0.5600 H     1 <1>   0.1500 
@<TRIPOS>BOND
  1   1   2  1   
  2   2   3  ar  
  3   2   4  ar  
  4   3   5  1   
  5   3   6  ar  
  6   4   7  ar  
  7   4  25  1   
  8   5   8  am  
  9   5  26  1   
 10   6   9  ar  
 11   6  27  1   
 12   7   9  ar  
 13   7  28  1   
 14   8  10  2   
 15   8  11  1   
 16   9  12  1   
 17  11  29  1   
 18  11  30  1   
 19  11  31  1   
 20  12  13  am  
 21  12  32  1   
 22  13  14  2   
 23  13  15  1   
 24  15  16  1   
 25  15  17  1   
 26  15  33  1   
 27  16  18  1   
 28  16  19  1   
 29  16  34  1   
 30  17  20  1   
 31  17  21  1   
 32  17  35  1   
 33  18  22  ar  
 34  18  23  ar  
 35  19  21  1   
 36  19  24  1   
 37  19  36  1   
 38  20  24  2   
 39  20  37  1   
 40  21  38  1   
 41  21  39  1   
 42  24  40  1   
@<TRIPOS>SUBSTRUCTURE
  1 ****  12 GROUP 4 **** **** 0

# MOE 2024.06 (io_trps.svl 2023.06)
