@<TRIPOS>MOLECULE
NONAME
35 37 1 0 0 
SMALL
USER_CHARGES


@<TRIPOS>ATOM
  1 S        0.0330    -0.6310     0.0280 S.3   1 <1>  -0.0800 
  2 C        1.3600     0.4220    -0.4340 C.ar  1 <1>   0.2970 
  3 C       -0.9970     0.7470     0.4000 C.2   1 <1>  -0.1400 
  4 N        2.5030    -0.0640    -0.8670 N.ar  1 <1>  -0.5670 
  5 C        1.0260     1.7480    -0.2650 C.ar  1 <1>   0.0000 
  6 C       -0.3560     1.9100     0.1720 C.2   1 <1>  -0.1810 
  7 C       -2.3920     0.4140     0.8920 C.3   1 <1>   0.0200 
  8 C        3.3780     0.8810    -1.1350 C.ar  1 <1>   0.4700 
  9 C        2.0890     2.6270    -0.5330 C.ar  1 <1>   0.4100 
 10 C       -1.0460     3.2590     0.3520 C.3   1 <1>   0.0210 
 11 C       -3.4810     1.0810     0.0460 C.3   1 <1>  -0.1600 
 12 N        3.2480     2.1900    -0.9920 N.ar  1 <1>  -0.6200 
 13 N        2.0150     3.9760    -0.2940 N.pl3 1 <1>  -0.8690 
 14 C       -2.3740     3.3630    -0.4130 C.3   1 <1>  -0.1600 
 15 C       -3.5510     2.6050     0.2190 C.3   1 <1>  -0.1600 
 16 C        3.0550     4.9810    -0.6500 C.3   1 <1>   0.2090 
 17 C        4.1410     5.0290     0.4280 C.3   1 <1>   0.1200 
 18 O        4.9860     6.1060     0.1860 O.3   1 <1>  -0.6800 
 19 H       -2.4870     0.7140     1.9210 H     1 <1>   0.0800 
 20 H       -2.5340    -0.6520     0.8520 H     1 <1>   0.0800 
 21 H        4.3290     0.5450    -1.5130 H     1 <1>   0.1500 
 22 H       -0.4310     4.0450    -0.0300 H     1 <1>   0.0800 
 23 H       -1.2030     3.4470     1.4000 H     1 <1>   0.0800 
 24 H       -4.4290     0.6660     0.3390 H     1 <1>   0.0800 
 25 H       -3.3280     0.8360    -0.9910 H     1 <1>   0.0800 
 26 H        1.2830     4.3070     0.3340 H     1 <1>   0.4000 
 27 H       -2.2280     3.0360    -1.4280 H     1 <1>   0.0800 
 28 H       -2.6450     4.4040    -0.4530 H     1 <1>   0.0800 
 29 H       -3.6340     2.8550     1.2630 H     1 <1>   0.0800 
 30 H       -4.4540     2.9450    -0.2590 H     1 <1>   0.0800 
 31 H        2.5910     5.9480    -0.7400 H     1 <1>   0.0800 
 32 H        3.5010     4.7230    -1.5960 H     1 <1>   0.0800 
 33 H        4.7230     4.1250     0.4070 H     1 <1>   0.0800 
 34 H        3.7000     5.1630     1.4000 H     1 <1>   0.0800 
 35 H        5.7260     6.1110     0.8250 H     1 <1>   0.4000 
@<TRIPOS>BOND
  1   1   2  1   
  2   1   3  1   
  3   2   4  ar  
  4   2   5  ar  
  5   3   6  2   
  6   3   7  1   
  7   4   8  ar  
  8   5   6  1   
  9   5   9  ar  
 10   6  10  1   
 11   7  11  1   
 12   7  19  1   
 13   7  20  1   
 14   8  12  ar  
 15   8  21  1   
 16   9  12  ar  
 17   9  13  1   
 18  10  14  1   
 19  10  22  1   
 20  10  23  1   
 21  11  15  1   
 22  11  24  1   
 23  11  25  1   
 24  13  16  1   
 25  13  26  1   
 26  14  15  1   
 27  14  27  1   
 28  14  28  1   
 29  15  29  1   
 30  15  30  1   
 31  16  17  1   
 32  16  31  1   
 33  16  32  1   
 34  17  18  1   
 35  17  33  1   
 36  17  34  1   
 37  18  35  1   
@<TRIPOS>SUBSTRUCTURE
  1 ****   5 GROUP 4 **** **** 0

# MOE 2024.06 (io_trps.svl 2023.06)
