@<TRIPOS>MOLECULE
NONAME
60 63 1 0 0 
SMALL
USER_CHARGES


@<TRIPOS>ATOM
  1 O       -0.3760     0.5450     1.2240 O.3   1 <1>  -0.3630 
  2 C       -1.5090     1.0750     0.6900 C.ar  1 <1>   0.0830 
  3 C        0.4810    -0.2850     0.4730 C.3   1 <1>   0.0400 
  4 C       -2.2600     1.9330     1.4890 C.ar  1 <1>  -0.1440 
  5 C       -1.9360     0.7960    -0.6060 C.ar  1 <1>  -0.1500 
  6 C       -3.4220     2.4940     0.9870 C.ar  1 <1>  -0.1500 
  7 C       -1.8120     2.2600     2.9060 C.3   1 <1>  -0.0960 
  8 C       -3.0980     1.3620    -1.0950 C.ar  1 <1>  -0.1500 
  9 C       -3.8510     2.2130    -0.3010 C.ar  1 <1>  -0.1440 
 10 C       -5.1390     2.8320    -0.8260 C.3   1 <1>   0.2530 
 11 N       -6.3180     2.3980    -0.0310 N.3   1 <1>  -0.8100 
 12 C       -7.6210     2.9650    -0.5050 C.3   1 <1>   0.1900 
 13 C       -6.3660     0.9130     0.0480 C.3   1 <1>   0.1100 
 14 C       -7.5990     4.5190    -0.5840 C.3   1 <1>  -0.0800 
 15 C       -8.7990     2.4900     0.4100 C.3   1 <1>   0.4230 
 16 C       -7.6250     0.3490     0.7380 C.3   1 <1>   0.3430 
 17 C       -7.2140     5.1950     0.7520 C.3   1 <1>  -0.1600 
 18 C       -8.9270     5.1080    -1.1070 C.3   1 <1>  -0.1600 
 19 N       -8.4470     1.4200     1.3850 N.4   1 <1>  -0.9590 
 20 C      -10.0170     1.9140    -0.3090 C.3   1 <1>  -0.1600 
 21 C       -7.1260     6.7190     0.5990 C.3   1 <1>  -0.1600 
 22 C       -8.8290     6.6300    -1.2710 C.3   1 <1>  -0.1600 
 23 C       -9.7320     0.9050     1.9090 C.3   1 <1>   0.3430 
 24 C      -10.7150     1.0440     0.7450 C.3   1 <1>  -0.1600 
 25 C       -8.4320     7.3030     0.0480 C.3   1 <1>  -0.1600 
 26 H        1.3120    -0.5580     1.0980 H     1 <1>   0.0800 
 27 H        0.8330     0.2610    -0.3840 H     1 <1>   0.0800 
 28 H       -0.0580    -1.1670     0.1770 H     1 <1>   0.0800 
 29 H       -1.3770     0.1420    -1.2460 H     1 <1>   0.1500 
 30 H       -4.0070     3.1570     1.6000 H     1 <1>   0.1500 
 31 H       -1.7490     1.3560     3.4860 H     1 <1>   0.0800 
 32 H       -2.4990     2.9320     3.3880 H     1 <1>   0.0800 
 33 H       -0.8410     2.7200     2.8820 H     1 <1>   0.0800 
 34 H       -3.4110     1.1360    -2.1000 H     1 <1>   0.1500 
 35 H       -5.2780     2.5720    -1.8610 H     1 <1>   0.0800 
 36 H       -5.0200     3.8990    -0.7630 H     1 <1>   0.0800 
 37 H       -7.7990     2.5980    -1.5020 H     1 <1>   0.0800 
 38 H       -5.5130     0.5590     0.6020 H     1 <1>   0.0800 
 39 H       -6.2960     0.4910    -0.9410 H     1 <1>   0.0800 
 40 H       -6.8630     4.7960    -1.3180 H     1 <1>   0.0800 
 41 H       -9.1380     3.3420     0.9740 H     1 <1>   0.0800 
 42 H       -7.3240    -0.3810     1.4710 H     1 <1>   0.0800 
 43 H       -8.2180    -0.1610    -0.0020 H     1 <1>   0.0800 
 44 H       -6.2600     4.8300     1.0920 H     1 <1>   0.0800 
 45 H       -7.9380     4.9680     1.5130 H     1 <1>   0.0800 
 46 H       -9.7320     4.9040    -0.4250 H     1 <1>   0.0800 
 47 H       -9.1720     4.6720    -2.0600 H     1 <1>   0.0800 
 48 H       -7.8500     1.8580     2.1010 H     1 <1>   0.4500 
 49 H       -9.7060     1.3090    -1.1430 H     1 <1>   0.0800 
 50 H      -10.6630     2.6930    -0.6740 H     1 <1>   0.0800 
 51 H       -6.3180     6.9640    -0.0700 H     1 <1>   0.0800 
 52 H       -6.9060     7.1660     1.5530 H     1 <1>   0.0800 
 53 H       -9.7750     7.0220    -1.6030 H     1 <1>   0.0800 
 54 H       -8.0960     6.8660    -2.0250 H     1 <1>   0.0800 
 55 H      -10.0620     1.5210     2.7310 H     1 <1>   0.0800 
 56 H       -9.6470    -0.1160     2.2430 H     1 <1>   0.0800 
 57 H      -10.9620     0.0770     0.3420 H     1 <1>   0.0800 
 58 H      -11.6220     1.5070     1.0940 H     1 <1>   0.0800 
 59 H       -8.3140     8.3620    -0.1090 H     1 <1>   0.0800 
 60 H       -9.2180     7.1660     0.7710 H     1 <1>   0.0800 
@<TRIPOS>BOND
  1   1   2  1   
  2   1   3  1   
  3   2   4  ar  
  4   2   5  ar  
  5   3  26  1   
  6   3  27  1   
  7   3  28  1   
  8   4   6  ar  
  9   4   7  1   
 10   5   8  ar  
 11   5  29  1   
 12   6   9  ar  
 13   6  30  1   
 14   7  31  1   
 15   7  32  1   
 16   7  33  1   
 17   8   9  ar  
 18   8  34  1   
 19   9  10  1   
 20  10  11  1   
 21  10  35  1   
 22  10  36  1   
 23  11  12  1   
 24  11  13  1   
 25  12  14  1   
 26  12  15  1   
 27  12  37  1   
 28  13  16  1   
 29  13  38  1   
 30  13  39  1   
 31  14  17  1   
 32  14  18  1   
 33  14  40  1   
 34  15  19  1   
 35  15  20  1   
 36  15  41  1   
 37  16  19  1   
 38  16  42  1   
 39  16  43  1   
 40  17  21  1   
 41  17  44  1   
 42  17  45  1   
 43  18  22  1   
 44  18  46  1   
 45  18  47  1   
 46  19  23  1   
 47  19  48  1   
 48  20  24  1   
 49  20  49  1   
 50  20  50  1   
 51  21  25  1   
 52  21  51  1   
 53  21  52  1   
 54  22  25  1   
 55  22  53  1   
 56  22  54  1   
 57  23  24  1   
 58  23  55  1   
 59  23  56  1   
 60  24  57  1   
 61  24  58  1   
 62  25  59  1   
 63  25  60  1   
@<TRIPOS>SUBSTRUCTURE
  1 ****  11 GROUP 4 **** **** 0

# MOE 2024.06 (io_trps.svl 2023.06)
