@<TRIPOS>MOLECULE
NONAME
37 39 1 0 0 
SMALL
USER_CHARGES


@<TRIPOS>ATOM
  1 F        0.6160    -0.5140     0.2450 F     1 <1>  -0.1900 
  2 C       -0.2330    -1.5060     0.3650 C.ar  1 <1>   0.1900 
  3 C        0.2520    -2.8160     0.3200 C.ar  1 <1>   0.1170 
  4 C       -1.5680    -1.1940     0.5280 C.ar  1 <1>  -0.1500 
  5 N        1.6310    -3.0460     0.1470 N.am  1 <1>  -0.5470 
  6 C       -0.6820    -3.8460     0.4340 C.ar  1 <1>  -0.1500 
  7 C       -2.4480    -2.2510     0.6430 C.ar  1 <1>   0.1900 
  8 C        2.4210    -4.1250     0.4160 C.2   1 <1>   0.6900 
  9 C       -2.0310    -3.5700     0.5980 C.ar  1 <1>  -0.1500 
 10 F       -3.7210    -1.9960     0.7980 F     1 <1>  -0.1900 
 11 O        1.9700    -5.1010     0.9850 O.2   1 <1>  -0.5700 
 12 N        3.7480    -4.0780     0.0620 N.am  1 <1>  -0.6600 
 13 C        4.7210    -5.0830     0.5770 C.3   1 <1>   0.1400 
 14 C        4.3320    -3.1390    -0.9360 C.3   1 <1>   0.1400 
 15 C        5.8890    -4.3550     1.2450 C.3   1 <1>  -0.1600 
 16 C        5.4800    -2.3690    -0.2840 C.3   1 <1>  -0.1600 
 17 C        6.5120    -3.3360     0.2870 C.3   1 <1>   0.5600 
 18 O        7.1490    -3.9870    -0.7630 O.3   1 <1>  -0.5600 
 19 O        7.5050    -2.6100     0.9250 O.3   1 <1>  -0.5600 
 20 C        8.4850    -4.1590    -0.4490 C.3   1 <1>   0.1200 
 21 C        8.7170    -3.2460     0.7390 C.3   1 <1>   0.1200 
 22 H       -1.9100    -0.1770     0.5620 H     1 <1>   0.1500 
 23 H        2.1720    -2.2130    -0.0650 H     1 <1>   0.3700 
 24 H       -0.3600    -4.8720     0.3930 H     1 <1>   0.1500 
 25 H       -2.7500    -4.3650     0.6910 H     1 <1>   0.1500 
 26 H        5.0790    -5.6790    -0.2460 H     1 <1>   0.0800 
 27 H        4.2530    -5.7410     1.2890 H     1 <1>   0.0800 
 28 H        3.5950    -2.4540    -1.3140 H     1 <1>   0.0800 
 29 H        4.7080    -3.7090    -1.7700 H     1 <1>   0.0800 
 30 H        6.6230    -5.0690     1.5640 H     1 <1>   0.0800 
 31 H        5.5180    -3.8410     2.1120 H     1 <1>   0.0800 
 32 H        5.0880    -1.7590     0.5090 H     1 <1>   0.0800 
 33 H        5.9530    -1.7310    -1.0070 H     1 <1>   0.0800 
 34 H        9.0820    -3.8760    -1.2970 H     1 <1>   0.0800 
 35 H        8.6590    -5.1910    -0.1980 H     1 <1>   0.0800 
 36 H        8.9600    -3.8040     1.6260 H     1 <1>   0.0800 
 37 H        9.4750    -2.5080     0.5430 H     1 <1>   0.0800 
@<TRIPOS>BOND
  1   1   2  1   
  2   2   3  ar  
  3   2   4  ar  
  4   3   5  1   
  5   3   6  ar  
  6   4   7  ar  
  7   4  22  1   
  8   5   8  am  
  9   5  23  1   
 10   6   9  ar  
 11   6  24  1   
 12   7   9  ar  
 13   7  10  1   
 14   8  11  2   
 15   8  12  am  
 16   9  25  1   
 17  12  13  1   
 18  12  14  1   
 19  13  15  1   
 20  13  26  1   
 21  13  27  1   
 22  14  16  1   
 23  14  28  1   
 24  14  29  1   
 25  15  17  1   
 26  15  30  1   
 27  15  31  1   
 28  16  17  1   
 29  16  32  1   
 30  16  33  1   
 31  17  18  1   
 32  17  19  1   
 33  18  20  1   
 34  19  21  1   
 35  20  21  1   
 36  20  34  1   
 37  20  35  1   
 38  21  36  1   
 39  21  37  1   
@<TRIPOS>SUBSTRUCTURE
  1 ****   8 GROUP 4 **** **** 0

# MOE 2024.06 (io_trps.svl 2023.06)
