@<TRIPOS>MOLECULE
NONAME
34 35 1 0 0 
SMALL
USER_CHARGES


@<TRIPOS>ATOM
  1 S        0.8490    -0.4530     0.2720 S.3   1 <1>  -0.2860 
  2 C       -0.8470     0.1370     0.2850 C.2   1 <1>   0.2420 
  3 C        1.5340     0.2070     1.8680 C.3   1 <1>   0.1310 
  4 N       -1.3330     0.9180     1.1680 N.2   1 <1>  -0.3380 
  5 N       -1.7410    -0.1840    -0.6280 N.pl3 1 <1>   0.3140 
  6 C        3.0500     0.0880     1.8890 C.2   1 <1>   0.5690 
  7 N       -2.5970     1.0960     0.7860 N.2   1 <1>   0.0000 
  8 N       -2.8540     0.4380    -0.2940 N.2   1 <1>  -0.4180 
  9 C       -1.6100    -1.0550    -1.8060 C.3   1 <1>   0.0160 
 10 O        3.5610    -0.6750     2.6700 O.2   1 <1>  -0.5700 
 11 N        3.8320     0.8290     1.0700 N.am  1 <1>  -0.7300 
 12 C        3.4300     1.8150     0.0520 C.3   1 <1>   0.2840 
 13 C        4.6040     2.7390    -0.2050 C.ar  1 <1>  -0.1430 
 14 C        5.4290     2.5400    -1.3010 C.ar  1 <1>  -0.1500 
 15 C        4.8670     3.7910     0.6590 C.ar  1 <1>  -0.1500 
 16 C        6.5000     3.3860    -1.5320 C.ar  1 <1>  -0.1500 
 17 C        5.9390     4.6360     0.4270 C.ar  1 <1>  -0.1500 
 18 C        6.7610     4.4380    -0.6690 C.ar  1 <1>  -0.1430 
 19 C        7.9360     5.3650    -0.9250 C.3   1 <1>  -0.0970 
 20 H        1.0980    -0.3700     2.6620 H     1 <1>   0.0800 
 21 H        1.2340     1.2340     1.9570 H     1 <1>   0.0800 
 22 H       -0.8780    -0.6390    -2.4730 H     1 <1>   0.0800 
 23 H       -2.5580    -1.1220    -2.3070 H     1 <1>   0.0800 
 24 H       -1.3000    -2.0340    -1.4900 H     1 <1>   0.0800 
 25 H        4.8430     0.7080     1.1640 H     1 <1>   0.3700 
 26 H        2.5830     2.3840     0.3960 H     1 <1>   0.0800 
 27 H        3.1560     1.3020    -0.8540 H     1 <1>   0.0800 
 28 H        5.2450     1.7270    -1.9800 H     1 <1>   0.1500 
 29 H        4.2410     3.9550     1.5190 H     1 <1>   0.1500 
 30 H        7.1310     3.2210    -2.3880 H     1 <1>   0.1500 
 31 H        6.1290     5.4490     1.1050 H     1 <1>   0.1500 
 32 H        8.7320     4.8360    -1.4170 H     1 <1>   0.0800 
 33 H        8.3130     5.7590     0.0020 H     1 <1>   0.0800 
 34 H        7.6240     6.1830    -1.5490 H     1 <1>   0.0800 
@<TRIPOS>BOND
  1   1   2  1   
  2   1   3  1   
  3   2   4  2   
  4   2   5  1   
  5   3   6  1   
  6   3  20  1   
  7   3  21  1   
  8   4   7  1   
  9   5   8  1   
 10   5   9  1   
 11   6  10  2   
 12   6  11  am  
 13   7   8  2   
 14   9  22  1   
 15   9  23  1   
 16   9  24  1   
 17  11  12  1   
 18  11  25  1   
 19  12  13  1   
 20  12  26  1   
 21  12  27  1   
 22  13  14  ar  
 23  13  15  ar  
 24  14  16  ar  
 25  14  28  1   
 26  15  17  ar  
 27  15  29  1   
 28  16  18  ar  
 29  16  30  1   
 30  17  18  ar  
 31  17  31  1   
 32  18  19  1   
 33  19  32  1   
 34  19  33  1   
 35  19  34  1   
@<TRIPOS>SUBSTRUCTURE
  1 ****  12 GROUP 4 **** **** 0

# MOE 2024.06 (io_trps.svl 2023.06)
