@<TRIPOS>MOLECULE
NONAME
48 50 1 0 0 
SMALL
USER_CHARGES


@<TRIPOS>ATOM
  1 N        2.1000     0.5200     1.2390 N.ar  1 <1>  -0.6200 
  2 C        1.7720     0.9020     0.0100 C.ar  1 <1>   0.4100 
  3 C        1.2620     0.9020     2.1930 C.ar  1 <1>   0.1600 
  4 N        2.6300     0.5180    -0.9980 N.pl3 1 <1>  -0.8380 
  5 C        0.6390     1.6490    -0.2950 C.ar  1 <1>  -0.1500 
  6 C        0.1130     1.6440     1.9880 C.ar  1 <1>  -0.1500 
  7 C        3.9670     1.1820    -0.9850 C.3   1 <1>   0.2090 
  8 C        2.6870    -0.9500    -1.2640 C.3   1 <1>   0.2090 
  9 C       -0.2190     2.0350     0.7070 C.ar  1 <1>  -0.1500 
 10 C        4.9490     0.4570    -0.0390 C.3   1 <1>   0.3430 
 11 C        3.6810    -1.6590    -0.3150 C.3   1 <1>   0.3430 
 12 N        5.0480    -1.0250    -0.3220 N.4   1 <1>  -0.9590 
 13 C        5.9570    -1.6900     0.6460 C.3   1 <1>   0.4860 
 14 C        7.3500    -1.1230     0.4590 C.ar  1 <1>  -0.1430 
 15 C        8.1180    -1.4920    -0.6360 C.ar  1 <1>  -0.1500 
 16 C        7.8660    -0.2220     1.3770 C.ar  1 <1>  -0.1500 
 17 C        9.3790    -0.9520    -0.8150 C.ar  1 <1>  -0.1500 
 18 C        9.1270     0.3150     1.1930 C.ar  1 <1>  -0.1500 
 19 C        9.8950    -0.0420     0.0950 C.ar  1 <1>  -0.1430 
 20 C       11.2910     0.5420    -0.1190 C.3   1 <1>   0.0630 
 21 C       12.2260     0.1620     1.0330 C.3   1 <1>  -0.2400 
 22 C       11.2280     2.0630    -0.2890 C.3   1 <1>  -0.2400 
 23 H        1.5020     0.6070     3.2010 H     1 <1>   0.1500 
 24 H        0.4510     1.9140    -1.3190 H     1 <1>   0.1500 
 25 H       -0.5160     1.9130     2.8180 H     1 <1>   0.1500 
 26 H        3.8540     2.2020    -0.6570 H     1 <1>   0.0800 
 27 H        4.3660     1.2040    -1.9840 H     1 <1>   0.0800 
 28 H        2.9720    -1.1160    -2.2880 H     1 <1>   0.0800 
 29 H        1.7060    -1.3740    -1.1250 H     1 <1>   0.0800 
 30 H       -1.1050     2.6130     0.5050 H     1 <1>   0.1500 
 31 H        4.6030     0.6060     0.9710 H     1 <1>   0.0800 
 32 H        5.9200     0.9140    -0.1260 H     1 <1>   0.0800 
 33 H        3.7530    -2.6960    -0.5950 H     1 <1>   0.0800 
 34 H        3.2710    -1.6120     0.6810 H     1 <1>   0.0800 
 35 H        5.4650    -1.1260    -1.2540 H     1 <1>   0.4500 
 36 H        5.9790    -2.7530     0.4700 H     1 <1>   0.0800 
 37 H        5.6190    -1.5150     1.6550 H     1 <1>   0.0800 
 38 H        7.7540    -2.2010    -1.3590 H     1 <1>   0.1500 
 39 H        7.3000     0.0740     2.2450 H     1 <1>   0.1500 
 40 H        9.9640    -1.2480    -1.6690 H     1 <1>   0.1500 
 41 H        9.5150     1.0130     1.9150 H     1 <1>   0.1500 
 42 H       11.7050     0.1290    -1.0240 H     1 <1>   0.0800 
 43 H       11.8920     0.5940     1.9590 H     1 <1>   0.0800 
 44 H       13.2230     0.5100     0.8330 H     1 <1>   0.0800 
 45 H       12.2540    -0.9080     1.1440 H     1 <1>   0.0800 
 46 H       10.8670     2.5360     0.6060 H     1 <1>   0.0800 
 47 H       10.5690     2.3140    -1.1010 H     1 <1>   0.0800 
 48 H       12.2060     2.4520    -0.5120 H     1 <1>   0.0800 
@<TRIPOS>BOND
  1   1   2  ar  
  2   1   3  ar  
  3   2   4  1   
  4   2   5  ar  
  5   3   6  ar  
  6   3  23  1   
  7   4   7  1   
  8   4   8  1   
  9   5   9  ar  
 10   5  24  1   
 11   6   9  ar  
 12   6  25  1   
 13   7  10  1   
 14   7  26  1   
 15   7  27  1   
 16   8  11  1   
 17   8  28  1   
 18   8  29  1   
 19   9  30  1   
 20  10  12  1   
 21  10  31  1   
 22  10  32  1   
 23  11  12  1   
 24  11  33  1   
 25  11  34  1   
 26  12  13  1   
 27  12  35  1   
 28  13  14  1   
 29  13  36  1   
 30  13  37  1   
 31  14  15  ar  
 32  14  16  ar  
 33  15  17  ar  
 34  15  38  1   
 35  16  18  ar  
 36  16  39  1   
 37  17  19  ar  
 38  17  40  1   
 39  18  19  ar  
 40  18  41  1   
 41  19  20  1   
 42  20  21  1   
 43  20  22  1   
 44  20  42  1   
 45  21  43  1   
 46  21  44  1   
 47  21  45  1   
 48  22  46  1   
 49  22  47  1   
 50  22  48  1   
@<TRIPOS>SUBSTRUCTURE
  1 ****  10 GROUP 4 **** **** 0

# MOE 2024.06 (io_trps.svl 2023.06)
