@<TRIPOS>MOLECULE
NONAME
39 38 1 0 0 
SMALL
USER_CHARGES


@<TRIPOS>ATOM
  1 O       -2.0950    -1.8190    -1.0690 O.2   1 <1>  -0.5700 
  2 C       -1.6500    -1.4100    -0.0130 C.2   1 <1>   0.7800 
  3 O       -0.4720    -1.8200     0.4530 O.3   1 <1>  -0.4300 
  4 N       -2.3030    -0.5210     0.7640 N.am  1 <1>  -0.7300 
  5 C        0.4430    -2.6880    -0.1750 C.3   1 <1>   0.2800 
  6 C       -3.4150     0.3360     0.3320 C.3   1 <1>   0.2200 
  7 C       -0.1780    -4.0790    -0.3500 C.3   1 <1>  -0.2400 
  8 C        1.6270    -2.7800     0.7870 C.3   1 <1>  -0.2400 
  9 C        0.9160    -2.0850    -1.5030 C.3   1 <1>  -0.2400 
 10 C       -3.5100     1.5120     1.3040 C.3   1 <1>  -0.2660 
 11 C       -4.7080    -0.4980     0.3050 C.3   1 <1>  -0.1600 
 12 C       -2.2110     2.2600     1.3960 C.2   1 <1>   0.9060 
 13 C       -5.9190     0.2690    -0.2520 C.3   1 <1>  -0.1600 
 14 O       -2.1060     3.3400     0.8130 O.co2 1 <1>  -0.9000 
 15 O       -1.2950     1.7510     2.0520 O.co2 1 <1>  -0.9000 
 16 C       -7.1420    -0.6470    -0.3760 C.3   1 <1>  -0.1600 
 17 C       -8.3490     0.1170    -0.9260 C.3   1 <1>  -0.2400 
 18 H       -1.7000    -0.0190     1.4410 H     1 <1>   0.3700 
 19 H       -3.1970     0.7080    -0.6570 H     1 <1>   0.0800 
 20 H       -0.9710    -4.0590    -1.0740 H     1 <1>   0.0800 
 21 H       -0.5650    -4.4330     0.5880 H     1 <1>   0.0800 
 22 H        0.5660    -4.7710    -0.6990 H     1 <1>   0.0800 
 23 H        1.3060    -3.1760     1.7340 H     1 <1>   0.0800 
 24 H        2.0520    -1.8040     0.9440 H     1 <1>   0.0800 
 25 H        2.3890    -3.4240     0.3870 H     1 <1>   0.0800 
 26 H        0.1220    -2.0690    -2.2260 H     1 <1>   0.0800 
 27 H        1.7180    -2.6720    -1.9100 H     1 <1>   0.0800 
 28 H        1.2700    -1.0810    -1.3480 H     1 <1>   0.0800 
 29 H       -3.7720     1.1670     2.2850 H     1 <1>   0.0800 
 30 H       -4.2560     2.2070     0.9760 H     1 <1>   0.0800 
 31 H       -4.9260    -0.8420     1.3000 H     1 <1>   0.0800 
 32 H       -4.5430    -1.3610    -0.3170 H     1 <1>   0.0800 
 33 H       -5.6690     0.6680    -1.2210 H     1 <1>   0.0800 
 34 H       -6.1610     1.0910     0.3980 H     1 <1>   0.0800 
 35 H       -7.3870    -1.0530     0.5910 H     1 <1>   0.0800 
 36 H       -6.9120    -1.4680    -1.0340 H     1 <1>   0.0800 
 37 H       -8.6070     0.9310    -0.2710 H     1 <1>   0.0800 
 38 H       -9.1960    -0.5410    -1.0060 H     1 <1>   0.0800 
 39 H       -8.1290     0.5130    -1.9020 H     1 <1>   0.0800 
@<TRIPOS>BOND
  1   1   2  2   
  2   2   3  1   
  3   2   4  am  
  4   3   5  1   
  5   4   6  1   
  6   4  18  1   
  7   5   7  1   
  8   5   8  1   
  9   5   9  1   
 10   6  10  1   
 11   6  11  1   
 12   6  19  1   
 13   7  20  1   
 14   7  21  1   
 15   7  22  1   
 16   8  23  1   
 17   8  24  1   
 18   8  25  1   
 19   9  26  1   
 20   9  27  1   
 21   9  28  1   
 22  10  12  1   
 23  10  29  1   
 24  10  30  1   
 25  11  13  1   
 26  11  31  1   
 27  11  32  1   
 28  12  14  ar  
 29  12  15  ar  
 30  13  16  1   
 31  13  33  1   
 32  13  34  1   
 33  16  17  1   
 34  16  35  1   
 35  16  36  1   
 36  17  37  1   
 37  17  38  1   
 38  17  39  1   
@<TRIPOS>SUBSTRUCTURE
  1 ****   4 GROUP 4 **** **** 0

# MOE 2024.06 (io_trps.svl 2023.06)
