@<TRIPOS>MOLECULE
NONAME
46 47 1 0 0 
SMALL
USER_CHARGES


@<TRIPOS>ATOM
  1 O        1.2210     1.9110     3.0370 O.2   1 <1>  -0.5700 
  2 C        1.3310     2.4710     1.9690 C.2   1 <1>   0.5440 
  3 N        2.5260     3.0720     1.7250 N.am  1 <1>  -0.7300 
  4 C        0.2480     2.4690     1.0050 C.ar  1 <1>   0.0860 
  5 C        3.1020     3.4210     0.4180 C.3   1 <1>   0.2200 
  6 C       -0.2180     3.6550     0.4410 C.ar  1 <1>  -0.1500 
  7 C       -0.3550     1.2780     0.6110 C.ar  1 <1>  -0.1500 
  8 C        4.2690     2.4780     0.1020 C.3   1 <1>  -0.1600 
  9 C        3.5660     4.8720     0.4850 C.3   1 <1>  -0.2400 
 10 C       -1.2390     3.6500    -0.5010 C.ar  1 <1>   0.0830 
 11 C       -1.3710     1.2570    -0.3270 C.ar  1 <1>   0.0830 
 12 C        3.8380     1.0090    -0.0180 C.3   1 <1>  -0.0170 
 13 O       -1.7270     4.7720    -1.0860 O.3   1 <1>  -0.3630 
 14 C       -1.8120     2.4500    -0.8860 C.ar  1 <1>  -0.1500 
 15 O       -1.8820     0.0420    -0.6470 O.3   1 <1>  -0.3630 
 16 C        5.0230     0.1470    -0.4210 C.ar  1 <1>  -0.1440 
 17 C       -1.3020     6.0560    -0.6860 C.3   1 <1>   0.0400 
 18 C       -2.9590    -0.0840    -1.5480 C.3   1 <1>   0.0400 
 19 C        5.8360    -0.4190     0.5490 C.ar  1 <1>  -0.1500 
 20 C        5.3060    -0.0760    -1.7590 C.ar  1 <1>  -0.1500 
 21 C        6.9200    -1.1990     0.1860 C.ar  1 <1>  -0.1500 
 22 C        6.3900    -0.8560    -2.1250 C.ar  1 <1>  -0.1500 
 23 C        7.1980    -1.4180    -1.1520 C.ar  1 <1>  -0.1500 
 24 H        3.1950     3.0120     2.4940 H     1 <1>   0.3700 
 25 H        2.3570     3.3240    -0.3550 H     1 <1>   0.0800 
 26 H        0.2390     4.5720     0.7590 H     1 <1>   0.1500 
 27 H       -0.0240     0.3520     1.0460 H     1 <1>   0.1500 
 28 H        5.0280     2.5690     0.8590 H     1 <1>   0.0800 
 29 H        4.7100     2.7780    -0.8320 H     1 <1>   0.0800 
 30 H        4.3230     4.9940     1.2390 H     1 <1>   0.0800 
 31 H        2.7350     5.5160     0.7090 H     1 <1>   0.0800 
 32 H        3.9780     5.1700    -0.4630 H     1 <1>   0.0800 
 33 H        3.0570     0.9130    -0.7530 H     1 <1>   0.0800 
 34 H        3.4450     0.6560     0.9200 H     1 <1>   0.0800 
 35 H       -2.5960     2.4780    -1.6170 H     1 <1>   0.1500 
 36 H       -1.8560     6.7830    -1.2520 H     1 <1>   0.0800 
 37 H       -0.2510     6.1570    -0.8930 H     1 <1>   0.0800 
 38 H       -1.5040     6.1800     0.3630 H     1 <1>   0.0800 
 39 H       -3.2070    -1.1270    -1.6300 H     1 <1>   0.0800 
 40 H       -2.6580     0.2960    -2.5080 H     1 <1>   0.0800 
 41 H       -3.8020     0.4630    -1.1640 H     1 <1>   0.0800 
 42 H        5.6260    -0.2550     1.5920 H     1 <1>   0.1500 
 43 H        4.6850     0.3570    -2.5230 H     1 <1>   0.1500 
 44 H        7.5460    -1.6360     0.9440 H     1 <1>   0.1500 
 45 H        6.6040    -1.0250    -3.1650 H     1 <1>   0.1500 
 46 H        8.0410    -2.0240    -1.4350 H     1 <1>   0.1500 
@<TRIPOS>BOND
  1   1   2  2   
  2   2   3  am  
  3   2   4  1   
  4   3   5  1   
  5   3  24  1   
  6   4   6  ar  
  7   4   7  ar  
  8   5   8  1   
  9   5   9  1   
 10   5  25  1   
 11   6  10  ar  
 12   6  26  1   
 13   7  11  ar  
 14   7  27  1   
 15   8  12  1   
 16   8  28  1   
 17   8  29  1   
 18   9  30  1   
 19   9  31  1   
 20   9  32  1   
 21  10  13  1   
 22  10  14  ar  
 23  11  14  ar  
 24  11  15  1   
 25  12  16  1   
 26  12  33  1   
 27  12  34  1   
 28  13  17  1   
 29  14  35  1   
 30  15  18  1   
 31  16  19  ar  
 32  16  20  ar  
 33  17  36  1   
 34  17  37  1   
 35  17  38  1   
 36  18  39  1   
 37  18  40  1   
 38  18  41  1   
 39  19  21  ar  
 40  19  42  1   
 41  20  22  ar  
 42  20  43  1   
 43  21  23  ar  
 44  21  44  1   
 45  22  23  ar  
 46  22  45  1   
 47  23  46  1   
@<TRIPOS>SUBSTRUCTURE
  1 ****   4 GROUP 4 **** **** 0

# MOE 2024.06 (io_trps.svl 2023.06)
