@<TRIPOS>MOLECULE
NONAME
38 38 1 0 0 
SMALL
USER_CHARGES


@<TRIPOS>ATOM
  1 O       -7.6150     1.3570     0.3200 O.3   1 <1>  -0.3630 
  2 C       -7.7320     0.0020     0.3360 C.ar  1 <1>   0.0830 
  3 C       -6.3780     1.9940     0.1260 C.3   1 <1>   0.1200 
  4 C       -9.0060    -0.5440     0.4840 C.ar  1 <1>  -0.1440 
  5 C       -6.6320    -0.8460     0.2100 C.ar  1 <1>  -0.1500 
  6 C       -6.6370     3.5000     0.1400 C.3   1 <1>  -0.1600 
  7 C       -9.1610    -1.9220     0.4930 C.ar  1 <1>  -0.1500 
  8 C      -10.2490     0.3260     0.6330 C.3   1 <1>   0.1220 
  9 C       -6.8010    -2.2190     0.2250 C.ar  1 <1>  -0.1500 
 10 C       -5.3340     4.2740    -0.0500 C.3   1 <1>   0.3430 
 11 C       -8.0660    -2.7580     0.3650 C.ar  1 <1>  -0.1500 
 12 C      -10.9830     0.4300    -0.6940 C.2   1 <1>  -0.2880 
 13 N       -5.6030     5.7410    -0.1370 N.4   1 <1>  -0.9590 
 14 C      -12.2540     0.0730    -0.9060 C.2   1 <1>  -0.3000 
 15 C       -4.4000     6.4670    -0.6490 C.3   1 <1>   0.2630 
 16 C       -6.0370     6.3200     1.1750 C.3   1 <1>   0.2630 
 17 H       -5.9810     1.6730    -0.8230 H     1 <1>   0.0800 
 18 H       -5.7220     1.7020     0.9280 H     1 <1>   0.0800 
 19 H       -5.6360    -0.4660     0.0980 H     1 <1>   0.1500 
 20 H       -7.0860     3.7510     1.0840 H     1 <1>   0.0800 
 21 H       -7.3200     3.7340    -0.6580 H     1 <1>   0.0800 
 22 H      -10.1430    -2.3510     0.5950 H     1 <1>   0.1500 
 23 H       -9.9910     1.3120     0.9750 H     1 <1>   0.0800 
 24 H      -10.8980    -0.1060     1.3740 H     1 <1>   0.0800 
 25 H       -5.9500    -2.8700     0.1270 H     1 <1>   0.1500 
 26 H       -4.8650     3.9420    -0.9630 H     1 <1>   0.0800 
 27 H       -4.6610     4.0690     0.7670 H     1 <1>   0.0800 
 28 H       -8.2010    -3.8260     0.3740 H     1 <1>   0.1500 
 29 H      -10.3550     0.8290    -1.4720 H     1 <1>   0.1500 
 30 H       -6.3700     5.8750    -0.8150 H     1 <1>   0.4500 
 31 H      -12.7470     0.1550    -1.8600 H     1 <1>   0.1500 
 32 H      -12.9070    -0.3300    -0.1520 H     1 <1>   0.1500 
 33 H       -3.5720     6.3500     0.0310 H     1 <1>   0.0800 
 34 H       -4.6140     7.5200    -0.7520 H     1 <1>   0.0800 
 35 H       -4.1120     6.0830    -1.6150 H     1 <1>   0.0800 
 36 H       -5.2750     6.1710     1.9230 H     1 <1>   0.0800 
 37 H       -6.9470     5.8510     1.5130 H     1 <1>   0.0800 
 38 H       -6.2190     7.3780     1.0750 H     1 <1>   0.0800 
@<TRIPOS>BOND
  1   1   2  1   
  2   1   3  1   
  3   2   4  ar  
  4   2   5  ar  
  5   3   6  1   
  6   3  17  1   
  7   3  18  1   
  8   4   7  ar  
  9   4   8  1   
 10   5   9  ar  
 11   5  19  1   
 12   6  10  1   
 13   6  20  1   
 14   6  21  1   
 15   7  11  ar  
 16   7  22  1   
 17   8  12  1   
 18   8  23  1   
 19   8  24  1   
 20   9  11  ar  
 21   9  25  1   
 22  10  13  1   
 23  10  26  1   
 24  10  27  1   
 25  11  28  1   
 26  12  14  2   
 27  12  29  1   
 28  13  15  1   
 29  13  16  1   
 30  13  30  1   
 31  14  31  1   
 32  14  32  1   
 33  15  33  1   
 34  15  34  1   
 35  15  35  1   
 36  16  36  1   
 37  16  37  1   
 38  16  38  1   
@<TRIPOS>SUBSTRUCTURE
  1 ****   1 GROUP 4 **** **** 0

# MOE 2024.06 (io_trps.svl 2023.06)
