@<TRIPOS>MOLECULE
NONAME
35 35 1 0 0 
SMALL
USER_CHARGES


@<TRIPOS>ATOM
  1 O       -9.3400     3.7440     0.2180 O.3   1 <1>  -0.3630 
  2 C       -9.2080     2.4280    -0.1030 C.ar  1 <1>   0.0830 
  3 C      -10.5400     4.2460     0.7660 C.3   1 <1>   0.1200 
  4 C       -8.0950     2.0590    -0.8540 C.ar  1 <1>  -0.1440 
  5 C      -10.1230     1.4570     0.2940 C.ar  1 <1>  -0.1500 
  6 C      -10.4020     5.7600     0.8950 C.3   1 <1>  -0.2400 
  7 C       -7.9040     0.7290    -1.1970 C.ar  1 <1>  -0.1500 
  8 C       -7.1000     3.1070    -1.3020 C.3   1 <1>   0.4860 
  9 C       -9.9240     0.1330    -0.0530 C.ar  1 <1>  -0.1500 
 10 C       -8.8170    -0.2310    -0.7970 C.ar  1 <1>  -0.1500 
 11 N       -6.5500     3.7280    -0.0830 N.4   1 <1>  -0.9060 
 12 C       -5.6630     4.8910    -0.3580 C.3   1 <1>   0.3430 
 13 C       -5.1980     5.5650     0.9360 C.3   1 <1>   0.1200 
 14 O       -4.3810     6.6230     0.5700 O.3   1 <1>  -0.5600 
 15 C       -3.8700     7.3550     1.6410 C.3   1 <1>   0.0400 
 16 H      -10.6950     3.7970     1.7330 H     1 <1>   0.0800 
 17 H      -11.3530     3.9940     0.1050 H     1 <1>   0.0800 
 18 H      -10.9940     1.7030     0.8740 H     1 <1>   0.1500 
 19 H       -9.5920     6.0110     1.5560 H     1 <1>   0.0800 
 20 H      -11.3090     6.1700     1.3020 H     1 <1>   0.0800 
 21 H      -10.2360     6.2040    -0.0710 H     1 <1>   0.0800 
 22 H       -7.0520     0.4190    -1.7800 H     1 <1>   0.1500 
 23 H       -7.6080     3.8450    -1.9010 H     1 <1>   0.0800 
 24 H       -6.3150     2.6560    -1.8870 H     1 <1>   0.0800 
 25 H      -10.6330    -0.6180     0.2540 H     1 <1>   0.1500 
 26 H       -8.6690    -1.2650    -1.0650 H     1 <1>   0.1500 
 27 H       -6.0870     3.0030     0.4740 H     1 <1>   0.4500 
 28 H       -7.3890     4.0170     0.4480 H     1 <1>   0.4500 
 29 H       -6.1920     5.6200    -0.9500 H     1 <1>   0.0800 
 30 H       -4.7950     4.5670    -0.9080 H     1 <1>   0.0800 
 31 H       -4.6240     4.8850     1.5420 H     1 <1>   0.0800 
 32 H       -6.0350     5.9570     1.4890 H     1 <1>   0.0800 
 33 H       -3.2540     8.1440     1.2450 H     1 <1>   0.0800 
 34 H       -3.2720     6.7120     2.2650 H     1 <1>   0.0800 
 35 H       -4.6820     7.7830     2.2050 H     1 <1>   0.0800 
@<TRIPOS>BOND
  1   1   2  1   
  2   1   3  1   
  3   2   4  ar  
  4   2   5  ar  
  5   3   6  1   
  6   3  16  1   
  7   3  17  1   
  8   4   7  ar  
  9   4   8  1   
 10   5   9  ar  
 11   5  18  1   
 12   6  19  1   
 13   6  20  1   
 14   6  21  1   
 15   7  10  ar  
 16   7  22  1   
 17   8  11  1   
 18   8  23  1   
 19   8  24  1   
 20   9  10  ar  
 21   9  25  1   
 22  10  26  1   
 23  11  12  1   
 24  11  27  1   
 25  11  28  1   
 26  12  13  1   
 27  12  29  1   
 28  12  30  1   
 29  13  14  1   
 30  13  31  1   
 31  13  32  1   
 32  14  15  1   
 33  15  33  1   
 34  15  34  1   
 35  15  35  1   
@<TRIPOS>SUBSTRUCTURE
  1 ****  11 GROUP 4 **** **** 0

# MOE 2024.06 (io_trps.svl 2023.06)
