@<TRIPOS>MOLECULE
NONAME
53 55 1 0 0 
SMALL
USER_CHARGES


@<TRIPOS>ATOM
  1 S        0.2950     0.0290    -2.0460 S.o2  1 <1>   1.4470 
  2 O        0.7680    -1.1430    -2.7510 O.2   1 <1>  -0.6500 
  3 O       -0.5750     0.9640    -2.7280 O.2   1 <1>  -0.6500 
  4 N        1.6650     0.9120    -1.5750 N.am  1 <1>  -0.8490 
  5 C       -0.4330    -0.4770    -0.4630 C.ar  1 <1>  -0.0090 
  6 C        1.3010     2.1860    -0.9470 C.3   1 <1>   0.1960 
  7 C        2.5680     1.1250    -2.7080 C.3   1 <1>   0.1960 
  8 C        0.2780    -1.2750     0.4250 C.ar  1 <1>  -0.1500 
  9 C       -1.7090    -0.0700    -0.0890 C.ar  1 <1>  -0.1500 
 10 C        2.5510     2.8560    -0.3760 C.3   1 <1>  -0.1600 
 11 C        3.8720     1.7620    -2.2220 C.3   1 <1>  -0.1600 
 12 C       -0.2610    -1.6540     1.6420 C.ar  1 <1>  -0.1500 
 13 C       -2.2540    -0.4450     1.1270 C.ar  1 <1>  -0.1500 
 14 C        3.6090     3.0790    -1.4710 C.3   1 <1>  -0.0190 
 15 C       -1.5320    -1.2400     2.0000 C.ar  1 <1>  -0.1440 
 16 C        4.8920     3.6750    -0.9050 C.2   1 <1>   0.5690 
 17 C       -2.1280    -1.6530     3.3330 C.3   1 <1>  -0.0970 
 18 O        5.2560     4.7590    -1.2910 O.2   1 <1>  -0.5700 
 19 N        5.5910     2.9710     0.0150 N.am  1 <1>  -0.7300 
 20 C        6.8940     3.3550     0.5570 C.3   1 <1>   0.3640 
 21 C        7.6780     2.0760     0.8280 C.ar  1 <1>  -0.1440 
 22 C        6.6800     4.1850     1.8200 C.3   1 <1>  -0.2400 
 23 C        7.2550     1.1530     1.7770 C.ar  1 <1>  -0.1500 
 24 C        8.8330     1.8150     0.1060 C.ar  1 <1>  -0.1500 
 25 C        7.9770    -0.0060     2.0010 C.ar  1 <1>  -0.1500 
 26 C        9.5560     0.6560     0.3280 C.ar  1 <1>  -0.1500 
 27 C        9.1290    -0.2560     1.2760 C.ar  1 <1>  -0.1500 
 28 H        0.6030     2.0130    -0.1450 H     1 <1>   0.0800 
 29 H        0.8310     2.8350    -1.6690 H     1 <1>   0.0800 
 30 H        2.0930     1.7540    -3.4440 H     1 <1>   0.0800 
 31 H        2.8020     0.1810    -3.1740 H     1 <1>   0.0800 
 32 H        1.2690    -1.6030     0.1550 H     1 <1>   0.1500 
 33 H       -2.2850     0.5470    -0.7580 H     1 <1>   0.1500 
 34 H        2.9440     2.2340     0.4080 H     1 <1>   0.0800 
 35 H        2.2800     3.8020     0.0590 H     1 <1>   0.0800 
 36 H        4.5110     1.9510    -3.0660 H     1 <1>   0.0800 
 37 H        4.3740     1.0570    -1.5830 H     1 <1>   0.0800 
 38 H        0.3150    -2.2730     2.3080 H     1 <1>   0.1500 
 39 H       -3.2440    -0.1150     1.3900 H     1 <1>   0.1500 
 40 H        3.2110     3.7880    -2.1760 H     1 <1>   0.0800 
 41 H       -1.7190    -2.5940     3.6550 H     1 <1>   0.0800 
 42 H       -3.1950    -1.7590     3.2500 H     1 <1>   0.0800 
 43 H       -1.9110    -0.9070     4.0760 H     1 <1>   0.0800 
 44 H        5.3080     2.0230     0.2600 H     1 <1>   0.3700 
 45 H        7.4160     3.9560    -0.1710 H     1 <1>   0.0800 
 46 H        6.0880     3.6530     2.5400 H     1 <1>   0.0800 
 47 H        6.1870     5.1060     1.5670 H     1 <1>   0.0800 
 48 H        7.6320     4.4200     2.2590 H     1 <1>   0.0800 
 49 H        6.3620     1.3300     2.3500 H     1 <1>   0.1500 
 50 H        9.1770     2.5130    -0.6380 H     1 <1>   0.1500 
 51 H        7.6450    -0.7150     2.7400 H     1 <1>   0.1500 
 52 H       10.4510     0.4630    -0.2370 H     1 <1>   0.1500 
 53 H        9.6910    -1.1570     1.4500 H     1 <1>   0.1500 
@<TRIPOS>BOND
  1   1   2  2   
  2   1   3  2   
  3   1   4  am  
  4   1   5  1   
  5   4   6  1   
  6   4   7  1   
  7   5   8  ar  
  8   5   9  ar  
  9   6  10  1   
 10   6  28  1   
 11   6  29  1   
 12   7  11  1   
 13   7  30  1   
 14   7  31  1   
 15   8  12  ar  
 16   8  32  1   
 17   9  13  ar  
 18   9  33  1   
 19  10  14  1   
 20  10  34  1   
 21  10  35  1   
 22  11  14  1   
 23  11  36  1   
 24  11  37  1   
 25  12  15  ar  
 26  12  38  1   
 27  13  15  ar  
 28  13  39  1   
 29  14  16  1   
 30  14  40  1   
 31  15  17  1   
 32  16  18  2   
 33  16  19  am  
 34  17  41  1   
 35  17  42  1   
 36  17  43  1   
 37  19  20  1   
 38  19  44  1   
 39  20  21  1   
 40  20  22  1   
 41  20  45  1   
 42  21  23  ar  
 43  21  24  ar  
 44  22  46  1   
 45  22  47  1   
 46  22  48  1   
 47  23  25  ar  
 48  23  49  1   
 49  24  26  ar  
 50  24  50  1   
 51  25  27  ar  
 52  25  51  1   
 53  26  27  ar  
 54  26  52  1   
 55  27  53  1   
@<TRIPOS>SUBSTRUCTURE
  1 ****  10 GROUP 4 **** **** 0

# MOE 2024.06 (io_trps.svl 2023.06)
