@<TRIPOS>MOLECULE
NONAME
34 35 1 0 0 
SMALL
USER_CHARGES


@<TRIPOS>ATOM
  1 S       -1.6030     0.6750     1.2890 S.3   1 <1>  -0.0800 
  2 C       -2.3490     0.7230    -0.2750 C.2   1 <1>   0.4420 
  3 C       -0.3320     1.6450     0.6290 C.2   1 <1>   0.1980 
  4 N       -1.6620     1.4010    -1.1200 N.2   1 <1>  -0.3380 
  5 N       -3.5430     0.0490    -0.4100 N.am  1 <1>  -0.4940 
  6 N       -0.5110     1.9250    -0.5960 N.2   1 <1>  -0.3380 
  7 C        0.8090     2.0410     1.5390 C.3   1 <1>  -0.0600 
  8 C       -4.3750    -0.0680    -1.4880 C.2   1 <1>   0.5690 
  9 O       -4.1690     0.4600    -2.5520 O.2   1 <1>  -0.5700 
 10 C       -5.6430    -0.9110    -1.3170 C.3   1 <1>   0.2610 
 11 O       -5.9630    -1.0160     0.0640 O.3   1 <1>  -0.3630 
 12 C       -5.4820    -2.3340    -1.8630 C.3   1 <1>  -0.2400 
 13 C       -7.2370    -0.7410     0.4150 C.ar  1 <1>   0.0820 
 14 C       -7.7030     0.5710     0.4900 C.ar  1 <1>  -0.1440 
 15 C       -8.0730    -1.8040     0.7130 C.ar  1 <1>  -0.1500 
 16 C       -9.0260     0.7890     0.8420 C.ar  1 <1>  -0.1500 
 17 C       -6.8030     1.7670     0.2080 C.3   1 <1>  -0.0970 
 18 C       -9.3900    -1.5730     1.0660 C.ar  1 <1>  -0.1500 
 19 C       -9.8660    -0.2750     1.1270 C.ar  1 <1>  -0.1500 
 20 H       -3.8930    -0.4090     0.4310 H     1 <1>   0.3700 
 21 H        1.3040     1.1620     1.9070 H     1 <1>   0.0800 
 22 H        0.4340     2.6130     2.3680 H     1 <1>   0.0800 
 23 H        1.5170     2.6380     0.9940 H     1 <1>   0.0800 
 24 H       -6.4520    -0.4170    -1.8270 H     1 <1>   0.0800 
 25 H       -4.6920    -2.8480    -1.3460 H     1 <1>   0.0800 
 26 H       -5.2350    -2.2920    -2.9090 H     1 <1>   0.0800 
 27 H       -6.4020    -2.8790    -1.7530 H     1 <1>   0.0800 
 28 H       -7.6920    -2.8080     0.6660 H     1 <1>   0.1500 
 29 H       -9.4130     1.7910     0.9000 H     1 <1>   0.1500 
 30 H       -6.6580     1.8830    -0.8510 H     1 <1>   0.0800 
 31 H       -5.8470     1.6350     0.6810 H     1 <1>   0.0800 
 32 H       -7.2390     2.6720     0.5910 H     1 <1>   0.0800 
 33 H      -10.0420    -2.3980     1.2940 H     1 <1>   0.1500 
 34 H      -10.8910    -0.0910     1.3990 H     1 <1>   0.1500 
@<TRIPOS>BOND
  1   1   2  1   
  2   1   3  1   
  3   2   4  2   
  4   2   5  1   
  5   3   6  2   
  6   3   7  1   
  7   4   6  1   
  8   5   8  am  
  9   5  20  1   
 10   7  21  1   
 11   7  22  1   
 12   7  23  1   
 13   8   9  2   
 14   8  10  1   
 15  10  11  1   
 16  10  12  1   
 17  10  24  1   
 18  11  13  1   
 19  12  25  1   
 20  12  26  1   
 21  12  27  1   
 22  13  14  ar  
 23  13  15  ar  
 24  14  16  ar  
 25  14  17  1   
 26  15  18  ar  
 27  15  28  1   
 28  16  19  ar  
 29  16  29  1   
 30  17  30  1   
 31  17  31  1   
 32  17  32  1   
 33  18  19  ar  
 34  18  33  1   
 35  19  34  1   
@<TRIPOS>SUBSTRUCTURE
  1 ****   5 GROUP 4 **** **** 0

# MOE 2024.06 (io_trps.svl 2023.06)
