@<TRIPOS>MOLECULE
NONAME
37 38 1 0 0 
SMALL
USER_CHARGES


@<TRIPOS>ATOM
  1 O       -0.7640    -0.7510    -0.9270 O.co2 1 <1>  -0.9000 
  2 C       -1.9150    -1.1190    -0.6320 C.2   1 <1>   0.9790 
  3 O       -2.1110    -2.3200    -0.3710 O.co2 1 <1>  -0.9000 
  4 C       -3.0150    -0.1630    -0.5800 C.ar  1 <1>  -0.1790 
  5 C       -4.3170    -0.5700    -0.3020 C.ar  1 <1>  -0.1500 
  6 C       -2.8180     1.1990    -0.8010 C.ar  1 <1>  -0.1500 
  7 C       -5.3850     0.3130    -0.2300 C.ar  1 <1>   0.1170 
  8 C       -3.8650     2.1000    -0.7310 C.ar  1 <1>  -0.1500 
  9 N       -6.6360    -0.2330     0.0940 N.am  1 <1>  -0.5470 
 10 C       -5.1500     1.6750    -0.4360 C.ar  1 <1>  -0.1430 
 11 C       -7.8410    -0.1340    -0.5430 C.2   1 <1>   0.5690 
 12 C       -6.2480     2.7260    -0.3380 C.3   1 <1>  -0.0960 
 13 O       -8.0290     0.5510    -1.5200 O.2   1 <1>  -0.5700 
 14 C       -9.0010    -0.9570     0.0200 C.3   1 <1>  -0.0190 
 15 C       -9.4220    -2.0690    -0.9590 C.3   1 <1>  -0.1600 
 16 C      -10.2080    -0.0670     0.3780 C.3   1 <1>  -0.1600 
 17 C      -10.5890    -2.8990    -0.4050 C.3   1 <1>  -0.1600 
 18 C      -11.3740    -0.8950     0.9350 C.3   1 <1>  -0.1600 
 19 C      -11.7820    -2.0040    -0.0450 C.3   1 <1>  -0.1600 
 20 H       -4.4870    -1.6200    -0.1410 H     1 <1>   0.1500 
 21 H       -1.8220     1.5420    -1.0280 H     1 <1>   0.1500 
 22 H       -3.6650     3.1410    -0.9060 H     1 <1>   0.1500 
 23 H       -6.5790    -0.9580     0.8040 H     1 <1>   0.3700 
 24 H       -6.9650     2.4570     0.4160 H     1 <1>   0.0800 
 25 H       -6.7530     2.8100    -1.2840 H     1 <1>   0.0800 
 26 H       -5.8360     3.6840    -0.0820 H     1 <1>   0.0800 
 27 H       -8.6670    -1.4280     0.9270 H     1 <1>   0.0800 
 28 H       -8.5820    -2.7140    -1.1560 H     1 <1>   0.0800 
 29 H       -9.7160    -1.6230    -1.8950 H     1 <1>   0.0800 
 30 H      -10.5360     0.4570    -0.5040 H     1 <1>   0.0800 
 31 H       -9.9100     0.6700     1.1040 H     1 <1>   0.0800 
 32 H      -10.2650    -3.4320     0.4730 H     1 <1>   0.0800 
 33 H      -10.8930    -3.6250    -1.1390 H     1 <1>   0.0800 
 34 H      -12.2170    -0.2510     1.1190 H     1 <1>   0.0800 
 35 H      -11.0850    -1.3370     1.8730 H     1 <1>   0.0800 
 36 H      -12.5630    -2.6020     0.3910 H     1 <1>   0.0800 
 37 H      -12.1730    -1.5560    -0.9430 H     1 <1>   0.0800 
@<TRIPOS>BOND
  1   1   2  ar  
  2   2   3  ar  
  3   2   4  1   
  4   4   5  ar  
  5   4   6  ar  
  6   5   7  ar  
  7   5  20  1   
  8   6   8  ar  
  9   6  21  1   
 10   7   9  1   
 11   7  10  ar  
 12   8  10  ar  
 13   8  22  1   
 14   9  11  am  
 15   9  23  1   
 16  10  12  1   
 17  11  13  2   
 18  11  14  1   
 19  12  24  1   
 20  12  25  1   
 21  12  26  1   
 22  14  15  1   
 23  14  16  1   
 24  14  27  1   
 25  15  17  1   
 26  15  28  1   
 27  15  29  1   
 28  16  18  1   
 29  16  30  1   
 30  16  31  1   
 31  17  19  1   
 32  17  32  1   
 33  17  33  1   
 34  18  19  1   
 35  18  34  1   
 36  18  35  1   
 37  19  36  1   
 38  19  37  1   
@<TRIPOS>SUBSTRUCTURE
  1 ****   9 GROUP 4 **** **** 0

# MOE 2024.06 (io_trps.svl 2023.06)
