@<TRIPOS>MOLECULE
NONAME
34 35 1 0 0 
SMALL
USER_CHARGES


@<TRIPOS>ATOM
  1 BR      -0.4380     0.1070     2.1330 Br    1 <1>  -0.0570 
  2 C       -0.8020    -1.4670     1.0810 C.2   1 <1>   0.0570 
  3 C        0.1110    -2.1050     0.3340 C.2   1 <1>  -0.1100 
  4 C       -2.1230    -2.0090     1.0760 C.2   1 <1>  -0.1500 
  5 S       -0.6620    -3.4750    -0.4490 S.3   1 <1>  -0.0800 
  6 C       -2.2220    -3.1030     0.2890 C.2   1 <1>  -0.1400 
  7 C       -3.3460    -4.0480    -0.0820 C.3   1 <1>   0.5230 
  8 N       -4.6660    -3.3590     0.0950 N.4   1 <1>  -0.9590 
  9 C       -5.7820    -4.3750     0.0070 C.3   1 <1>   0.3430 
 10 C       -4.7930    -2.2800    -0.9300 C.3   1 <1>   0.3430 
 11 C       -7.2060    -3.8820     0.4040 C.3   1 <1>   0.3430 
 12 C       -5.6290    -1.1000    -0.4290 C.3   1 <1>  -0.1600 
 13 N       -7.6560    -2.5590    -0.1780 N.4   1 <1>  -0.9590 
 14 C       -6.8950    -1.4020     0.3760 C.3   1 <1>   0.3430 
 15 C       -9.1170    -2.3640     0.1220 C.3   1 <1>   0.2630 
 16 H        1.1570    -1.9290     0.1520 H     1 <1>   0.1500 
 17 H       -2.8840    -1.5350     1.6680 H     1 <1>   0.1500 
 18 H       -3.2840    -4.9230     0.5460 H     1 <1>   0.0800 
 19 H       -3.2260    -4.3590    -1.1080 H     1 <1>   0.0800 
 20 H       -4.6060    -2.9430     1.0340 H     1 <1>   0.4500 
 21 H       -5.5430    -5.2150     0.6400 H     1 <1>   0.0800 
 22 H       -5.8290    -4.7550    -1.0010 H     1 <1>   0.0800 
 23 H       -5.2330    -2.6840    -1.8270 H     1 <1>   0.0800 
 24 H       -3.8160    -1.9040    -1.1970 H     1 <1>   0.0800 
 25 H       -7.2540    -3.8230     1.4790 H     1 <1>   0.0800 
 26 H       -7.9070    -4.6470     0.1100 H     1 <1>   0.0800 
 27 H       -5.9040    -0.5060    -1.2840 H     1 <1>   0.0800 
 28 H       -4.9980    -0.4660     0.1700 H     1 <1>   0.0800 
 29 H       -7.5780    -2.5610    -1.2080 H     1 <1>   0.4500 
 30 H       -7.5160    -0.5180     0.3670 H     1 <1>   0.0800 
 31 H       -6.6380    -1.5990     1.4040 H     1 <1>   0.0800 
 32 H       -9.2870    -2.3340     1.1860 H     1 <1>   0.0800 
 33 H       -9.7010    -3.1700    -0.2960 H     1 <1>   0.0800 
 34 H       -9.4690    -1.4380    -0.3050 H     1 <1>   0.0800 
@<TRIPOS>BOND
  1   1   2  1   
  2   2   3  2   
  3   2   4  1   
  4   3   5  1   
  5   3  16  1   
  6   4   6  2   
  7   4  17  1   
  8   5   6  1   
  9   6   7  1   
 10   7   8  1   
 11   7  18  1   
 12   7  19  1   
 13   8   9  1   
 14   8  10  1   
 15   8  20  1   
 16   9  11  1   
 17   9  21  1   
 18   9  22  1   
 19  10  12  1   
 20  10  23  1   
 21  10  24  1   
 22  11  13  1   
 23  11  25  1   
 24  11  26  1   
 25  12  14  1   
 26  12  27  1   
 27  12  28  1   
 28  13  14  1   
 29  13  15  1   
 30  13  29  1   
 31  14  30  1   
 32  14  31  1   
 33  15  32  1   
 34  15  33  1   
 35  15  34  1   
@<TRIPOS>SUBSTRUCTURE
  1 ****   8 GROUP 4 **** **** 0

# MOE 2024.06 (io_trps.svl 2023.06)
