@<TRIPOS>MOLECULE
NONAME
49 52 1 0 0 
SMALL
USER_CHARGES


@<TRIPOS>ATOM
  1 O        1.4210    -1.7890    -0.6640 O.3   1 <1>  -0.3630 
  2 C        2.5530    -1.5100    -0.0120 C.ar  1 <1>   0.0820 
  3 C        0.8340    -2.9070    -0.0010 C.3   1 <1>   0.4000 
  4 C        2.7310    -2.3850     1.0190 C.ar  1 <1>   0.0820 
  5 C        3.4660    -0.5090    -0.2770 C.ar  1 <1>  -0.1500 
  6 O        1.7170    -3.2560     1.0630 O.3   1 <1>  -0.3630 
  7 C        3.8330    -2.3100     1.8450 C.ar  1 <1>  -0.1500 
  8 C        4.5920    -0.4160     0.5370 C.ar  1 <1>  -0.1440 
  9 C        4.7660    -1.3120     1.5920 C.ar  1 <1>  -0.1500 
 10 C        5.6420     0.6520     0.2710 C.3   1 <1>   0.2540 
 11 N        6.8850     0.0230    -0.2150 N.3   1 <1>  -0.8100 
 12 C        6.6900    -0.6930    -1.5050 C.3   1 <1>   0.1100 
 13 C        7.9960     0.9980    -0.3220 C.3   1 <1>   0.1100 
 14 C        7.9890    -1.3680    -2.0070 C.3   1 <1>   0.3430 
 15 C        9.3150     0.3310    -0.7910 C.3   1 <1>   0.3430 
 16 N        9.1110    -1.1330    -1.0460 N.4   1 <1>  -0.9590 
 17 C       10.3520    -1.8910    -1.3360 C.3   1 <1>   0.4860 
 18 C       11.3210    -1.6920    -0.1850 C.ar  1 <1>  -0.1430 
 19 C       11.1150    -2.2730     1.0650 C.ar  1 <1>  -0.1430 
 20 C       12.4380    -0.8940    -0.3970 C.ar  1 <1>  -0.1500 
 21 C       12.0240    -2.0280     2.0830 C.ar  1 <1>  -0.1500 
 22 C        9.9270    -3.1790     1.3710 C.3   1 <1>  -0.0970 
 23 C       13.3380    -0.6600     0.6250 C.ar  1 <1>  -0.1500 
 24 C       13.1290    -1.2260     1.8680 C.ar  1 <1>  -0.1500 
 25 H        0.7520    -3.7320    -0.6860 H     1 <1>   0.0800 
 26 H       -0.1230    -2.6270     0.4020 H     1 <1>   0.0800 
 27 H        3.2920     0.1650    -1.0950 H     1 <1>   0.1500 
 28 H        3.9530    -3.0060     2.6550 H     1 <1>   0.1500 
 29 H        5.6380    -1.2330     2.2180 H     1 <1>   0.1500 
 30 H        5.8380     1.1770     1.1900 H     1 <1>   0.0800 
 31 H        5.2770     1.3630    -0.4510 H     1 <1>   0.0800 
 32 H        6.3310    -0.0080    -2.2550 H     1 <1>   0.0800 
 33 H        5.9420    -1.4590    -1.3860 H     1 <1>   0.0800 
 34 H        8.1650     1.4550     0.6390 H     1 <1>   0.0800 
 35 H        7.7320     1.7830    -1.0120 H     1 <1>   0.0800 
 36 H        8.2420    -0.9740    -2.9770 H     1 <1>   0.0800 
 37 H        7.8100    -2.4250    -2.1150 H     1 <1>   0.0800 
 38 H       10.0610     0.4690    -0.0250 H     1 <1>   0.0800 
 39 H        9.6660     0.8200    -1.6840 H     1 <1>   0.0800 
 40 H        8.7450    -1.4650    -0.1420 H     1 <1>   0.4500 
 41 H       10.7960    -1.5400    -2.2530 H     1 <1>   0.0800 
 42 H       10.1330    -2.9400    -1.4420 H     1 <1>   0.0800 
 43 H       12.6240    -0.4450    -1.3570 H     1 <1>   0.1500 
 44 H       11.8820    -2.4630     3.0580 H     1 <1>   0.1500 
 45 H        9.7200    -3.8420     0.5510 H     1 <1>   0.0800 
 46 H        9.0540    -2.5900     1.5880 H     1 <1>   0.0800 
 47 H       10.1350    -3.7900     2.2320 H     1 <1>   0.0800 
 48 H       14.2040    -0.0410     0.4580 H     1 <1>   0.1500 
 49 H       13.8280    -1.0460     2.6670 H     1 <1>   0.1500 
@<TRIPOS>BOND
  1   1   2  1   
  2   1   3  1   
  3   2   4  ar  
  4   2   5  ar  
  5   3   6  1   
  6   3  25  1   
  7   3  26  1   
  8   4   6  1   
  9   4   7  ar  
 10   5   8  ar  
 11   5  27  1   
 12   7   9  ar  
 13   7  28  1   
 14   8   9  ar  
 15   8  10  1   
 16   9  29  1   
 17  10  11  1   
 18  10  30  1   
 19  10  31  1   
 20  11  12  1   
 21  11  13  1   
 22  12  14  1   
 23  12  32  1   
 24  12  33  1   
 25  13  15  1   
 26  13  34  1   
 27  13  35  1   
 28  14  16  1   
 29  14  36  1   
 30  14  37  1   
 31  15  16  1   
 32  15  38  1   
 33  15  39  1   
 34  16  17  1   
 35  16  40  1   
 36  17  18  1   
 37  17  41  1   
 38  17  42  1   
 39  18  19  ar  
 40  18  20  ar  
 41  19  21  ar  
 42  19  22  1   
 43  20  23  ar  
 44  20  43  1   
 45  21  24  ar  
 46  21  44  1   
 47  22  45  1   
 48  22  46  1   
 49  22  47  1   
 50  23  24  ar  
 51  23  48  1   
 52  24  49  1   
@<TRIPOS>SUBSTRUCTURE
  1 ****  11 GROUP 4 **** **** 0

# MOE 2024.06 (io_trps.svl 2023.06)
