@<TRIPOS>MOLECULE
NONAME
35 36 1 0 0 
SMALL
USER_CHARGES


@<TRIPOS>ATOM
  1 F       -1.5340     0.0160     1.8940 F     1 <1>  -0.3400 
  2 C       -2.4280     0.5580     1.0820 C.3   1 <1>   1.1640 
  3 F       -3.5120     0.7960     1.8150 F     1 <1>  -0.3400 
  4 F       -2.7840    -0.3850     0.2200 F     1 <1>  -0.3400 
  5 C       -1.9640     1.8410     0.3660 C.ar  1 <1>  -0.1440 
  6 C       -2.7540     2.4790    -0.6020 C.ar  1 <1>  -0.1440 
  7 C       -0.7270     2.3960     0.6860 C.ar  1 <1>  -0.1500 
  8 C       -2.2880     3.6290    -1.2240 C.ar  1 <1>  -0.1500 
  9 C       -4.1280     1.9660    -1.0230 C.3   1 <1>   0.4870 
 10 C       -0.2780     3.5460     0.0640 C.ar  1 <1>  -0.1500 
 11 C       -1.0580     4.1620    -0.8930 C.ar  1 <1>  -0.1500 
 12 N       -5.1270     2.3270     0.0190 N.4   1 <1>  -0.9590 
 13 C       -6.4770     1.7550    -0.2160 C.3   1 <1>   0.4230 
 14 C       -5.3170     3.7920     0.1640 C.3   1 <1>   0.3430 
 15 C       -7.3860     2.6040     0.6700 C.3   1 <1>  -0.1600 
 16 C       -6.5590     0.2430     0.0860 C.3   1 <1>   0.1200 
 17 C       -6.6630     3.9410     0.8590 C.3   1 <1>  -0.1600 
 18 O       -7.8410    -0.2040    -0.1980 O.3   1 <1>  -0.6800 
 19 H       -0.0870     1.9410     1.4260 H     1 <1>   0.1500 
 20 H       -2.8710     4.1290    -1.9810 H     1 <1>   0.1500 
 21 H       -4.0950     0.8970    -1.1580 H     1 <1>   0.0800 
 22 H       -4.4060     2.4080    -1.9660 H     1 <1>   0.0800 
 23 H        0.6830     3.9600     0.3240 H     1 <1>   0.1500 
 24 H       -0.7010     5.0550    -1.3790 H     1 <1>   0.1500 
 25 H       -4.8040     1.9780     0.9310 H     1 <1>   0.4500 
 26 H       -6.7490     1.9170    -1.2470 H     1 <1>   0.0800 
 27 H       -5.3630     4.2550    -0.8080 H     1 <1>   0.0800 
 28 H       -4.5180     4.2410     0.7350 H     1 <1>   0.0800 
 29 H       -7.5360     2.1270     1.6230 H     1 <1>   0.0800 
 30 H       -8.3480     2.7280     0.2040 H     1 <1>   0.0800 
 31 H       -6.3610     0.0450     1.1260 H     1 <1>   0.0800 
 32 H       -5.8760    -0.3140    -0.5310 H     1 <1>   0.0800 
 33 H       -7.2160     4.7570     0.4260 H     1 <1>   0.0800 
 34 H       -6.5170     4.1470     1.9060 H     1 <1>   0.0800 
 35 H       -7.9510    -1.1560     0.0130 H     1 <1>   0.4000 
@<TRIPOS>BOND
  1   1   2  1   
  2   2   3  1   
  3   2   4  1   
  4   2   5  1   
  5   5   6  ar  
  6   5   7  ar  
  7   6   8  ar  
  8   6   9  1   
  9   7  10  ar  
 10   7  19  1   
 11   8  11  ar  
 12   8  20  1   
 13   9  12  1   
 14   9  21  1   
 15   9  22  1   
 16  10  11  ar  
 17  10  23  1   
 18  11  24  1   
 19  12  13  1   
 20  12  14  1   
 21  12  25  1   
 22  13  15  1   
 23  13  16  1   
 24  13  26  1   
 25  14  17  1   
 26  14  27  1   
 27  14  28  1   
 28  15  17  1   
 29  15  29  1   
 30  15  30  1   
 31  16  18  1   
 32  16  31  1   
 33  16  32  1   
 34  17  33  1   
 35  17  34  1   
 36  18  35  1   
@<TRIPOS>SUBSTRUCTURE
  1 ****   9 GROUP 4 **** **** 0

# MOE 2024.06 (io_trps.svl 2023.06)
