@<TRIPOS>MOLECULE
NONAME
40 42 1 0 0 
SMALL
USER_CHARGES


@<TRIPOS>ATOM
  1 O       -0.5410     0.3900     0.7680 O.2   1 <1>  -0.5700 
  2 C       -0.9240    -0.3940    -0.0640 C.2   1 <1>   0.6300 
  3 N       -0.1980    -1.4510    -0.5310 N.am  1 <1>  -0.5470 
  4 C       -2.3120    -0.2170    -0.6600 C.3   1 <1>  -0.1000 
  5 C        1.0820    -1.9380    -0.2230 C.ar  1 <1>   0.1170 
  6 C       -3.5380    -0.1730     0.2020 C.3   1 <1>  -0.1950 
  7 C       -3.3010    -1.3580    -0.6760 C.3   1 <1>  -0.1950 
  8 C        1.4750    -3.1530    -0.7720 C.ar  1 <1>  -0.1500 
  9 C        1.9850    -1.2690     0.5980 C.ar  1 <1>  -0.1500 
 10 C       -4.8380     0.6010    -0.0490 C.3   1 <1>  -0.0650 
 11 C       -3.2760    -2.7010     0.0710 C.3   1 <1>  -0.0650 
 12 C        2.7230    -3.6870    -0.5090 C.ar  1 <1>  -0.1500 
 13 C        3.2340    -1.8010     0.8630 C.ar  1 <1>  -0.1500 
 14 C       -6.0380    -0.1250     0.5900 C.3   1 <1>  -0.0220 
 15 C       -4.6070    -2.9430     0.8100 C.3   1 <1>  -0.0220 
 16 C        3.6110    -3.0140     0.3130 C.ar  1 <1>  -0.1440 
 17 C       -6.4130    -1.4070    -0.1500 C.2   1 <1>  -0.2880 
 18 C       -5.8150    -2.6030    -0.0580 C.2   1 <1>  -0.2880 
 19 C        4.9830    -3.5950     0.6050 C.3   1 <1>  -0.0970 
 20 H       -0.7090    -2.0080    -1.2120 H     1 <1>   0.3700 
 21 H       -2.2940     0.4590    -1.4950 H     1 <1>   0.1000 
 22 H       -3.3290    -0.2530     1.2570 H     1 <1>   0.1000 
 23 H       -3.8810    -1.4320    -1.5810 H     1 <1>   0.1000 
 24 H        0.8010    -3.6910    -1.4120 H     1 <1>   0.1500 
 25 H        1.7230    -0.3250     1.0380 H     1 <1>   0.1500 
 26 H       -5.0100     0.7180    -1.1040 H     1 <1>   0.0800 
 27 H       -4.7430     1.5820     0.3830 H     1 <1>   0.0800 
 28 H       -2.4770    -2.7150     0.7920 H     1 <1>   0.0800 
 29 H       -3.1050    -3.4940    -0.6350 H     1 <1>   0.0800 
 30 H        3.0030    -4.6290    -0.9470 H     1 <1>   0.1500 
 31 H        3.9120    -1.2620     1.5020 H     1 <1>   0.1500 
 32 H       -6.8900     0.5320     0.5920 H     1 <1>   0.0800 
 33 H       -5.8120    -0.3480     1.6180 H     1 <1>   0.0800 
 34 H       -4.6240    -2.3300     1.6930 H     1 <1>   0.0800 
 35 H       -4.6690    -3.9660     1.1380 H     1 <1>   0.0800 
 36 H       -7.2470    -1.2530    -0.8140 H     1 <1>   0.1500 
 37 H       -6.1450    -3.4470    -0.6400 H     1 <1>   0.1500 
 38 H        4.9560    -4.6690     0.5580 H     1 <1>   0.0800 
 39 H        5.3110    -3.3080     1.5880 H     1 <1>   0.0800 
 40 H        5.6920    -3.2330    -0.1180 H     1 <1>   0.0800 
@<TRIPOS>BOND
  1   1   2  2   
  2   2   3  am  
  3   2   4  1   
  4   3   5  1   
  5   3  20  1   
  6   4   6  1   
  7   4   7  1   
  8   4  21  1   
  9   5   8  ar  
 10   5   9  ar  
 11   6   7  1   
 12   6  10  1   
 13   6  22  1   
 14   7  11  1   
 15   7  23  1   
 16   8  12  ar  
 17   8  24  1   
 18   9  13  ar  
 19   9  25  1   
 20  10  14  1   
 21  10  26  1   
 22  10  27  1   
 23  11  15  1   
 24  11  28  1   
 25  11  29  1   
 26  12  16  ar  
 27  12  30  1   
 28  13  16  ar  
 29  13  31  1   
 30  14  17  1   
 31  14  32  1   
 32  14  33  1   
 33  15  18  1   
 34  15  34  1   
 35  15  35  1   
 36  16  19  1   
 37  17  18  2   
 38  17  36  1   
 39  18  37  1   
 40  19  38  1   
 41  19  39  1   
 42  19  40  1   
@<TRIPOS>SUBSTRUCTURE
  1 ****   3 GROUP 4 **** **** 0

# MOE 2024.06 (io_trps.svl 2023.06)
