@<TRIPOS>MOLECULE
NONAME
44 45 1 0 0 
SMALL
USER_CHARGES


@<TRIPOS>ATOM
  1 O       -3.2780     8.4830     0.1020 O.3   1 <1>  -0.3630 
  2 C       -4.4980     7.8820     0.1340 C.ar  1 <1>   0.0830 
  3 C       -2.0850     7.7470     0.1630 C.3   1 <1>   0.1200 
  4 C       -5.6300     8.6860    -0.0140 C.ar  1 <1>  -0.1440 
  5 C       -4.6400     6.5060     0.3020 C.ar  1 <1>  -0.1500 
  6 C       -0.9380     8.7500     0.0390 C.3   1 <1>   0.3430 
  7 C       -6.8910     8.0960    -0.0110 C.ar  1 <1>  -0.1440 
  8 C       -5.4990    10.2000    -0.1880 C.3   1 <1>  -0.0970 
  9 C       -5.8940     5.9260     0.3160 C.ar  1 <1>  -0.1440 
 10 N        0.3920     8.0750     0.0830 N.4   1 <1>  -0.9060 
 11 C       -7.0100     6.7250     0.1560 C.ar  1 <1>  -0.1500 
 12 C       -8.1650     8.9120    -0.1890 C.3   1 <1>  -0.0970 
 13 C       -6.0560     4.4270     0.4980 C.3   1 <1>  -0.0970 
 14 C        1.5250     9.0140    -0.0380 C.3   1 <1>   0.4860 
 15 C        2.7740     8.1680     0.0270 C.ar  1 <1>  -0.1430 
 16 C        3.3250     7.6450    -1.1340 C.ar  1 <1>  -0.1500 
 17 C        3.3710     7.8990     1.2510 C.ar  1 <1>  -0.1500 
 18 C        4.4560     6.8520    -1.0700 C.ar  1 <1>  -0.1500 
 19 C        4.5030     7.1050     1.3110 C.ar  1 <1>  -0.1500 
 20 C        5.0440     6.5800     0.1510 C.ar  1 <1>  -0.1500 
 21 H       -2.0820     7.0500    -0.6570 H     1 <1>   0.0800 
 22 H       -2.0570     7.2360     1.1090 H     1 <1>   0.0800 
 23 H       -3.7910     5.8640     0.4240 H     1 <1>   0.1500 
 24 H       -1.0140     9.4590     0.8480 H     1 <1>   0.0800 
 25 H       -1.0460     9.2800    -0.8940 H     1 <1>   0.0800 
 26 H       -4.5330    10.5610     0.1100 H     1 <1>   0.0800 
 27 H       -6.2260    10.7120     0.4150 H     1 <1>   0.0800 
 28 H       -5.6570    10.4600    -1.2190 H     1 <1>   0.0800 
 29 H        0.4860     7.3840    -0.6720 H     1 <1>   0.4500 
 30 H        0.5190     7.5540     0.9590 H     1 <1>   0.4500 
 31 H       -7.9850     6.2710     0.1610 H     1 <1>   0.1500 
 32 H       -8.0870     9.5390    -1.0590 H     1 <1>   0.0800 
 33 H       -8.3300     9.5270     0.6770 H     1 <1>   0.0800 
 34 H       -9.0200     8.2730    -0.3170 H     1 <1>   0.0800 
 35 H       -5.2080     4.0100     1.0090 H     1 <1>   0.0800 
 36 H       -6.1520     3.9530    -0.4620 H     1 <1>   0.0800 
 37 H       -6.9370     4.2160     1.0780 H     1 <1>   0.0800 
 38 H        1.5180     9.7270     0.7710 H     1 <1>   0.0800 
 39 H        1.4850     9.5440    -0.9760 H     1 <1>   0.0800 
 40 H        2.8920     7.8470    -2.1000 H     1 <1>   0.1500 
 41 H        2.9760     8.3000     2.1690 H     1 <1>   0.1500 
 42 H        4.8870     6.4450    -1.9710 H     1 <1>   0.1500 
 43 H        4.9700     6.8950     2.2590 H     1 <1>   0.1500 
 44 H        5.9260     5.9630     0.2000 H     1 <1>   0.1500 
@<TRIPOS>BOND
  1   1   2  1   
  2   1   3  1   
  3   2   4  ar  
  4   2   5  ar  
  5   3   6  1   
  6   3  21  1   
  7   3  22  1   
  8   4   7  ar  
  9   4   8  1   
 10   5   9  ar  
 11   5  23  1   
 12   6  10  1   
 13   6  24  1   
 14   6  25  1   
 15   7  11  ar  
 16   7  12  1   
 17   8  26  1   
 18   8  27  1   
 19   8  28  1   
 20   9  11  ar  
 21   9  13  1   
 22  10  14  1   
 23  10  29  1   
 24  10  30  1   
 25  11  31  1   
 26  12  32  1   
 27  12  33  1   
 28  12  34  1   
 29  13  35  1   
 30  13  36  1   
 31  13  37  1   
 32  14  15  1   
 33  14  38  1   
 34  14  39  1   
 35  15  16  ar  
 36  15  17  ar  
 37  16  18  ar  
 38  16  40  1   
 39  17  19  ar  
 40  17  41  1   
 41  18  20  ar  
 42  18  42  1   
 43  19  20  ar  
 44  19  43  1   
 45  20  44  1   
@<TRIPOS>SUBSTRUCTURE
  1 ****   3 GROUP 4 **** **** 0

# MOE 2024.06 (io_trps.svl 2023.06)
