@<TRIPOS>MOLECULE
NONAME
31 32 1 0 0 
SMALL
USER_CHARGES


@<TRIPOS>ATOM
  1 O        0.1460     0.4600     0.0860 O.2   1 <1>  -0.5700 
  2 C        0.1200     1.6560    -0.1380 C.2   1 <1>   0.7150 
  3 N       -1.0790     2.2310    -0.4610 N.am  1 <1>  -0.7300 
  4 C        1.3130     2.4770    -0.0750 C.2   1 <1>   0.0550 
  5 C       -2.3850     1.5370    -0.5350 C.3   1 <1>   0.1400 
  6 O        2.5010     1.9280     0.2210 O.3   1 <1>  -0.2800 
  7 C        1.4790     3.8120    -0.2740 C.2   1 <1>  -0.1500 
  8 C       -3.4440     2.2920     0.2840 C.3   1 <1>  -0.0800 
  9 C        3.4210     2.8890     0.2140 C.ar  1 <1>   0.1400 
 10 C        2.8400     4.1040    -0.0920 C.ar  1 <1>   0.0000 
 11 C       -4.7700     1.5210     0.2600 C.3   1 <1>  -0.2400 
 12 C       -3.6750     3.7220    -0.2330 C.3   1 <1>  -0.2400 
 13 C        4.7800     2.7660     0.4670 C.ar  1 <1>  -0.1500 
 14 C        3.6370     5.2500    -0.1510 C.ar  1 <1>  -0.1500 
 15 C        5.5630     3.9020     0.4060 C.ar  1 <1>  -0.1500 
 16 C        4.9900     5.1400     0.0980 C.ar  1 <1>  -0.1500 
 17 H       -1.1060     3.2280    -0.6610 H     1 <1>   0.3700 
 18 H       -2.2860     0.5330    -0.1550 H     1 <1>   0.0800 
 19 H       -2.6920     1.4730    -1.5650 H     1 <1>   0.0800 
 20 H        0.7410     4.5500    -0.5250 H     1 <1>   0.1500 
 21 H       -3.1080     2.3390     1.3070 H     1 <1>   0.0800 
 22 H       -5.1510     1.4470    -0.7440 H     1 <1>   0.0800 
 23 H       -5.5040     2.0190     0.8690 H     1 <1>   0.0800 
 24 H       -4.6310     0.5270     0.6490 H     1 <1>   0.0800 
 25 H       -3.9650     3.7080    -1.2690 H     1 <1>   0.0800 
 26 H       -2.7860     4.3160    -0.1280 H     1 <1>   0.0800 
 27 H       -4.4560     4.1990     0.3340 H     1 <1>   0.0800 
 28 H        5.1910     1.8010     0.7010 H     1 <1>   0.1500 
 29 H        3.1900     6.1980    -0.3890 H     1 <1>   0.1500 
 30 H        6.6210     3.8400     0.5970 H     1 <1>   0.1500 
 31 H        5.6190     6.0120     0.0560 H     1 <1>   0.1500 
@<TRIPOS>BOND
  1   1   2  2   
  2   2   3  am  
  3   2   4  1   
  4   3   5  1   
  5   3  17  1   
  6   4   6  1   
  7   4   7  2   
  8   5   8  1   
  9   5  18  1   
 10   5  19  1   
 11   6   9  1   
 12   7  10  1   
 13   7  20  1   
 14   8  11  1   
 15   8  12  1   
 16   8  21  1   
 17   9  10  ar  
 18   9  13  ar  
 19  10  14  ar  
 20  11  22  1   
 21  11  23  1   
 22  11  24  1   
 23  12  25  1   
 24  12  26  1   
 25  12  27  1   
 26  13  15  ar  
 27  13  28  1   
 28  14  16  ar  
 29  14  29  1   
 30  15  16  ar  
 31  15  30  1   
 32  16  31  1   
@<TRIPOS>SUBSTRUCTURE
  1 ****   4 GROUP 4 **** **** 0

# MOE 2024.06 (io_trps.svl 2023.06)
