@<TRIPOS>MOLECULE
NONAME
32 32 1 0 0 
SMALL
USER_CHARGES


@<TRIPOS>ATOM
  1 O       -0.9950     0.3610     1.6320 O.co2 1 <1>  -0.9000 
  2 C       -0.5040     0.5610     0.4930 C.2   1 <1>   0.9060 
  3 O       -0.1080     1.6690     0.0640 O.co2 1 <1>  -0.9000 
  4 C       -0.3850    -0.6710    -0.4570 C.3   1 <1>   0.1140 
  5 N       -1.1620    -1.8260     0.0150 N.am  1 <1>  -0.7300 
  6 C        1.0690    -1.1260    -0.6410 C.3   1 <1>  -0.2400 
  7 C       -1.7550    -2.7850    -0.7400 C.2   1 <1>   0.5690 
  8 O       -1.5580    -2.8840    -1.9300 O.2   1 <1>  -0.5700 
  9 C       -2.6800    -3.7990    -0.0740 C.3   1 <1>   0.1810 
 10 O       -3.3410    -3.2770     1.0740 O.3   1 <1>  -0.3630 
 11 C       -4.3770    -2.4280     0.8540 C.ar  1 <1>   0.0820 
 12 C       -5.5930    -2.8670     0.3200 C.ar  1 <1>   0.0820 
 13 C       -4.2040    -1.0960     1.1940 C.ar  1 <1>  -0.1500 
 14 O       -5.7400    -4.1940     0.0330 O.3   1 <1>  -0.3620 
 15 C       -6.6110    -1.9380     0.1100 C.ar  1 <1>  -0.1500 
 16 C       -5.2210    -0.1840     0.9810 C.ar  1 <1>  -0.1500 
 17 C       -6.9650    -4.7190    -0.4260 C.3   1 <1>   0.0400 
 18 C       -6.4220    -0.6040     0.4380 C.ar  1 <1>  -0.1500 
 19 H       -0.7730    -0.3510    -1.4240 H     1 <1>   0.0800 
 20 H       -1.4600    -1.7140     0.9790 H     1 <1>   0.3700 
 21 H        1.4700    -1.4510     0.3190 H     1 <1>   0.0800 
 22 H        1.6590    -0.2880    -1.0120 H     1 <1>   0.0800 
 23 H        1.1090    -1.9460    -1.3570 H     1 <1>   0.0800 
 24 H       -2.0970    -4.6400     0.2470 H     1 <1>   0.0800 
 25 H       -3.4130    -4.1350    -0.7820 H     1 <1>   0.0800 
 26 H       -3.2710    -0.7640     1.6190 H     1 <1>   0.1500 
 27 H       -7.5550    -2.2270    -0.3060 H     1 <1>   0.1500 
 28 H       -5.0640     0.8490     1.2390 H     1 <1>   0.1500 
 29 H       -7.2060    -4.2670    -1.3720 H     1 <1>   0.0800 
 30 H       -7.7270    -4.5170     0.3060 H     1 <1>   0.0800 
 31 H       -6.8480    -5.7800    -0.5480 H     1 <1>   0.0800 
 32 H       -7.2090     0.1090     0.2710 H     1 <1>   0.1500 
@<TRIPOS>BOND
  1   1   2  ar  
  2   2   3  ar  
  3   2   4  1   
  4   4   5  1   
  5   4   6  1   
  6   4  19  1   
  7   5   7  am  
  8   5  20  1   
  9   6  21  1   
 10   6  22  1   
 11   6  23  1   
 12   7   8  2   
 13   7   9  1   
 14   9  10  1   
 15   9  24  1   
 16   9  25  1   
 17  10  11  1   
 18  11  12  ar  
 19  11  13  ar  
 20  12  14  1   
 21  12  15  ar  
 22  13  16  ar  
 23  13  26  1   
 24  14  17  1   
 25  15  18  ar  
 26  15  27  1   
 27  16  18  ar  
 28  16  28  1   
 29  17  29  1   
 30  17  30  1   
 31  17  31  1   
 32  18  32  1   
@<TRIPOS>SUBSTRUCTURE
  1 ****  11 GROUP 4 **** **** 0

# MOE 2024.06 (io_trps.svl 2023.06)
