@<TRIPOS>MOLECULE
NONAME
46 49 1 0 0 
SMALL
USER_CHARGES


@<TRIPOS>ATOM
  1 O        0.7780    -6.1870    -0.7650 O.2   1 <1>  -0.5700 
  2 C        0.3800    -5.7930     0.3040 C.2   1 <1>   0.6590 
  3 O        1.2040    -5.1960     1.1710 O.3   1 <1>  -0.4300 
  4 C       -1.0740    -5.9260     0.7600 C.3   1 <1>   0.2680 
  5 C        2.5730    -4.9000     0.9670 C.3   1 <1>   0.2000 
  6 C       -1.7320    -7.1750     0.1860 C.ar  1 <1>  -0.1440 
  7 C       -1.8490    -4.6680     0.3930 C.ar  1 <1>  -0.1440 
  8 C        2.7490    -3.9160    -0.1990 C.3   1 <1>  -0.1600 
  9 C        3.3950    -6.1880     0.8070 C.3   1 <1>  -0.1600 
 10 C       -2.6990    -7.0610    -0.8060 C.ar  1 <1>   0.0830 
 11 C       -1.3640    -8.4370     0.6330 C.ar  1 <1>  -0.1500 
 12 C       -2.8080    -4.7080    -0.6140 C.ar  1 <1>   0.0830 
 13 C       -1.5990    -3.4680     1.0440 C.ar  1 <1>  -0.1500 
 14 C        4.2250    -3.6850    -0.5030 C.3   1 <1>   0.3430 
 15 C        4.8470    -5.8710     0.4650 C.3   1 <1>   0.3430 
 16 O       -3.1250    -5.8560    -1.2590 O.3   1 <1>  -0.1650 
 17 C       -3.2740    -8.1970    -1.3540 C.ar  1 <1>  -0.1500 
 18 C       -1.9450    -9.5690     0.0880 C.ar  1 <1>  -0.1500 
 19 C       -3.4880    -3.5560    -0.9760 C.ar  1 <1>  -0.1500 
 20 C       -2.2850    -2.3200     0.6850 C.ar  1 <1>  -0.1500 
 21 N        4.8930    -4.9970    -0.7420 N.4   1 <1>  -0.9590 
 22 C       -2.8980    -9.4500    -0.9080 C.ar  1 <1>  -0.1500 
 23 C       -3.2270    -2.3620    -0.3280 C.ar  1 <1>  -0.1500 
 24 C        6.2970    -4.8080    -1.2190 C.3   1 <1>   0.2630 
 25 H       -1.0790    -6.0190     1.8300 H     1 <1>   0.0800 
 26 H        2.9020    -4.4080     1.8680 H     1 <1>   0.0800 
 27 H        2.2920    -2.9760     0.0560 H     1 <1>   0.0800 
 28 H        2.2800    -4.2770    -1.0960 H     1 <1>   0.0800 
 29 H        3.0030    -6.8140     0.0270 H     1 <1>   0.0800 
 30 H        3.3660    -6.7450     1.7260 H     1 <1>   0.0800 
 31 H       -0.6210    -8.5510     1.4030 H     1 <1>   0.1500 
 32 H       -0.8690    -3.4140     1.8330 H     1 <1>   0.1500 
 33 H        4.6940    -3.1800     0.3270 H     1 <1>   0.0800 
 34 H        4.3150    -3.0590    -1.3760 H     1 <1>   0.0800 
 35 H        5.3780    -6.7910     0.2770 H     1 <1>   0.0800 
 36 H        5.3170    -5.3710     1.2970 H     1 <1>   0.0800 
 37 H       -4.0160    -8.0930    -2.1260 H     1 <1>   0.1500 
 38 H       -1.6540   -10.5450     0.4370 H     1 <1>   0.1500 
 39 H       -4.2220    -3.6010    -1.7600 H     1 <1>   0.1500 
 40 H       -2.0870    -1.3920     1.1930 H     1 <1>   0.1500 
 41 H        4.3570    -5.4770    -1.4830 H     1 <1>   0.4500 
 42 H       -3.3470   -10.3310    -1.3340 H     1 <1>   0.1500 
 43 H       -3.7590    -1.4690    -0.6090 H     1 <1>   0.1500 
 44 H        6.8860    -4.3080    -0.4670 H     1 <1>   0.0800 
 45 H        6.3100    -4.2140    -2.1190 H     1 <1>   0.0800 
 46 H        6.7510    -5.7620    -1.4340 H     1 <1>   0.0800 
@<TRIPOS>BOND
  1   1   2  2   
  2   2   3  1   
  3   2   4  1   
  4   3   5  1   
  5   4   6  1   
  6   4   7  1   
  7   4  25  1   
  8   5   8  1   
  9   5   9  1   
 10   5  26  1   
 11   6  10  ar  
 12   6  11  ar  
 13   7  12  ar  
 14   7  13  ar  
 15   8  14  1   
 16   8  27  1   
 17   8  28  1   
 18   9  15  1   
 19   9  29  1   
 20   9  30  1   
 21  10  16  1   
 22  10  17  ar  
 23  11  18  ar  
 24  11  31  1   
 25  12  16  1   
 26  12  19  ar  
 27  13  20  ar  
 28  13  32  1   
 29  14  21  1   
 30  14  33  1   
 31  14  34  1   
 32  15  21  1   
 33  15  35  1   
 34  15  36  1   
 35  17  22  ar  
 36  17  37  1   
 37  18  22  ar  
 38  18  38  1   
 39  19  23  ar  
 40  19  39  1   
 41  20  23  ar  
 42  20  40  1   
 43  21  24  1   
 44  21  41  1   
 45  22  42  1   
 46  23  43  1   
 47  24  44  1   
 48  24  45  1   
 49  24  46  1   
@<TRIPOS>SUBSTRUCTURE
  1 ****   2 GROUP 4 **** **** 0

# MOE 2024.06 (io_trps.svl 2023.06)
