@<TRIPOS>MOLECULE
NONAME
40 41 1 0 0 
SMALL
USER_CHARGES


@<TRIPOS>ATOM
  1 BR       1.0950    -0.6860     1.9010 Br    1 <1>  -0.1110 
  2 C        0.2090    -1.8090     0.6100 C.ar  1 <1>   0.1110 
  3 C        0.6290    -1.8330    -0.7070 C.ar  1 <1>   0.1900 
  4 C       -0.8560    -2.5860     1.0300 C.ar  1 <1>  -0.1500 
  5 F        1.6340    -1.0920    -1.0910 F     1 <1>  -0.1900 
  6 C       -0.0050    -2.6370    -1.6340 C.ar  1 <1>  -0.1500 
  7 C       -1.5090    -3.3940     0.1040 C.ar  1 <1>  -0.1440 
  8 C       -1.0760    -3.4180    -1.2220 C.ar  1 <1>  -0.1500 
  9 C       -2.6880    -4.2480     0.5380 C.3   1 <1>   0.4870 
 10 N       -3.9470    -3.6210     0.0460 N.4   1 <1>  -0.9590 
 11 C       -4.1930    -2.2930     0.6800 C.3   1 <1>   0.3430 
 12 C       -5.1080    -4.5410     0.2040 C.3   1 <1>   0.3430 
 13 C       -5.4020    -1.6310     0.0230 C.3   1 <1>  -0.1600 
 14 C       -6.3370    -3.9290    -0.4650 C.3   1 <1>  -0.1600 
 15 C       -6.6570    -2.5240     0.0800 C.3   1 <1>  -0.0190 
 16 C       -7.8130    -1.8930    -0.6890 C.2   1 <1>   0.6590 
 17 O       -7.7170    -1.6490    -1.8640 O.2   1 <1>  -0.5700 
 18 O       -8.9080    -1.6390     0.0100 O.3   1 <1>  -0.4300 
 19 C      -10.0430    -1.0570    -0.5890 C.3   1 <1>   0.1200 
 20 C      -11.1160    -0.9010     0.4840 C.3   1 <1>  -0.2400 
 21 H       -1.1510    -2.5480     2.0650 H     1 <1>   0.1500 
 22 H        0.3390    -2.6480    -2.6540 H     1 <1>   0.1500 
 23 H       -1.5600    -4.0480    -1.9510 H     1 <1>   0.1500 
 24 H       -2.7080    -4.3340     1.6120 H     1 <1>   0.0800 
 25 H       -2.5790    -5.2360     0.1200 H     1 <1>   0.0800 
 26 H       -3.8140    -3.4460    -0.9590 H     1 <1>   0.4500 
 27 H       -3.3310    -1.6550     0.5570 H     1 <1>   0.0800 
 28 H       -4.3750    -2.4160     1.7360 H     1 <1>   0.0800 
 29 H       -5.3100    -4.7020     1.2510 H     1 <1>   0.0800 
 30 H       -4.8920    -5.4950    -0.2520 H     1 <1>   0.0800 
 31 H       -5.1620    -1.3970    -1.0000 H     1 <1>   0.0800 
 32 H       -5.6060    -0.6990     0.5220 H     1 <1>   0.0800 
 33 H       -7.1840    -4.5740    -0.3020 H     1 <1>   0.0800 
 34 H       -6.1740    -3.8820    -1.5290 H     1 <1>   0.0800 
 35 H       -6.9620    -2.6180     1.1090 H     1 <1>   0.0800 
 36 H      -10.3810    -1.7030    -1.3820 H     1 <1>   0.0800 
 37 H       -9.7630    -0.1000    -0.9970 H     1 <1>   0.0800 
 38 H      -11.3810    -1.8610     0.8890 H     1 <1>   0.0800 
 39 H      -11.9960    -0.4580     0.0530 H     1 <1>   0.0800 
 40 H      -10.7630    -0.2610     1.2730 H     1 <1>   0.0800 
@<TRIPOS>BOND
  1   1   2  1   
  2   2   3  ar  
  3   2   4  ar  
  4   3   5  1   
  5   3   6  ar  
  6   4   7  ar  
  7   4  21  1   
  8   6   8  ar  
  9   6  22  1   
 10   7   8  ar  
 11   7   9  1   
 12   8  23  1   
 13   9  10  1   
 14   9  24  1   
 15   9  25  1   
 16  10  11  1   
 17  10  12  1   
 18  10  26  1   
 19  11  13  1   
 20  11  27  1   
 21  11  28  1   
 22  12  14  1   
 23  12  29  1   
 24  12  30  1   
 25  13  15  1   
 26  13  31  1   
 27  13  32  1   
 28  14  15  1   
 29  14  33  1   
 30  14  34  1   
 31  15  16  1   
 32  15  35  1   
 33  16  17  2   
 34  16  18  1   
 35  18  19  1   
 36  19  20  1   
 37  19  36  1   
 38  19  37  1   
 39  20  38  1   
 40  20  39  1   
 41  20  40  1   
@<TRIPOS>SUBSTRUCTURE
  1 ****  11 GROUP 4 **** **** 0

# MOE 2024.06 (io_trps.svl 2023.06)
