@<TRIPOS>MOLECULE
NONAME
35 36 1 0 0 
SMALL
USER_CHARGES


@<TRIPOS>ATOM
  1 CL       0.1890    -0.7490     1.1670 Cl    1 <1>  -0.1770 
  2 C       -1.3610    -1.3660     0.6610 C.ar  1 <1>   0.1770 
  3 C       -2.0510    -2.2310     1.4860 C.ar  1 <1>  -0.1500 
  4 C       -1.8820    -0.9800    -0.5590 C.ar  1 <1>  -0.1500 
  5 C       -3.2830    -2.7180     1.0780 C.ar  1 <1>  -0.1500 
  6 C       -3.1140    -1.4740    -0.9540 C.ar  1 <1>  -0.1500 
  7 C       -3.8350    -2.3520    -0.1480 C.ar  1 <1>  -0.0090 
  8 S       -5.4630    -2.9740    -0.6660 S.o2  1 <1>   1.4970 
  9 O       -5.5370    -2.9560    -2.1120 O.2   1 <1>  -0.6500 
 10 O       -5.7480    -4.2130     0.0360 O.2   1 <1>  -0.6500 
 11 N       -6.4990    -1.8010    -0.0820 N.2   1 <1>  -0.6380 
 12 C       -7.7420    -2.0880    -0.0880 C.2   1 <1>   0.4860 
 13 N       -8.3600    -3.2540    -0.4350 N.pl3 1 <1>  -0.4710 
 14 C       -8.7970    -1.2490     0.3380 C.2   1 <1>  -0.1360 
 15 O       -9.7140    -3.1640    -0.2020 O.3   1 <1>  -0.0560 
 16 C       -9.9490    -1.9430     0.2600 C.2   1 <1>  -0.0620 
 17 C      -11.3900    -1.5560     0.5940 C.3   1 <1>   0.1380 
 18 C      -11.9330    -2.4950     1.6790 C.3   1 <1>  -0.2400 
 19 C      -11.4560    -0.1120     1.1090 C.3   1 <1>  -0.2400 
 20 C      -12.2570    -1.6740    -0.6660 C.3   1 <1>  -0.2400 
 21 H       -1.6280    -2.5180     2.4330 H     1 <1>   0.1500 
 22 H       -1.3290    -0.3040    -1.1860 H     1 <1>   0.1500 
 23 H       -3.8240    -3.3920     1.7220 H     1 <1>   0.1500 
 24 H       -3.5240    -1.1730    -1.9050 H     1 <1>   0.1500 
 25 H       -7.9130    -4.1670    -0.2850 H     1 <1>   0.4000 
 26 H       -8.6300    -0.2410     0.6620 H     1 <1>   0.1500 
 27 H      -11.3220    -2.4350     2.5620 H     1 <1>   0.0800 
 28 H      -11.9280    -3.5130     1.3330 H     1 <1>   0.0800 
 29 H      -12.9420    -2.2300     1.9410 H     1 <1>   0.0800 
 30 H      -12.4700     0.1590     1.3440 H     1 <1>   0.0800 
 31 H      -10.8620    -0.0020     1.9990 H     1 <1>   0.0800 
 32 H      -11.0890     0.5700     0.3630 H     1 <1>   0.0800 
 33 H      -12.2540    -2.6850    -1.0320 H     1 <1>   0.0800 
 34 H      -11.8730    -1.0340    -1.4410 H     1 <1>   0.0800 
 35 H      -13.2720    -1.3900    -0.4570 H     1 <1>   0.0800 
@<TRIPOS>BOND
  1   1   2  1   
  2   2   3  ar  
  3   2   4  ar  
  4   3   5  ar  
  5   3  21  1   
  6   4   6  ar  
  7   4  22  1   
  8   5   7  ar  
  9   5  23  1   
 10   6   7  ar  
 11   6  24  1   
 12   7   8  1   
 13   8   9  2   
 14   8  10  2   
 15   8  11  1   
 16  11  12  2   
 17  12  13  1   
 18  12  14  1   
 19  13  15  1   
 20  13  25  1   
 21  14  16  2   
 22  14  26  1   
 23  15  16  1   
 24  16  17  1   
 25  17  18  1   
 26  17  19  1   
 27  17  20  1   
 28  18  27  1   
 29  18  28  1   
 30  18  29  1   
 31  19  30  1   
 32  19  31  1   
 33  19  32  1   
 34  20  33  1   
 35  20  34  1   
 36  20  35  1   
@<TRIPOS>SUBSTRUCTURE
  1 ****  11 GROUP 4 **** **** 0

# MOE 2024.06 (io_trps.svl 2023.06)
