@<TRIPOS>MOLECULE
NONAME
46 48 1 0 0 
SMALL
USER_CHARGES


@<TRIPOS>ATOM
  1 F       -0.0550    -0.0240    -1.1320 F     1 <1>  -0.3400 
  2 C       -0.9330     0.8910    -0.7380 C.3   1 <1>   1.1640 
  3 F       -0.2810     1.7060     0.0810 F     1 <1>  -0.3400 
  4 F       -1.2290     1.6070    -1.8170 F     1 <1>  -0.3400 
  5 C       -2.1760     0.2810    -0.0720 C.ar  1 <1>  -0.1440 
  6 C       -3.4100     0.9180    -0.1490 C.ar  1 <1>  -0.1500 
  7 C       -2.0900    -0.9170     0.6300 C.ar  1 <1>  -0.1500 
  8 C       -4.5470     0.3880     0.4500 C.ar  1 <1>   0.1170 
  9 C       -3.2110    -1.4600     1.2310 C.ar  1 <1>  -0.1500 
 10 N       -5.7640     1.0720     0.3150 N.am  1 <1>  -0.5470 
 11 C       -4.4290    -0.8140     1.1390 C.ar  1 <1>  -0.1500 
 12 C       -6.8860     1.0710     1.1120 C.2   1 <1>   0.5440 
 13 O       -6.8710     0.5270     2.1960 O.2   1 <1>  -0.5700 
 14 C       -8.0880     1.7500     0.6630 C.ar  1 <1>   0.0860 
 15 C       -8.9040     2.4250     1.5700 C.ar  1 <1>  -0.1500 
 16 C       -8.4850     1.7500    -0.6750 C.ar  1 <1>  -0.1500 
 17 C      -10.0590     3.0690     1.1690 C.ar  1 <1>  -0.1500 
 18 C       -9.6410     2.3910    -1.0850 C.ar  1 <1>  -0.1500 
 19 C      -10.4430     3.0490    -0.1640 C.ar  1 <1>  -0.1430 
 20 C      -11.7300     3.7240    -0.6040 C.3   1 <1>   0.4860 
 21 N      -12.8790     2.9090    -0.1260 N.4   1 <1>  -0.9590 
 22 C      -12.8730     1.5250    -0.7200 C.3   1 <1>   0.3430 
 23 C      -14.1960     3.5910    -0.3770 C.3   1 <1>   0.3430 
 24 C      -14.1220     0.7260    -0.3040 C.3   1 <1>   0.1200 
 25 C      -15.3820     2.6920     0.0230 C.3   1 <1>   0.1200 
 26 O      -15.2790     1.4490    -0.6080 O.3   1 <1>  -0.5600 
 27 H       -3.4960     1.8500    -0.6800 H     1 <1>   0.1500 
 28 H       -1.1490    -1.4370     0.7170 H     1 <1>   0.1500 
 29 H       -3.1390    -2.3870     1.7730 H     1 <1>   0.1500 
 30 H       -5.7880     1.7430    -0.4490 H     1 <1>   0.3700 
 31 H       -5.2920    -1.2510     1.6090 H     1 <1>   0.1500 
 32 H       -8.6160     2.4380     2.6090 H     1 <1>   0.1500 
 33 H       -7.8850     1.2310    -1.4030 H     1 <1>   0.1500 
 34 H      -10.6470     3.5830     1.9110 H     1 <1>   0.1500 
 35 H       -9.9060     2.3650    -2.1300 H     1 <1>   0.1500 
 36 H      -11.7540     3.8090    -1.6780 H     1 <1>   0.0800 
 37 H      -11.7740     4.7150    -0.1820 H     1 <1>   0.0800 
 38 H      -12.7620     2.7930     0.8880 H     1 <1>   0.4500 
 39 H      -11.9900     0.9910    -0.4060 H     1 <1>   0.0800 
 40 H      -12.8560     1.5880    -1.7960 H     1 <1>   0.0800 
 41 H      -14.2920     3.8260    -1.4240 H     1 <1>   0.0800 
 42 H      -14.2480     4.5140     0.1770 H     1 <1>   0.0800 
 43 H      -14.1140     0.5070     0.7510 H     1 <1>   0.0800 
 44 H      -14.1650    -0.2040    -0.8450 H     1 <1>   0.0800 
 45 H      -16.3090     3.1410    -0.2900 H     1 <1>   0.0800 
 46 H      -15.4180     2.5400     1.0880 H     1 <1>   0.0800 
@<TRIPOS>BOND
  1   1   2  1   
  2   2   3  1   
  3   2   4  1   
  4   2   5  1   
  5   5   6  ar  
  6   5   7  ar  
  7   6   8  ar  
  8   6  27  1   
  9   7   9  ar  
 10   7  28  1   
 11   8  10  1   
 12   8  11  ar  
 13   9  11  ar  
 14   9  29  1   
 15  10  12  am  
 16  10  30  1   
 17  11  31  1   
 18  12  13  2   
 19  12  14  1   
 20  14  15  ar  
 21  14  16  ar  
 22  15  17  ar  
 23  15  32  1   
 24  16  18  ar  
 25  16  33  1   
 26  17  19  ar  
 27  17  34  1   
 28  18  19  ar  
 29  18  35  1   
 30  19  20  1   
 31  20  21  1   
 32  20  36  1   
 33  20  37  1   
 34  21  22  1   
 35  21  23  1   
 36  21  38  1   
 37  22  24  1   
 38  22  39  1   
 39  22  40  1   
 40  23  25  1   
 41  23  41  1   
 42  23  42  1   
 43  24  26  1   
 44  24  43  1   
 45  24  44  1   
 46  25  26  1   
 47  25  45  1   
 48  25  46  1   
@<TRIPOS>SUBSTRUCTURE
  1 ****  14 GROUP 4 **** **** 0

# MOE 2024.06 (io_trps.svl 2023.06)
