@<TRIPOS>MOLECULE
NONAME
38 39 1 0 0 
SMALL
USER_CHARGES


@<TRIPOS>ATOM
  1 CL      -0.8790     0.0700     1.8800 Cl    1 <1>  -0.1770 
  2 C       -1.1180    -1.3800     0.9280 C.ar  1 <1>   0.1770 
  3 C       -2.1250    -1.4120    -0.0360 C.ar  1 <1>   0.1170 
  4 C       -0.2930    -2.4630     1.1620 C.ar  1 <1>  -0.1500 
  5 N       -2.9490    -0.2920    -0.2480 N.am  1 <1>  -0.5470 
  6 C       -2.2630    -2.5770    -0.7860 C.ar  1 <1>  -0.1500 
  7 C       -0.4580    -3.6180     0.4150 C.ar  1 <1>  -0.1500 
  8 C       -4.2920    -0.1690    -0.4180 C.2   1 <1>   0.5690 
  9 C       -1.4420    -3.6700    -0.5590 C.ar  1 <1>  -0.1500 
 10 O       -4.7610     0.9260    -0.6030 O.2   1 <1>  -0.5700 
 11 C       -5.2090    -1.3840    -0.3510 C.3   1 <1>  -0.0990 
 12 C       -6.6740    -1.0390    -0.0150 C.3   1 <1>  -0.1600 
 13 C       -7.5530    -2.2830     0.2410 C.3   1 <1>  -0.0190 
 14 C       -7.7850    -3.1990    -0.9460 C.2   1 <1>   0.6590 
 15 C       -8.9870    -1.8940     0.6120 C.3   1 <1>  -0.1600 
 16 O       -6.9320    -3.6360    -1.6700 O.2   1 <1>  -0.5700 
 17 O       -9.0620    -3.4970    -1.0740 O.3   1 <1>  -0.4300 
 18 C       -9.8620    -2.9680    -0.0540 C.3   1 <1>   0.2800 
 19 C      -11.1260    -2.3960    -0.6910 C.3   1 <1>  -0.2400 
 20 C      -10.1930    -4.1150     0.9030 C.3   1 <1>  -0.2400 
 21 H        0.4690    -2.4030     1.9180 H     1 <1>   0.1500 
 22 H       -2.4930     0.6170    -0.1480 H     1 <1>   0.3700 
 23 H       -3.0060    -2.6340    -1.5600 H     1 <1>   0.1500 
 24 H        0.1770    -4.4700     0.5880 H     1 <1>   0.1500 
 25 H       -1.5680    -4.5640    -1.1460 H     1 <1>   0.1500 
 26 H       -4.8290    -2.0610     0.3920 H     1 <1>   0.0800 
 27 H       -5.1690    -1.8710    -1.3060 H     1 <1>   0.0800 
 28 H       -7.0880    -0.4610    -0.8240 H     1 <1>   0.0800 
 29 H       -6.6860    -0.4210     0.8670 H     1 <1>   0.0800 
 30 H       -7.1290    -2.8770     1.0300 H     1 <1>   0.0800 
 31 H       -9.2310    -0.9300     0.2000 H     1 <1>   0.0800 
 32 H       -9.1340    -1.8490     1.6760 H     1 <1>   0.0800 
 33 H      -10.8740    -1.6410    -1.4150 H     1 <1>   0.0800 
 34 H      -11.7530    -1.9530     0.0610 H     1 <1>   0.0800 
 35 H      -11.6810    -3.1760    -1.1810 H     1 <1>   0.0800 
 36 H       -9.2960    -4.5350     1.3230 H     1 <1>   0.0800 
 37 H      -10.7290    -4.8890     0.3820 H     1 <1>   0.0800 
 38 H      -10.8110    -3.7590     1.7070 H     1 <1>   0.0800 
@<TRIPOS>BOND
  1   1   2  1   
  2   2   3  ar  
  3   2   4  ar  
  4   3   5  1   
  5   3   6  ar  
  6   4   7  ar  
  7   4  21  1   
  8   5   8  am  
  9   5  22  1   
 10   6   9  ar  
 11   6  23  1   
 12   7   9  ar  
 13   7  24  1   
 14   8  10  2   
 15   8  11  1   
 16   9  25  1   
 17  11  12  1   
 18  11  26  1   
 19  11  27  1   
 20  12  13  1   
 21  12  28  1   
 22  12  29  1   
 23  13  14  1   
 24  13  15  1   
 25  13  30  1   
 26  14  16  2   
 27  14  17  1   
 28  15  18  1   
 29  15  31  1   
 30  15  32  1   
 31  17  18  1   
 32  18  19  1   
 33  18  20  1   
 34  19  33  1   
 35  19  34  1   
 36  19  35  1   
 37  20  36  1   
 38  20  37  1   
 39  20  38  1   
@<TRIPOS>SUBSTRUCTURE
  1 ****  11 GROUP 4 **** **** 0

# MOE 2024.06 (io_trps.svl 2023.06)
