@<TRIPOS>MOLECULE
NONAME
53 55 1 0 0 
SMALL
USER_CHARGES


@<TRIPOS>ATOM
  1 O       -0.9890     0.9760     0.4940 O.2   1 <1>  -0.5700 
  2 C       -0.4620     1.8330    -0.1890 C.2   1 <1>   0.6900 
  3 N       -1.2390     2.6860    -0.9110 N.am  1 <1>  -0.6600 
  4 N        0.8730     2.0100    -0.2110 N.am  1 <1>  -0.7300 
  5 C       -2.4960     2.1380    -1.4960 C.3   1 <1>   0.1400 
  6 C       -1.4060     4.0550    -0.3580 C.3   1 <1>   0.1400 
  7 C        1.8540     1.1490     0.4690 C.3   1 <1>   0.2200 
  8 C       -3.6190     2.1310    -0.4400 C.3   1 <1>   0.3430 
  9 C       -2.5150     4.0520     0.7160 C.3   1 <1>   0.3430 
 10 C        2.8320     2.0340     1.2490 C.3   1 <1>  -0.1600 
 11 C        2.5850     0.3030    -0.5790 C.3   1 <1>  -0.1600 
 12 N       -3.8120     3.4850     0.1990 N.4   1 <1>  -0.9590 
 13 C        3.9430     1.1940     1.8980 C.3   1 <1>  -0.1600 
 14 C        3.6950    -0.5400     0.0650 C.3   1 <1>  -0.1600 
 15 C       -4.8410     3.4190     1.2700 C.3   1 <1>   0.4860 
 16 C        4.6750     0.3400     0.8530 C.3   1 <1>  -0.1600 
 17 C       -6.1750     3.0960     0.6250 C.ar  1 <1>  -0.1430 
 18 C       -6.9200     4.0620    -0.0490 C.ar  1 <1>  -0.1430 
 19 C       -6.6520     1.7940     0.7100 C.ar  1 <1>  -0.1500 
 20 C       -8.1170     3.6970    -0.6470 C.ar  1 <1>  -0.1500 
 21 C       -6.4810     5.5180    -0.1520 C.3   1 <1>  -0.0970 
 22 C       -7.8480     1.4440     0.1130 C.ar  1 <1>  -0.1500 
 23 C       -8.5790     2.3960    -0.5700 C.ar  1 <1>  -0.1500 
 24 H        1.2530     2.6040    -0.9450 H     1 <1>   0.3700 
 25 H       -2.3230     1.1300    -1.8360 H     1 <1>   0.0800 
 26 H       -2.7880     2.7270    -2.3480 H     1 <1>   0.0800 
 27 H       -1.6530     4.7400    -1.1500 H     1 <1>   0.0800 
 28 H       -0.4810     4.3830     0.0870 H     1 <1>   0.0800 
 29 H        1.3490     0.4930     1.1590 H     1 <1>   0.0800 
 30 H       -3.3590     1.4070     0.3160 H     1 <1>   0.0800 
 31 H       -4.5370     1.8070    -0.9040 H     1 <1>   0.0800 
 32 H       -2.6680     5.0580     1.0710 H     1 <1>   0.0800 
 33 H       -2.1700     3.4560     1.5460 H     1 <1>   0.0800 
 34 H        2.2980     2.5660     2.0160 H     1 <1>   0.0800 
 35 H        3.2810     2.7500     0.5830 H     1 <1>   0.0800 
 36 H        3.0230     0.9460    -1.3220 H     1 <1>   0.0800 
 37 H        1.8800    -0.3500    -1.0630 H     1 <1>   0.0800 
 38 H       -4.1940     4.1030    -0.5260 H     1 <1>   0.4500 
 39 H        3.5110     0.5490     2.6450 H     1 <1>   0.0800 
 40 H        4.6460     1.8440     2.3900 H     1 <1>   0.0800 
 41 H        4.2280    -1.0800    -0.6980 H     1 <1>   0.0800 
 42 H        3.2520    -1.2620     0.7310 H     1 <1>   0.0800 
 43 H       -4.9120     4.3640     1.7820 H     1 <1>   0.0800 
 44 H       -4.5830     2.6600     1.9890 H     1 <1>   0.0800 
 45 H        5.4030    -0.2820     1.3440 H     1 <1>   0.0800 
 46 H        5.2020     0.9860     0.1710 H     1 <1>   0.0800 
 47 H       -6.1020     1.0350     1.2410 H     1 <1>   0.1500 
 48 H       -8.7080     4.4250    -1.1770 H     1 <1>   0.1500 
 49 H       -5.6940     5.6260    -0.8750 H     1 <1>   0.0800 
 50 H       -6.1500     5.8880     0.8010 H     1 <1>   0.0800 
 51 H       -7.3040     6.1370    -0.4660 H     1 <1>   0.0800 
 52 H       -8.2150     0.4330     0.1800 H     1 <1>   0.1500 
 53 H       -9.5120     2.1270    -1.0370 H     1 <1>   0.1500 
@<TRIPOS>BOND
  1   1   2  2   
  2   2   3  am  
  3   2   4  am  
  4   3   5  1   
  5   3   6  1   
  6   4   7  1   
  7   4  24  1   
  8   5   8  1   
  9   5  25  1   
 10   5  26  1   
 11   6   9  1   
 12   6  27  1   
 13   6  28  1   
 14   7  10  1   
 15   7  11  1   
 16   7  29  1   
 17   8  12  1   
 18   8  30  1   
 19   8  31  1   
 20   9  12  1   
 21   9  32  1   
 22   9  33  1   
 23  10  13  1   
 24  10  34  1   
 25  10  35  1   
 26  11  14  1   
 27  11  36  1   
 28  11  37  1   
 29  12  15  1   
 30  12  38  1   
 31  13  16  1   
 32  13  39  1   
 33  13  40  1   
 34  14  16  1   
 35  14  41  1   
 36  14  42  1   
 37  15  17  1   
 38  15  43  1   
 39  15  44  1   
 40  16  45  1   
 41  16  46  1   
 42  17  18  ar  
 43  17  19  ar  
 44  18  20  ar  
 45  18  21  1   
 46  19  22  ar  
 47  19  47  1   
 48  20  23  ar  
 49  20  48  1   
 50  21  49  1   
 51  21  50  1   
 52  21  51  1   
 53  22  23  ar  
 54  22  52  1   
 55  23  53  1   
@<TRIPOS>SUBSTRUCTURE
  1 ****   8 GROUP 4 **** **** 0

# MOE 2024.06 (io_trps.svl 2023.06)
