@<TRIPOS>MOLECULE
NONAME
55 57 1 0 0 
SMALL
USER_CHARGES


@<TRIPOS>ATOM
  1 O        1.6340    -1.2550     3.4220 O.2   1 <1>  -0.5700 
  2 C        1.1010    -1.4750     2.3620 C.2   1 <1>   0.5690 
  3 N        1.4910    -0.9440     1.1670 N.am  1 <1>  -0.5470 
  4 C       -0.1120    -2.4070     2.3090 C.3   1 <1>   0.1710 
  5 C        2.5220    -0.0830     0.7670 C.ar  1 <1>   0.1170 
  6 N       -0.9750    -2.1910     1.1070 N.3   1 <1>  -0.8100 
  7 C        2.4450     0.5520    -0.4760 C.ar  1 <1>  -0.1430 
  8 C        3.6360     0.1430     1.5700 C.ar  1 <1>  -0.1500 
  9 C       -1.7970    -0.9640     1.2590 C.3   1 <1>   0.1100 
 10 C       -1.8660    -3.3510     0.8800 C.3   1 <1>   0.1100 
 11 C        3.4770     1.3820    -0.8880 C.ar  1 <1>  -0.1500 
 12 C        1.2450     0.3680    -1.4020 C.3   1 <1>  -0.0170 
 13 C        4.6570     0.9750     1.1540 C.ar  1 <1>  -0.1500 
 14 C       -2.6950    -0.6950     0.0350 C.3   1 <1>   0.2090 
 15 C       -2.7560    -3.1730    -0.3660 C.3   1 <1>   0.2090 
 16 C        4.5800     1.5950    -0.0790 C.ar  1 <1>  -0.1500 
 17 C        1.3370    -0.9460    -2.1840 C.3   1 <1>  -0.2400 
 18 N       -3.5090    -1.8860    -0.3450 N.pl3 1 <1>  -0.8380 
 19 C       -4.8550    -1.9150     0.0210 C.ar  1 <1>   0.1000 
 20 C       -5.8680    -1.7800    -0.9340 C.ar  1 <1>  -0.1430 
 21 C       -5.2000    -2.0840     1.3560 C.ar  1 <1>  -0.1500 
 22 C       -7.2040    -1.8240    -0.5400 C.ar  1 <1>  -0.1430 
 23 C       -5.4580    -1.5920    -2.3960 C.3   1 <1>  -0.0970 
 24 C       -6.5220    -2.1220     1.7480 C.ar  1 <1>  -0.1500 
 25 C       -7.5190    -1.9930     0.8010 C.ar  1 <1>  -0.1500 
 26 C       -8.3530    -1.6950    -1.5310 C.3   1 <1>  -0.0970 
 27 H        0.8390    -1.2140     0.4240 H     1 <1>   0.3700 
 28 H       -0.6890    -2.2830     3.2090 H     1 <1>   0.0800 
 29 H        0.2700    -3.4120     2.2980 H     1 <1>   0.0800 
 30 H        3.7120    -0.3370     2.5280 H     1 <1>   0.1500 
 31 H       -1.1570    -0.1110     1.4030 H     1 <1>   0.0800 
 32 H       -2.4230    -1.0490     2.1300 H     1 <1>   0.0800 
 33 H       -2.4980    -3.5010     1.7380 H     1 <1>   0.0800 
 34 H       -1.2710    -4.2370     0.7480 H     1 <1>   0.0800 
 35 H        3.4310     1.8710    -1.8450 H     1 <1>   0.1500 
 36 H        1.1980     1.1860    -2.1000 H     1 <1>   0.0800 
 37 H        0.3330     0.3930    -0.8320 H     1 <1>   0.0800 
 38 H        5.5110     1.1380     1.7880 H     1 <1>   0.1500 
 39 H       -2.0780    -0.4200    -0.8020 H     1 <1>   0.0800 
 40 H       -3.3510     0.1310     0.2460 H     1 <1>   0.0800 
 41 H       -3.4520    -3.9910    -0.4290 H     1 <1>   0.0800 
 42 H       -2.1380    -3.1970    -1.2460 H     1 <1>   0.0800 
 43 H        5.3740     2.2420    -0.4080 H     1 <1>   0.1500 
 44 H        2.2360    -0.9580    -2.7750 H     1 <1>   0.0800 
 45 H        0.4900    -1.0460    -2.8390 H     1 <1>   0.0800 
 46 H        1.3570    -1.7880    -1.5160 H     1 <1>   0.0800 
 47 H       -4.4260    -2.1880     2.0900 H     1 <1>   0.1500 
 48 H       -5.0080    -2.4980    -2.7570 H     1 <1>   0.0800 
 49 H       -4.7330    -0.8020    -2.4670 H     1 <1>   0.0800 
 50 H       -6.2790    -1.3390    -3.0350 H     1 <1>   0.0800 
 51 H       -6.7760    -2.2530     2.7840 H     1 <1>   0.1500 
 52 H       -8.5460    -2.0250     1.1180 H     1 <1>   0.1500 
 53 H       -8.3340    -0.7220    -1.9870 H     1 <1>   0.0800 
 54 H       -9.3020    -1.8210    -1.0430 H     1 <1>   0.0800 
 55 H       -8.2660    -2.4480    -2.2930 H     1 <1>   0.0800 
@<TRIPOS>BOND
  1   1   2  2   
  2   2   3  am  
  3   2   4  1   
  4   3   5  1   
  5   3  27  1   
  6   4   6  1   
  7   4  28  1   
  8   4  29  1   
  9   5   7  ar  
 10   5   8  ar  
 11   6   9  1   
 12   6  10  1   
 13   7  11  ar  
 14   7  12  1   
 15   8  13  ar  
 16   8  30  1   
 17   9  14  1   
 18   9  31  1   
 19   9  32  1   
 20  10  15  1   
 21  10  33  1   
 22  10  34  1   
 23  11  16  ar  
 24  11  35  1   
 25  12  17  1   
 26  12  36  1   
 27  12  37  1   
 28  13  16  ar  
 29  13  38  1   
 30  14  18  1   
 31  14  39  1   
 32  14  40  1   
 33  15  18  1   
 34  15  41  1   
 35  15  42  1   
 36  16  43  1   
 37  17  44  1   
 38  17  45  1   
 39  17  46  1   
 40  18  19  1   
 41  19  20  ar  
 42  19  21  ar  
 43  20  22  ar  
 44  20  23  1   
 45  21  24  ar  
 46  21  47  1   
 47  22  25  ar  
 48  22  26  1   
 49  23  48  1   
 50  23  49  1   
 51  23  50  1   
 52  24  25  ar  
 53  24  51  1   
 54  25  52  1   
 55  26  53  1   
 56  26  54  1   
 57  26  55  1   
@<TRIPOS>SUBSTRUCTURE
  1 ****   9 GROUP 4 **** **** 0

# MOE 2024.06 (io_trps.svl 2023.06)
