@<TRIPOS>MOLECULE
NONAME
41 42 1 0 0 
SMALL
USER_CHARGES


@<TRIPOS>ATOM
  1 O       -8.1570    -0.2940    -1.4680 O.3   1 <1>  -0.3630 
  2 C       -9.0310    -0.0620    -0.4520 C.ar  1 <1>   0.0830 
  3 C       -7.3990     0.7450    -2.0730 C.3   1 <1>   0.1200 
  4 C       -9.3390    -1.1090     0.4220 C.ar  1 <1>  -0.1440 
  5 C       -9.5970     1.1960    -0.2570 C.ar  1 <1>  -0.1500 
  6 C       -6.5410     1.4720    -1.0200 C.3   1 <1>   0.3430 
  7 C      -10.1620    -0.8440     1.5090 C.ar  1 <1>  -0.1500 
  8 C       -8.8510    -2.5550     0.2460 C.3   1 <1>   0.0640 
  9 C      -10.4160     1.4360     0.8290 C.ar  1 <1>  -0.1500 
 10 N       -6.0140     0.5100    -0.0090 N.4   1 <1>  -0.9590 
 11 C      -10.6910     0.4160     1.7180 C.ar  1 <1>  -0.1500 
 12 C       -7.3290    -2.6920     0.3580 C.3   1 <1>  -0.2400 
 13 C       -9.3660    -3.1700    -1.0600 C.3   1 <1>  -0.2400 
 14 C       -5.7690     1.1000     1.3230 C.3   1 <1>   0.3430 
 15 C       -4.7770    -0.2000    -0.4080 C.3   1 <1>   0.3430 
 16 C       -4.8870     0.0760     2.0200 C.3   1 <1>  -0.1600 
 17 C       -4.1840    -0.7030     0.9030 C.3   1 <1>  -0.1600 
 18 H       -8.0660     1.4200    -2.5780 H     1 <1>   0.0800 
 19 H       -6.7660     0.2860    -2.8110 H     1 <1>   0.0800 
 20 H       -9.4270     2.0030    -0.9440 H     1 <1>   0.1500 
 21 H       -7.1670     2.1960    -0.5250 H     1 <1>   0.0800 
 22 H       -5.7360     2.0070    -1.4960 H     1 <1>   0.0800 
 23 H      -10.4130    -1.6250     2.2060 H     1 <1>   0.1500 
 24 H       -9.2690    -3.1470     1.0430 H     1 <1>   0.0800 
 25 H      -10.8500     2.4100     0.9810 H     1 <1>   0.1500 
 26 H       -6.7630    -0.2010     0.1050 H     1 <1>   0.4500 
 27 H      -11.3290     0.5980     2.5670 H     1 <1>   0.1500 
 28 H       -6.8430    -2.2660    -0.4980 H     1 <1>   0.0800 
 29 H       -7.0650    -3.7340     0.4060 H     1 <1>   0.0800 
 30 H       -6.9830    -2.2140     1.2560 H     1 <1>   0.0800 
 31 H       -8.9390    -2.6830    -1.9170 H     1 <1>   0.0800 
 32 H      -10.4360    -3.0720    -1.1120 H     1 <1>   0.0800 
 33 H       -9.1180    -4.2150    -1.1040 H     1 <1>   0.0800 
 34 H       -6.6900     1.2690     1.8600 H     1 <1>   0.0800 
 35 H       -5.2330     2.0300     1.2200 H     1 <1>   0.0800 
 36 H       -4.0900     0.4920    -0.8690 H     1 <1>   0.0800 
 37 H       -4.9860    -1.0090    -1.0890 H     1 <1>   0.0800 
 38 H       -5.5020    -0.5850     2.6070 H     1 <1>   0.0800 
 39 H       -4.1860     0.5610     2.6770 H     1 <1>   0.0800 
 40 H       -3.1210    -0.5350     0.9140 H     1 <1>   0.0800 
 41 H       -4.3620    -1.7600     1.0080 H     1 <1>   0.0800 
@<TRIPOS>BOND
  1   1   2  1   
  2   1   3  1   
  3   2   4  ar  
  4   2   5  ar  
  5   3   6  1   
  6   3  18  1   
  7   3  19  1   
  8   4   7  ar  
  9   4   8  1   
 10   5   9  ar  
 11   5  20  1   
 12   6  10  1   
 13   6  21  1   
 14   6  22  1   
 15   7  11  ar  
 16   7  23  1   
 17   8  12  1   
 18   8  13  1   
 19   8  24  1   
 20   9  11  ar  
 21   9  25  1   
 22  10  14  1   
 23  10  15  1   
 24  10  26  1   
 25  11  27  1   
 26  12  28  1   
 27  12  29  1   
 28  12  30  1   
 29  13  31  1   
 30  13  32  1   
 31  13  33  1   
 32  14  16  1   
 33  14  34  1   
 34  14  35  1   
 35  15  17  1   
 36  15  36  1   
 37  15  37  1   
 38  16  17  1   
 39  16  38  1   
 40  16  39  1   
 41  17  40  1   
 42  17  41  1   
@<TRIPOS>SUBSTRUCTURE
  1 ****   2 GROUP 4 **** **** 0

# MOE 2024.06 (io_trps.svl 2023.06)
