@<TRIPOS>MOLECULE
NONAME
47 48 1 0 0 
SMALL
USER_CHARGES


@<TRIPOS>ATOM
  1 O        0.4760     0.6210     0.3900 O.2   1 <1>  -0.5700 
  2 C        0.3130     1.8130     0.3450 C.2   1 <1>   0.6590 
  3 O       -0.8450     2.3890     0.6230 O.3   1 <1>  -0.4300 
  4 C        1.4430     2.7500    -0.0450 C.3   1 <1>  -0.0190 
  5 C       -1.9730     1.6350     1.0050 C.3   1 <1>   0.1200 
  6 C        2.5720     1.9400    -0.7110 C.3   1 <1>   0.3430 
  7 C        1.9590     3.5680     1.1550 C.3   1 <1>  -0.1600 
  8 C       -3.1240     2.6030     1.2580 C.3   1 <1>  -0.2400 
  9 N        3.9330     2.5360    -0.4870 N.4   1 <1>  -0.9590 
 10 C        3.1020     4.5140     0.7340 C.3   1 <1>  -0.1600 
 11 C        3.9200     4.0260    -0.4700 C.3   1 <1>   0.3430 
 12 C        4.9400     1.9800    -1.4320 C.3   1 <1>   0.4860 
 13 C        6.3180     2.4320    -0.9890 C.ar  1 <1>  -0.1440 
 14 C        7.0180     3.3810    -1.7200 C.ar  1 <1>  -0.1500 
 15 C        6.8870     1.9100     0.1640 C.ar  1 <1>  -0.1500 
 16 C        8.2590     3.8150    -1.2890 C.ar  1 <1>  -0.1500 
 17 C        8.1260     2.3500     0.5890 C.ar  1 <1>  -0.1500 
 18 C        8.8270     3.3160    -0.1240 C.ar  1 <1>   0.1170 
 19 N       10.0810     3.7880     0.2880 N.am  1 <1>  -0.5470 
 20 C       10.5860     3.9190     1.5500 C.2   1 <1>   0.5690 
 21 O        9.9670     3.6610     2.5500 O.2   1 <1>  -0.5700 
 22 C       11.9970     4.4340     1.6840 C.3   1 <1>  -0.1790 
 23 H        1.0430     3.4290    -0.7770 H     1 <1>   0.0800 
 24 H       -1.7310     1.0820     1.8970 H     1 <1>   0.0800 
 25 H       -2.2140     0.9490     0.2090 H     1 <1>   0.0800 
 26 H        2.3650     1.8730    -1.7670 H     1 <1>   0.0800 
 27 H        2.5730     0.9360    -0.3180 H     1 <1>   0.0800 
 28 H        2.3150     2.8900     1.9130 H     1 <1>   0.0800 
 29 H        1.1560     4.1410     1.5910 H     1 <1>   0.0800 
 30 H       -2.8700     3.2870     2.0480 H     1 <1>   0.0800 
 31 H       -4.0000     2.0540     1.5510 H     1 <1>   0.0800 
 32 H       -3.3520     3.1540     0.3630 H     1 <1>   0.0800 
 33 H        4.2470     2.2580     0.4530 H     1 <1>   0.4500 
 34 H        3.7610     4.6680     1.5720 H     1 <1>   0.0800 
 35 H        2.6930     5.4790     0.4840 H     1 <1>   0.0800 
 36 H        3.4760     4.3910    -1.3820 H     1 <1>   0.0800 
 37 H        4.9230     4.4180    -0.4000 H     1 <1>   0.0800 
 38 H        4.7430     2.3240    -2.4350 H     1 <1>   0.0800 
 39 H        4.9020     0.9020    -1.4250 H     1 <1>   0.0800 
 40 H        6.6100     3.7930    -2.6270 H     1 <1>   0.1500 
 41 H        6.3830     1.1580     0.7470 H     1 <1>   0.1500 
 42 H        8.7920     4.5540    -1.8610 H     1 <1>   0.1500 
 43 H        8.5560     1.9370     1.4850 H     1 <1>   0.1500 
 44 H       10.6870     4.1230    -0.4580 H     1 <1>   0.3700 
 45 H       12.0580     5.4370     1.3060 H     1 <1>   0.0800 
 46 H       12.6720     3.7990     1.1400 H     1 <1>   0.0800 
 47 H       12.2840     4.4360     2.7200 H     1 <1>   0.0800 
@<TRIPOS>BOND
  1   1   2  2   
  2   2   3  1   
  3   2   4  1   
  4   3   5  1   
  5   4   6  1   
  6   4   7  1   
  7   4  23  1   
  8   5   8  1   
  9   5  24  1   
 10   5  25  1   
 11   6   9  1   
 12   6  26  1   
 13   6  27  1   
 14   7  10  1   
 15   7  28  1   
 16   7  29  1   
 17   8  30  1   
 18   8  31  1   
 19   8  32  1   
 20   9  11  1   
 21   9  12  1   
 22   9  33  1   
 23  10  11  1   
 24  10  34  1   
 25  10  35  1   
 26  11  36  1   
 27  11  37  1   
 28  12  13  1   
 29  12  38  1   
 30  12  39  1   
 31  13  14  ar  
 32  13  15  ar  
 33  14  16  ar  
 34  14  40  1   
 35  15  17  ar  
 36  15  41  1   
 37  16  18  ar  
 38  16  42  1   
 39  17  18  ar  
 40  17  43  1   
 41  18  19  1   
 42  19  20  am  
 43  19  44  1   
 44  20  21  2   
 45  20  22  1   
 46  22  45  1   
 47  22  46  1   
 48  22  47  1   
@<TRIPOS>SUBSTRUCTURE
  1 ****   9 GROUP 4 **** **** 0

# MOE 2024.06 (io_trps.svl 2023.06)
