@<TRIPOS>MOLECULE
NONAME
56 58 1 0 0 
SMALL
USER_CHARGES


@<TRIPOS>ATOM
  1 O       -0.5750     0.4880     0.9430 O.2   1 <1>  -0.5700 
  2 C       -1.1800     1.5340     0.8280 C.2   1 <1>   0.6900 
  3 N       -0.5100     2.7440     0.9800 N.am  1 <1>  -0.4200 
  4 N       -2.5380     1.5210     0.5460 N.am  1 <1>  -0.4360 
  5 C       -1.1790     3.9560     0.8780 C.2   1 <1>   0.7030 
  6 C        0.9540     2.7220     1.2940 C.3   1 <1>   0.0600 
  7 C       -3.1850     2.7340     0.4080 C.2   1 <1>   0.4260 
  8 C       -3.2790     0.2360     0.3690 C.3   1 <1>   0.0600 
  9 O       -0.5900     5.0070     1.0660 O.2   1 <1>  -0.5700 
 10 C       -2.5780     3.9360     0.5550 C.2   1 <1>   0.2770 
 11 N       -4.4880     2.9550     0.1180 N.pl3 1 <1>  -0.7000 
 12 N       -3.5620     4.9110     0.3410 N.pl3 1 <1>  -0.7640 
 13 C       -4.6950     4.2650     0.0850 C.cat 1 <1>   0.6560 
 14 C       -3.3010     6.3780     0.3930 C.3   1 <1>   0.3540 
 15 C       -6.0850     4.8470    -0.2240 C.3   1 <1>   0.2540 
 16 C       -2.6420     6.8780    -0.9080 C.3   1 <1>  -0.0800 
 17 N       -7.1290     3.7970    -0.1090 N.3   1 <1>  -0.8100 
 18 C       -2.3370     8.3790    -0.8030 C.3   1 <1>  -0.2400 
 19 C       -3.5020     6.6230    -2.1580 C.3   1 <1>  -0.2400 
 20 C       -7.5970     3.5730     1.2830 C.3   1 <1>   0.1100 
 21 C       -8.2940     3.9990    -0.9890 C.3   1 <1>   0.1100 
 22 C       -8.8590     2.6730     1.3820 C.3   1 <1>   0.2000 
 23 C       -9.2180     2.7510    -0.9860 C.3   1 <1>   0.2000 
 24 O       -9.0900     1.9870     0.1860 O.3   1 <1>  -0.5600 
 25 C      -10.1300     3.4330     1.7800 C.3   1 <1>  -0.2400 
 26 C       -8.8890     1.8040    -2.1380 C.3   1 <1>  -0.2400 
 27 H        1.4410     1.9350     0.7440 H     1 <1>   0.0800 
 28 H        1.0940     2.5470     2.3470 H     1 <1>   0.0800 
 29 H        1.4220     3.6550     1.0290 H     1 <1>   0.0800 
 30 H       -2.7440    -0.5790     0.8260 H     1 <1>   0.0800 
 31 H       -3.3940     0.0260    -0.6800 H     1 <1>   0.0800 
 32 H       -4.2490     0.2980     0.8300 H     1 <1>   0.0800 
 33 H       -5.2570     2.2960    -0.0520 H     1 <1>   0.4500 
 34 H       -2.6550     6.5950     1.2290 H     1 <1>   0.0800 
 35 H       -4.2240     6.9080     0.5520 H     1 <1>   0.0800 
 36 H       -6.0630     5.2190    -1.2330 H     1 <1>   0.0800 
 37 H       -6.3040     5.6670     0.4360 H     1 <1>   0.0800 
 38 H       -1.7010     6.3670    -1.0300 H     1 <1>   0.0800 
 39 H       -3.2400     8.9530    -0.6890 H     1 <1>   0.0800 
 40 H       -1.8280     8.7190    -1.6880 H     1 <1>   0.0800 
 41 H       -1.6950     8.5750     0.0400 H     1 <1>   0.0800 
 42 H       -4.4610     7.1040    -2.0710 H     1 <1>   0.0800 
 43 H       -3.6480     5.5700    -2.3190 H     1 <1>   0.0800 
 44 H       -3.0080     7.0170    -3.0300 H     1 <1>   0.0800 
 45 H       -7.8130     4.5160     1.7560 H     1 <1>   0.0800 
 46 H       -6.8090     3.1090     1.8510 H     1 <1>   0.0800 
 47 H       -7.9740     4.1980    -1.9970 H     1 <1>   0.0800 
 48 H       -8.8570     4.8540    -0.6560 H     1 <1>   0.0800 
 49 H       -8.6810     1.9210     2.1320 H     1 <1>   0.0800 
 50 H      -10.2450     3.0610    -1.0690 H     1 <1>   0.0800 
 51 H      -10.3380     4.2400     1.1040 H     1 <1>   0.0800 
 52 H      -10.0140     3.8420     2.7670 H     1 <1>   0.0800 
 53 H      -10.9660     2.7560     1.7950 H     1 <1>   0.0800 
 54 H       -7.8680     1.4760    -2.0670 H     1 <1>   0.0800 
 55 H       -9.0310     2.3000    -3.0810 H     1 <1>   0.0800 
 56 H       -9.5400     0.9490    -2.1030 H     1 <1>   0.0800 
@<TRIPOS>BOND
  1   1   2  2   
  2   2   3  am  
  3   2   4  am  
  4   3   5  am  
  5   3   6  1   
  6   4   7  1   
  7   4   8  1   
  8   5   9  2   
  9   5  10  1   
 10   6  27  1   
 11   6  28  1   
 12   6  29  1   
 13   7  10  2   
 14   7  11  1   
 15   8  30  1   
 16   8  31  1   
 17   8  32  1   
 18  10  12  1   
 19  11  13  ar  
 20  11  33  1   
 21  12  13  ar  
 22  12  14  1   
 23  13  15  1   
 24  14  16  1   
 25  14  34  1   
 26  14  35  1   
 27  15  17  1   
 28  15  36  1   
 29  15  37  1   
 30  16  18  1   
 31  16  19  1   
 32  16  38  1   
 33  17  20  1   
 34  17  21  1   
 35  18  39  1   
 36  18  40  1   
 37  18  41  1   
 38  19  42  1   
 39  19  43  1   
 40  19  44  1   
 41  20  22  1   
 42  20  45  1   
 43  20  46  1   
 44  21  23  1   
 45  21  47  1   
 46  21  48  1   
 47  22  24  1   
 48  22  25  1   
 49  22  49  1   
 50  23  24  1   
 51  23  26  1   
 52  23  50  1   
 53  25  51  1   
 54  25  52  1   
 55  25  53  1   
 56  26  54  1   
 57  26  55  1   
 58  26  56  1   
@<TRIPOS>SUBSTRUCTURE
  1 ****  11 GROUP 4 **** **** 0

# MOE 2024.06 (io_trps.svl 2023.06)
