@<TRIPOS>MOLECULE
NONAME
58 60 1 0 0 
SMALL
USER_CHARGES


@<TRIPOS>ATOM
  1 CL       0.5690     1.7410    -0.1710 Cl    1 <1>  -0.1770 
  2 C       -1.0330     2.1270     0.4160 C.ar  1 <1>   0.1770 
  3 C       -1.4830     3.4380     0.4580 C.ar  1 <1>  -0.0090 
  4 C       -1.8200     1.0700     0.8330 C.ar  1 <1>  -0.1500 
  5 S       -0.4430     4.8040    -0.1020 S.o2  1 <1>   1.4470 
  6 C       -2.7680     3.6600     0.9430 C.ar  1 <1>  -0.1500 
  7 C       -3.0990     1.3020     1.3090 C.ar  1 <1>  -0.1430 
  8 O        0.0010     4.5860    -1.4580 O.2   1 <1>  -0.6500 
  9 O       -1.0990     6.0530     0.2180 O.2   1 <1>  -0.6500 
 10 N        0.9220     4.7220     0.8720 N.am  1 <1>  -0.9140 
 11 C       -3.5800     2.6070     1.3620 C.ar  1 <1>   0.0830 
 12 C       -3.9550     0.1280     1.7640 C.3   1 <1>  -0.0970 
 13 C        1.7930     5.8900     0.7750 C.3   1 <1>   0.1960 
 14 O       -4.8440     2.7900     1.8240 O.3   1 <1>  -0.3630 
 15 C        2.6990     5.7880    -0.4660 C.3   1 <1>   0.2000 
 16 C       -5.4600     4.0710     1.8720 C.3   1 <1>   0.1810 
 17 O        3.2330     4.5040    -0.5470 O.3   1 <1>  -0.5600 
 18 C        3.9200     6.6960    -0.4500 C.3   1 <1>  -0.1600 
 19 C       -6.9310     3.9650     2.2730 C.2   1 <1>   0.5690 
 20 C        4.3410     4.5150    -1.3850 C.3   1 <1>   0.1200 
 21 C        4.9330     5.9200    -1.2810 C.3   1 <1>  -0.1600 
 22 O       -7.3090     4.5540     3.2560 O.2   1 <1>  -0.5700 
 23 N       -7.8300     3.2580     1.5430 N.am  1 <1>  -0.7300 
 24 C       -7.5900     2.4260     0.3530 C.3   1 <1>   0.2200 
 25 C       -8.5660     2.8370    -0.7530 C.3   1 <1>  -0.1600 
 26 C       -7.7720     0.9550     0.7330 C.3   1 <1>  -0.1600 
 27 C       -8.4080     1.9350    -1.9870 C.3   1 <1>  -0.1600 
 28 C       -7.6040     0.0470    -0.4940 C.3   1 <1>  -0.1600 
 29 C       -8.5680     0.4530    -1.6170 C.3   1 <1>  -0.1600 
 30 H       -1.4240     0.0720     0.7800 H     1 <1>   0.1500 
 31 H       -3.1180     4.6750     0.9860 H     1 <1>   0.1500 
 32 H        1.4950     3.9840     0.4420 H     1 <1>   0.4200 
 33 H       -3.3630    -0.7630     1.8730 H     1 <1>   0.0800 
 34 H       -4.7270    -0.0580     1.0410 H     1 <1>   0.0800 
 35 H       -4.4130     0.3470     2.7120 H     1 <1>   0.0800 
 36 H        2.4180     5.9140     1.6500 H     1 <1>   0.0800 
 37 H        1.2230     6.8040     0.7560 H     1 <1>   0.0800 
 38 H        2.1300     5.9610    -1.3640 H     1 <1>   0.0800 
 39 H       -5.3950     4.5200     0.8990 H     1 <1>   0.0800 
 40 H       -4.9330     4.6700     2.5910 H     1 <1>   0.0800 
 41 H        4.2830     6.8130     0.5560 H     1 <1>   0.0800 
 42 H        3.7000     7.6640    -0.8650 H     1 <1>   0.0800 
 43 H        4.0030     4.3060    -2.3860 H     1 <1>   0.0800 
 44 H        5.0280     3.7540    -1.0590 H     1 <1>   0.0800 
 45 H        5.8960     5.8960    -0.8030 H     1 <1>   0.0800 
 46 H        5.0400     6.3430    -2.2650 H     1 <1>   0.0800 
 47 H       -8.7830     3.2370     1.9110 H     1 <1>   0.3700 
 48 H       -6.5850     2.5700    -0.0060 H     1 <1>   0.0800 
 49 H       -8.3810     3.8590    -1.0330 H     1 <1>   0.0800 
 50 H       -9.5760     2.7590    -0.3890 H     1 <1>   0.0800 
 51 H       -8.7540     0.8080     1.1470 H     1 <1>   0.0800 
 52 H       -7.0450     0.6880     1.4800 H     1 <1>   0.0800 
 53 H       -7.4350     2.0900    -2.4200 H     1 <1>   0.0800 
 54 H       -9.1440     2.2030    -2.7260 H     1 <1>   0.0800 
 55 H       -7.7860    -0.9770    -0.2140 H     1 <1>   0.0800 
 56 H       -6.5910     0.1150    -0.8530 H     1 <1>   0.0800 
 57 H       -8.3870    -0.1560    -2.4850 H     1 <1>   0.0800 
 58 H       -9.5810     0.2740    -1.2970 H     1 <1>   0.0800 
@<TRIPOS>BOND
  1   1   2  1   
  2   2   3  ar  
  3   2   4  ar  
  4   3   5  1   
  5   3   6  ar  
  6   4   7  ar  
  7   4  30  1   
  8   5   8  2   
  9   5   9  2   
 10   5  10  am  
 11   6  11  ar  
 12   6  31  1   
 13   7  11  ar  
 14   7  12  1   
 15  10  13  1   
 16  10  32  1   
 17  11  14  1   
 18  12  33  1   
 19  12  34  1   
 20  12  35  1   
 21  13  15  1   
 22  13  36  1   
 23  13  37  1   
 24  14  16  1   
 25  15  17  1   
 26  15  18  1   
 27  15  38  1   
 28  16  19  1   
 29  16  39  1   
 30  16  40  1   
 31  17  20  1   
 32  18  21  1   
 33  18  41  1   
 34  18  42  1   
 35  19  22  2   
 36  19  23  am  
 37  20  21  1   
 38  20  43  1   
 39  20  44  1   
 40  21  45  1   
 41  21  46  1   
 42  23  24  1   
 43  23  47  1   
 44  24  25  1   
 45  24  26  1   
 46  24  48  1   
 47  25  27  1   
 48  25  49  1   
 49  25  50  1   
 50  26  28  1   
 51  26  51  1   
 52  26  52  1   
 53  27  29  1   
 54  27  53  1   
 55  27  54  1   
 56  28  29  1   
 57  28  55  1   
 58  28  56  1   
 59  29  57  1   
 60  29  58  1   
@<TRIPOS>SUBSTRUCTURE
  1 ****   6 GROUP 4 **** **** 0

# MOE 2024.06 (io_trps.svl 2023.06)
