@<TRIPOS>MOLECULE
NONAME
42 43 1 0 0 
SMALL
USER_CHARGES


@<TRIPOS>ATOM
  1 F       -2.6340     2.5170    -1.7380 F     1 <1>  -0.3400 
  2 C       -1.9420     1.8810    -0.8000 C.3   1 <1>   1.1640 
  3 F       -1.1870     1.0060    -1.4600 F     1 <1>  -0.3400 
  4 F       -2.8020     1.1330    -0.1170 F     1 <1>  -0.3400 
  5 C       -1.0930     2.8270     0.0860 C.ar  1 <1>  -0.1440 
  6 C       -1.6160     3.5520     1.1660 C.ar  1 <1>  -0.1440 
  7 C        0.2640     2.9730    -0.2060 C.ar  1 <1>  -0.1500 
  8 C       -0.7820     4.3700     1.9180 C.ar  1 <1>  -0.1500 
  9 C       -3.0900     3.5080     1.5710 C.3   1 <1>   0.2540 
 10 C        1.0830     3.7920     0.5480 C.ar  1 <1>  -0.1500 
 11 C        0.5590     4.4910     1.6150 C.ar  1 <1>  -0.1500 
 12 N       -3.9510     4.0090     0.4830 N.3   1 <1>  -0.8100 
 13 C       -5.4060     3.8050     0.7860 C.3   1 <1>   0.2510 
 14 C       -3.6530     5.4210     0.1750 C.3   1 <1>   0.1100 
 15 C       -5.7940     2.3680     1.2020 C.2   1 <1>   0.6590 
 16 C       -6.2510     4.2600    -0.4200 C.3   1 <1>  -0.1600 
 17 C       -4.4570     5.8860    -1.0400 C.3   1 <1>  -0.1600 
 18 O       -5.9930     2.0880     2.3600 O.2   1 <1>  -0.5700 
 19 O       -5.8820     1.4540     0.2400 O.3   1 <1>  -0.4300 
 20 C       -5.9600     5.7120    -0.8130 C.3   1 <1>  -0.1600 
 21 C       -6.1450     0.1020     0.5230 C.3   1 <1>   0.1200 
 22 C       -6.1410    -0.6630    -0.7970 C.3   1 <1>  -0.2400 
 23 H        0.7080     2.4450    -1.0340 H     1 <1>   0.1500 
 24 H       -1.1750     4.9270     2.7510 H     1 <1>   0.1500 
 25 H       -3.2550     4.1010     2.4550 H     1 <1>   0.0800 
 26 H       -3.3410     2.4930     1.8210 H     1 <1>   0.0800 
 27 H        2.1270     3.8850     0.3030 H     1 <1>   0.1500 
 28 H        1.1930     5.1280     2.2070 H     1 <1>   0.1500 
 29 H       -5.6590     4.4360     1.6200 H     1 <1>   0.0800 
 30 H       -2.6070     5.5380    -0.0530 H     1 <1>   0.0800 
 31 H       -3.8840     6.0390     1.0270 H     1 <1>   0.0800 
 32 H       -7.2950     4.1560    -0.1850 H     1 <1>   0.0800 
 33 H       -6.0370     3.6170    -1.2570 H     1 <1>   0.0800 
 34 H       -4.1470     5.3130    -1.8970 H     1 <1>   0.0800 
 35 H       -4.2370     6.9200    -1.2380 H     1 <1>   0.0800 
 36 H       -6.2850     6.3720    -0.0270 H     1 <1>   0.0800 
 37 H       -6.4980     5.9650    -1.7100 H     1 <1>   0.0800 
 38 H       -7.1030     0.0340     1.0100 H     1 <1>   0.0800 
 39 H       -5.3750    -0.2630     1.1820 H     1 <1>   0.0800 
 40 H       -6.9040    -0.2790    -1.4500 H     1 <1>   0.0800 
 41 H       -6.3340    -1.7040    -0.6140 H     1 <1>   0.0800 
 42 H       -5.1810    -0.5690    -1.2720 H     1 <1>   0.0800 
@<TRIPOS>BOND
  1   1   2  1   
  2   2   3  1   
  3   2   4  1   
  4   2   5  1   
  5   5   6  ar  
  6   5   7  ar  
  7   6   8  ar  
  8   6   9  1   
  9   7  10  ar  
 10   7  23  1   
 11   8  11  ar  
 12   8  24  1   
 13   9  12  1   
 14   9  25  1   
 15   9  26  1   
 16  10  11  ar  
 17  10  27  1   
 18  11  28  1   
 19  12  13  1   
 20  12  14  1   
 21  13  15  1   
 22  13  16  1   
 23  13  29  1   
 24  14  17  1   
 25  14  30  1   
 26  14  31  1   
 27  15  18  2   
 28  15  19  1   
 29  16  20  1   
 30  16  32  1   
 31  16  33  1   
 32  17  20  1   
 33  17  34  1   
 34  17  35  1   
 35  19  21  1   
 36  20  36  1   
 37  20  37  1   
 38  21  22  1   
 39  21  38  1   
 40  21  39  1   
 41  22  40  1   
 42  22  41  1   
 43  22  42  1   
@<TRIPOS>SUBSTRUCTURE
  1 ****  12 GROUP 4 **** **** 0

# MOE 2024.06 (io_trps.svl 2023.06)
