@<TRIPOS>MOLECULE
NONAME
56 58 1 0 0 
SMALL
USER_CHARGES


@<TRIPOS>ATOM
  1 O        0.7510    -0.5750    -1.5560 O.3   1 <1>  -0.3630 
  2 C        1.8000    -0.8360    -0.7390 C.ar  1 <1>   0.0830 
  3 C       -0.4300    -0.0960    -0.9480 C.3   1 <1>   0.0400 
  4 C        1.7670    -1.7960     0.2770 C.ar  1 <1>   0.0830 
  5 C        2.9520    -0.0970    -0.9420 C.ar  1 <1>  -0.1500 
  6 O        0.6980    -2.5960     0.5060 O.3   1 <1>  -0.3630 
  7 C        2.8690    -1.9600     1.0970 C.ar  1 <1>  -0.1500 
  8 C        4.0630    -0.2730    -0.1290 C.ar  1 <1>  -0.1430 
  9 C        0.3780    -3.5280    -0.5050 C.3   1 <1>   0.0400 
 10 C        4.0170    -1.2070     0.9010 C.ar  1 <1>  -0.1430 
 11 C        5.2980     0.5760    -0.3830 C.3   1 <1>   0.4860 
 12 C        5.2130    -1.4360     1.8140 C.3   1 <1>  -0.0160 
 13 N        6.5050    -0.1050     0.1650 N.4   1 <1>  -0.9590 
 14 C        6.3080    -0.3840     1.6230 C.3   1 <1>   0.3430 
 15 C        7.7640     0.6040    -0.1860 C.3   1 <1>   0.4230 
 16 C        8.9470    -0.3460     0.0420 C.3   1 <1>  -0.1600 
 17 C        7.9030     1.9090     0.6070 C.3   1 <1>  -0.2400 
 18 C       10.2620     0.1610    -0.5710 C.3   1 <1>  -0.0170 
 19 C       11.3460    -0.8830    -0.3740 C.ar  1 <1>  -0.1430 
 20 C       11.5950    -1.8340    -1.3530 C.ar  1 <1>  -0.1500 
 21 C       12.0950    -0.8990     0.7930 C.ar  1 <1>  -0.1500 
 22 C       12.5770    -2.7920    -1.1690 C.ar  1 <1>  -0.1500 
 23 C       13.0770    -1.8560     0.9790 C.ar  1 <1>  -0.1500 
 24 C       13.3250    -2.8080     0.0040 C.ar  1 <1>   0.0830 
 25 O       14.3040    -3.7090     0.2660 O.3   1 <1>  -0.3630 
 26 C       14.6580    -4.7010    -0.6720 C.3   1 <1>   0.0400 
 27 H       -1.1090     0.2060    -1.7240 H     1 <1>   0.0800 
 28 H       -0.1850     0.7450    -0.3240 H     1 <1>   0.0800 
 29 H       -0.8750    -0.8790    -0.3610 H     1 <1>   0.0800 
 30 H        2.9520     0.6220    -1.7430 H     1 <1>   0.1500 
 31 H        2.8140    -2.6920     1.8840 H     1 <1>   0.1500 
 32 H       -0.4290    -4.1430    -0.1520 H     1 <1>   0.0800 
 33 H        1.2440    -4.1340    -0.7060 H     1 <1>   0.0800 
 34 H        0.0760    -3.0030    -1.3930 H     1 <1>   0.0800 
 35 H        5.1660     1.5360     0.0880 H     1 <1>   0.0800 
 36 H        5.4100     0.7290    -1.4440 H     1 <1>   0.0800 
 37 H        5.6230    -2.4110     1.6170 H     1 <1>   0.0800 
 38 H        4.8930    -1.4230     2.8420 H     1 <1>   0.0800 
 39 H        6.5240    -1.0200    -0.3030 H     1 <1>   0.4500 
 40 H        7.2220    -0.7410     2.0680 H     1 <1>   0.0800 
 41 H        6.0200     0.5250     2.1260 H     1 <1>   0.0800 
 42 H        7.7350     0.8470    -1.2370 H     1 <1>   0.0800 
 43 H        8.7280    -1.2980    -0.4110 H     1 <1>   0.0800 
 44 H        9.1050    -0.5050     1.0940 H     1 <1>   0.0800 
 45 H        8.0640     1.7210     1.6540 H     1 <1>   0.0800 
 46 H        7.0400     2.5380     0.4860 H     1 <1>   0.0800 
 47 H        8.7480     2.4650     0.2450 H     1 <1>   0.0800 
 48 H       10.5760     1.0780    -0.1030 H     1 <1>   0.0800 
 49 H       10.1380     0.3530    -1.6230 H     1 <1>   0.0800 
 50 H       11.0280    -1.8360    -2.2670 H     1 <1>   0.1500 
 51 H       11.9240    -0.1680     1.5640 H     1 <1>   0.1500 
 52 H       12.7470    -3.5130    -1.9450 H     1 <1>   0.1500 
 53 H       13.6600    -1.8710     1.8810 H     1 <1>   0.1500 
 54 H       15.4570    -5.2860    -0.2530 H     1 <1>   0.0800 
 55 H       14.9910    -4.2230    -1.5760 H     1 <1>   0.0800 
 56 H       13.8040    -5.3280    -0.8560 H     1 <1>   0.0800 
@<TRIPOS>BOND
  1   1   2  1   
  2   1   3  1   
  3   2   4  ar  
  4   2   5  ar  
  5   3  27  1   
  6   3  28  1   
  7   3  29  1   
  8   4   6  1   
  9   4   7  ar  
 10   5   8  ar  
 11   5  30  1   
 12   6   9  1   
 13   7  10  ar  
 14   7  31  1   
 15   8  10  ar  
 16   8  11  1   
 17   9  32  1   
 18   9  33  1   
 19   9  34  1   
 20  10  12  1   
 21  11  13  1   
 22  11  35  1   
 23  11  36  1   
 24  12  14  1   
 25  12  37  1   
 26  12  38  1   
 27  13  14  1   
 28  13  15  1   
 29  13  39  1   
 30  14  40  1   
 31  14  41  1   
 32  15  16  1   
 33  15  17  1   
 34  15  42  1   
 35  16  18  1   
 36  16  43  1   
 37  16  44  1   
 38  17  45  1   
 39  17  46  1   
 40  17  47  1   
 41  18  19  1   
 42  18  48  1   
 43  18  49  1   
 44  19  20  ar  
 45  19  21  ar  
 46  20  22  ar  
 47  20  50  1   
 48  21  23  ar  
 49  21  51  1   
 50  22  24  ar  
 51  22  52  1   
 52  23  24  ar  
 53  23  53  1   
 54  24  25  1   
 55  25  26  1   
 56  26  54  1   
 57  26  55  1   
 58  26  56  1   
@<TRIPOS>SUBSTRUCTURE
  1 ****  13 GROUP 4 **** **** 0

# MOE 2024.06 (io_trps.svl 2023.06)
