@<TRIPOS>MOLECULE
NONAME
26 26 1 0 0 
SMALL
USER_CHARGES


@<TRIPOS>ATOM
  1 O       -0.9090    -0.0760    -1.0820 O.2   1 <1>  -0.5700 
  2 C       -1.7930    -0.8900    -0.9220 C.2   1 <1>   0.5440 
  3 N       -3.0500    -0.4960    -1.2570 N.am  1 <1>  -0.7300 
  4 C       -1.4970    -2.2040    -0.3840 C.ar  1 <1>   0.0860 
  5 C       -4.3300    -1.0670    -0.7880 C.3   1 <1>   0.1400 
  6 C       -2.0800    -3.3710    -0.8580 C.ar  1 <1>  -0.1500 
  7 C       -0.5920    -2.3850     0.6510 C.ar  1 <1>  -0.1500 
  8 C       -5.2370     0.0580    -0.3060 C.3   1 <1>  -0.1600 
  9 C       -1.7650    -4.5910    -0.2910 C.ar  1 <1>   0.1600 
 10 C       -0.3420    -3.6490     1.1500 C.ar  1 <1>   0.1600 
 11 C       -6.5770    -0.5020     0.2010 C.3   1 <1>  -0.2660 
 12 N       -0.9130    -4.7570     0.7060 N.ar  1 <1>  -0.6200 
 13 C       -7.5100     0.5950     0.6500 C.2   1 <1>   0.9060 
 14 O       -8.1750     1.1800    -0.2080 O.co2 1 <1>  -0.9000 
 15 O       -7.5660     0.8640     1.8520 O.co2 1 <1>  -0.9000 
 16 H       -3.1190     0.4620    -1.6110 H     1 <1>   0.3700 
 17 H       -4.1560    -1.7560     0.0220 H     1 <1>   0.0800 
 18 H       -4.8040    -1.5930    -1.5990 H     1 <1>   0.0800 
 19 H       -2.7780    -3.3240    -1.6740 H     1 <1>   0.1500 
 20 H       -0.0860    -1.5300     1.0630 H     1 <1>   0.1500 
 21 H       -5.4350     0.7430    -1.1120 H     1 <1>   0.0800 
 22 H       -4.7620     0.5970     0.4970 H     1 <1>   0.0800 
 23 H       -2.2360    -5.4790    -0.6770 H     1 <1>   0.1500 
 24 H        0.3650    -3.7570     1.9560 H     1 <1>   0.1500 
 25 H       -6.4170    -1.1590     1.0350 H     1 <1>   0.0800 
 26 H       -7.0730    -1.0480    -0.5780 H     1 <1>   0.0800 
@<TRIPOS>BOND
  1   1   2  2   
  2   2   3  am  
  3   2   4  1   
  4   3   5  1   
  5   3  16  1   
  6   4   6  ar  
  7   4   7  ar  
  8   5   8  1   
  9   5  17  1   
 10   5  18  1   
 11   6   9  ar  
 12   6  19  1   
 13   7  10  ar  
 14   7  20  1   
 15   8  11  1   
 16   8  21  1   
 17   8  22  1   
 18   9  12  ar  
 19   9  23  1   
 20  10  12  ar  
 21  10  24  1   
 22  11  13  1   
 23  11  25  1   
 24  11  26  1   
 25  13  14  ar  
 26  13  15  ar  
@<TRIPOS>SUBSTRUCTURE
  1 ****   5 GROUP 4 **** **** 0

# MOE 2024.06 (io_trps.svl 2023.06)
