@<TRIPOS>MOLECULE
NONAME
44 48 1 0 0 
SMALL
USER_CHARGES


@<TRIPOS>ATOM
  1 O        0.4760     0.4530    -0.3690 O.2   1 <1>  -0.5700 
  2 C        0.9560    -0.6390    -0.2490 C.2   1 <1>   0.4480 
  3 C        0.2360    -1.9300    -0.6370 C.3   1 <1>   0.0610 
  4 C        2.3560    -0.8900     0.3090 C.3   1 <1>   0.0610 
  5 C        0.1760    -2.7980     0.6350 C.3   1 <1>   0.1100 
  6 C        1.1280    -2.6330    -1.6800 C.3   1 <1>   0.1100 
  7 C       -1.1780    -1.6970    -1.2030 C.3   1 <1>  -0.2400 
  8 C        2.1740    -1.8100     1.5320 C.3   1 <1>   0.1100 
  9 C        3.1290    -1.6450    -0.7890 C.3   1 <1>   0.1100 
 10 C        3.0980     0.4020     0.7070 C.3   1 <1>  -0.2400 
 11 N        1.5470    -3.0850     1.1260 N.3   1 <1>  -0.8100 
 12 N        2.4620    -2.9260    -1.0990 N.3   1 <1>  -0.8100 
 13 C        2.3390    -3.8430     0.0920 C.3   1 <1>   0.7440 
 14 C        1.7250    -5.2620    -0.2620 C.2   1 <1>   0.5690 
 15 C        3.7200    -4.3340     0.6250 C.ar  1 <1>  -0.1440 
 16 O        0.6350    -5.5240    -0.7290 O.2   1 <1>  -0.5700 
 17 N        2.6080    -6.2400     0.0310 N.am  1 <1>  -0.5470 
 18 C        3.7710    -5.7180     0.5470 C.ar  1 <1>   0.1170 
 19 C        4.8400    -3.6780     1.1330 C.ar  1 <1>  -0.1500 
 20 C        4.8780    -6.4450     0.9490 C.ar  1 <1>  -0.1500 
 21 C        5.9600    -4.3890     1.5430 C.ar  1 <1>  -0.1440 
 22 C        5.9760    -5.7730     1.4490 C.ar  1 <1>  -0.1500 
 23 C        7.1640    -3.6440     2.0910 C.3   1 <1>  -0.0970 
 24 H       -0.3560    -3.7120     0.4430 H     1 <1>   0.0800 
 25 H       -0.3740    -2.2770     1.4010 H     1 <1>   0.0800 
 26 H        0.6610    -3.5360    -2.0280 H     1 <1>   0.0800 
 27 H        1.2470    -1.9960    -2.5400 H     1 <1>   0.0800 
 28 H       -1.1300    -1.0810    -2.0830 H     1 <1>   0.0800 
 29 H       -1.7920    -1.1960    -0.4750 H     1 <1>   0.0800 
 30 H       -1.6420    -2.6330    -1.4600 H     1 <1>   0.0800 
 31 H        3.1040    -1.9960     2.0290 H     1 <1>   0.0800 
 32 H        1.5410    -1.3210     2.2530 H     1 <1>   0.0800 
 33 H        4.1490    -1.8150    -0.5100 H     1 <1>   0.0800 
 34 H        3.1590    -1.0400    -1.6800 H     1 <1>   0.0800 
 35 H        2.5410     0.9330     1.4590 H     1 <1>   0.0800 
 36 H        3.2030     1.0470    -0.1480 H     1 <1>   0.0800 
 37 H        4.0760     0.1780     1.0930 H     1 <1>   0.0800 
 38 H        2.3980    -7.2240    -0.1260 H     1 <1>   0.3700 
 39 H        4.8770    -2.6130     1.2240 H     1 <1>   0.1500 
 40 H        4.8800    -7.5170     0.8720 H     1 <1>   0.1500 
 41 H        6.8420    -6.3290     1.7640 H     1 <1>   0.1500 
 42 H        6.8520    -2.9400     2.8420 H     1 <1>   0.0800 
 43 H        7.6560    -3.1130     1.2970 H     1 <1>   0.0800 
 44 H        7.8670    -4.3250     2.5370 H     1 <1>   0.0800 
@<TRIPOS>BOND
  1   1   2  2   
  2   2   3  1   
  3   2   4  1   
  4   3   5  1   
  5   3   6  1   
  6   3   7  1   
  7   4   8  1   
  8   4   9  1   
  9   4  10  1   
 10   5  11  1   
 11   5  24  1   
 12   5  25  1   
 13   6  12  1   
 14   6  26  1   
 15   6  27  1   
 16   7  28  1   
 17   7  29  1   
 18   7  30  1   
 19   8  11  1   
 20   8  31  1   
 21   8  32  1   
 22   9  12  1   
 23   9  33  1   
 24   9  34  1   
 25  10  35  1   
 26  10  36  1   
 27  10  37  1   
 28  11  13  1   
 29  12  13  1   
 30  13  14  1   
 31  13  15  1   
 32  14  16  2   
 33  14  17  am  
 34  15  18  ar  
 35  15  19  ar  
 36  17  18  1   
 37  17  38  1   
 38  18  20  ar  
 39  19  21  ar  
 40  19  39  1   
 41  20  22  ar  
 42  20  40  1   
 43  21  22  ar  
 44  21  23  1   
 45  22  41  1   
 46  23  42  1   
 47  23  43  1   
 48  23  44  1   
@<TRIPOS>SUBSTRUCTURE
  1 ****  13 GROUP 4 **** **** 0

# MOE 2024.06 (io_trps.svl 2023.06)
