@<TRIPOS>MOLECULE
NONAME
38 41 1 0 0 
SMALL
USER_CHARGES


@<TRIPOS>ATOM
  1 O       -0.7030     2.0830    -2.6620 O.2   1 <1>  -0.5700 
  2 C       -1.0050     2.3170    -1.4810 C.2   1 <1>   0.7040 
  3 C       -2.2720     1.8320    -1.0040 C.cat 1 <1>   0.7510 
  4 C       -0.0860     3.1180    -0.6970 C.2   1 <1>   0.0550 
  5 N       -3.2590     1.3540    -1.8380 N.pl3 1 <1>  -0.7000 
  6 N       -2.7700     1.7180     0.2580 N.pl3 1 <1>  -0.8080 
  7 O        1.2120     3.1550    -1.0450 O.3   1 <1>  -0.2800 
  8 C       -0.2710     3.9270     0.3800 C.2   1 <1>  -0.1500 
  9 C       -4.3340     0.9730    -1.0960 C.2   1 <1>   0.1820 
 10 O       -2.1560     1.9260     1.3580 O.3   1 <1>  -0.4420 
 11 C       -4.0400     1.2010     0.2000 C.2   1 <1>   0.1820 
 12 C        1.8520     3.9650    -0.2050 C.ar  1 <1>   0.1400 
 13 C        0.9700     4.4840     0.7220 C.ar  1 <1>   0.0000 
 14 C       -5.5910     0.3720    -1.6950 C.3   1 <1>   0.0080 
 15 C       -4.8590     0.9730     1.4570 C.3   1 <1>   0.0080 
 16 C        3.2020     4.2910    -0.1980 C.ar  1 <1>  -0.1500 
 17 C        1.4410     5.3600     1.7020 C.ar  1 <1>  -0.1500 
 18 C       -6.8810     1.1110    -1.2940 C.3   1 <1>  -0.1600 
 19 C       -6.3270     0.5840     1.1970 C.3   1 <1>  -0.1600 
 20 C        3.6610     5.1590     0.7720 C.ar  1 <1>  -0.1500 
 21 C        2.7800     5.6910     1.7190 C.ar  1 <1>  -0.1500 
 22 C       -7.0150     1.5220     0.1880 C.3   1 <1>  -0.1600 
 23 H       -3.1070     1.2880    -2.8450 H     1 <1>   0.4500 
 24 H       -1.1840     4.1320     0.9130 H     1 <1>   0.1500 
 25 H       -5.6510    -0.6520    -1.3740 H     1 <1>   0.0800 
 26 H       -5.5110     0.3640    -2.7670 H     1 <1>   0.0800 
 27 H       -4.8340     1.8870     2.0250 H     1 <1>   0.0800 
 28 H       -4.3750     0.2180     2.0500 H     1 <1>   0.0800 
 29 H        3.8540     3.8650    -0.9380 H     1 <1>   0.1500 
 30 H        0.7530     5.7590     2.4260 H     1 <1>   0.1500 
 31 H       -7.7120     0.4760    -1.5490 H     1 <1>   0.0800 
 32 H       -6.9720     2.0000    -1.8940 H     1 <1>   0.0800 
 33 H       -6.8480     0.6470     2.1370 H     1 <1>   0.0800 
 34 H       -6.3930    -0.4390     0.8710 H     1 <1>   0.0800 
 35 H        4.7020     5.4310     0.8050 H     1 <1>   0.1500 
 36 H        3.1590     6.3650     2.4690 H     1 <1>   0.1500 
 37 H       -8.0650     1.5700     0.4230 H     1 <1>   0.0800 
 38 H       -6.6290     2.5190     0.3180 H     1 <1>   0.0800 
@<TRIPOS>BOND
  1   1   2  2   
  2   2   3  1   
  3   2   4  1   
  4   3   5  ar  
  5   3   6  ar  
  6   4   7  1   
  7   4   8  2   
  8   5   9  1   
  9   5  23  1   
 10   6  10  1   
 11   6  11  1   
 12   7  12  1   
 13   8  13  1   
 14   8  24  1   
 15   9  11  2   
 16   9  14  1   
 17  11  15  1   
 18  12  13  ar  
 19  12  16  ar  
 20  13  17  ar  
 21  14  18  1   
 22  14  25  1   
 23  14  26  1   
 24  15  19  1   
 25  15  27  1   
 26  15  28  1   
 27  16  20  ar  
 28  16  29  1   
 29  17  21  ar  
 30  17  30  1   
 31  18  22  1   
 32  18  31  1   
 33  18  32  1   
 34  19  22  1   
 35  19  33  1   
 36  19  34  1   
 37  20  21  ar  
 38  20  35  1   
 39  21  36  1   
 40  22  37  1   
 41  22  38  1   
@<TRIPOS>SUBSTRUCTURE
  1 ****   3 GROUP 4 **** **** 0

# MOE 2024.06 (io_trps.svl 2023.06)
