@<TRIPOS>MOLECULE
NONAME
41 42 1 0 0 
SMALL
USER_CHARGES


@<TRIPOS>ATOM
  1 S        0.1600    -1.0690     1.6800 S.o2  1 <1>   1.2950 
  2 O       -0.4950     0.1190     2.1910 O.2   1 <1>  -0.6500 
  3 O        0.6270    -2.0470     2.6460 O.2   1 <1>  -0.6500 
  4 N        1.5350    -0.5990     0.6680 N.pl3 1 <1>   0.3170 
  5 C       -0.9460    -1.9240     0.5300 C.ar  1 <1>  -0.0090 
  6 C        2.3290    -1.3910    -0.1120 C.2   1 <1>   0.0060 
  7 C        1.9990     0.6520     0.4290 C.2   1 <1>  -0.3020 
  8 C       -1.2450    -1.3910    -0.7190 C.ar  1 <1>   0.0830 
  9 C       -1.5140    -3.1460     0.8750 C.ar  1 <1>  -0.1500 
 10 N        3.2070    -0.7320    -0.8020 N.2   1 <1>  -0.5650 
 11 C        2.1840    -2.9120    -0.1600 C.3   1 <1>   0.0200 
 12 C        3.0050     0.5480    -0.4600 C.2   1 <1>   0.0460 
 13 O       -0.7000    -0.1970    -1.0480 O.3   1 <1>  -0.3630 
 14 C       -2.0790    -2.0740    -1.5980 C.ar  1 <1>  -0.1500 
 15 C       -2.3420    -3.8350     0.0060 C.ar  1 <1>  -0.1430 
 16 C        3.3350    -3.6100    -0.8960 C.3   1 <1>  -0.2400 
 17 C        3.8520     1.6470    -1.0550 C.3   1 <1>  -0.0590 
 18 C       -0.3820     0.1110    -2.3890 C.3   1 <1>   0.0400 
 19 C       -2.6220    -3.2920    -1.2360 C.ar  1 <1>  -0.1500 
 20 C       -2.9440    -5.1700     0.4150 C.3   1 <1>  -0.0170 
 21 C       -4.2740    -4.9590     1.1400 C.3   1 <1>  -0.2400 
 22 H        1.5770     1.5210     0.9020 H     1 <1>   0.1500 
 23 H       -1.3040    -3.5670     1.8450 H     1 <1>   0.1500 
 24 H        1.2630    -3.1640    -0.6550 H     1 <1>   0.0800 
 25 H        2.1450    -3.2980     0.8430 H     1 <1>   0.0800 
 26 H       -2.3230    -1.6650    -2.5610 H     1 <1>   0.1500 
 27 H        3.3780    -3.2770    -1.9180 H     1 <1>   0.0800 
 28 H        3.1940    -4.6760    -0.8840 H     1 <1>   0.0800 
 29 H        4.2710    -3.3770    -0.4200 H     1 <1>   0.0800 
 30 H        3.5480     2.6030    -0.6710 H     1 <1>   0.0800 
 31 H        3.7460     1.6460    -2.1240 H     1 <1>   0.0800 
 32 H        4.8840     1.4790    -0.8070 H     1 <1>   0.0800 
 33 H        0.2410     0.9880    -2.3900 H     1 <1>   0.0800 
 34 H       -1.2890     0.3080    -2.9300 H     1 <1>   0.0800 
 35 H        0.1560    -0.7150    -2.8210 H     1 <1>   0.0800 
 36 H       -3.2690    -3.8130    -1.9200 H     1 <1>   0.1500 
 37 H       -2.2610    -5.6950     1.0600 H     1 <1>   0.0800 
 38 H       -3.1020    -5.7820    -0.4570 H     1 <1>   0.0800 
 39 H       -4.1250    -4.3670     2.0260 H     1 <1>   0.0800 
 40 H       -4.6970    -5.9060     1.4250 H     1 <1>   0.0800 
 41 H       -4.9700    -4.4480     0.4980 H     1 <1>   0.0800 
@<TRIPOS>BOND
  1   1   2  2   
  2   1   3  2   
  3   1   4  1   
  4   1   5  1   
  5   4   6  1   
  6   4   7  1   
  7   5   8  ar  
  8   5   9  ar  
  9   6  10  2   
 10   6  11  1   
 11   7  12  2   
 12   7  22  1   
 13   8  13  1   
 14   8  14  ar  
 15   9  15  ar  
 16   9  23  1   
 17  10  12  1   
 18  11  16  1   
 19  11  24  1   
 20  11  25  1   
 21  12  17  1   
 22  13  18  1   
 23  14  19  ar  
 24  14  26  1   
 25  15  19  ar  
 26  15  20  1   
 27  16  27  1   
 28  16  28  1   
 29  16  29  1   
 30  17  30  1   
 31  17  31  1   
 32  17  32  1   
 33  18  33  1   
 34  18  34  1   
 35  18  35  1   
 36  19  36  1   
 37  20  21  1   
 38  20  37  1   
 39  20  38  1   
 40  21  39  1   
 41  21  40  1   
 42  21  41  1   
@<TRIPOS>SUBSTRUCTURE
  1 ****   5 GROUP 4 **** **** 0

# MOE 2024.06 (io_trps.svl 2023.06)
