@<TRIPOS>MOLECULE
NONAME
43 44 1 0 0 
SMALL
USER_CHARGES


@<TRIPOS>ATOM
  1 CL       0.2370     0.7920    -0.4540 Cl    1 <1>  -0.1770 
  2 C        1.8800     0.2700    -0.1750 C.ar  1 <1>   0.1770 
  3 C        2.5950    -0.2990    -1.2120 C.ar  1 <1>  -0.1500 
  4 C        2.4400     0.4340     1.0780 C.ar  1 <1>  -0.1500 
  5 C        3.8980    -0.7150    -0.9940 C.ar  1 <1>  -0.1500 
  6 C        3.7430     0.0170     1.2940 C.ar  1 <1>  -0.1500 
  7 C        4.4770    -0.5570     0.2650 C.ar  1 <1>   0.0830 
  8 O        5.7440    -0.9370     0.5640 O.3   1 <1>  -0.3630 
  9 C        6.5660    -1.5790    -0.3890 C.3   1 <1>   0.1200 
 10 C        7.9190    -1.8840     0.2660 C.3   1 <1>   0.2000 
 11 O        8.4250    -0.7120     0.8300 O.3   1 <1>  -0.6800 
 12 C        8.9540    -2.4430    -0.7350 C.3   1 <1>   0.3430 
 13 N       10.3430    -2.2200    -0.2320 N.4   1 <1>  -0.9590 
 14 C       11.3930    -2.1180    -1.2910 C.3   1 <1>   0.3430 
 15 C       10.7680    -3.1510     0.8700 C.3   1 <1>   0.3430 
 16 C       12.7400    -1.6290    -0.6950 C.3   1 <1>   0.2000 
 17 C       12.2900    -3.0890     1.1670 C.3   1 <1>   0.2000 
 18 O       12.8420    -1.8950     0.6820 O.3   1 <1>  -0.5600 
 19 C       12.9010    -0.1170    -0.8400 C.3   1 <1>  -0.2400 
 20 C       13.0770    -4.2820     0.6080 C.3   1 <1>  -0.2400 
 21 H        2.1310    -0.4130    -2.1760 H     1 <1>   0.1500 
 22 H        1.8620     0.8790     1.8680 H     1 <1>   0.1500 
 23 H        4.4350    -1.1530    -1.8130 H     1 <1>   0.1500 
 24 H        4.1930     0.1370     2.2630 H     1 <1>   0.1500 
 25 H        6.6900    -0.9200    -1.2300 H     1 <1>   0.0800 
 26 H        6.0780    -2.4870    -0.7000 H     1 <1>   0.0800 
 27 H        7.7690    -2.5930     1.0620 H     1 <1>   0.0800 
 28 H        7.6890    -0.2420     1.2890 H     1 <1>   0.4000 
 29 H        8.8290    -1.9180    -1.6680 H     1 <1>   0.0800 
 30 H        8.7750    -3.4890    -0.9180 H     1 <1>   0.0800 
 31 H       10.3000    -1.2850     0.2230 H     1 <1>   0.4500 
 32 H       11.0840    -1.4370    -2.0660 H     1 <1>   0.0800 
 33 H       11.5450    -3.0830    -1.7440 H     1 <1>   0.0800 
 34 H       10.5110    -4.1660     0.6180 H     1 <1>   0.0800 
 35 H       10.2330    -2.8990     1.7710 H     1 <1>   0.0800 
 36 H       13.5590    -2.1190    -1.1930 H     1 <1>   0.0800 
 37 H       12.4260    -3.0760     2.2350 H     1 <1>   0.0800 
 38 H       12.1130     0.4030    -0.3250 H     1 <1>   0.0800 
 39 H       12.8830     0.1660    -1.8770 H     1 <1>   0.0800 
 40 H       13.8470     0.1890    -0.4270 H     1 <1>   0.0800 
 41 H       12.9350    -4.4040    -0.4490 H     1 <1>   0.0800 
 42 H       12.7580    -5.1870     1.0940 H     1 <1>   0.0800 
 43 H       14.1260    -4.1510     0.8130 H     1 <1>   0.0800 
@<TRIPOS>BOND
  1   1   2  1   
  2   2   3  ar  
  3   2   4  ar  
  4   3   5  ar  
  5   3  21  1   
  6   4   6  ar  
  7   4  22  1   
  8   5   7  ar  
  9   5  23  1   
 10   6   7  ar  
 11   6  24  1   
 12   7   8  1   
 13   8   9  1   
 14   9  10  1   
 15   9  25  1   
 16   9  26  1   
 17  10  11  1   
 18  10  12  1   
 19  10  27  1   
 20  11  28  1   
 21  12  13  1   
 22  12  29  1   
 23  12  30  1   
 24  13  14  1   
 25  13  15  1   
 26  13  31  1   
 27  14  16  1   
 28  14  32  1   
 29  14  33  1   
 30  15  17  1   
 31  15  34  1   
 32  15  35  1   
 33  16  18  1   
 34  16  19  1   
 35  16  36  1   
 36  17  18  1   
 37  17  20  1   
 38  17  37  1   
 39  19  38  1   
 40  19  39  1   
 41  19  40  1   
 42  20  41  1   
 43  20  42  1   
 44  20  43  1   
@<TRIPOS>SUBSTRUCTURE
  1 ****  10 GROUP 4 **** **** 0

# MOE 2024.06 (io_trps.svl 2023.06)
