@<TRIPOS>MOLECULE
NONAME
44 46 1 0 0 
SMALL
USER_CHARGES


@<TRIPOS>ATOM
  1 N       -0.2860    -0.3960    -0.0190 N.4   1 <1>  -0.9590 
  2 C        0.3940     0.3290     1.0960 C.3   1 <1>   0.3430 
  3 C        0.5990    -0.6300    -1.1990 C.3   1 <1>   0.3430 
  4 C       -1.5210     0.3460    -0.4390 C.3   1 <1>   0.2630 
  5 C        1.6390    -0.4410     1.5390 C.3   1 <1>  -0.1600 
  6 C        1.8480    -1.4060    -0.7750 C.3   1 <1>  -0.1600 
  7 C        2.5820    -0.6700     0.3540 C.3   1 <1>   0.4230 
  8 N        3.8290    -1.3770     0.8000 N.4   1 <1>  -0.9590 
  9 C        4.9280    -1.3340    -0.2260 C.3   1 <1>   0.4230 
 10 C        3.6070    -2.7950     1.2610 C.3   1 <1>   0.2630 
 11 C        6.3490    -1.9470     0.3190 C.3   1 <1>  -0.0800 
 12 C        5.2380     0.2200    -0.7710 C.3   1 <1>  -0.1600 
 13 C        6.6000    -0.7680    -0.2640 C.3   1 <1>  -0.1600 
 14 C        7.9720    -1.7560     0.2680 C.3   1 <1>  -0.1600 
 15 C        6.8610     0.4270    -0.8000 C.3   1 <1>  -0.0800 
 16 C        8.2850    -0.2210    -0.3170 C.3   1 <1>  -0.1600 
 17 H       -0.6040    -1.3130     0.3360 H     1 <1>   0.4500 
 18 H       -0.2820     0.4340     1.9310 H     1 <1>   0.0800 
 19 H        0.6740     1.3180     0.7690 H     1 <1>   0.0800 
 20 H        0.8880     0.3170    -1.6290 H     1 <1>   0.0800 
 21 H        0.0660    -1.1880    -1.9530 H     1 <1>   0.0800 
 22 H       -1.2650     1.3210    -0.8230 H     1 <1>   0.0800 
 23 H       -2.1880     0.4730     0.3990 H     1 <1>   0.0800 
 24 H       -2.0440    -0.1990    -1.2090 H     1 <1>   0.0800 
 25 H        1.3260    -1.3710     1.9780 H     1 <1>   0.0800 
 26 H        2.1410     0.1380     2.2940 H     1 <1>   0.0800 
 27 H        2.4880    -1.4980    -1.6330 H     1 <1>   0.0800 
 28 H        1.5470    -2.3920    -0.4700 H     1 <1>   0.0800 
 29 H        2.8580     0.3030    -0.0190 H     1 <1>   0.0800 
 30 H        4.2090    -0.8530     1.6030 H     1 <1>   0.4500 
 31 H        4.6320    -1.9260    -1.0780 H     1 <1>   0.0800 
 32 H        3.2800    -3.4130     0.4410 H     1 <1>   0.0800 
 33 H        2.8650    -2.8310     2.0420 H     1 <1>   0.0800 
 34 H        4.5200    -3.2150     1.6530 H     1 <1>   0.0800 
 35 H        6.1960    -2.0100     1.3870 H     1 <1>   0.0800 
 36 H        4.8120     0.9670    -0.1200 H     1 <1>   0.0800 
 37 H        4.8280     0.3600    -1.7590 H     1 <1>   0.0800 
 38 H        6.7070    -1.2680    -1.3260 H     1 <1>   0.0800 
 39 H        6.5240    -0.2550     0.7960 H     1 <1>   0.0800 
 40 H        8.4170    -2.4960    -0.3830 H     1 <1>   0.0800 
 41 H        8.4140    -1.8830     1.2440 H     1 <1>   0.0800 
 42 H        7.0410     0.5470    -1.8610 H     1 <1>   0.0800 
 43 H        8.9900    -0.2650    -1.1330 H     1 <1>   0.0800 
 44 H        8.7290     0.3890     0.4560 H     1 <1>   0.0800 
@<TRIPOS>BOND
  1   1   2  1   
  2   1   3  1   
  3   1   4  1   
  4   1  17  1   
  5   2   5  1   
  6   2  18  1   
  7   2  19  1   
  8   3   6  1   
  9   3  20  1   
 10   3  21  1   
 11   4  22  1   
 12   4  23  1   
 13   4  24  1   
 14   5   7  1   
 15   5  25  1   
 16   5  26  1   
 17   6   7  1   
 18   6  27  1   
 19   6  28  1   
 20   7   8  1   
 21   7  29  1   
 22   8   9  1   
 23   8  10  1   
 24   8  30  1   
 25   9  11  1   
 26   9  12  1   
 27   9  31  1   
 28  10  32  1   
 29  10  33  1   
 30  10  34  1   
 31  11  13  1   
 32  11  14  1   
 33  11  35  1   
 34  12  15  1   
 35  12  36  1   
 36  12  37  1   
 37  13  15  1   
 38  13  38  1   
 39  13  39  1   
 40  14  16  1   
 41  14  40  1   
 42  14  41  1   
 43  15  16  1   
 44  15  42  1   
 45  16  43  1   
 46  16  44  1   
@<TRIPOS>SUBSTRUCTURE
  1 ****   8 GROUP 4 **** **** 0

# MOE 2024.06 (io_trps.svl 2023.06)
