@<TRIPOS>MOLECULE
NONAME
39 40 1 0 0 
SMALL
USER_CHARGES


@<TRIPOS>ATOM
  1 BR      -0.2530    -0.7200     2.1760 Br    1 <1>  -0.1110 
  2 C       -0.8100    -1.7600     0.6480 C.ar  1 <1>   0.1110 
  3 C        0.1300    -2.4640    -0.0940 C.ar  1 <1>   0.0830 
  4 C       -2.1570    -1.7910     0.3360 C.ar  1 <1>  -0.1500 
  5 O        1.4480    -2.4320     0.2220 O.3   1 <1>  -0.2320 
  6 C       -0.2990    -3.2300    -1.1660 C.ar  1 <1>  -0.1500 
  7 C       -2.5730    -2.5540    -0.7430 C.ar  1 <1>  -0.1500 
  8 C        2.2210    -1.3800    -0.0320 C.2   1 <1>   0.6590 
  9 C       -1.6470    -3.2710    -1.4890 C.ar  1 <1>  -0.1500 
 10 O        1.8290    -0.4180    -0.6430 O.2   1 <1>  -0.5700 
 11 C        3.6420    -1.4730     0.5250 C.3   1 <1>  -0.0190 
 12 C        4.3870    -0.1250     0.5050 C.3   1 <1>  -0.1600 
 13 C        4.4760    -2.5210    -0.2300 C.3   1 <1>  -0.1600 
 14 C        5.8180    -0.2780     1.0230 C.3   1 <1>   0.1960 
 15 C        5.9130    -2.5850     0.2960 C.3   1 <1>   0.1960 
 16 N        6.5450    -1.2650     0.2170 N.am  1 <1>  -0.8490 
 17 S        8.1920    -1.3330     0.6190 S.o2  1 <1>   1.3330 
 18 O        8.3040    -1.0410     2.0310 O.2   1 <1>  -0.6500 
 19 O        8.7300    -2.5700     0.0990 O.2   1 <1>  -0.6500 
 20 C        8.8900     0.0240    -0.3360 C.3   1 <1>  -0.0550 
 21 C       10.4090     0.2030    -0.1690 C.3   1 <1>  -0.2400 
 22 H       -2.8620    -1.2330     0.9250 H     1 <1>   0.1500 
 23 H        0.4150    -3.7860    -1.7470 H     1 <1>   0.1500 
 24 H       -3.6170    -2.5920    -1.0040 H     1 <1>   0.1500 
 25 H       -1.9790    -3.8630    -2.3250 H     1 <1>   0.1500 
 26 H        3.5550    -1.7860     1.5500 H     1 <1>   0.0800 
 27 H        3.8610     0.5880     1.1140 H     1 <1>   0.0800 
 28 H        4.4210     0.2640    -0.4990 H     1 <1>   0.0800 
 29 H        4.5050    -2.2780    -1.2790 H     1 <1>   0.0800 
 30 H        4.0240    -3.4920    -0.1300 H     1 <1>   0.0800 
 31 H        5.8020    -0.5860     2.0560 H     1 <1>   0.0800 
 32 H        6.3130     0.6770     0.9670 H     1 <1>   0.0800 
 33 H        6.4610    -3.2910    -0.3070 H     1 <1>   0.0800 
 34 H        5.9270    -2.9360     1.3160 H     1 <1>   0.0800 
 35 H        8.4070     0.9370    -0.0510 H     1 <1>   0.0800 
 36 H        8.6770    -0.1440    -1.3740 H     1 <1>   0.0800 
 37 H       10.6490     0.3970     0.8620 H     1 <1>   0.0800 
 38 H       10.7560     1.0260    -0.7680 H     1 <1>   0.0800 
 39 H       10.9230    -0.6920    -0.4780 H     1 <1>   0.0800 
@<TRIPOS>BOND
  1   1   2  1   
  2   2   3  ar  
  3   2   4  ar  
  4   3   5  1   
  5   3   6  ar  
  6   4   7  ar  
  7   4  22  1   
  8   5   8  1   
  9   6   9  ar  
 10   6  23  1   
 11   7   9  ar  
 12   7  24  1   
 13   8  10  2   
 14   8  11  1   
 15   9  25  1   
 16  11  12  1   
 17  11  13  1   
 18  11  26  1   
 19  12  14  1   
 20  12  27  1   
 21  12  28  1   
 22  13  15  1   
 23  13  29  1   
 24  13  30  1   
 25  14  16  1   
 26  14  31  1   
 27  14  32  1   
 28  15  16  1   
 29  15  33  1   
 30  15  34  1   
 31  16  17  am  
 32  17  18  2   
 33  17  19  2   
 34  17  20  1   
 35  20  21  1   
 36  20  35  1   
 37  20  36  1   
 38  21  37  1   
 39  21  38  1   
 40  21  39  1   
@<TRIPOS>SUBSTRUCTURE
  1 ****  11 GROUP 4 **** **** 0

# MOE 2024.06 (io_trps.svl 2023.06)
