@<TRIPOS>MOLECULE
NONAME
37 37 1 0 0 
SMALL
USER_CHARGES


@<TRIPOS>ATOM
  1 O       -8.1100     4.3430    -0.1290 O.3   1 <1>  -0.3630 
  2 C       -9.3280     3.7360    -0.0900 C.ar  1 <1>   0.0830 
  3 C       -6.9120     3.6130    -0.0820 C.3   1 <1>   0.1200 
  4 C      -10.4640     4.5460    -0.0440 C.ar  1 <1>  -0.1440 
  5 C       -9.4620     2.3490    -0.0890 C.ar  1 <1>  -0.1500 
  6 C       -5.7720     4.6310    -0.0740 C.3   1 <1>   0.3430 
  7 C      -11.7220     3.9540     0.0240 C.ar  1 <1>  -0.1440 
  8 C      -10.3380     6.0710    -0.0580 C.3   1 <1>  -0.0970 
  9 C      -10.7130     1.7650    -0.0340 C.ar  1 <1>  -0.1440 
 10 N       -4.4340     3.9660    -0.0150 N.4   1 <1>  -0.9060 
 11 C      -11.8340     2.5720     0.0250 C.ar  1 <1>  -0.1500 
 12 C      -13.0010     4.7780     0.1000 C.3   1 <1>  -0.0970 
 13 C      -10.8680     0.2550    -0.0320 C.3   1 <1>  -0.0970 
 14 C       -3.3280     4.9480    -0.0050 C.3   1 <1>   0.3430 
 15 C       -2.0160     4.1820     0.0570 C.3   1 <1>  -0.2400 
 16 H       -6.8710     2.9870    -0.9560 H     1 <1>   0.0800 
 17 H       -6.9160     3.0260     0.8200 H     1 <1>   0.0800 
 18 H       -8.6100     1.7020    -0.1310 H     1 <1>   0.1500 
 19 H       -5.8940     5.2760     0.7810 H     1 <1>   0.0800 
 20 H       -5.8400     5.2300    -0.9680 H     1 <1>   0.0800 
 21 H       -9.3840     6.3930    -0.4300 H     1 <1>   0.0800 
 22 H      -10.4630     6.4510     0.9400 H     1 <1>   0.0800 
 23 H      -11.0860     6.5070    -0.6930 H     1 <1>   0.0800 
 24 H       -4.3150     3.3420    -0.8230 H     1 <1>   0.4500 
 25 H       -4.3670     3.3840     0.8300 H     1 <1>   0.4500 
 26 H      -12.8070     2.1150     0.0740 H     1 <1>   0.1500 
 27 H      -12.9250     5.5130     0.8810 H     1 <1>   0.0800 
 28 H      -13.8510     4.1550     0.3120 H     1 <1>   0.0800 
 29 H      -13.1720     5.2750    -0.8380 H     1 <1>   0.0800 
 30 H      -10.0160    -0.2170    -0.4870 H     1 <1>   0.0800 
 31 H      -11.7450    -0.0300    -0.5840 H     1 <1>   0.0800 
 32 H      -10.9640    -0.1000     0.9780 H     1 <1>   0.0800 
 33 H       -3.4130     5.5980     0.8530 H     1 <1>   0.0800 
 34 H       -3.3570     5.5530    -0.8980 H     1 <1>   0.0800 
 35 H       -1.9540     3.5920     0.9550 H     1 <1>   0.0800 
 36 H       -1.1980     4.8810     0.0650 H     1 <1>   0.0800 
 37 H       -1.8980     3.5470    -0.8040 H     1 <1>   0.0800 
@<TRIPOS>BOND
  1   1   2  1   
  2   1   3  1   
  3   2   4  ar  
  4   2   5  ar  
  5   3   6  1   
  6   3  16  1   
  7   3  17  1   
  8   4   7  ar  
  9   4   8  1   
 10   5   9  ar  
 11   5  18  1   
 12   6  10  1   
 13   6  19  1   
 14   6  20  1   
 15   7  11  ar  
 16   7  12  1   
 17   8  21  1   
 18   8  22  1   
 19   8  23  1   
 20   9  11  ar  
 21   9  13  1   
 22  10  14  1   
 23  10  24  1   
 24  10  25  1   
 25  11  26  1   
 26  12  27  1   
 27  12  28  1   
 28  12  29  1   
 29  13  30  1   
 30  13  31  1   
 31  13  32  1   
 32  14  15  1   
 33  14  33  1   
 34  14  34  1   
 35  15  35  1   
 36  15  36  1   
 37  15  37  1   
@<TRIPOS>SUBSTRUCTURE
  1 ****   1 GROUP 4 **** **** 0

# MOE 2024.06 (io_trps.svl 2023.06)
