@<TRIPOS>MOLECULE
NONAME
38 39 1 0 0 
SMALL
USER_CHARGES


@<TRIPOS>ATOM
  1 S        0.4400    -0.1720    -0.2040 S.o2  1 <1>   1.0900 
  2 O       -0.5410    -0.4420    -1.2300 O.2   1 <1>  -0.6500 
  3 O        1.2120    -1.2300     0.4050 O.2   1 <1>  -0.6500 
  4 C        1.5340     1.1250    -0.7300 C.3   1 <1>  -0.0550 
  5 C       -0.3510     0.7740     1.0800 C.3   1 <1>  -0.0550 
  6 C        1.0330     2.4490    -0.1280 C.3   1 <1>   0.3000 
  7 C        0.4480     2.0690     1.2510 C.3   1 <1>  -0.1600 
  8 N        2.1480     3.4450     0.0340 N.am  1 <1>  -0.6600 
  9 C       -0.0490     3.0760    -1.0200 C.3   1 <1>  -0.2400 
 10 C        3.1790     3.5770    -0.8840 C.2   1 <1>   0.5440 
 11 C        1.9590     4.5180     1.0650 C.3   1 <1>   0.0600 
 12 O        3.0200     3.1780    -2.0220 O.2   1 <1>  -0.5700 
 13 C        4.4430     4.1990    -0.5250 C.ar  1 <1>   0.0860 
 14 C        5.0640     5.1060    -1.3820 C.ar  1 <1>  -0.1500 
 15 C        5.0850     3.9140     0.6810 C.ar  1 <1>  -0.1500 
 16 C        6.2580     5.7150    -1.0450 C.ar  1 <1>  -0.1500 
 17 C        6.2790     4.5210     1.0230 C.ar  1 <1>  -0.1500 
 18 C        6.8720     5.4290     0.1630 C.ar  1 <1>  -0.1430 
 19 C        8.1850     6.0960     0.5330 C.3   1 <1>  -0.0970 
 20 H        1.5750     1.1730    -1.8010 H     1 <1>   0.0800 
 21 H        2.5170     0.9210    -0.3540 H     1 <1>   0.0800 
 22 H       -0.3970     0.2220     1.9990 H     1 <1>   0.0800 
 23 H       -1.3530     1.0140     0.7750 H     1 <1>   0.0800 
 24 H        1.2580     1.8720     1.9330 H     1 <1>   0.0800 
 25 H       -0.1790     2.8420     1.6580 H     1 <1>   0.0800 
 26 H       -0.8590     2.3920    -1.1950 H     1 <1>   0.0800 
 27 H        0.3680     3.3380    -1.9760 H     1 <1>   0.0800 
 28 H       -0.4510     3.9640    -0.5690 H     1 <1>   0.0800 
 29 H        0.9410     4.8640     1.0620 H     1 <1>   0.0800 
 30 H        2.5920     5.3640     0.8590 H     1 <1>   0.0800 
 31 H        2.2030     4.1370     2.0410 H     1 <1>   0.0800 
 32 H        4.5970     5.3300    -2.3260 H     1 <1>   0.1500 
 33 H        4.6400     3.2030     1.3540 H     1 <1>   0.1500 
 34 H        6.7110     6.4120    -1.7290 H     1 <1>   0.1500 
 35 H        6.7510     4.2810     1.9600 H     1 <1>   0.1500 
 36 H        8.2430     7.0780     0.0990 H     1 <1>   0.0800 
 37 H        9.0070     5.5060     0.1700 H     1 <1>   0.0800 
 38 H        8.2710     6.1920     1.6010 H     1 <1>   0.0800 
@<TRIPOS>BOND
  1   1   2  2   
  2   1   3  2   
  3   1   4  1   
  4   1   5  1   
  5   4   6  1   
  6   4  20  1   
  7   4  21  1   
  8   5   7  1   
  9   5  22  1   
 10   5  23  1   
 11   6   7  1   
 12   6   8  1   
 13   6   9  1   
 14   7  24  1   
 15   7  25  1   
 16   8  10  am  
 17   8  11  1   
 18   9  26  1   
 19   9  27  1   
 20   9  28  1   
 21  10  12  2   
 22  10  13  1   
 23  11  29  1   
 24  11  30  1   
 25  11  31  1   
 26  13  14  ar  
 27  13  15  ar  
 28  14  16  ar  
 29  14  32  1   
 30  15  17  ar  
 31  15  33  1   
 32  16  18  ar  
 33  16  34  1   
 34  17  18  ar  
 35  17  35  1   
 36  18  19  1   
 37  19  36  1   
 38  19  37  1   
 39  19  38  1   
@<TRIPOS>SUBSTRUCTURE
  1 ****   8 GROUP 4 **** **** 0

# MOE 2024.06 (io_trps.svl 2023.06)
