@<TRIPOS>MOLECULE
NONAME
45 46 1 0 0 
SMALL
USER_CHARGES


@<TRIPOS>ATOM
  1 CL       0.1410    -1.2120     0.2700 Cl    1 <1>  -0.1770 
  2 C       -0.7410     0.2620    -0.0700 C.ar  1 <1>   0.1770 
  3 C       -0.2630     1.5260     0.2980 C.ar  1 <1>   0.0830 
  4 C       -1.9640     0.1200    -0.7060 C.ar  1 <1>  -0.1500 
  5 O        0.9260     1.7610     0.9100 O.3   1 <1>  -0.3630 
  6 C       -1.0480     2.6390     0.0380 C.ar  1 <1>  -0.1500 
  7 C       -2.7340     1.2400    -0.9740 C.ar  1 <1>  -0.1500 
  8 C        2.1040     1.1510     0.4240 C.3   1 <1>   0.1200 
  9 C       -2.2670     2.4860    -0.5940 C.ar  1 <1>   0.1770 
 10 C        3.2770     2.0780     0.7280 C.3   1 <1>   0.1200 
 11 CL      -3.2400     3.8960    -0.9240 Cl    1 <1>  -0.1770 
 12 O        4.4460     1.4960     0.2340 O.3   1 <1>  -0.5600 
 13 C        5.5980     2.2350     0.4680 C.3   1 <1>   0.1200 
 14 C        6.7730     1.4400    -0.1150 C.3   1 <1>   0.3430 
 15 N        8.1010     2.0940     0.1260 N.4   1 <1>  -0.9590 
 16 C        8.2480     3.3760    -0.6290 C.3   1 <1>   0.3430 
 17 C        9.2020     1.1450    -0.2080 C.3   1 <1>   0.3430 
 18 C        9.5740     4.0420    -0.2610 C.3   1 <1>  -0.1600 
 19 C       10.5490     1.7620     0.1700 C.3   1 <1>  -0.1600 
 20 C       10.7670     3.1130    -0.5270 C.3   1 <1>  -0.0800 
 21 C       12.0720     3.7610    -0.0540 C.3   1 <1>  -0.2400 
 22 H       -2.3090    -0.8600    -0.9830 H     1 <1>   0.1500 
 23 H       -0.7090     3.6170     0.3240 H     1 <1>   0.1500 
 24 H       -3.6870     1.1530    -1.4670 H     1 <1>   0.1500 
 25 H        2.0070     1.0000    -0.6370 H     1 <1>   0.0800 
 26 H        2.2340     0.2130     0.9340 H     1 <1>   0.0800 
 27 H        3.3740     2.2090     1.7920 H     1 <1>   0.0800 
 28 H        3.1290     3.0280     0.2430 H     1 <1>   0.0800 
 29 H        5.7110     2.3590     1.5310 H     1 <1>   0.0800 
 30 H        5.4900     3.1880    -0.0180 H     1 <1>   0.0800 
 31 H        6.6170     1.3150    -1.1740 H     1 <1>   0.0800 
 32 H        6.7690     0.4640     0.3430 H     1 <1>   0.0800 
 33 H        8.1880     2.3080     1.1280 H     1 <1>   0.4500 
 34 H        7.4380     4.0460    -0.3910 H     1 <1>   0.0800 
 35 H        8.2260     3.1800    -1.6890 H     1 <1>   0.0800 
 36 H        9.1900     0.9270    -1.2640 H     1 <1>   0.0800 
 37 H        9.0700     0.2190     0.3300 H     1 <1>   0.0800 
 38 H        9.5510     4.3330     0.7750 H     1 <1>   0.0800 
 39 H        9.6850     4.9400    -0.8440 H     1 <1>   0.0800 
 40 H       11.3340     1.0830    -0.1160 H     1 <1>   0.0800 
 41 H       10.6000     1.8790     1.2380 H     1 <1>   0.0800 
 42 H       10.8430     2.9450    -1.5900 H     1 <1>   0.0800 
 43 H       12.0500     3.9500     1.0060 H     1 <1>   0.0800 
 44 H       12.2340     4.6950    -0.5630 H     1 <1>   0.0800 
 45 H       12.9090     3.1170    -0.2660 H     1 <1>   0.0800 
@<TRIPOS>BOND
  1   1   2  1   
  2   2   3  ar  
  3   2   4  ar  
  4   3   5  1   
  5   3   6  ar  
  6   4   7  ar  
  7   4  22  1   
  8   5   8  1   
  9   6   9  ar  
 10   6  23  1   
 11   7   9  ar  
 12   7  24  1   
 13   8  10  1   
 14   8  25  1   
 15   8  26  1   
 16   9  11  1   
 17  10  12  1   
 18  10  27  1   
 19  10  28  1   
 20  12  13  1   
 21  13  14  1   
 22  13  29  1   
 23  13  30  1   
 24  14  15  1   
 25  14  31  1   
 26  14  32  1   
 27  15  16  1   
 28  15  17  1   
 29  15  33  1   
 30  16  18  1   
 31  16  34  1   
 32  16  35  1   
 33  17  19  1   
 34  17  36  1   
 35  17  37  1   
 36  18  20  1   
 37  18  38  1   
 38  18  39  1   
 39  19  20  1   
 40  19  40  1   
 41  19  41  1   
 42  20  21  1   
 43  20  42  1   
 44  21  43  1   
 45  21  44  1   
 46  21  45  1   
@<TRIPOS>SUBSTRUCTURE
  1 ****  12 GROUP 4 **** **** 0

# MOE 2024.06 (io_trps.svl 2023.06)
