@<TRIPOS>MOLECULE
NONAME
49 51 1 0 0 
SMALL
USER_CHARGES


@<TRIPOS>ATOM
  1 F       -0.6100     1.5150    -1.9120 F     1 <1>  -0.1900 
  2 C       -1.5080     1.5940    -0.9570 C.ar  1 <1>   0.1900 
  3 C       -1.2780     2.4370     0.1380 C.ar  1 <1>   0.1000 
  4 C       -2.6510     0.8300    -1.0880 C.ar  1 <1>  -0.1500 
  5 N       -0.1320     3.2280     0.3070 N.pl3 1 <1>  -0.8380 
  6 C       -2.2640     2.4780     1.1150 C.ar  1 <1>  -0.1500 
  7 C       -3.6140     0.8940    -0.0960 C.ar  1 <1>  -0.1500 
  8 C        0.0120     4.3460    -0.6690 C.3   1 <1>   0.2090 
  9 C        1.1310     2.4680     0.5390 C.3   1 <1>   0.2090 
 10 C       -3.4180     1.7180     1.0020 C.ar  1 <1>  -0.1500 
 11 C        1.1880     5.2700    -0.2910 C.3   1 <1>   0.3430 
 12 C        2.2930     3.4150     0.9030 C.3   1 <1>   0.3430 
 13 N        2.4960     4.5260    -0.1070 N.4   1 <1>  -0.9590 
 14 C        3.6360     5.4310     0.2440 C.3   1 <1>   0.4230 
 15 C        3.8090     6.5130    -0.8370 C.3   1 <1>  -0.1600 
 16 C        4.9370     4.6190     0.3840 C.3   1 <1>  -0.1600 
 17 C        5.0300     7.4060    -0.5700 C.3   1 <1>  -0.1600 
 18 C        6.1590     5.5130     0.6410 C.3   1 <1>  -0.1600 
 19 C        6.3230     6.5870    -0.4470 C.3   1 <1>  -0.0800 
 20 C        7.5060     7.5300    -0.1580 C.3   1 <1>  -0.1600 
 21 C        8.8690     6.8250    -0.1820 C.3   1 <1>  -0.2400 
 22 H       -2.7840     0.1970    -1.9470 H     1 <1>   0.1500 
 23 H       -2.1220     3.1130     1.9710 H     1 <1>   0.1500 
 24 H       -4.5140     0.3070    -0.1760 H     1 <1>   0.1500 
 25 H       -0.8990     4.9190    -0.6830 H     1 <1>   0.0800 
 26 H        0.1660     3.9520    -1.6590 H     1 <1>   0.0800 
 27 H        1.3860     1.9040    -0.3410 H     1 <1>   0.0800 
 28 H        0.9770     1.7700     1.3440 H     1 <1>   0.0800 
 29 H       -4.1680     1.7670     1.7730 H     1 <1>   0.1500 
 30 H        0.9330     5.7780     0.6240 H     1 <1>   0.0800 
 31 H        1.2890     6.0120    -1.0640 H     1 <1>   0.0800 
 32 H        3.1880     2.8240     0.9890 H     1 <1>   0.0800 
 33 H        2.0860     3.8430     1.8700 H     1 <1>   0.0800 
 34 H        2.7250     4.0840    -1.0060 H     1 <1>   0.4500 
 35 H        3.4320     5.9170     1.1860 H     1 <1>   0.0800 
 36 H        2.9520     7.1600    -0.8700 H     1 <1>   0.0800 
 37 H        3.9300     6.0500    -1.8010 H     1 <1>   0.0800 
 38 H        5.1110     4.0560    -0.5170 H     1 <1>   0.0800 
 39 H        4.8720     3.9360     1.2100 H     1 <1>   0.0800 
 40 H        4.8730     7.9670     0.3370 H     1 <1>   0.0800 
 41 H        5.1310     8.1140    -1.3750 H     1 <1>   0.0800 
 42 H        7.0360     4.8900     0.6730 H     1 <1>   0.0800 
 43 H        6.0630     5.9890     1.6030 H     1 <1>   0.0800 
 44 H        6.5070     6.0990    -1.3910 H     1 <1>   0.0800 
 45 H        7.3720     8.0070     0.7990 H     1 <1>   0.0800 
 46 H        7.5230     8.3060    -0.9040 H     1 <1>   0.0800 
 47 H        8.9620     6.1290     0.6320 H     1 <1>   0.0800 
 48 H        9.6550     7.5540    -0.0840 H     1 <1>   0.0800 
 49 H        9.0080     6.3010    -1.1110 H     1 <1>   0.0800 
@<TRIPOS>BOND
  1   1   2  1   
  2   2   3  ar  
  3   2   4  ar  
  4   3   5  1   
  5   3   6  ar  
  6   4   7  ar  
  7   4  22  1   
  8   5   8  1   
  9   5   9  1   
 10   6  10  ar  
 11   6  23  1   
 12   7  10  ar  
 13   7  24  1   
 14   8  11  1   
 15   8  25  1   
 16   8  26  1   
 17   9  12  1   
 18   9  27  1   
 19   9  28  1   
 20  10  29  1   
 21  11  13  1   
 22  11  30  1   
 23  11  31  1   
 24  12  13  1   
 25  12  32  1   
 26  12  33  1   
 27  13  14  1   
 28  13  34  1   
 29  14  15  1   
 30  14  16  1   
 31  14  35  1   
 32  15  17  1   
 33  15  36  1   
 34  15  37  1   
 35  16  18  1   
 36  16  38  1   
 37  16  39  1   
 38  17  19  1   
 39  17  40  1   
 40  17  41  1   
 41  18  19  1   
 42  18  42  1   
 43  18  43  1   
 44  19  20  1   
 45  19  44  1   
 46  20  21  1   
 47  20  45  1   
 48  20  46  1   
 49  21  47  1   
 50  21  48  1   
 51  21  49  1   
@<TRIPOS>SUBSTRUCTURE
  1 ****  13 GROUP 4 **** **** 0

# MOE 2024.06 (io_trps.svl 2023.06)
