@<TRIPOS>MOLECULE
NONAME
42 43 1 0 0 
SMALL
USER_CHARGES


@<TRIPOS>ATOM
  1 CL       1.0250     0.6960     0.2470 Cl    1 <1>  -0.1770 
  2 C        2.0150    -0.6720    -0.2150 C.ar  1 <1>   0.1770 
  3 C        1.4250    -1.8740    -0.5870 C.ar  1 <1>   0.0830 
  4 C        3.3880    -0.5160    -0.1970 C.ar  1 <1>  -0.1500 
  5 O        0.0690    -1.9600    -0.5820 O.3   1 <1>  -0.3630 
  6 C        2.2560    -2.9310    -0.9450 C.ar  1 <1>  -0.1500 
  7 C        4.2240    -1.5670    -0.5530 C.ar  1 <1>  -0.0090 
  8 C       -0.6040    -3.1400    -0.9600 C.3   1 <1>   0.0400 
  9 C        3.6330    -2.7710    -0.9260 C.ar  1 <1>  -0.1500 
 10 S        6.0260    -1.3670    -0.5270 S.o2  1 <1>   1.4470 
 11 O        6.4040    -0.2340    -1.3420 O.2   1 <1>  -0.6500 
 12 O        6.6710    -2.6430    -0.7110 O.2   1 <1>  -0.6500 
 13 N        6.3330    -0.9450     1.0650 N.am  1 <1>  -0.9140 
 14 C        7.6240    -0.2800     1.2330 C.3   1 <1>   0.3370 
 15 C        8.8310    -1.2290     0.9860 C.2   1 <1>   0.5690 
 16 C        7.6330     0.2820     2.6570 C.3   1 <1>  -0.2400 
 17 O        8.9890    -2.1160     1.7970 O.2   1 <1>  -0.5700 
 18 N        9.6700    -1.1110    -0.1000 N.am  1 <1>  -0.6600 
 19 C        9.5210    -0.1630    -1.2510 C.3   1 <1>   0.1400 
 20 C       10.7460    -2.1220    -0.3410 C.3   1 <1>   0.1400 
 21 C       10.8860     0.4020    -1.6790 C.3   1 <1>   0.1200 
 22 C       12.0430    -1.4440    -0.8100 C.3   1 <1>   0.1200 
 23 O       11.8020    -0.6270    -1.9200 O.3   1 <1>  -0.5600 
 24 H        3.8070     0.4300     0.0960 H     1 <1>   0.1500 
 25 H        1.8530    -3.8820    -1.2410 H     1 <1>   0.1500 
 26 H       -1.6610    -2.9590    -0.8810 H     1 <1>   0.0800 
 27 H       -0.3200    -3.9350    -0.2930 H     1 <1>   0.0800 
 28 H       -0.3500    -3.3770    -1.9780 H     1 <1>   0.0800 
 29 H        4.2620    -3.6010    -1.2060 H     1 <1>   0.1500 
 30 H        6.4600    -1.8450     1.5320 H     1 <1>   0.4200 
 31 H        7.6740     0.5670     0.5770 H     1 <1>   0.0800 
 32 H        7.5510    -0.5120     3.3790 H     1 <1>   0.0800 
 33 H        6.8190     0.9710     2.7900 H     1 <1>   0.0800 
 34 H        8.5560     0.8050     2.8340 H     1 <1>   0.0800 
 35 H        8.8780     0.6590    -1.0090 H     1 <1>   0.0800 
 36 H        9.0840    -0.6880    -2.0830 H     1 <1>   0.0800 
 37 H       10.4160    -2.8150    -1.0940 H     1 <1>   0.0800 
 38 H       10.9510    -2.6820     0.5550 H     1 <1>   0.0800 
 39 H       11.2860     1.0460    -0.9150 H     1 <1>   0.0800 
 40 H       10.7830     0.9680    -2.5880 H     1 <1>   0.0800 
 41 H       12.7650    -2.1870    -1.1000 H     1 <1>   0.0800 
 42 H       12.4630    -0.8430    -0.0220 H     1 <1>   0.0800 
@<TRIPOS>BOND
  1   1   2  1   
  2   2   3  ar  
  3   2   4  ar  
  4   3   5  1   
  5   3   6  ar  
  6   4   7  ar  
  7   4  24  1   
  8   5   8  1   
  9   6   9  ar  
 10   6  25  1   
 11   7   9  ar  
 12   7  10  1   
 13   8  26  1   
 14   8  27  1   
 15   8  28  1   
 16   9  29  1   
 17  10  11  2   
 18  10  12  2   
 19  10  13  am  
 20  13  14  1   
 21  13  30  1   
 22  14  15  1   
 23  14  16  1   
 24  14  31  1   
 25  15  17  2   
 26  15  18  am  
 27  16  32  1   
 28  16  33  1   
 29  16  34  1   
 30  18  19  1   
 31  18  20  1   
 32  19  21  1   
 33  19  35  1   
 34  19  36  1   
 35  20  22  1   
 36  20  37  1   
 37  20  38  1   
 38  21  23  1   
 39  21  39  1   
 40  21  40  1   
 41  22  23  1   
 42  22  41  1   
 43  22  42  1   
@<TRIPOS>SUBSTRUCTURE
  1 ****  10 GROUP 4 **** **** 0

# MOE 2024.06 (io_trps.svl 2023.06)
