@<TRIPOS>MOLECULE
NONAME
49 51 1 0 0 
SMALL
USER_CHARGES


@<TRIPOS>ATOM
  1 O        3.3990     3.2400     1.3630 O.2   1 <1>  -0.5700 
  2 C        2.8780     2.4350     0.6080 C.2   1 <1>   0.5440 
  3 N        2.7840     1.1150     0.9980 N.am  1 <1>  -0.6600 
  4 C        2.4050     2.8810    -0.6850 C.ar  1 <1>   0.0860 
  5 C        2.7040    -0.0110     0.0260 C.3   1 <1>   0.1400 
  6 C        3.0840     0.6870     2.3920 C.3   1 <1>   0.1400 
  7 C        3.2580     3.5550    -1.5740 C.ar  1 <1>   0.1170 
  8 C        1.0850     2.6420    -1.0720 C.ar  1 <1>  -0.1500 
  9 C        4.0310    -0.7760     0.0270 C.3   1 <1>  -0.1600 
 10 C        4.4100    -0.0790     2.4160 C.3   1 <1>  -0.1600 
 11 N        4.5780     3.8240    -1.1770 N.am  1 <1>  -0.5470 
 12 C        2.7650     3.9500    -2.8150 C.ar  1 <1>  -0.1500 
 13 C        0.6130     3.0390    -2.3060 C.ar  1 <1>  -0.1500 
 14 C        4.4050    -1.2620     1.4360 C.3   1 <1>  -0.0800 
 15 C        5.7040     4.1840    -1.8640 C.2   1 <1>   0.5690 
 16 C        1.4590     3.6940    -3.1820 C.ar  1 <1>  -0.1500 
 17 C        5.7730    -1.9530     1.4210 C.3   1 <1>  -0.2400 
 18 O        5.7570     4.2720    -3.0670 O.2   1 <1>  -0.5700 
 19 C        6.9510     4.5020    -1.0600 C.3   1 <1>   0.0440 
 20 C        7.2600     3.4350    -0.0160 C.ar  1 <1>  -0.1440 
 21 C        7.9470     2.2870    -0.3820 C.ar  1 <1>  -0.1500 
 22 C        6.8600     3.5980     1.3020 C.ar  1 <1>  -0.1500 
 23 C        8.2410     1.3180     0.5610 C.ar  1 <1>  -0.1500 
 24 C        7.1550     2.6290     2.2450 C.ar  1 <1>  -0.1500 
 25 C        7.8480     1.4890     1.8760 C.ar  1 <1>  -0.1500 
 26 H        2.5060     0.3470    -0.9690 H     1 <1>   0.0800 
 27 H        1.9010    -0.6670     0.3130 H     1 <1>   0.0800 
 28 H        2.2880     0.0540     2.7430 H     1 <1>   0.0800 
 29 H        3.1430     1.5400     3.0460 H     1 <1>   0.0800 
 30 H        0.4270     2.1370    -0.3870 H     1 <1>   0.1500 
 31 H        4.8020    -0.1270    -0.3530 H     1 <1>   0.0800 
 32 H        3.9530    -1.6170    -0.6390 H     1 <1>   0.0800 
 33 H        4.5950    -0.4300     3.4150 H     1 <1>   0.0800 
 34 H        5.1950     0.6070     2.1560 H     1 <1>   0.0800 
 35 H        4.7300     3.6810    -0.1680 H     1 <1>   0.3700 
 36 H        3.4030     4.4690    -3.5070 H     1 <1>   0.1500 
 37 H       -0.4080     2.8440    -2.5890 H     1 <1>   0.1500 
 38 H        3.6650    -1.9750     1.7620 H     1 <1>   0.0800 
 39 H        1.1000     4.0080    -4.1480 H     1 <1>   0.1500 
 40 H        6.5370    -1.2680     1.0950 H     1 <1>   0.0800 
 41 H        5.7590    -2.7950     0.7520 H     1 <1>   0.0800 
 42 H        6.0250    -2.3050     2.4050 H     1 <1>   0.0800 
 43 H        6.8150     5.4550    -0.5850 H     1 <1>   0.0800 
 44 H        7.7840     4.5930    -1.7330 H     1 <1>   0.0800 
 45 H        8.2560     2.1430    -1.4030 H     1 <1>   0.1500 
 46 H        6.3160     4.4750     1.6070 H     1 <1>   0.1500 
 47 H        8.7760     0.4300     0.2700 H     1 <1>   0.1500 
 48 H        6.8390     2.7620     3.2650 H     1 <1>   0.1500 
 49 H        8.0770     0.7370     2.6100 H     1 <1>   0.1500 
@<TRIPOS>BOND
  1   1   2  2   
  2   2   3  am  
  3   2   4  1   
  4   3   5  1   
  5   3   6  1   
  6   4   7  ar  
  7   4   8  ar  
  8   5   9  1   
  9   5  26  1   
 10   5  27  1   
 11   6  10  1   
 12   6  28  1   
 13   6  29  1   
 14   7  11  1   
 15   7  12  ar  
 16   8  13  ar  
 17   8  30  1   
 18   9  14  1   
 19   9  31  1   
 20   9  32  1   
 21  10  14  1   
 22  10  33  1   
 23  10  34  1   
 24  11  15  am  
 25  11  35  1   
 26  12  16  ar  
 27  12  36  1   
 28  13  16  ar  
 29  13  37  1   
 30  14  17  1   
 31  14  38  1   
 32  15  18  2   
 33  15  19  1   
 34  16  39  1   
 35  17  40  1   
 36  17  41  1   
 37  17  42  1   
 38  19  20  1   
 39  19  43  1   
 40  19  44  1   
 41  20  21  ar  
 42  20  22  ar  
 43  21  23  ar  
 44  21  45  1   
 45  22  24  ar  
 46  22  46  1   
 47  23  25  ar  
 48  23  47  1   
 49  24  25  ar  
 50  24  48  1   
 51  25  49  1   
@<TRIPOS>SUBSTRUCTURE
  1 ****   2 GROUP 4 **** **** 0

# MOE 2024.06 (io_trps.svl 2023.06)
