@<TRIPOS>MOLECULE
NONAME
42 43 1 0 0 
SMALL
USER_CHARGES


@<TRIPOS>ATOM
  1 O       -2.2680     1.4590    -1.4020 O.2   1 <1>  -0.5700 
  2 C       -1.2770     1.9320    -0.9000 C.2   1 <1>   0.5690 
  3 N       -1.2590     2.3610     0.3950 N.am  1 <1>  -0.7300 
  4 C       -0.0210     2.0700    -1.7480 C.3   1 <1>   0.0440 
  5 C       -2.2300     2.1690     1.5240 C.3   1 <1>   0.1400 
  6 C        1.0980     2.8030    -1.0140 C.ar  1 <1>  -0.1430 
  7 C       -3.6790     1.7800     1.1430 C.3   1 <1>   0.3430 
  8 C        1.1870     4.1860    -1.0760 C.ar  1 <1>  -0.1500 
  9 C        2.0220     2.0950    -0.2590 C.ar  1 <1>  -0.1500 
 10 N       -4.2480     2.6350     0.0610 N.4   1 <1>  -0.9590 
 11 C        2.1810     4.8510    -0.3820 C.ar  1 <1>  -0.1500 
 12 C        3.0180     2.7590     0.4350 C.ar  1 <1>  -0.1500 
 13 C       -4.2820     4.0900     0.3120 C.3   1 <1>   0.3430 
 14 C       -5.5960     2.2340    -0.3900 C.3   1 <1>   0.3430 
 15 C        3.1000     4.1470     0.3780 C.ar  1 <1>   0.0830 
 16 C       -5.2320     4.6250    -0.7500 C.3   1 <1>  -0.1600 
 17 C       -6.1020     3.4370    -1.1760 C.3   1 <1>  -0.1600 
 18 O        4.0390     4.8760     1.0300 O.3   1 <1>  -0.3620 
 19 C        5.0760     4.2570     1.7580 C.3   1 <1>   0.0400 
 20 H       -0.3550     2.7570     0.6920 H     1 <1>   0.3700 
 21 H       -0.2700     2.5980    -2.6500 H     1 <1>   0.0800 
 22 H        0.3100     1.0880    -2.0310 H     1 <1>   0.0800 
 23 H       -2.2640     3.0800     2.0960 H     1 <1>   0.0800 
 24 H       -1.8400     1.4070     2.1760 H     1 <1>   0.0800 
 25 H       -4.3020     1.8360     2.0200 H     1 <1>   0.0800 
 26 H       -3.6710     0.7550     0.8100 H     1 <1>   0.0800 
 27 H        0.4870     4.7550    -1.6630 H     1 <1>   0.1500 
 28 H        1.9720     1.0200    -0.2050 H     1 <1>   0.1500 
 29 H       -3.6100     2.4690    -0.7460 H     1 <1>   0.4500 
 30 H        2.2560     5.9230    -0.4270 H     1 <1>   0.1500 
 31 H        3.7190     2.1840     1.0110 H     1 <1>   0.1500 
 32 H       -3.3000     4.5300     0.2300 H     1 <1>   0.0800 
 33 H       -4.6870     4.2830     1.2920 H     1 <1>   0.0800 
 34 H       -6.2330     2.0640     0.4620 H     1 <1>   0.0800 
 35 H       -5.5600     1.3450    -1.0000 H     1 <1>   0.0800 
 36 H       -4.6640     4.9900    -1.5880 H     1 <1>   0.0800 
 37 H       -5.8210     5.4350    -0.3570 H     1 <1>   0.0800 
 38 H       -7.1430     3.6090    -0.9640 H     1 <1>   0.0800 
 39 H       -5.9950     3.2530    -2.2310 H     1 <1>   0.0800 
 40 H        5.7140     5.0280     2.1510 H     1 <1>   0.0800 
 41 H        5.6370     3.6220     1.0950 H     1 <1>   0.0800 
 42 H        4.6470     3.6910     2.5650 H     1 <1>   0.0800 
@<TRIPOS>BOND
  1   1   2  2   
  2   2   3  am  
  3   2   4  1   
  4   3   5  1   
  5   3  20  1   
  6   4   6  1   
  7   4  21  1   
  8   4  22  1   
  9   5   7  1   
 10   5  23  1   
 11   5  24  1   
 12   6   8  ar  
 13   6   9  ar  
 14   7  10  1   
 15   7  25  1   
 16   7  26  1   
 17   8  11  ar  
 18   8  27  1   
 19   9  12  ar  
 20   9  28  1   
 21  10  13  1   
 22  10  14  1   
 23  10  29  1   
 24  11  15  ar  
 25  11  30  1   
 26  12  15  ar  
 27  12  31  1   
 28  13  16  1   
 29  13  32  1   
 30  13  33  1   
 31  14  17  1   
 32  14  34  1   
 33  14  35  1   
 34  15  18  1   
 35  16  17  1   
 36  16  36  1   
 37  16  37  1   
 38  17  38  1   
 39  17  39  1   
 40  18  19  1   
 41  19  40  1   
 42  19  41  1   
 43  19  42  1   
@<TRIPOS>SUBSTRUCTURE
  1 ****   3 GROUP 4 **** **** 0

# MOE 2024.06 (io_trps.svl 2023.06)
