@<TRIPOS>MOLECULE
NONAME
34 34 1 0 0 
SMALL
USER_CHARGES


@<TRIPOS>ATOM
  1 F       -0.5420     1.8950    -1.8950 F     1 <1>  -0.1900 
  2 C        0.3790     2.3830    -1.1010 C.ar  1 <1>   0.1900 
  3 C       -0.0140     3.1340     0.0050 C.ar  1 <1>   0.1170 
  4 C        1.7000     2.1260    -1.4040 C.ar  1 <1>  -0.1500 
  5 N       -1.3840     3.3560     0.2460 N.am  1 <1>  -0.5470 
  6 C        1.0010     3.6220     0.8240 C.ar  1 <1>  -0.1500 
  7 C        2.6860     2.6300    -0.5740 C.ar  1 <1>  -0.1500 
  8 C       -2.0420     4.2530     1.0400 C.2   1 <1>   0.5690 
  9 C        2.3470     3.3810     0.5520 C.ar  1 <1>  -0.1440 
 10 O       -1.4820     5.0580     1.7410 O.2   1 <1>  -0.5700 
 11 C       -3.5600     4.2100     1.0470 C.3   1 <1>  -0.0990 
 12 C        3.4280     3.9510     1.4870 C.3   1 <1>   1.1640 
 13 C       -4.2530     5.0010    -0.0870 C.3   1 <1>   0.0000 
 14 F        4.6160     3.3820     1.3150 F     1 <1>  -0.3400 
 15 F        3.6100     5.2520     1.3030 F     1 <1>  -0.3400 
 16 F        3.1270     3.7910     2.7700 F     1 <1>  -0.3400 
 17 C       -5.7740     4.8960     0.1020 C.3   1 <1>  -0.2400 
 18 C       -3.8980     4.4360    -1.4720 C.3   1 <1>  -0.2400 
 19 C       -3.8570     6.4840    -0.0360 C.3   1 <1>  -0.2400 
 20 H        1.9500     1.5430    -2.2730 H     1 <1>   0.1500 
 21 H       -1.9950     2.8050    -0.3580 H     1 <1>   0.3700 
 22 H        0.7410     4.1990     1.6940 H     1 <1>   0.1500 
 23 H        3.7190     2.4310    -0.8140 H     1 <1>   0.1500 
 24 H       -3.8860     4.6030     1.9940 H     1 <1>   0.0800 
 25 H       -3.8730     3.1830     1.0140 H     1 <1>   0.0800 
 26 H       -6.0930     3.8700     0.0570 H     1 <1>   0.0800 
 27 H       -6.2910     5.4430    -0.6670 H     1 <1>   0.0800 
 28 H       -6.0660     5.3010     1.0550 H     1 <1>   0.0800 
 29 H       -4.1270     3.3870    -1.5270 H     1 <1>   0.0800 
 30 H       -2.8550     4.5780    -1.6930 H     1 <1>   0.0800 
 31 H       -4.4620     4.9420    -2.2360 H     1 <1>   0.0800 
 32 H       -4.0880     6.9040     0.9270 H     1 <1>   0.0800 
 33 H       -4.3860     7.0460    -0.7860 H     1 <1>   0.0800 
 34 H       -2.8020     6.6080    -0.2100 H     1 <1>   0.0800 
@<TRIPOS>BOND
  1   1   2  1   
  2   2   3  ar  
  3   2   4  ar  
  4   3   5  1   
  5   3   6  ar  
  6   4   7  ar  
  7   4  20  1   
  8   5   8  am  
  9   5  21  1   
 10   6   9  ar  
 11   6  22  1   
 12   7   9  ar  
 13   7  23  1   
 14   8  10  2   
 15   8  11  1   
 16   9  12  1   
 17  11  13  1   
 18  11  24  1   
 19  11  25  1   
 20  12  14  1   
 21  12  15  1   
 22  12  16  1   
 23  13  17  1   
 24  13  18  1   
 25  13  19  1   
 26  17  26  1   
 27  17  27  1   
 28  17  28  1   
 29  18  29  1   
 30  18  30  1   
 31  18  31  1   
 32  19  32  1   
 33  19  33  1   
 34  19  34  1   
@<TRIPOS>SUBSTRUCTURE
  1 ****   3 GROUP 4 **** **** 0

# MOE 2024.06 (io_trps.svl 2023.06)
