@<TRIPOS>MOLECULE
NONAME
47 48 1 0 0 
SMALL
USER_CHARGES


@<TRIPOS>ATOM
  1 O        0.1190     1.4590    -1.1510 O.2   1 <1>  -0.5700 
  2 C       -0.5550     1.9330    -0.2580 C.2   1 <1>   0.5440 
  3 N        0.0680     2.5720     0.7810 N.am  1 <1>  -0.7300 
  4 C       -2.0010     1.8070    -0.2820 C.ar  1 <1>   0.0860 
  5 C        1.5280     2.7730     0.9910 C.3   1 <1>   0.2200 
  6 C       -2.8360     2.7050     0.3840 C.ar  1 <1>  -0.1500 
  7 C       -2.6210     0.7710    -0.9790 C.ar  1 <1>  -0.1500 
  8 C        2.2650     3.3060    -0.2610 C.3   1 <1>   0.2000 
  9 C        2.1230     1.4610     1.5040 C.3   1 <1>  -0.2400 
 10 C       -4.2140     2.5850     0.3800 C.ar  1 <1>   0.0830 
 11 C       -3.9950     0.6260    -0.9970 C.ar  1 <1>  -0.1500 
 12 O        3.5580     3.7030     0.0790 O.3   1 <1>  -0.5600 
 13 C        1.6550     4.5570    -0.8860 C.3   1 <1>  -0.1600 
 14 O       -4.8590     3.5580     1.0860 O.3   1 <1>  -0.3630 
 15 C       -4.8160     1.5200    -0.3140 C.ar  1 <1>   0.0830 
 16 C        4.0610     4.5400    -0.9080 C.3   1 <1>   0.1200 
 17 C        2.8540     5.2750    -1.4880 C.3   1 <1>  -0.1600 
 18 C       -6.2120     3.8850     0.8690 C.3   1 <1>   0.1200 
 19 O       -6.1680     1.3670    -0.3020 O.3   1 <1>  -0.3630 
 20 C       -6.4880     5.2250     1.5420 C.3   1 <1>  -0.2400 
 21 C       -6.8250     0.2910    -0.9310 C.3   1 <1>   0.1200 
 22 C       -8.3220     0.4440    -0.6790 C.3   1 <1>  -0.2400 
 23 H       -0.5020     2.8270     1.5870 H     1 <1>   0.3700 
 24 H        1.6400     3.5200     1.7580 H     1 <1>   0.0800 
 25 H       -2.4080     3.5340     0.9160 H     1 <1>   0.1500 
 26 H       -2.0050     0.0680    -1.5150 H     1 <1>   0.1500 
 27 H        2.3590     2.5280    -0.9990 H     1 <1>   0.0800 
 28 H        2.0380     0.6960     0.7540 H     1 <1>   0.0800 
 29 H        1.6200     1.1450     2.3990 H     1 <1>   0.0800 
 30 H        3.1660     1.6000     1.7290 H     1 <1>   0.0800 
 31 H       -4.4030    -0.1970    -1.5520 H     1 <1>   0.1500 
 32 H        1.2000     5.1630    -0.1240 H     1 <1>   0.0800 
 33 H        0.9150     4.2980    -1.6230 H     1 <1>   0.0800 
 34 H        4.5370     3.9260    -1.6540 H     1 <1>   0.0800 
 35 H        4.7770     5.2100    -0.4650 H     1 <1>   0.0800 
 36 H        2.8680     6.3130    -1.2050 H     1 <1>   0.0800 
 37 H        2.8600     5.2020    -2.5610 H     1 <1>   0.0800 
 38 H       -6.8220     3.1110     1.3010 H     1 <1>   0.0800 
 39 H       -6.3850     3.9460    -0.1920 H     1 <1>   0.0800 
 40 H       -6.2980     5.1540     2.5980 H     1 <1>   0.0800 
 41 H       -7.5170     5.4990     1.3960 H     1 <1>   0.0800 
 42 H       -5.8650     5.9890     1.1140 H     1 <1>   0.0800 
 43 H       -6.4590    -0.6280    -0.5050 H     1 <1>   0.0800 
 44 H       -6.6110     0.3290    -1.9850 H     1 <1>   0.0800 
 45 H       -8.5220     0.4230     0.3780 H     1 <1>   0.0800 
 46 H       -8.8540    -0.3650    -1.1450 H     1 <1>   0.0800 
 47 H       -8.6740     1.3710    -1.0940 H     1 <1>   0.0800 
@<TRIPOS>BOND
  1   1   2  2   
  2   2   3  am  
  3   2   4  1   
  4   3   5  1   
  5   3  23  1   
  6   4   6  ar  
  7   4   7  ar  
  8   5   8  1   
  9   5   9  1   
 10   5  24  1   
 11   6  10  ar  
 12   6  25  1   
 13   7  11  ar  
 14   7  26  1   
 15   8  12  1   
 16   8  13  1   
 17   8  27  1   
 18   9  28  1   
 19   9  29  1   
 20   9  30  1   
 21  10  14  1   
 22  10  15  ar  
 23  11  15  ar  
 24  11  31  1   
 25  12  16  1   
 26  13  17  1   
 27  13  32  1   
 28  13  33  1   
 29  14  18  1   
 30  15  19  1   
 31  16  17  1   
 32  16  34  1   
 33  16  35  1   
 34  17  36  1   
 35  17  37  1   
 36  18  20  1   
 37  18  38  1   
 38  18  39  1   
 39  19  21  1   
 40  20  40  1   
 41  20  41  1   
 42  20  42  1   
 43  21  22  1   
 44  21  43  1   
 45  21  44  1   
 46  22  45  1   
 47  22  46  1   
 48  22  47  1   
@<TRIPOS>SUBSTRUCTURE
  1 ****   4 GROUP 4 **** **** 0

# MOE 2024.06 (io_trps.svl 2023.06)
