@<TRIPOS>MOLECULE
NONAME
53 55 1 0 0 
SMALL
USER_CHARGES


@<TRIPOS>ATOM
  1 O       10.7330    -0.2070     0.0430 O.2   1 <1>  -0.5700 
  2 C       10.3130    -1.3400    -0.0700 C.2   1 <1>   0.7800 
  3 O       11.0060    -2.3650     0.4210 O.3   1 <1>  -0.4300 
  4 N        9.1080    -1.6130    -0.6630 N.am  1 <1>  -0.6600 
  5 C       12.2590    -2.1600     1.0360 C.3   1 <1>   0.1200 
  6 C        8.4620    -2.9570    -0.6230 C.3   1 <1>   0.1400 
  7 C        8.2370    -0.5230    -1.1910 C.3   1 <1>   0.1400 
  8 C       12.7900    -3.5160     1.4890 C.3   1 <1>  -0.2400 
  9 C        7.1520    -2.8870     0.1860 C.3   1 <1>   0.3430 
 10 C        6.9300    -0.4510    -0.3800 C.3   1 <1>   0.3430 
 11 N        6.2420    -1.7880    -0.3010 N.4   1 <1>  -0.9590 
 12 C        4.9500    -1.7340     0.4520 C.3   1 <1>   0.3430 
 13 C        4.0070    -2.8630    -0.0170 C.3   1 <1>   0.2000 
 14 O        4.2050    -3.0800    -1.3830 O.3   1 <1>  -0.6800 
 15 C        2.5280    -2.5420     0.2290 C.3   1 <1>   0.1200 
 16 O        1.7480    -3.5450    -0.3870 O.3   1 <1>  -0.3630 
 17 C        0.3950    -3.5310    -0.3120 C.ar  1 <1>   0.0820 
 18 C       -0.3420    -2.5490     0.3080 C.ar  1 <1>  -0.1500 
 19 C       -0.2630    -4.6090    -0.9170 C.ar  1 <1>  -0.1500 
 20 C       -1.7490    -2.6060     0.3460 C.ar  1 <1>   0.0000 
 21 C       -1.6270    -4.6890    -0.8940 C.ar  1 <1>  -0.1500 
 22 C       -2.4060    -3.6960    -0.2650 C.ar  1 <1>   0.0000 
 23 C       -2.5310    -1.6140     0.9740 C.ar  1 <1>  -0.1500 
 24 C       -3.8130    -3.7510    -0.2250 C.ar  1 <1>  -0.1500 
 25 C       -3.8960    -1.6930     0.9990 C.ar  1 <1>  -0.1500 
 26 C       -4.5450    -2.7740     0.3920 C.ar  1 <1>  -0.1500 
 27 H       12.1250    -1.4980     1.8750 H     1 <1>   0.0800 
 28 H       12.9210    -1.7060     0.3180 H     1 <1>   0.0800 
 29 H        9.1160    -3.6860    -0.1750 H     1 <1>   0.0800 
 30 H        8.2540    -3.2820    -1.6270 H     1 <1>   0.0800 
 31 H        8.0170    -0.7140    -2.2270 H     1 <1>   0.0800 
 32 H        8.7410     0.4270    -1.1370 H     1 <1>   0.0800 
 33 H       12.1170    -3.9630     2.1980 H     1 <1>   0.0800 
 34 H       13.7480    -3.3890     1.9610 H     1 <1>   0.0800 
 35 H       12.9110    -4.1690     0.6430 H     1 <1>   0.0800 
 36 H        7.4020    -2.7190     1.2200 H     1 <1>   0.0800 
 37 H        6.6480    -3.8370     0.1150 H     1 <1>   0.0800 
 38 H        6.2750     0.2740    -0.8360 H     1 <1>   0.0800 
 39 H        7.1690    -0.1050     0.6120 H     1 <1>   0.0800 
 40 H        5.9410    -2.0660    -1.2560 H     1 <1>   0.4500 
 41 H        4.4650    -0.7930     0.2530 H     1 <1>   0.0800 
 42 H        5.1190    -1.8010     1.5140 H     1 <1>   0.0800 
 43 H        4.2520    -3.7770     0.4980 H     1 <1>   0.0800 
 44 H        3.4450    -3.6090    -1.7250 H     1 <1>   0.4000 
 45 H        2.2640    -1.5930    -0.2060 H     1 <1>   0.0800 
 46 H        2.3060    -2.5390     1.2820 H     1 <1>   0.0800 
 47 H        0.1200    -1.7060     0.7810 H     1 <1>   0.1500 
 48 H        0.3260    -5.3700    -1.3960 H     1 <1>   0.1500 
 49 H       -2.1320    -5.5170    -1.3580 H     1 <1>   0.1500 
 50 H       -2.0310    -0.7840     1.4400 H     1 <1>   0.1500 
 51 H       -4.3070    -4.5830    -0.6930 H     1 <1>   0.1500 
 52 H       -4.4860    -0.9330     1.4800 H     1 <1>   0.1500 
 53 H       -5.6200    -2.8220     0.4190 H     1 <1>   0.1500 
@<TRIPOS>BOND
  1   1   2  2   
  2   2   3  1   
  3   2   4  am  
  4   3   5  1   
  5   4   6  1   
  6   4   7  1   
  7   5   8  1   
  8   5  27  1   
  9   5  28  1   
 10   6   9  1   
 11   6  29  1   
 12   6  30  1   
 13   7  10  1   
 14   7  31  1   
 15   7  32  1   
 16   8  33  1   
 17   8  34  1   
 18   8  35  1   
 19   9  11  1   
 20   9  36  1   
 21   9  37  1   
 22  10  11  1   
 23  10  38  1   
 24  10  39  1   
 25  11  12  1   
 26  11  40  1   
 27  12  13  1   
 28  12  41  1   
 29  12  42  1   
 30  13  14  1   
 31  13  15  1   
 32  13  43  1   
 33  14  44  1   
 34  15  16  1   
 35  15  45  1   
 36  15  46  1   
 37  16  17  1   
 38  17  18  ar  
 39  17  19  ar  
 40  18  20  ar  
 41  18  47  1   
 42  19  21  ar  
 43  19  48  1   
 44  20  22  ar  
 45  20  23  ar  
 46  21  22  ar  
 47  21  49  1   
 48  22  24  ar  
 49  23  25  ar  
 50  23  50  1   
 51  24  26  ar  
 52  24  51  1   
 53  25  26  ar  
 54  25  52  1   
 55  26  53  1   
@<TRIPOS>SUBSTRUCTURE
  1 ****  13 GROUP 4 **** **** 0

# MOE 2024.06 (io_trps.svl 2023.06)
