@<TRIPOS>MOLECULE
NONAME
39 41 1 0 0 
SMALL
USER_CHARGES


@<TRIPOS>ATOM
  1 O       -1.6480     1.1590    -2.9290 O.2   1 <1>  -0.5700 
  2 C       -2.2240     1.4640    -1.9180 C.2   1 <1>   0.5690 
  3 N       -3.5650     1.2840    -1.7950 N.am  1 <1>  -0.5390 
  4 C       -1.4620     2.0280    -0.7370 C.3   1 <1>  -0.0990 
  5 C       -4.3060     1.6880    -0.7040 C.2   1 <1>  -0.0290 
  6 C       -2.3230     2.9340     0.1660 C.3   1 <1>   0.2020 
  7 C       -3.7740     2.4580     0.2770 C.2   1 <1>  -0.1240 
  8 C       -5.7600     1.2330    -0.6680 C.3   1 <1>  -0.0220 
  9 C       -2.3000     4.3940    -0.2990 C.ar  1 <1>  -0.1440 
 10 C       -4.5110     2.8850     1.4220 C.2   1 <1>   0.4950 
 11 C       -6.3530     1.2570     0.7600 C.3   1 <1>   0.0000 
 12 C       -2.0090     5.3940     0.6190 C.ar  1 <1>  -0.1500 
 13 C       -2.5740     4.7540    -1.6130 C.ar  1 <1>  -0.1500 
 14 O       -4.0290     3.4570     2.3710 O.2   1 <1>  -0.5700 
 15 C       -6.0000     2.5890     1.4560 C.3   1 <1>  -0.0990 
 16 C       -7.8810     1.1090     0.6860 C.3   1 <1>  -0.2400 
 17 C       -5.7970     0.0750     1.5790 C.3   1 <1>  -0.2400 
 18 C       -1.9780     6.7220     0.2320 C.ar  1 <1>  -0.1500 
 19 C       -2.5420     6.0820    -2.0020 C.ar  1 <1>  -0.1500 
 20 C       -2.2420     7.0680    -1.0800 C.ar  1 <1>  -0.1500 
 21 H       -4.0010     0.8140    -2.5900 H     1 <1>   0.3700 
 22 H       -0.6000     2.5660    -1.0870 H     1 <1>   0.0800 
 23 H       -1.1160     1.1920    -0.1590 H     1 <1>   0.0800 
 24 H       -1.8760     2.8900     1.1450 H     1 <1>   0.0800 
 25 H       -5.8410     0.2370    -1.0680 H     1 <1>   0.0800 
 26 H       -6.3260     1.8870    -1.3090 H     1 <1>   0.0800 
 27 H       -1.8130     5.1460     1.6480 H     1 <1>   0.1500 
 28 H       -2.8170     4.0110    -2.3500 H     1 <1>   0.1500 
 29 H       -6.5030     3.4040     0.9690 H     1 <1>   0.0800 
 30 H       -6.3290     2.5680     2.4800 H     1 <1>   0.0800 
 31 H       -8.3170     1.9200     0.1290 H     1 <1>   0.0800 
 32 H       -8.3090     1.1130     1.6730 H     1 <1>   0.0800 
 33 H       -8.1510     0.1860     0.2050 H     1 <1>   0.0800 
 34 H       -4.7240     0.1130     1.6450 H     1 <1>   0.0800 
 35 H       -6.0690    -0.8610     1.1250 H     1 <1>   0.0800 
 36 H       -6.1930     0.0890     2.5790 H     1 <1>   0.0800 
 37 H       -1.7510     7.4860     0.9550 H     1 <1>   0.1500 
 38 H       -2.7510     6.3470    -3.0230 H     1 <1>   0.1500 
 39 H       -2.2160     8.1000    -1.3820 H     1 <1>   0.1500 
@<TRIPOS>BOND
  1   1   2  2   
  2   2   3  am  
  3   2   4  1   
  4   3   5  1   
  5   3  21  1   
  6   4   6  1   
  7   4  22  1   
  8   4  23  1   
  9   5   7  2   
 10   5   8  1   
 11   6   7  1   
 12   6   9  1   
 13   6  24  1   
 14   7  10  1   
 15   8  11  1   
 16   8  25  1   
 17   8  26  1   
 18   9  12  ar  
 19   9  13  ar  
 20  10  14  2   
 21  10  15  1   
 22  11  15  1   
 23  11  16  1   
 24  11  17  1   
 25  12  18  ar  
 26  12  27  1   
 27  13  19  ar  
 28  13  28  1   
 29  15  29  1   
 30  15  30  1   
 31  16  31  1   
 32  16  32  1   
 33  16  33  1   
 34  17  34  1   
 35  17  35  1   
 36  17  36  1   
 37  18  20  ar  
 38  18  37  1   
 39  19  20  ar  
 40  19  38  1   
 41  20  39  1   
@<TRIPOS>SUBSTRUCTURE
  1 ****   7 GROUP 4 **** **** 0

# MOE 2024.06 (io_trps.svl 2023.06)
