@<TRIPOS>MOLECULE
NONAME
37 39 1 0 0 
SMALL
USER_CHARGES


@<TRIPOS>ATOM
  1 O       -0.6630    -0.0680     1.0380 O.2   1 <1>  -0.5700 
  2 C       -1.8030     0.1080     0.6600 C.2   1 <1>   0.5690 
  3 N       -2.5750    -0.8720     0.1310 N.am  1 <1>  -0.5470 
  4 C       -2.6250     1.4380     0.7460 C.3   1 <1>   0.7550 
  5 C       -3.8830    -0.4350    -0.0200 C.ar  1 <1>   0.1170 
  6 O       -2.6670     1.9530     2.0280 O.3   1 <1>  -0.6800 
  7 N       -2.1310     2.5340    -0.1420 N.3   1 <1>  -0.8100 
  8 C       -4.0060     0.8900     0.3660 C.ar  1 <1>  -0.1430 
  9 C       -4.9820    -1.1710    -0.4420 C.ar  1 <1>  -0.1430 
 10 C       -2.9860     3.7420    -0.1830 C.3   1 <1>   0.1100 
 11 C       -0.7170     2.9140     0.1020 C.3   1 <1>   0.1100 
 12 C       -5.2590     1.4810     0.4000 C.ar  1 <1>  -0.1500 
 13 C       -6.2240    -0.5550    -0.4380 C.ar  1 <1>  -0.1500 
 14 C       -4.8320    -2.6160    -0.8880 C.3   1 <1>  -0.0970 
 15 C       -2.4160     4.8180    -1.1250 C.3   1 <1>   0.1200 
 16 C       -0.2480     4.0100    -0.8690 C.3   1 <1>   0.1200 
 17 C       -6.3700     0.7590    -0.0110 C.ar  1 <1>  -0.1430 
 18 O       -1.0930     5.1190    -0.7930 O.3   1 <1>  -0.5600 
 19 C       -7.7450     1.4030     0.0060 C.3   1 <1>  -0.0970 
 20 H       -2.2550    -1.8350     0.0480 H     1 <1>   0.3700 
 21 H       -1.7440     2.1030     2.2890 H     1 <1>   0.4000 
 22 H       -3.0920     4.1610     0.8030 H     1 <1>   0.0800 
 23 H       -3.9600     3.4840    -0.5510 H     1 <1>   0.0800 
 24 H       -0.0750     2.0610    -0.0310 H     1 <1>   0.0800 
 25 H       -0.5950     3.2770     1.1080 H     1 <1>   0.0800 
 26 H       -5.3710     2.4900     0.7530 H     1 <1>   0.1500 
 27 H       -7.0910    -1.1020    -0.7630 H     1 <1>   0.1500 
 28 H       -4.5110    -3.2230    -0.0600 H     1 <1>   0.0800 
 29 H       -4.1040    -2.6830    -1.6760 H     1 <1>   0.0800 
 30 H       -5.7650    -3.0040    -1.2540 H     1 <1>   0.0800 
 31 H       -2.9890     5.7250    -1.0440 H     1 <1>   0.0800 
 32 H       -2.4470     4.4780    -2.1450 H     1 <1>   0.0800 
 33 H       -0.2440     3.6430    -1.8810 H     1 <1>   0.0800 
 34 H        0.7450     4.3340    -0.6130 H     1 <1>   0.0800 
 35 H       -7.7930     2.1700     0.7580 H     1 <1>   0.0800 
 36 H       -8.5000     0.6690     0.2240 H     1 <1>   0.0800 
 37 H       -7.9520     1.8430    -0.9530 H     1 <1>   0.0800 
@<TRIPOS>BOND
  1   1   2  2   
  2   2   3  am  
  3   2   4  1   
  4   3   5  1   
  5   3  20  1   
  6   4   6  1   
  7   4   7  1   
  8   4   8  1   
  9   5   8  ar  
 10   5   9  ar  
 11   6  21  1   
 12   7  10  1   
 13   7  11  1   
 14   8  12  ar  
 15   9  13  ar  
 16   9  14  1   
 17  10  15  1   
 18  10  22  1   
 19  10  23  1   
 20  11  16  1   
 21  11  24  1   
 22  11  25  1   
 23  12  17  ar  
 24  12  26  1   
 25  13  17  ar  
 26  13  27  1   
 27  14  28  1   
 28  14  29  1   
 29  14  30  1   
 30  15  18  1   
 31  15  31  1   
 32  15  32  1   
 33  16  18  1   
 34  16  33  1   
 35  16  34  1   
 36  17  19  1   
 37  19  35  1   
 38  19  36  1   
 39  19  37  1   
@<TRIPOS>SUBSTRUCTURE
  1 ****   8 GROUP 4 **** **** 0

# MOE 2024.06 (io_trps.svl 2023.06)
