@<TRIPOS>MOLECULE
NONAME
40 42 1 0 0 
SMALL
USER_CHARGES


@<TRIPOS>ATOM
  1 O       -0.4230     1.0060    -1.5390 O.co2 1 <1>  -0.9000 
  2 C        0.0240     1.1930    -0.3990 C.2   1 <1>   0.9060 
  3 O        0.9540     0.5160     0.0440 O.co2 1 <1>  -0.9000 
  4 C       -0.6090     2.2530     0.4950 C.3   1 <1>  -0.1860 
  5 C       -2.2050     1.9950     0.9970 C.3   1 <1>  -0.0190 
  6 C       -0.5440     3.7400    -0.1960 C.3   1 <1>  -0.0800 
  7 C       -2.8960     0.6500     0.7310 C.2   1 <1>   0.5690 
  8 C       -3.0970     3.2550     0.4420 C.3   1 <1>  -0.0800 
  9 C       -1.8150     3.5080     0.1450 C.3   1 <1>  -0.1600 
 10 C       -1.4430     5.0060    -0.7090 C.3   1 <1>  -0.1600 
 11 O       -3.6700     0.2310     1.5620 O.2   1 <1>  -0.5700 
 12 N       -2.6930    -0.0140    -0.4260 N.am  1 <1>  -0.7300 
 13 C       -3.0170     4.7510    -0.2060 C.3   1 <1>  -0.1600 
 14 C       -3.1750    -1.3570    -0.7310 C.3   1 <1>   0.3640 
 15 C       -2.2180    -2.4050    -0.1720 C.ar  1 <1>  -0.1440 
 16 C       -3.2880    -1.4790    -2.2460 C.3   1 <1>  -0.2400 
 17 C       -2.6790    -3.5070     0.5220 C.ar  1 <1>  -0.1500 
 18 C       -0.8460    -2.3160    -0.3140 C.ar  1 <1>  -0.1500 
 19 C       -1.7770    -4.4370     1.0140 C.ar  1 <1>   0.1600 
 20 C       -0.0310    -3.2940     0.2260 C.ar  1 <1>   0.1600 
 21 N       -0.4630    -4.3650     0.8790 N.ar  1 <1>  -0.6200 
 22 H        0.0050     2.2590     1.3800 H     1 <1>   0.0800 
 23 H       -2.1900     2.0640     2.0750 H     1 <1>   0.0800 
 24 H        0.1460     4.2390     0.4700 H     1 <1>   0.0800 
 25 H       -3.7520     2.7620    -0.2660 H     1 <1>   0.0800 
 26 H       -1.9790     2.9940    -0.9020 H     1 <1>   0.0800 
 27 H       -1.6350     4.0120     1.1900 H     1 <1>   0.0800 
 28 H       -1.4030     5.0650    -1.7860 H     1 <1>   0.0800 
 29 H       -1.0650     5.9360    -0.3170 H     1 <1>   0.0800 
 30 H       -1.9120     0.3050    -1.0350 H     1 <1>   0.3700 
 31 H       -3.2970     5.4890     0.5310 H     1 <1>   0.0800 
 32 H       -3.6960     4.8470    -1.0380 H     1 <1>   0.0800 
 33 H       -4.1470    -1.4840    -0.2870 H     1 <1>   0.0800 
 34 H       -2.3260    -1.3180    -2.7020 H     1 <1>   0.0800 
 35 H       -3.9850    -0.7530    -2.6220 H     1 <1>   0.0800 
 36 H       -3.6330    -2.4620    -2.5070 H     1 <1>   0.0800 
 37 H       -3.7300    -3.6440     0.6880 H     1 <1>   0.1500 
 38 H       -0.3950    -1.4870    -0.8320 H     1 <1>   0.1500 
 39 H       -2.1600    -5.2860     1.5500 H     1 <1>   0.1500 
 40 H        1.0340    -3.1780     0.1100 H     1 <1>   0.1500 
@<TRIPOS>BOND
  1   1   2  ar  
  2   2   3  ar  
  3   2   4  1   
  4   4   5  1   
  5   4   6  1   
  6   4  22  1   
  7   5   7  1   
  8   5   8  1   
  9   5  23  1   
 10   6   9  1   
 11   6  10  1   
 12   6  24  1   
 13   7  11  2   
 14   7  12  am  
 15   8   9  1   
 16   8  13  1   
 17   8  25  1   
 18   9  26  1   
 19   9  27  1   
 20  10  13  1   
 21  10  28  1   
 22  10  29  1   
 23  12  14  1   
 24  12  30  1   
 25  13  31  1   
 26  13  32  1   
 27  14  15  1   
 28  14  16  1   
 29  14  33  1   
 30  15  17  ar  
 31  15  18  ar  
 32  16  34  1   
 33  16  35  1   
 34  16  36  1   
 35  17  19  ar  
 36  17  37  1   
 37  18  20  ar  
 38  18  38  1   
 39  19  21  ar  
 40  19  39  1   
 41  20  21  ar  
 42  20  40  1   
@<TRIPOS>SUBSTRUCTURE
  1 ****  12 GROUP 4 **** **** 0

# MOE 2024.06 (io_trps.svl 2023.06)
