@<TRIPOS>MOLECULE
NONAME
33 34 1 0 0 
SMALL
USER_CHARGES


@<TRIPOS>ATOM
  1 F        0.8590    -0.8520    -1.3260 F     1 <1>  -0.1900 
  2 C        0.5560    -1.9230    -0.6440 C.ar  1 <1>   0.1900 
  3 C        1.3980    -2.3350     0.3840 C.ar  1 <1>   0.0860 
  4 C       -0.5970    -2.5970    -0.9950 C.ar  1 <1>  -0.1500 
  5 C        2.5970    -1.6170     0.7460 C.2   1 <1>   0.5440 
  6 C        1.0140    -3.4860     1.0710 C.ar  1 <1>  -0.1500 
  7 C       -0.9620    -3.7460    -0.3040 C.ar  1 <1>   0.0730 
  8 O        2.5610    -0.8990     1.7280 O.2   1 <1>  -0.5700 
  9 N        3.7790    -1.7540     0.0440 N.am  1 <1>  -0.6600 
 10 C       -0.1380    -4.1760     0.7330 C.ar  1 <1>  -0.1500 
 11 C       -2.1540    -4.4670    -0.6490 C.1   1 <1>   0.4840 
 12 C        3.8810    -2.5370    -1.2170 C.3   1 <1>   0.1400 
 13 C        5.0170    -1.0590     0.5090 C.3   1 <1>   0.1400 
 14 N       -3.0980    -5.0420    -0.9260 N.1   1 <1>  -0.5570 
 15 C        4.2340    -3.9950    -0.9030 C.3   1 <1>  -0.1600 
 16 C        6.3060    -1.8710     0.3040 C.3   1 <1>  -0.1600 
 17 C        5.7020    -4.2220    -0.5080 C.3   1 <1>  -0.1600 
 18 C        6.1890    -3.3610     0.6680 C.3   1 <1>  -0.1600 
 19 H       -1.2060    -2.2250    -1.8020 H     1 <1>   0.1500 
 20 H        1.6330    -3.8310     1.8830 H     1 <1>   0.1500 
 21 H       -0.4040    -5.0630     1.2860 H     1 <1>   0.1500 
 22 H        4.6220    -2.1010    -1.8650 H     1 <1>   0.0800 
 23 H        2.9450    -2.5030    -1.7430 H     1 <1>   0.0800 
 24 H        4.9280    -0.8470     1.5610 H     1 <1>   0.0800 
 25 H        5.1000    -0.1150    -0.0010 H     1 <1>   0.0800 
 26 H        4.0350    -4.5840    -1.7810 H     1 <1>   0.0800 
 27 H        3.5890    -4.3590    -0.1240 H     1 <1>   0.0800 
 28 H        7.0590    -1.4260     0.9300 H     1 <1>   0.0800 
 29 H        6.6480    -1.7590    -0.7090 H     1 <1>   0.0800 
 30 H        6.3320    -4.0410    -1.3620 H     1 <1>   0.0800 
 31 H        5.8210    -5.2580    -0.2430 H     1 <1>   0.0800 
 32 H        5.5450    -3.4890     1.5210 H     1 <1>   0.0800 
 33 H        7.1670    -3.7140     0.9480 H     1 <1>   0.0800 
@<TRIPOS>BOND
  1   1   2  1   
  2   2   3  ar  
  3   2   4  ar  
  4   3   5  1   
  5   3   6  ar  
  6   4   7  ar  
  7   4  19  1   
  8   5   8  2   
  9   5   9  am  
 10   6  10  ar  
 11   6  20  1   
 12   7  10  ar  
 13   7  11  1   
 14   9  12  1   
 15   9  13  1   
 16  10  21  1   
 17  11  14  3   
 18  12  15  1   
 19  12  22  1   
 20  12  23  1   
 21  13  16  1   
 22  13  24  1   
 23  13  25  1   
 24  15  17  1   
 25  15  26  1   
 26  15  27  1   
 27  16  18  1   
 28  16  28  1   
 29  16  29  1   
 30  17  18  1   
 31  17  30  1   
 32  17  31  1   
 33  18  32  1   
 34  18  33  1   
@<TRIPOS>SUBSTRUCTURE
  1 ****   3 GROUP 4 **** **** 0

# MOE 2024.06 (io_trps.svl 2023.06)
