@<TRIPOS>MOLECULE
NONAME
35 36 1 0 0 
SMALL
USER_CHARGES


@<TRIPOS>ATOM
  1 S       -0.4290     2.2510     0.9830 S.3   1 <1>  -0.2860 
  2 C        1.3530     2.0010     0.9730 C.2   1 <1>   0.2420 
  3 C       -1.0740     1.3530    -0.5110 C.3   1 <1>   0.1310 
  4 N        2.1300     2.4680     1.8820 N.2   1 <1>  -0.3380 
  5 N        2.0010     1.3200     0.0340 N.pl3 1 <1>   0.0330 
  6 C       -2.5820     1.4880    -0.6530 C.2   1 <1>   0.5690 
  7 N        3.3670     2.0820     1.5390 N.2   1 <1>  -0.3380 
  8 C        3.2690     1.4060     0.4450 C.2   1 <1>   0.0060 
  9 O       -3.0750     1.0210    -1.6500 O.2   1 <1>  -0.5700 
 10 N       -3.2910     2.1220     0.3320 N.am  1 <1>  -0.5470 
 11 C        4.4380     0.7830    -0.2900 C.3   1 <1>  -0.0600 
 12 C       -4.6590     2.3930     0.4910 C.ar  1 <1>   0.1170 
 13 C       -5.6560     1.7980    -0.2760 C.ar  1 <1>  -0.1500 
 14 C       -5.0380     3.2970     1.4760 C.ar  1 <1>  -0.1500 
 15 C       -6.9910     2.1000    -0.0720 C.ar  1 <1>  -0.1430 
 16 C       -6.3690     3.6070     1.6950 C.ar  1 <1>  -0.1430 
 17 C       -7.3430     3.0050     0.9160 C.ar  1 <1>  -0.1500 
 18 C       -8.0670     1.4450    -0.9190 C.3   1 <1>  -0.0970 
 19 C       -6.7750     4.5960     2.7720 C.3   1 <1>  -0.0970 
 20 H       -0.8110     0.3170    -0.4020 H     1 <1>   0.0800 
 21 H       -0.5900     1.7740    -1.3730 H     1 <1>   0.0800 
 22 H        1.6300     0.8520    -0.7910 H     1 <1>   0.2700 
 23 H       -2.7070     2.4960     1.0820 H     1 <1>   0.3700 
 24 H        4.3150    -0.2830    -0.3510 H     1 <1>   0.0800 
 25 H        5.3510     0.9920     0.2400 H     1 <1>   0.0800 
 26 H        4.5160     1.1920    -1.2810 H     1 <1>   0.0800 
 27 H       -5.3920     1.0910    -1.0390 H     1 <1>   0.1500 
 28 H       -4.2810     3.7650     2.0770 H     1 <1>   0.1500 
 29 H       -8.3800     3.2400     1.0790 H     1 <1>   0.1500 
 30 H       -7.6470     1.0480    -1.8260 H     1 <1>   0.0800 
 31 H       -8.8220     2.1630    -1.1810 H     1 <1>   0.0800 
 32 H       -8.5230     0.6420    -0.3690 H     1 <1>   0.0800 
 33 H       -5.9230     4.9080     3.3500 H     1 <1>   0.0800 
 34 H       -7.4900     4.1430     3.4350 H     1 <1>   0.0800 
 35 H       -7.2200     5.4640     2.3200 H     1 <1>   0.0800 
@<TRIPOS>BOND
  1   1   2  1   
  2   1   3  1   
  3   2   4  2   
  4   2   5  1   
  5   3   6  1   
  6   3  20  1   
  7   3  21  1   
  8   4   7  1   
  9   5   8  1   
 10   5  22  1   
 11   6   9  2   
 12   6  10  am  
 13   7   8  2   
 14   8  11  1   
 15  10  12  1   
 16  10  23  1   
 17  11  24  1   
 18  11  25  1   
 19  11  26  1   
 20  12  13  ar  
 21  12  14  ar  
 22  13  15  ar  
 23  13  27  1   
 24  14  16  ar  
 25  14  28  1   
 26  15  17  ar  
 27  15  18  1   
 28  16  17  ar  
 29  16  19  1   
 30  17  29  1   
 31  18  30  1   
 32  18  31  1   
 33  18  32  1   
 34  19  33  1   
 35  19  34  1   
 36  19  35  1   
@<TRIPOS>SUBSTRUCTURE
  1 ****  10 GROUP 4 **** **** 0

# MOE 2024.06 (io_trps.svl 2023.06)
