@<TRIPOS>MOLECULE
NONAME
50 52 1 0 0 
SMALL
USER_CHARGES


@<TRIPOS>ATOM
  1 N        0.3470     1.6360    -0.0310 N.pl3 1 <1>  -0.8380 
  2 C       -1.0070     1.3520    -0.2080 C.ar  1 <1>   0.1000 
  3 C        0.8750     1.6110     1.3630 C.3   1 <1>   0.2090 
  4 C        1.2820     1.2370    -1.1210 C.3   1 <1>   0.2090 
  5 C       -1.9190     2.3710    -0.4830 C.ar  1 <1>  -0.1440 
  6 C       -1.4670     0.0420    -0.1120 C.ar  1 <1>  -0.1500 
  7 C        1.6640     0.3170     1.6530 C.3   1 <1>   0.3430 
  8 C        2.0650    -0.0450    -0.7660 C.3   1 <1>   0.3430 
  9 C       -3.2580     2.0650    -0.6530 C.ar  1 <1>  -0.1500 
 10 C       -1.4610     3.8180    -0.5980 C.3   1 <1>  -0.0970 
 11 C       -2.8050    -0.2630    -0.2830 C.ar  1 <1>  -0.1440 
 12 N        2.7060     0.0210     0.6020 N.4   1 <1>  -0.9590 
 13 C       -3.7000     0.7570    -0.5550 C.ar  1 <1>  -0.1500 
 14 C       -3.3090    -1.6910    -0.1780 C.3   1 <1>  -0.0970 
 15 C        3.4700    -1.2170     0.9410 C.3   1 <1>   0.3430 
 16 C        4.7090    -1.4030     0.0500 C.3   1 <1>  -0.0800 
 17 C        5.4270    -2.7050     0.4570 C.3   1 <1>  -0.0220 
 18 C        5.6860    -0.2070     0.1120 C.3   1 <1>  -0.1600 
 19 C        6.7740    -2.8270    -0.2290 C.2   1 <1>  -0.2880 
 20 C        6.8630    -0.3890    -0.8610 C.3   1 <1>  -0.0220 
 21 C        7.4010    -1.8060    -0.8180 C.2   1 <1>  -0.2880 
 22 H        0.0540     1.6910     2.0560 H     1 <1>   0.0800 
 23 H        1.5080     2.4680     1.5130 H     1 <1>   0.0800 
 24 H        1.9690     2.0440    -1.3060 H     1 <1>   0.0800 
 25 H        0.7230     1.0730    -2.0280 H     1 <1>   0.0800 
 26 H       -0.7730    -0.7440     0.0990 H     1 <1>   0.1500 
 27 H        0.9600    -0.4970     1.7010 H     1 <1>   0.0800 
 28 H        2.1310     0.4050     2.6200 H     1 <1>   0.0800 
 29 H        2.8170    -0.2060    -1.5200 H     1 <1>   0.0800 
 30 H        1.3800    -0.8750    -0.8020 H     1 <1>   0.0800 
 31 H       -3.9700     2.8430    -0.8650 H     1 <1>   0.1500 
 32 H       -0.7330     3.9070    -1.3830 H     1 <1>   0.0800 
 33 H       -1.0130     4.1320     0.3270 H     1 <1>   0.0800 
 34 H       -2.2850     4.4710    -0.8190 H     1 <1>   0.0800 
 35 H        3.3640     0.8110     0.5950 H     1 <1>   0.4500 
 36 H       -4.7450     0.5390    -0.6900 H     1 <1>   0.1500 
 37 H       -2.5010    -2.3780    -0.0080 H     1 <1>   0.0800 
 38 H       -3.8090    -1.9700    -1.0890 H     1 <1>   0.0800 
 39 H       -4.0070    -1.7720     0.6370 H     1 <1>   0.0800 
 40 H        2.8270    -2.0770     0.8440 H     1 <1>   0.0800 
 41 H        3.7960    -1.1640     1.9670 H     1 <1>   0.0800 
 42 H        4.3930    -1.5320    -0.9710 H     1 <1>   0.0800 
 43 H        4.8190    -3.5520     0.1850 H     1 <1>   0.0800 
 44 H        5.5890    -2.7370     1.5210 H     1 <1>   0.0800 
 45 H        6.0820    -0.1260     1.1110 H     1 <1>   0.0800 
 46 H        5.1970     0.7190    -0.1300 H     1 <1>   0.0800 
 47 H        7.1870    -3.8220    -0.1940 H     1 <1>   0.1500 
 48 H        7.6480     0.3010    -0.6020 H     1 <1>   0.0800 
 49 H        6.5500    -0.1710    -1.8680 H     1 <1>   0.0800 
 50 H        8.3520    -1.9150    -1.3150 H     1 <1>   0.1500 
@<TRIPOS>BOND
  1   1   2  1   
  2   1   3  1   
  3   1   4  1   
  4   2   5  ar  
  5   2   6  ar  
  6   3   7  1   
  7   3  22  1   
  8   3  23  1   
  9   4   8  1   
 10   4  24  1   
 11   4  25  1   
 12   5   9  ar  
 13   5  10  1   
 14   6  11  ar  
 15   6  26  1   
 16   7  12  1   
 17   7  27  1   
 18   7  28  1   
 19   8  12  1   
 20   8  29  1   
 21   8  30  1   
 22   9  13  ar  
 23   9  31  1   
 24  10  32  1   
 25  10  33  1   
 26  10  34  1   
 27  11  13  ar  
 28  11  14  1   
 29  12  15  1   
 30  12  35  1   
 31  13  36  1   
 32  14  37  1   
 33  14  38  1   
 34  14  39  1   
 35  15  16  1   
 36  15  40  1   
 37  15  41  1   
 38  16  17  1   
 39  16  18  1   
 40  16  42  1   
 41  17  19  1   
 42  17  43  1   
 43  17  44  1   
 44  18  20  1   
 45  18  45  1   
 46  18  46  1   
 47  19  21  2   
 48  19  47  1   
 49  20  21  1   
 50  20  48  1   
 51  20  49  1   
 52  21  50  1   
@<TRIPOS>SUBSTRUCTURE
  1 ****   8 GROUP 4 **** **** 0

# MOE 2024.06 (io_trps.svl 2023.06)
