@<TRIPOS>MOLECULE
NONAME
45 47 1 0 0 
SMALL
USER_CHARGES


@<TRIPOS>ATOM
  1 O       -1.2860     0.5240    -0.6720 O.2   1 <1>  -0.5700 
  2 C       -1.7490     1.6500    -0.7430 C.2   1 <1>   0.7150 
  3 N       -3.1090     1.7870    -0.9440 N.am  1 <1>  -0.6600 
  4 C       -0.8840     2.8070    -0.6300 C.2   1 <1>   0.0550 
  5 C       -3.9630     0.6310    -1.3540 C.3   1 <1>   0.1400 
  6 C       -3.9010     2.9390    -0.4180 C.3   1 <1>   0.1400 
  7 O        0.1590     2.8100     0.1980 O.3   1 <1>  -0.2800 
  8 C       -0.9230     4.0140    -1.2660 C.2   1 <1>  -0.1500 
  9 C       -4.9120     0.2270    -0.2140 C.3   1 <1>   0.1100 
 10 C       -4.8690     2.4760     0.6860 C.3   1 <1>   0.1100 
 11 C        0.7730     3.9670     0.1090 C.2   1 <1>  -0.0100 
 12 C        0.1500     4.7640    -0.7840 C.2   1 <1>  -0.1500 
 13 N       -5.7390     1.3680     0.2290 N.3   1 <1>  -0.8100 
 14 C       -6.6730     0.9460     1.3180 C.3   1 <1>   0.1710 
 15 C       -7.7720     1.9640     1.6420 C.2   1 <1>   0.5690 
 16 O       -8.2410     2.0010     2.7550 O.2   1 <1>  -0.5700 
 17 N       -8.1780     2.7970     0.6530 N.am  1 <1>  -0.7300 
 18 C       -9.1860     3.8600     0.7530 C.3   1 <1>   0.2200 
 19 C      -10.1040     3.7780    -0.4590 C.3   1 <1>  -0.1600 
 20 C       -8.4950     5.2060     0.5770 C.3   1 <1>  -0.1600 
 21 C       -9.3510     4.4730    -1.6000 C.3   1 <1>  -0.1600 
 22 C       -8.3120     5.3850    -0.9340 C.3   1 <1>  -0.1600 
 23 H       -3.3550    -0.2140    -1.6290 H     1 <1>   0.0800 
 24 H       -4.5450     0.9090    -2.2140 H     1 <1>   0.0800 
 25 H       -4.4650     3.3770    -1.2220 H     1 <1>   0.0800 
 26 H       -3.2540     3.6940    -0.0100 H     1 <1>   0.0800 
 27 H       -1.6310     4.3410    -2.0060 H     1 <1>   0.1500 
 28 H       -4.3280    -0.1520     0.6090 H     1 <1>   0.0800 
 29 H       -5.5520    -0.5650    -0.5630 H     1 <1>   0.0800 
 30 H       -5.4740     3.3150     0.9850 H     1 <1>   0.0800 
 31 H       -4.2960     2.1620     1.5420 H     1 <1>   0.0800 
 32 H        1.6460     4.1420     0.7130 H     1 <1>   0.1500 
 33 H        0.4060     5.7660    -1.0830 H     1 <1>   0.1500 
 34 H       -6.1190     0.7420     2.2170 H     1 <1>   0.0800 
 35 H       -7.1690     0.0380     1.0240 H     1 <1>   0.0800 
 36 H       -7.6780     2.7310    -0.2370 H     1 <1>   0.3700 
 37 H       -9.7220     3.7890     1.6860 H     1 <1>   0.0800 
 38 H      -11.0000     4.3320    -0.2430 H     1 <1>   0.0800 
 39 H      -10.3770     2.7640    -0.6950 H     1 <1>   0.0800 
 40 H       -7.5680     5.2610     1.1210 H     1 <1>   0.0800 
 41 H       -9.1530     5.9750     0.9440 H     1 <1>   0.0800 
 42 H      -10.0290     5.0340    -2.2200 H     1 <1>   0.0800 
 43 H       -8.8510     3.7390    -2.2090 H     1 <1>   0.0800 
 44 H       -7.3220     5.0750    -1.2220 H     1 <1>   0.0800 
 45 H       -8.4520     6.4140    -1.2190 H     1 <1>   0.0800 
@<TRIPOS>BOND
  1   1   2  2   
  2   2   3  am  
  3   2   4  1   
  4   3   5  1   
  5   3   6  1   
  6   4   7  1   
  7   4   8  2   
  8   5   9  1   
  9   5  23  1   
 10   5  24  1   
 11   6  10  1   
 12   6  25  1   
 13   6  26  1   
 14   7  11  1   
 15   8  12  1   
 16   8  27  1   
 17   9  13  1   
 18   9  28  1   
 19   9  29  1   
 20  10  13  1   
 21  10  30  1   
 22  10  31  1   
 23  11  12  2   
 24  11  32  1   
 25  12  33  1   
 26  13  14  1   
 27  14  15  1   
 28  14  34  1   
 29  14  35  1   
 30  15  16  2   
 31  15  17  am  
 32  17  18  1   
 33  17  36  1   
 34  18  19  1   
 35  18  20  1   
 36  18  37  1   
 37  19  21  1   
 38  19  38  1   
 39  19  39  1   
 40  20  22  1   
 41  20  40  1   
 42  20  41  1   
 43  21  22  1   
 44  21  42  1   
 45  21  43  1   
 46  22  44  1   
 47  22  45  1   
@<TRIPOS>SUBSTRUCTURE
  1 ****  10 GROUP 4 **** **** 0

# MOE 2024.06 (io_trps.svl 2023.06)
