@<TRIPOS>MOLECULE
NONAME
60 63 1 0 0 
SMALL
USER_CHARGES


@<TRIPOS>ATOM
  1 O       -0.2570     2.2580     2.6130 O.2   1 <1>  -0.5700 
  2 C       -0.3010     2.7910     1.5220 C.2   1 <1>   0.5440 
  3 N        0.8450     2.8400     0.7860 N.am  1 <1>  -0.7300 
  4 C       -1.5400     3.3680     1.0300 C.ar  1 <1>   0.0860 
  5 C        2.1340     2.2840     1.2320 C.3   1 <1>   0.2840 
  6 C       -2.4920     3.8700     1.9170 C.ar  1 <1>  -0.1500 
  7 C       -1.8390     3.4450    -0.3310 C.ar  1 <1>  -0.1500 
  8 C        3.1020     2.3410     0.0690 C.ar  1 <1>  -0.1440 
  9 C       -3.6800     4.4200     1.4760 C.ar  1 <1>  -0.1500 
 10 C       -3.0260     3.9920    -0.7830 C.ar  1 <1>  -0.1500 
 11 C        3.1870     1.2810    -0.8220 C.ar  1 <1>   0.1600 
 12 C        3.9090     3.4440    -0.1290 C.ar  1 <1>  -0.1500 
 13 C       -3.9610     4.4790     0.1190 C.ar  1 <1>  -0.1430 
 14 N        3.9950     1.2340    -1.8690 N.ar  1 <1>  -0.6200 
 15 C        4.7590     3.4110    -1.2140 C.ar  1 <1>  -0.1500 
 16 C       -5.2760     5.0610    -0.3680 C.3   1 <1>   0.4860 
 17 C        4.7620     2.2990    -2.0400 C.ar  1 <1>   0.1600 
 18 N       -6.3690     4.1050    -0.0450 N.4   1 <1>  -0.9590 
 19 C       -6.2110     2.8140    -0.7770 C.3   1 <1>   0.3430 
 20 C       -7.7080     4.7160    -0.2690 C.3   1 <1>   0.3430 
 21 C       -7.2750     1.8210    -0.3090 C.3   1 <1>  -0.1600 
 22 C       -8.7960     3.7580     0.2100 C.3   1 <1>  -0.1600 
 23 C       -8.6950     2.3850    -0.4800 C.3   1 <1>  -0.0800 
 24 C       -9.7480     1.3930     0.0520 C.3   1 <1>  -0.0170 
 25 C      -11.1600     1.9250    -0.1380 C.ar  1 <1>  -0.1430 
 26 C      -11.7400     1.9250    -1.3980 C.ar  1 <1>  -0.1500 
 27 C      -11.8780     2.4200     0.9400 C.ar  1 <1>  -0.1500 
 28 C      -13.0190     2.4240    -1.5790 C.ar  1 <1>  -0.1500 
 29 C      -13.1570     2.9190     0.7600 C.ar  1 <1>  -0.1500 
 30 C      -13.7270     2.9230    -0.5010 C.ar  1 <1>  -0.1500 
 31 H        0.8920     3.3760    -0.0810 H     1 <1>   0.3700 
 32 H        1.9950     1.2680     1.5640 H     1 <1>   0.0800 
 33 H        2.5050     2.8620     2.0610 H     1 <1>   0.0800 
 34 H       -2.2830     3.8230     2.9740 H     1 <1>   0.1500 
 35 H       -1.1310     3.0610    -1.0470 H     1 <1>   0.1500 
 36 H       -4.3750     4.8010     2.2060 H     1 <1>   0.1500 
 37 H       -3.2090     4.0320    -1.8440 H     1 <1>   0.1500 
 38 H        2.5540     0.4230    -0.6670 H     1 <1>   0.1500 
 39 H        3.8820     4.2930     0.5320 H     1 <1>   0.1500 
 40 H        5.4140     4.2370    -1.4220 H     1 <1>   0.1500 
 41 H       -5.2330     5.2360    -1.4310 H     1 <1>   0.0800 
 42 H       -5.4490     6.0030     0.1260 H     1 <1>   0.0800 
 43 H        5.4300     2.2850    -2.8840 H     1 <1>   0.1500 
 44 H       -6.2820     3.8850     0.9540 H     1 <1>   0.4500 
 45 H       -5.2320     2.3980    -0.5910 H     1 <1>   0.0800 
 46 H       -6.3130     2.9780    -1.8380 H     1 <1>   0.0800 
 47 H       -7.8490     4.9200    -1.3190 H     1 <1>   0.0800 
 48 H       -7.7890     5.6460     0.2720 H     1 <1>   0.0800 
 49 H       -7.0940     1.5680     0.7210 H     1 <1>   0.0800 
 50 H       -7.1780     0.9160    -0.8830 H     1 <1>   0.0800 
 51 H       -9.7520     4.2030    -0.0090 H     1 <1>   0.0800 
 52 H       -8.7330     3.6450     1.2780 H     1 <1>   0.0800 
 53 H       -8.8790     2.5240    -1.5330 H     1 <1>   0.0800 
 54 H       -9.5750     1.1950     1.0960 H     1 <1>   0.0800 
 55 H       -9.6610     0.4560    -0.4700 H     1 <1>   0.0800 
 56 H      -11.2040     1.5360    -2.2450 H     1 <1>   0.1500 
 57 H      -11.4510     2.4200     1.9270 H     1 <1>   0.1500 
 58 H      -13.4640     2.4220    -2.5590 H     1 <1>   0.1500 
 59 H      -13.7100     3.3010     1.6000 H     1 <1>   0.1500 
 60 H      -14.7210     3.3100    -0.6410 H     1 <1>   0.1500 
@<TRIPOS>BOND
  1   1   2  2   
  2   2   3  am  
  3   2   4  1   
  4   3   5  1   
  5   3  31  1   
  6   4   6  ar  
  7   4   7  ar  
  8   5   8  1   
  9   5  32  1   
 10   5  33  1   
 11   6   9  ar  
 12   6  34  1   
 13   7  10  ar  
 14   7  35  1   
 15   8  11  ar  
 16   8  12  ar  
 17   9  13  ar  
 18   9  36  1   
 19  10  13  ar  
 20  10  37  1   
 21  11  14  ar  
 22  11  38  1   
 23  12  15  ar  
 24  12  39  1   
 25  13  16  1   
 26  14  17  ar  
 27  15  17  ar  
 28  15  40  1   
 29  16  18  1   
 30  16  41  1   
 31  16  42  1   
 32  17  43  1   
 33  18  19  1   
 34  18  20  1   
 35  18  44  1   
 36  19  21  1   
 37  19  45  1   
 38  19  46  1   
 39  20  22  1   
 40  20  47  1   
 41  20  48  1   
 42  21  23  1   
 43  21  49  1   
 44  21  50  1   
 45  22  23  1   
 46  22  51  1   
 47  22  52  1   
 48  23  24  1   
 49  23  53  1   
 50  24  25  1   
 51  24  54  1   
 52  24  55  1   
 53  25  26  ar  
 54  25  27  ar  
 55  26  28  ar  
 56  26  56  1   
 57  27  29  ar  
 58  27  57  1   
 59  28  30  ar  
 60  28  58  1   
 61  29  30  ar  
 62  29  59  1   
 63  30  60  1   
@<TRIPOS>SUBSTRUCTURE
  1 ****  13 GROUP 4 **** **** 0

# MOE 2024.06 (io_trps.svl 2023.06)
