@<TRIPOS>MOLECULE
NONAME
28 29 1 0 0 
SMALL
USER_CHARGES


@<TRIPOS>ATOM
  1 CL      -0.4250    -0.2000     1.6000 Cl    1 <1>  -0.1770 
  2 C       -1.6990     0.7830     0.9250 C.ar  1 <1>   0.1770 
  3 C       -2.8460     0.1760     0.4520 C.ar  1 <1>  -0.1500 
  4 C       -1.5420     2.1530     0.8750 C.ar  1 <1>  -0.1500 
  5 C       -3.8730     0.9400    -0.0910 C.ar  1 <1>  -0.0090 
  6 C       -2.5540     2.9270     0.3390 C.ar  1 <1>  -0.1500 
  7 S       -5.3710     0.1500    -0.7270 S.o2  1 <1>   1.4470 
  8 C       -3.7180     2.3260    -0.1440 C.ar  1 <1>   0.0830 
  9 O       -5.5440     0.4580    -2.1290 O.2   1 <1>  -0.6500 
 10 O       -5.4010    -1.2320    -0.2990 O.2   1 <1>  -0.6500 
 11 N       -6.6090     0.9580     0.0690 N.am  1 <1>  -0.7890 
 12 O       -4.7360     3.0530    -0.6760 O.3   1 <1>  -0.3630 
 13 C       -7.9160     0.4340    -0.2330 C.3   1 <1>   0.1310 
 14 C       -4.5860     4.4180    -1.0050 C.3   1 <1>   0.0400 
 15 C       -9.0400     0.8340     0.6600 C.3   1 <1>  -0.2000 
 16 C       -8.5040    -0.5690     0.6980 C.3   1 <1>  -0.2000 
 17 H       -2.9350    -0.8950     0.5080 H     1 <1>   0.1500 
 18 H       -0.6390     2.6010     1.2510 H     1 <1>   0.1500 
 19 H       -2.4190     3.9920     0.3100 H     1 <1>   0.1500 
 20 H       -6.5610     1.8950    -0.3300 H     1 <1>   0.4200 
 21 H       -8.1100     0.3320    -1.2910 H     1 <1>   0.1000 
 22 H       -5.4810     4.7420    -1.5060 H     1 <1>   0.0800 
 23 H       -3.7410     4.5310    -1.6610 H     1 <1>   0.0800 
 24 H       -4.4510     4.9850    -0.1000 H     1 <1>   0.0800 
 25 H      -10.0150     0.9900     0.2350 H     1 <1>   0.1000 
 26 H       -8.8370     1.4820     1.4940 H     1 <1>   0.1000 
 27 H       -7.9060    -0.8890     1.5330 H     1 <1>   0.1000 
 28 H       -9.1010    -1.3620     0.2850 H     1 <1>   0.1000 
@<TRIPOS>BOND
  1   1   2  1   
  2   2   3  ar  
  3   2   4  ar  
  4   3   5  ar  
  5   3  17  1   
  6   4   6  ar  
  7   4  18  1   
  8   5   7  1   
  9   5   8  ar  
 10   6   8  ar  
 11   6  19  1   
 12   7   9  2   
 13   7  10  2   
 14   7  11  am  
 15   8  12  1   
 16  11  13  1   
 17  11  20  1   
 18  12  14  1   
 19  13  15  1   
 20  13  16  1   
 21  13  21  1   
 22  14  22  1   
 23  14  23  1   
 24  14  24  1   
 25  15  16  1   
 26  15  25  1   
 27  15  26  1   
 28  16  27  1   
 29  16  28  1   
@<TRIPOS>SUBSTRUCTURE
  1 ****   5 GROUP 4 **** **** 0

# MOE 2024.06 (io_trps.svl 2023.06)
