@<TRIPOS>MOLECULE
NONAME
57 59 1 0 0 
SMALL
USER_CHARGES


@<TRIPOS>ATOM
  1 S        0.0980    -0.0190     1.1430 S.o2  1 <1>   1.4470 
  2 O        0.0040     0.3190     2.5480 O.2   1 <1>  -0.6500 
  3 O       -0.5090     0.8500     0.1590 O.2   1 <1>  -0.6500 
  4 N        1.7500    -0.1000     0.7750 N.am  1 <1>  -0.8490 
  5 C       -0.4540    -1.7250     0.8680 C.ar  1 <1>  -0.0090 
  6 C        2.3120     1.2320     0.5150 C.3   1 <1>   0.1960 
  7 C        2.5260    -0.8100     1.7890 C.3   1 <1>   0.1960 
  8 C       -0.1760    -2.3770    -0.3270 C.ar  1 <1>  -0.1500 
  9 C       -1.1580    -2.4250     1.8400 C.ar  1 <1>  -0.1500 
 10 C        3.8500     1.2150     0.4540 C.3   1 <1>  -0.1600 
 11 C        3.8960    -1.1850     1.2070 C.3   1 <1>  -0.1600 
 12 C       -0.5720    -3.6850    -0.5550 C.ar  1 <1>  -0.1430 
 13 C       -1.5630    -3.7310     1.6330 C.ar  1 <1>  -0.1500 
 14 C        4.4070    -0.1890     0.1410 C.3   1 <1>  -0.0190 
 15 C       -1.2700    -4.3730     0.4330 C.ar  1 <1>   0.0830 
 16 C       -0.2430    -4.3560    -1.8810 C.3   1 <1>  -0.0970 
 17 C        5.9390    -0.2230     0.0110 C.2   1 <1>   0.5690 
 18 O       -1.6350    -5.6550     0.1720 O.3   1 <1>  -0.3630 
 19 O        6.5560     0.6640     0.5580 O.2   1 <1>  -0.5700 
 20 N        6.5990    -1.2100    -0.6930 N.am  1 <1>  -0.6600 
 21 C       -2.3850    -6.4170     1.0920 C.3   1 <1>   0.0400 
 22 C        5.9320    -2.3620    -1.3690 C.3   1 <1>   0.1400 
 23 C        8.0800    -1.0740    -0.8750 C.3   1 <1>   0.1400 
 24 C        6.0150    -3.6200    -0.4950 C.3   1 <1>  -0.1600 
 25 C        8.8440    -2.3720    -1.1730 C.3   1 <1>  -0.1600 
 26 C        7.3540    -4.3620    -0.5850 C.3   1 <1>  -0.1600 
 27 C        8.5660    -3.5130    -0.1830 C.3   1 <1>  -0.1600 
 28 H        1.9960     1.9230     1.2800 H     1 <1>   0.0800 
 29 H        1.9250     1.5850    -0.4270 H     1 <1>   0.0800 
 30 H        2.0170    -1.7090     2.0980 H     1 <1>   0.0800 
 31 H        2.6470    -0.1800     2.6560 H     1 <1>   0.0800 
 32 H        0.3630    -1.8400    -1.0890 H     1 <1>   0.1500 
 33 H       -1.3900    -1.9400     2.7740 H     1 <1>   0.1500 
 34 H        4.2360     1.5470     1.4030 H     1 <1>   0.0800 
 35 H        4.1850     1.9210    -0.2850 H     1 <1>   0.0800 
 36 H        3.8220    -2.1620     0.7690 H     1 <1>   0.0800 
 37 H        4.6010    -1.2460     2.0180 H     1 <1>   0.0800 
 38 H       -2.1030    -4.2300     2.4140 H     1 <1>   0.1500 
 39 H        3.9820    -0.4540    -0.8080 H     1 <1>   0.0800 
 40 H        0.2930    -3.6900    -2.5330 H     1 <1>   0.0800 
 41 H       -1.1520    -4.6580    -2.3690 H     1 <1>   0.0800 
 42 H        0.3600    -5.2280    -1.7070 H     1 <1>   0.0800 
 43 H       -2.5650    -7.3820     0.6560 H     1 <1>   0.0800 
 44 H       -3.3200    -5.9190     1.2770 H     1 <1>   0.0800 
 45 H       -1.8180    -6.5260     1.9990 H     1 <1>   0.0800 
 46 H        6.3840    -2.5400    -2.3290 H     1 <1>   0.0800 
 47 H        4.8980    -2.1440    -1.5540 H     1 <1>   0.0800 
 48 H        8.4990    -0.6520     0.0240 H     1 <1>   0.0800 
 49 H        8.2610    -0.3700    -1.6680 H     1 <1>   0.0800 
 50 H        5.2430    -4.2980    -0.8120 H     1 <1>   0.0800 
 51 H        5.8170    -3.3620     0.5300 H     1 <1>   0.0800 
 52 H        9.8920    -2.1330    -1.1180 H     1 <1>   0.0800 
 53 H        8.6600    -2.6890    -2.1840 H     1 <1>   0.0800 
 54 H        7.4940    -4.7310    -1.5870 H     1 <1>   0.0800 
 55 H        7.3090    -5.2190     0.0650 H     1 <1>   0.0800 
 56 H        8.4340    -3.1190     0.8110 H     1 <1>   0.0800 
 57 H        9.4270    -4.1580    -0.1620 H     1 <1>   0.0800 
@<TRIPOS>BOND
  1   1   2  2   
  2   1   3  2   
  3   1   4  am  
  4   1   5  1   
  5   4   6  1   
  6   4   7  1   
  7   5   8  ar  
  8   5   9  ar  
  9   6  10  1   
 10   6  28  1   
 11   6  29  1   
 12   7  11  1   
 13   7  30  1   
 14   7  31  1   
 15   8  12  ar  
 16   8  32  1   
 17   9  13  ar  
 18   9  33  1   
 19  10  14  1   
 20  10  34  1   
 21  10  35  1   
 22  11  14  1   
 23  11  36  1   
 24  11  37  1   
 25  12  15  ar  
 26  12  16  1   
 27  13  15  ar  
 28  13  38  1   
 29  14  17  1   
 30  14  39  1   
 31  15  18  1   
 32  16  40  1   
 33  16  41  1   
 34  16  42  1   
 35  17  19  2   
 36  17  20  am  
 37  18  21  1   
 38  20  22  1   
 39  20  23  1   
 40  21  43  1   
 41  21  44  1   
 42  21  45  1   
 43  22  24  1   
 44  22  46  1   
 45  22  47  1   
 46  23  25  1   
 47  23  48  1   
 48  23  49  1   
 49  24  26  1   
 50  24  50  1   
 51  24  51  1   
 52  25  27  1   
 53  25  52  1   
 54  25  53  1   
 55  26  27  1   
 56  26  54  1   
 57  26  55  1   
 58  27  56  1   
 59  27  57  1   
@<TRIPOS>SUBSTRUCTURE
  1 ****  11 GROUP 4 **** **** 0

# MOE 2024.06 (io_trps.svl 2023.06)
