@<TRIPOS>MOLECULE
NONAME
41 41 1 0 0 
SMALL
USER_CHARGES


@<TRIPOS>ATOM
  1 BR       0.0080     0.2420    -0.4000 Br    1 <1>  -0.1110 
  2 C       -1.7440     1.0380    -0.3320 C.ar  1 <1>   0.1110 
  3 C       -1.8480     2.4150    -0.2930 C.ar  1 <1>  -0.1500 
  4 C       -2.8510     0.2100    -0.3230 C.ar  1 <1>  -0.1500 
  5 C       -3.1120     2.9790    -0.2440 C.ar  1 <1>  -0.1500 
  6 C       -4.1110     0.7840    -0.2730 C.ar  1 <1>  -0.1500 
  7 C       -4.2430     2.1730    -0.2330 C.ar  1 <1>   0.0830 
  8 O       -5.4390     2.8130    -0.1840 O.3   1 <1>  -0.3630 
  9 C       -6.6530     2.0950    -0.1680 C.3   1 <1>   0.1200 
 10 C       -7.7970     3.1040    -0.1100 C.3   1 <1>   0.1200 
 11 O       -9.0100     2.4100    -0.0930 O.3   1 <1>  -0.5600 
 12 C      -10.1320     3.2240    -0.0390 C.3   1 <1>   0.1200 
 13 C      -11.3580     2.3060    -0.0280 C.3   1 <1>   0.3430 
 14 N      -12.6360     3.0850     0.0300 N.4   1 <1>  -0.9060 
 15 C      -13.8740     2.3010     0.0450 C.3   1 <1>   0.5030 
 16 C      -15.0160     3.3090     0.1050 C.3   1 <1>  -0.2400 
 17 C      -13.9790     1.4730    -1.2350 C.3   1 <1>  -0.2400 
 18 C      -13.9060     1.4060     1.2840 C.3   1 <1>  -0.2400 
 19 H       -0.9650     3.0280    -0.3010 H     1 <1>   0.1500 
 20 H       -2.7270    -0.8570    -0.3540 H     1 <1>   0.1500 
 21 H       -3.2280     4.0470    -0.2130 H     1 <1>   0.1500 
 22 H       -4.9680     0.1380    -0.2660 H     1 <1>   0.1500 
 23 H       -6.6630     1.4650     0.7030 H     1 <1>   0.0800 
 24 H       -6.7130     1.5110    -1.0690 H     1 <1>   0.0800 
 25 H       -7.7700     3.7380    -0.9800 H     1 <1>   0.0800 
 26 H       -7.7190     3.6930     0.7880 H     1 <1>   0.0800 
 27 H      -10.1330     3.8580    -0.9100 H     1 <1>   0.0800 
 28 H      -10.0820     3.8120     0.8610 H     1 <1>   0.0800 
 29 H      -11.2880     1.6550     0.8280 H     1 <1>   0.0800 
 30 H      -11.3390     1.7010    -0.9200 H     1 <1>   0.0800 
 31 H      -12.6910     3.7150    -0.7770 H     1 <1>   0.4500 
 32 H      -12.6430     3.6710     0.8700 H     1 <1>   0.4500 
 33 H      -14.9630     3.9070     0.9970 H     1 <1>   0.0800 
 34 H      -15.9600     2.7910     0.1190 H     1 <1>   0.0800 
 35 H      -15.0140     3.9540    -0.7560 H     1 <1>   0.0800 
 36 H      -13.9050     2.0960    -2.1090 H     1 <1>   0.0800 
 37 H      -14.9340     0.9770    -1.2670 H     1 <1>   0.0800 
 38 H      -13.2250     0.7080    -1.2780 H     1 <1>   0.0800 
 39 H      -14.8580     0.9080     1.3450 H     1 <1>   0.0800 
 40 H      -13.1520     0.6420     1.2420 H     1 <1>   0.0800 
 41 H      -13.7800     1.9820     2.1830 H     1 <1>   0.0800 
@<TRIPOS>BOND
  1   1   2  1   
  2   2   3  ar  
  3   2   4  ar  
  4   3   5  ar  
  5   3  19  1   
  6   4   6  ar  
  7   4  20  1   
  8   5   7  ar  
  9   5  21  1   
 10   6   7  ar  
 11   6  22  1   
 12   7   8  1   
 13   8   9  1   
 14   9  10  1   
 15   9  23  1   
 16   9  24  1   
 17  10  11  1   
 18  10  25  1   
 19  10  26  1   
 20  11  12  1   
 21  12  13  1   
 22  12  27  1   
 23  12  28  1   
 24  13  14  1   
 25  13  29  1   
 26  13  30  1   
 27  14  15  1   
 28  14  31  1   
 29  14  32  1   
 30  15  16  1   
 31  15  17  1   
 32  15  18  1   
 33  16  33  1   
 34  16  34  1   
 35  16  35  1   
 36  17  36  1   
 37  17  37  1   
 38  17  38  1   
 39  18  39  1   
 40  18  40  1   
 41  18  41  1   
@<TRIPOS>SUBSTRUCTURE
  1 ****   9 GROUP 4 **** **** 0

# MOE 2024.06 (io_trps.svl 2023.06)
