@<TRIPOS>MOLECULE
NONAME
32 33 1 0 0 
SMALL
USER_CHARGES


@<TRIPOS>ATOM
  1 CL       1.2120     1.0390    -1.9180 Cl    1 <1>  -0.1770 
  2 C        0.5820     2.0300    -0.6250 C.ar  1 <1>   0.1770 
  3 C        1.3080     2.1950     0.5530 C.ar  1 <1>   0.0860 
  4 C       -0.6450     2.6370    -0.8210 C.ar  1 <1>  -0.1500 
  5 C        2.5960     1.5720     0.7600 C.2   1 <1>   0.5440 
  6 C        0.7370     2.9910     1.5440 C.ar  1 <1>  -0.1500 
  7 C       -1.1890     3.4330     0.1730 C.ar  1 <1>  -0.1430 
  8 O        2.6820     0.6790     1.5810 O.2   1 <1>  -0.5700 
  9 N        3.7280     1.9860     0.0850 N.am  1 <1>  -0.6600 
 10 C       -0.4900     3.6030     1.3580 C.ar  1 <1>  -0.1500 
 11 C       -2.5360     4.1060    -0.0220 C.3   1 <1>  -0.0970 
 12 C        3.7660     3.1460    -0.8480 C.3   1 <1>   0.1400 
 13 C        5.0340     1.2840     0.2390 C.3   1 <1>   0.1400 
 14 C        4.8220     4.1530    -0.3790 C.3   1 <1>  -0.1600 
 15 C        6.1000     2.2750     0.7170 C.3   1 <1>  -0.1600 
 16 C        6.1990     3.4940    -0.2120 C.3   1 <1>  -0.1600 
 17 H       -1.1670     2.4790    -1.7480 H     1 <1>   0.1500 
 18 H        1.2690     3.1230     2.4700 H     1 <1>   0.1500 
 19 H       -0.9040     4.2130     2.1440 H     1 <1>   0.1500 
 20 H       -3.2990     3.5480     0.4900 H     1 <1>   0.0800 
 21 H       -2.7890     4.1600    -1.0660 H     1 <1>   0.0800 
 22 H       -2.5130     5.1060     0.3730 H     1 <1>   0.0800 
 23 H        2.8110     3.6360    -0.9000 H     1 <1>   0.0800 
 24 H        4.0120     2.7900    -1.8340 H     1 <1>   0.0800 
 25 H        5.3190     0.8690    -0.7120 H     1 <1>   0.0800 
 26 H        4.9550     0.4740     0.9430 H     1 <1>   0.0800 
 27 H        4.5060     4.5740     0.5590 H     1 <1>   0.0800 
 28 H        4.8900     4.9540    -1.0930 H     1 <1>   0.0800 
 29 H        7.0520     1.7770     0.7640 H     1 <1>   0.0800 
 30 H        5.8480     2.5950     1.7130 H     1 <1>   0.0800 
 31 H        6.8970     4.2050     0.1940 H     1 <1>   0.0800 
 32 H        6.5640     3.1790    -1.1750 H     1 <1>   0.0800 
@<TRIPOS>BOND
  1   1   2  1   
  2   2   3  ar  
  3   2   4  ar  
  4   3   5  1   
  5   3   6  ar  
  6   4   7  ar  
  7   4  17  1   
  8   5   8  2   
  9   5   9  am  
 10   6  10  ar  
 11   6  18  1   
 12   7  10  ar  
 13   7  11  1   
 14   9  12  1   
 15   9  13  1   
 16  10  19  1   
 17  11  20  1   
 18  11  21  1   
 19  11  22  1   
 20  12  14  1   
 21  12  23  1   
 22  12  24  1   
 23  13  15  1   
 24  13  25  1   
 25  13  26  1   
 26  14  16  1   
 27  14  27  1   
 28  14  28  1   
 29  15  16  1   
 30  15  29  1   
 31  15  30  1   
 32  16  31  1   
 33  16  32  1   
@<TRIPOS>SUBSTRUCTURE
  1 ****   3 GROUP 4 **** **** 0

# MOE 2024.06 (io_trps.svl 2023.06)
