@<TRIPOS>MOLECULE
NONAME
45 48 1 0 0 
SMALL
USER_CHARGES


@<TRIPOS>ATOM
  1 O        0.3730    -2.4770     2.9610 O.2   1 <1>  -0.5700 
  2 C       -0.2130    -2.2910     1.9210 C.2   1 <1>   0.5690 
  3 N        0.4120    -1.8750     0.7930 N.am  1 <1>  -0.7300 
  4 C       -1.7260    -2.5250     1.8520 C.3   1 <1>   0.1710 
  5 C        1.8430    -1.5390     0.6460 C.3   1 <1>   0.2200 
  6 N       -2.4120    -1.7550     0.7710 N.3   1 <1>  -0.8100 
  7 C        2.0530     0.0500     0.3080 C.3   1 <1>  -0.0800 
  8 C        2.4980    -2.4120    -0.6160 C.3   1 <1>  -0.1600 
  9 C       -3.7620    -2.2900     0.5170 C.3   1 <1>   0.2530 
 10 C       -2.4870    -0.3210     1.0960 C.3   1 <1>   0.1100 
 11 C        2.6710    -0.6480    -0.6530 C.3   1 <1>  -0.1600 
 12 C        2.8260     1.1020    -0.6780 C.3   1 <1>  -0.1600 
 13 C        3.2620    -1.3640    -1.6140 C.3   1 <1>  -0.0800 
 14 C       -4.5480    -1.4440    -0.4820 C.ar  1 <1>  -0.1430 
 15 C       -2.9280     0.4620    -0.1430 C.3   1 <1>  -0.0170 
 16 C        3.4880     0.2240    -1.9400 C.3   1 <1>  -0.1600 
 17 C       -4.1690    -0.1400    -0.7830 C.ar  1 <1>  -0.1430 
 18 C       -5.6730    -1.9820    -1.0880 C.ar  1 <1>  -0.1500 
 19 C       -4.9150     0.6070    -1.6810 C.ar  1 <1>  -0.1500 
 20 C       -6.4150    -1.2340    -1.9840 C.ar  1 <1>  -0.1500 
 21 C       -6.0370     0.0630    -2.2810 C.ar  1 <1>  -0.1500 
 22 H       -0.1930    -1.7050    -0.0170 H     1 <1>   0.3700 
 23 H       -2.1570    -2.2820     2.8070 H     1 <1>   0.0800 
 24 H       -1.8690    -3.5770     1.6820 H     1 <1>   0.0800 
 25 H        2.3600    -1.7840     1.5630 H     1 <1>   0.0800 
 26 H        1.0320     0.3910     0.2010 H     1 <1>   0.0800 
 27 H        1.7260    -2.9410    -1.1530 H     1 <1>   0.0800 
 28 H        3.1900    -3.1440    -0.2310 H     1 <1>   0.0800 
 29 H       -4.3150    -2.3300     1.4400 H     1 <1>   0.0800 
 30 H       -3.6730    -3.2920     0.1330 H     1 <1>   0.0800 
 31 H       -1.5260     0.0430     1.4160 H     1 <1>   0.0800 
 32 H       -3.1930    -0.1640     1.8960 H     1 <1>   0.0800 
 33 H        1.6830    -0.6100    -1.2950 H     1 <1>   0.0800 
 34 H        3.6530    -0.7020    -0.0050 H     1 <1>   0.0800 
 35 H        3.6040     1.6170    -0.1340 H     1 <1>   0.0800 
 36 H        2.1460     1.8500    -1.0550 H     1 <1>   0.0800 
 37 H        4.2860    -1.7000    -1.5210 H     1 <1>   0.0800 
 38 H       -2.1280     0.4560    -0.8610 H     1 <1>   0.0800 
 39 H       -3.1180     1.4820     0.1360 H     1 <1>   0.0800 
 40 H        4.5370     0.4520    -2.0490 H     1 <1>   0.0800 
 41 H        3.0020     0.4830    -2.8690 H     1 <1>   0.0800 
 42 H       -5.9770    -2.9890    -0.8650 H     1 <1>   0.1500 
 43 H       -4.6230     1.6140    -1.9200 H     1 <1>   0.1500 
 44 H       -7.2870    -1.6600    -2.4510 H     1 <1>   0.1500 
 45 H       -6.6120     0.6460    -2.9770 H     1 <1>   0.1500 
@<TRIPOS>BOND
  1   1   2  2   
  2   2   3  am  
  3   2   4  1   
  4   3   5  1   
  5   3  22  1   
  6   4   6  1   
  7   4  23  1   
  8   4  24  1   
  9   5   7  1   
 10   5   8  1   
 11   5  25  1   
 12   6   9  1   
 13   6  10  1   
 14   7  11  1   
 15   7  12  1   
 16   7  26  1   
 17   8  13  1   
 18   8  27  1   
 19   8  28  1   
 20   9  14  1   
 21   9  29  1   
 22   9  30  1   
 23  10  15  1   
 24  10  31  1   
 25  10  32  1   
 26  11  13  1   
 27  11  33  1   
 28  11  34  1   
 29  12  16  1   
 30  12  35  1   
 31  12  36  1   
 32  13  16  1   
 33  13  37  1   
 34  14  17  ar  
 35  14  18  ar  
 36  15  17  1   
 37  15  38  1   
 38  15  39  1   
 39  16  40  1   
 40  16  41  1   
 41  17  19  ar  
 42  18  20  ar  
 43  18  42  1   
 44  19  21  ar  
 45  19  43  1   
 46  20  21  ar  
 47  20  44  1   
 48  21  45  1   
@<TRIPOS>SUBSTRUCTURE
  1 ****   6 GROUP 4 **** **** 0

# MOE 2024.06 (io_trps.svl 2023.06)
