@<TRIPOS>MOLECULE
NONAME
32 31 1 0 0 
SMALL
USER_CHARGES


@<TRIPOS>ATOM
  1 O        0.8020    -0.4720    -1.4100 O.2   1 <1>  -0.5700 
  2 C        1.3780    -0.7540    -0.3760 C.2   1 <1>   0.7060 
  3 O        1.9910     0.2170     0.3090 O.3   1 <1>  -0.4300 
  4 C        1.4750    -2.0870     0.1290 C.2   1 <1>   0.0290 
  5 C        1.9360     1.5600    -0.1140 C.3   1 <1>   0.1200 
  6 C        0.2210    -2.6900     0.4480 C.2   1 <1>   0.4950 
  7 C        2.6840    -2.7280     0.2950 C.2   1 <1>  -0.1500 
  8 C        2.7530     2.3970     0.8650 C.3   1 <1>  -0.2400 
  9 O       -0.7630    -2.0650     0.7590 O.2   1 <1>  -0.5700 
 10 C        0.0710    -4.2000     0.4330 C.3   1 <1>  -0.1790 
 11 C        3.9740    -2.2490    -0.0160 C.2   1 <1>  -0.1500 
 12 C        5.1410    -2.9270     0.1720 C.2   1 <1>  -0.0500 
 13 N        6.4040    -2.4870    -0.1160 N.pl3 1 <1>  -0.8380 
 14 C        7.5860    -3.3730     0.0580 C.3   1 <1>   0.1290 
 15 C        6.7080    -1.1230    -0.6310 C.3   1 <1>   0.1290 
 16 H        2.3420     1.6220    -1.1100 H     1 <1>   0.0800 
 17 H        0.9040     1.8710    -0.1240 H     1 <1>   0.0800 
 18 H        2.6800    -3.7180     0.7150 H     1 <1>   0.1500 
 19 H        3.7750     2.0630     0.8740 H     1 <1>   0.0800 
 20 H        2.3390     2.3170     1.8540 H     1 <1>   0.0800 
 21 H        2.7300     3.4290     0.5660 H     1 <1>   0.0800 
 22 H        0.6650    -4.6310    -0.3510 H     1 <1>   0.0800 
 23 H       -0.9580    -4.4570     0.2610 H     1 <1>   0.0800 
 24 H        0.3720    -4.6030     1.3820 H     1 <1>   0.0800 
 25 H        4.0290    -1.2650    -0.4410 H     1 <1>   0.1500 
 26 H        5.0830    -3.9210     0.5880 H     1 <1>   0.1500 
 27 H        8.2510    -2.9530     0.7920 H     1 <1>   0.0800 
 28 H        8.1070    -3.4720    -0.8790 H     1 <1>   0.0800 
 29 H        7.2780    -4.3500     0.3870 H     1 <1>   0.0800 
 30 H        7.7140    -0.8440    -0.3730 H     1 <1>   0.0800 
 31 H        6.0380    -0.4030    -0.1960 H     1 <1>   0.0800 
 32 H        6.6000    -1.1100    -1.7010 H     1 <1>   0.0800 
@<TRIPOS>BOND
  1   1   2  2   
  2   2   3  1   
  3   2   4  1   
  4   3   5  1   
  5   4   6  1   
  6   4   7  2   
  7   5   8  1   
  8   5  16  1   
  9   5  17  1   
 10   6   9  2   
 11   6  10  1   
 12   7  11  1   
 13   7  18  1   
 14   8  19  1   
 15   8  20  1   
 16   8  21  1   
 17  10  22  1   
 18  10  23  1   
 19  10  24  1   
 20  11  12  2   
 21  11  25  1   
 22  12  13  1   
 23  12  26  1   
 24  13  14  1   
 25  13  15  1   
 26  14  27  1   
 27  14  28  1   
 28  14  29  1   
 29  15  30  1   
 30  15  31  1   
 31  15  32  1   
@<TRIPOS>SUBSTRUCTURE
  1 ****   7 GROUP 4 **** **** 0

# MOE 2024.06 (io_trps.svl 2023.06)
