@<TRIPOS>MOLECULE
NONAME
50 52 1 0 0 
SMALL
USER_CHARGES


@<TRIPOS>ATOM
  1 O       -0.8390     0.3510    -1.9300 O.2   1 <1>  -0.5700 
  2 C       -1.7810     0.9910    -1.5300 C.2   1 <1>   0.5690 
  3 N       -3.0610     0.4820    -1.4420 N.am  1 <1>  -0.4690 
  4 C       -1.5570     2.4360    -1.1700 C.3   1 <1>  -0.0990 
  5 C       -4.0320     1.0790    -0.6290 C.2   1 <1>  -0.0290 
  6 C       -3.3300    -0.7910    -2.1800 C.3   1 <1>   0.0600 
  7 C       -2.4340     2.9300    -0.0120 C.3   1 <1>   0.2020 
  8 C       -3.7910     2.2140     0.0840 C.2   1 <1>  -0.1240 
  9 C       -5.4010     0.3850    -0.5340 C.3   1 <1>  -0.0220 
 10 C       -2.5560     4.4520    -0.1890 C.ar  1 <1>  -0.1440 
 11 C       -4.7430     2.7830     0.9910 C.2   1 <1>   0.4950 
 12 C       -6.2230     0.7650     0.7170 C.3   1 <1>   0.0000 
 13 C       -1.7050     5.3230     0.4910 C.ar  1 <1>   0.0820 
 14 C       -3.5140     4.9780    -1.0470 C.ar  1 <1>  -0.1500 
 15 O       -4.4960     3.6110     1.8340 O.2   1 <1>  -0.5700 
 16 C       -6.1720     2.2870     0.9220 C.3   1 <1>  -0.0990 
 17 C       -5.6550     0.0470     1.9570 C.3   1 <1>  -0.2400 
 18 C       -7.6830     0.3230     0.5330 C.3   1 <1>  -0.2400 
 19 O       -0.7540     4.7880     1.3020 O.3   1 <1>  -0.3630 
 20 C       -1.8380     6.6970     0.3160 C.ar  1 <1>  -0.1500 
 21 C       -3.6440     6.3440    -1.2180 C.ar  1 <1>  -0.1500 
 22 C       -0.1100     5.5700     2.2820 C.3   1 <1>   0.0400 
 23 C       -2.8030     7.2130    -0.5300 C.ar  1 <1>   0.0820 
 24 O       -2.8640     8.5650    -0.6370 O.3   1 <1>  -0.3630 
 25 C       -3.8600     9.1930    -1.4110 C.3   1 <1>   0.0400 
 26 H       -1.7670     3.0050    -2.0560 H     1 <1>   0.0800 
 27 H       -0.5230     2.5910    -0.9230 H     1 <1>   0.0800 
 28 H       -2.5810    -0.9610    -2.9350 H     1 <1>   0.0800 
 29 H       -4.2840    -0.7440    -2.6710 H     1 <1>   0.0800 
 30 H       -3.3130    -1.6170    -1.4910 H     1 <1>   0.0800 
 31 H       -1.9260     2.7070     0.9090 H     1 <1>   0.0800 
 32 H       -5.2850    -0.6830    -0.5210 H     1 <1>   0.0800 
 33 H       -5.9560     0.6400    -1.4210 H     1 <1>   0.0800 
 34 H       -4.1710     4.3220    -1.5910 H     1 <1>   0.1500 
 35 H       -6.6580     2.7910     0.1070 H     1 <1>   0.0800 
 36 H       -6.6840     2.5550     1.8290 H     1 <1>   0.0800 
 37 H       -4.6170     0.2870     2.1100 H     1 <1>   0.0800 
 38 H       -5.7350    -1.0200     1.8480 H     1 <1>   0.0800 
 39 H       -6.1970     0.3350     2.8410 H     1 <1>   0.0800 
 40 H       -8.1280     0.8110    -0.3160 H     1 <1>   0.0800 
 41 H       -8.2640     0.5710     1.4050 H     1 <1>   0.0800 
 42 H       -7.7420    -0.7400     0.3810 H     1 <1>   0.0800 
 43 H       -1.2000     7.3930     0.8220 H     1 <1>   0.1500 
 44 H       -4.3990     6.7110    -1.8860 H     1 <1>   0.1500 
 45 H        0.4810     4.9160     2.8970 H     1 <1>   0.0800 
 46 H       -0.8570     6.0600     2.8820 H     1 <1>   0.0800 
 47 H        0.5270     6.2870     1.7950 H     1 <1>   0.0800 
 48 H       -3.7310    10.2570    -1.3220 H     1 <1>   0.0800 
 49 H       -4.8260     8.9090    -1.0330 H     1 <1>   0.0800 
 50 H       -3.7440     8.8950    -2.4380 H     1 <1>   0.0800 
@<TRIPOS>BOND
  1   1   2  2   
  2   2   3  am  
  3   2   4  1   
  4   3   5  1   
  5   3   6  1   
  6   4   7  1   
  7   4  26  1   
  8   4  27  1   
  9   5   8  2   
 10   5   9  1   
 11   6  28  1   
 12   6  29  1   
 13   6  30  1   
 14   7   8  1   
 15   7  10  1   
 16   7  31  1   
 17   8  11  1   
 18   9  12  1   
 19   9  32  1   
 20   9  33  1   
 21  10  13  ar  
 22  10  14  ar  
 23  11  15  2   
 24  11  16  1   
 25  12  16  1   
 26  12  17  1   
 27  12  18  1   
 28  13  19  1   
 29  13  20  ar  
 30  14  21  ar  
 31  14  34  1   
 32  16  35  1   
 33  16  36  1   
 34  17  37  1   
 35  17  38  1   
 36  17  39  1   
 37  18  40  1   
 38  18  41  1   
 39  18  42  1   
 40  19  22  1   
 41  20  23  ar  
 42  20  43  1   
 43  21  23  ar  
 44  21  44  1   
 45  22  45  1   
 46  22  46  1   
 47  22  47  1   
 48  23  24  1   
 49  24  25  1   
 50  25  48  1   
 51  25  49  1   
 52  25  50  1   
@<TRIPOS>SUBSTRUCTURE
  1 ****   7 GROUP 4 **** **** 0

# MOE 2024.06 (io_trps.svl 2023.06)
