@<TRIPOS>MOLECULE
NONAME
50 52 1 0 0 
SMALL
USER_CHARGES


@<TRIPOS>ATOM
  1 BR       2.0470    -0.6260    -0.0210 Br    1 <1>  -0.1110 
  2 C        0.8520    -2.1310    -0.1350 C.ar  1 <1>   0.1110 
  3 C       -0.2380    -2.1760     0.7120 C.ar  1 <1>  -0.1500 
  4 C        1.1140    -3.1230    -1.0590 C.ar  1 <1>  -0.1500 
  5 C       -1.1040    -3.2570     0.6280 C.ar  1 <1>  -0.1440 
  6 C        0.2510    -4.2020    -1.1370 C.ar  1 <1>  -0.1500 
  7 C       -0.8600    -4.2720    -0.2950 C.ar  1 <1>   0.0830 
  8 C       -2.3110    -3.3430     1.5410 C.3   1 <1>   0.4870 
  9 O       -1.7480    -5.2990    -0.3300 O.3   1 <1>  -0.3630 
 10 N       -3.4010    -2.5040     0.9760 N.4   1 <1>  -0.9590 
 11 C       -1.4690    -6.4830    -1.0520 C.3   1 <1>   0.0400 
 12 C       -4.5200    -2.3010     1.9670 C.3   1 <1>   0.3430 
 13 C       -3.9250    -3.1040    -0.3100 C.3   1 <1>   0.3430 
 14 C       -5.6830    -1.4710     1.3850 C.3   1 <1>   0.2090 
 15 C       -5.0870    -2.2930    -0.9170 C.3   1 <1>   0.2090 
 16 N       -6.1530    -2.0570     0.0990 N.pl3 1 <1>  -0.8380 
 17 C       -7.3770    -1.5870    -0.3760 C.ar  1 <1>   0.1000 
 18 C       -8.5380    -2.3670    -0.3130 C.ar  1 <1>  -0.1430 
 19 C       -7.4460    -0.3080    -0.9170 C.ar  1 <1>  -0.1500 
 20 C       -9.7440    -1.8460    -0.7740 C.ar  1 <1>  -0.1430 
 21 C       -8.4890    -3.7810     0.2680 C.3   1 <1>  -0.0970 
 22 C       -8.6400     0.2010    -1.3830 C.ar  1 <1>  -0.1500 
 23 C       -9.7850    -0.5680    -1.3090 C.ar  1 <1>  -0.1500 
 24 C      -11.0450    -2.6370    -0.7120 C.3   1 <1>  -0.0970 
 25 H       -0.3830    -1.3770     1.4180 H     1 <1>   0.1500 
 26 H        1.9760    -3.0510    -1.7000 H     1 <1>   0.1500 
 27 H        0.4610    -4.9700    -1.8590 H     1 <1>   0.1500 
 28 H       -2.0370    -2.9860     2.5200 H     1 <1>   0.0800 
 29 H       -2.6350    -4.3670     1.6310 H     1 <1>   0.0800 
 30 H       -2.9960    -1.5910     0.7400 H     1 <1>   0.4500 
 31 H       -2.2550    -7.1910    -0.8600 H     1 <1>   0.0800 
 32 H       -0.5280    -6.8860    -0.7170 H     1 <1>   0.0800 
 33 H       -1.4340    -6.2560    -2.1030 H     1 <1>   0.0800 
 34 H       -4.1470    -1.8080     2.8500 H     1 <1>   0.0800 
 35 H       -4.9150    -3.2580     2.2630 H     1 <1>   0.0800 
 36 H       -4.2770    -4.1050    -0.1220 H     1 <1>   0.0800 
 37 H       -3.1300    -3.1710    -1.0350 H     1 <1>   0.0800 
 38 H       -5.3690    -0.4540     1.2260 H     1 <1>   0.0800 
 39 H       -6.5020    -1.4590     2.0850 H     1 <1>   0.0800 
 40 H       -5.5070    -2.8340    -1.7480 H     1 <1>   0.0800 
 41 H       -4.7220    -1.3510    -1.2870 H     1 <1>   0.0800 
 42 H       -6.5610     0.2950    -0.9720 H     1 <1>   0.1500 
 43 H       -9.1000    -4.4500    -0.3100 H     1 <1>   0.0800 
 44 H       -8.8480    -3.7670     1.2800 H     1 <1>   0.0800 
 45 H       -7.4930    -4.1810     0.2620 H     1 <1>   0.0800 
 46 H       -8.6830     1.1910    -1.8010 H     1 <1>   0.1500 
 47 H      -10.7120    -0.1600    -1.6730 H     1 <1>   0.1500 
 48 H      -11.1940    -3.0330     0.2760 H     1 <1>   0.0800 
 49 H      -11.0150    -3.4480    -1.4170 H     1 <1>   0.0800 
 50 H      -11.8880    -2.0140    -0.9490 H     1 <1>   0.0800 
@<TRIPOS>BOND
  1   1   2  1   
  2   2   3  ar  
  3   2   4  ar  
  4   3   5  ar  
  5   3  25  1   
  6   4   6  ar  
  7   4  26  1   
  8   5   7  ar  
  9   5   8  1   
 10   6   7  ar  
 11   6  27  1   
 12   7   9  1   
 13   8  10  1   
 14   8  28  1   
 15   8  29  1   
 16   9  11  1   
 17  10  12  1   
 18  10  13  1   
 19  10  30  1   
 20  11  31  1   
 21  11  32  1   
 22  11  33  1   
 23  12  14  1   
 24  12  34  1   
 25  12  35  1   
 26  13  15  1   
 27  13  36  1   
 28  13  37  1   
 29  14  16  1   
 30  14  38  1   
 31  14  39  1   
 32  15  16  1   
 33  15  40  1   
 34  15  41  1   
 35  16  17  1   
 36  17  18  ar  
 37  17  19  ar  
 38  18  20  ar  
 39  18  21  1   
 40  19  22  ar  
 41  19  42  1   
 42  20  23  ar  
 43  20  24  1   
 44  21  43  1   
 45  21  44  1   
 46  21  45  1   
 47  22  23  ar  
 48  22  46  1   
 49  23  47  1   
 50  24  48  1   
 51  24  49  1   
 52  24  50  1   
@<TRIPOS>SUBSTRUCTURE
  1 ****  13 GROUP 4 **** **** 0

# MOE 2024.06 (io_trps.svl 2023.06)
