@<TRIPOS>MOLECULE
NONAME
44 47 1 0 0 
SMALL
USER_CHARGES


@<TRIPOS>ATOM
  1 CL      -4.5240    -5.2760     2.5030 Cl    1 <1>  -0.1770 
  2 C       -5.2930    -3.7780     2.0410 C.ar  1 <1>   0.1770 
  3 C       -5.8010    -2.9470     3.0220 C.ar  1 <1>  -0.1500 
  4 C       -5.3830    -3.4480     0.7020 C.ar  1 <1>  -0.1500 
  5 C       -6.4170    -1.7640     2.6500 C.ar  1 <1>  -0.1500 
  6 C       -5.9990    -2.2640     0.3330 C.ar  1 <1>  -0.1500 
  7 C       -6.5250    -1.4190     1.3100 C.ar  1 <1>   0.0830 
  8 O       -7.1730    -0.2570     1.0360 O.3   1 <1>  -0.3630 
  9 C       -7.5160     0.1250    -0.2950 C.3   1 <1>   0.1810 
 10 C       -8.5380    -0.8140    -0.9330 C.2   1 <1>   0.5690 
 11 O       -8.6230    -0.8400    -2.1370 O.2   1 <1>  -0.5700 
 12 N       -9.2980    -1.6090    -0.1390 N.am  1 <1>  -0.7300 
 13 C      -10.1930    -2.6900    -0.5930 C.3   1 <1>   0.2200 
 14 C      -11.4820    -2.7080     0.2550 C.3   1 <1>  -0.0800 
 15 C       -9.4780    -4.0530    -0.4710 C.3   1 <1>  -0.0800 
 16 C      -12.4160    -3.8030    -0.3020 C.3   1 <1>  -0.1600 
 17 C      -11.1650    -3.0370     1.7320 C.3   1 <1>  -0.1600 
 18 C      -10.4140    -5.1460    -1.0280 C.3   1 <1>  -0.1600 
 19 C       -9.1630    -4.3800     1.0060 C.3   1 <1>  -0.1600 
 20 C      -11.7260    -5.1800    -0.2180 C.3   1 <1>  -0.0800 
 21 C      -10.4650    -4.4070     1.8300 C.3   1 <1>  -0.0800 
 22 C      -11.3990    -5.4890     1.2560 C.3   1 <1>  -0.1600 
 23 H       -5.7140    -3.2240     4.0570 H     1 <1>   0.1500 
 24 H       -4.9760    -4.1130    -0.0390 H     1 <1>   0.1500 
 25 H       -6.8190    -1.1030     3.3980 H     1 <1>   0.1500 
 26 H       -6.0600    -2.0250    -0.7130 H     1 <1>   0.1500 
 27 H       -6.6190     0.1600    -0.8840 H     1 <1>   0.0800 
 28 H       -7.9340     1.1120    -0.2480 H     1 <1>   0.0800 
 29 H       -9.0980    -1.6200     0.8630 H     1 <1>   0.3700 
 30 H      -10.4490    -2.5140    -1.6260 H     1 <1>   0.0800 
 31 H      -11.9720    -1.7530     0.1820 H     1 <1>   0.0800 
 32 H       -8.5710    -4.0340    -1.0500 H     1 <1>   0.0800 
 33 H      -13.3340    -3.8210     0.2600 H     1 <1>   0.0800 
 34 H      -12.6660    -3.5840    -1.3260 H     1 <1>   0.0800 
 35 H      -12.0780    -3.0580     2.3010 H     1 <1>   0.0800 
 36 H      -10.5400    -2.2750     2.1620 H     1 <1>   0.0800 
 37 H       -9.9280    -6.1040    -0.9740 H     1 <1>   0.0800 
 38 H      -10.6300    -4.9480    -2.0630 H     1 <1>   0.0800 
 39 H       -8.6740    -5.3370     1.0690 H     1 <1>   0.0800 
 40 H       -8.4870    -3.6520     1.4160 H     1 <1>   0.0800 
 41 H      -12.3780    -5.9400    -0.6130 H     1 <1>   0.0800 
 42 H      -10.2400    -4.6300     2.8590 H     1 <1>   0.0800 
 43 H      -10.9260    -6.4540     1.3290 H     1 <1>   0.0800 
 44 H      -12.3080    -5.5280     1.8300 H     1 <1>   0.0800 
@<TRIPOS>BOND
  1   1   2  1   
  2   2   3  ar  
  3   2   4  ar  
  4   3   5  ar  
  5   3  23  1   
  6   4   6  ar  
  7   4  24  1   
  8   5   7  ar  
  9   5  25  1   
 10   6   7  ar  
 11   6  26  1   
 12   7   8  1   
 13   8   9  1   
 14   9  10  1   
 15   9  27  1   
 16   9  28  1   
 17  10  11  2   
 18  10  12  am  
 19  12  13  1   
 20  12  29  1   
 21  13  14  1   
 22  13  15  1   
 23  13  30  1   
 24  14  16  1   
 25  14  17  1   
 26  14  31  1   
 27  15  18  1   
 28  15  19  1   
 29  15  32  1   
 30  16  20  1   
 31  16  33  1   
 32  16  34  1   
 33  17  21  1   
 34  17  35  1   
 35  17  36  1   
 36  18  20  1   
 37  18  37  1   
 38  18  38  1   
 39  19  21  1   
 40  19  39  1   
 41  19  40  1   
 42  20  22  1   
 43  20  41  1   
 44  21  22  1   
 45  21  42  1   
 46  22  43  1   
 47  22  44  1   
@<TRIPOS>SUBSTRUCTURE
  1 ****  19 GROUP 4 **** **** 0

# MOE 2024.06 (io_trps.svl 2023.06)
