@<TRIPOS>MOLECULE
NONAME
37 37 1 0 0 
SMALL
USER_CHARGES


@<TRIPOS>ATOM
  1 CL       0.4960    -0.0440    -0.0880 Cl    1 <1>  -0.1770 
  2 C        0.2650     1.6910    -0.0320 C.ar  1 <1>   0.1770 
  3 C        1.3680     2.5370    -0.0020 C.ar  1 <1>   0.0820 
  4 C       -1.0250     2.1850    -0.0190 C.ar  1 <1>  -0.1500 
  5 O        2.6060     1.9730    -0.0170 O.3   1 <1>  -0.3630 
  6 C        1.1500     3.9120     0.0410 C.ar  1 <1>  -0.1500 
  7 C       -1.2350     3.5540     0.0250 C.ar  1 <1>  -0.1430 
  8 C        3.7800     2.7430     0.0110 C.3   1 <1>   0.1200 
  9 C       -0.1440     4.4090     0.0530 C.ar  1 <1>  -0.1500 
 10 C       -2.6460     4.1150     0.0380 C.3   1 <1>  -0.0960 
 11 C        4.9500     1.7580    -0.0170 C.3   1 <1>   0.3430 
 12 N        6.2720     2.4540     0.0100 N.4   1 <1>  -0.9060 
 13 C        7.4010     1.4930    -0.0170 C.3   1 <1>   0.3430 
 14 C        8.7140     2.2700     0.0120 C.3   1 <1>  -0.1600 
 15 C        9.9130     1.3150    -0.0150 C.3   1 <1>  -0.1600 
 16 C       11.2320     2.0910     0.0140 C.3   1 <1>  -0.2400 
 17 H       -1.8520     1.4980    -0.0450 H     1 <1>   0.1500 
 18 H        1.9610     4.6140     0.0640 H     1 <1>   0.1500 
 19 H        3.7770     3.3220     0.9190 H     1 <1>   0.0800 
 20 H        3.7830     3.3790    -0.8570 H     1 <1>   0.0800 
 21 H       -0.3030     5.4730     0.0850 H     1 <1>   0.1500 
 22 H       -3.3410     3.3870     0.4180 H     1 <1>   0.0800 
 23 H       -2.9400     4.3860    -0.9600 H     1 <1>   0.0800 
 24 H       -2.6960     4.9880     0.6640 H     1 <1>   0.0800 
 25 H        4.8740     1.1600    -0.9110 H     1 <1>   0.0800 
 26 H        4.8680     1.1040     0.8370 H     1 <1>   0.0800 
 27 H        6.3510     3.0320     0.8570 H     1 <1>   0.4500 
 28 H        6.3570     3.0850    -0.7980 H     1 <1>   0.4500 
 29 H        7.3560     0.8920    -0.9130 H     1 <1>   0.0800 
 30 H        7.3510     0.8360     0.8370 H     1 <1>   0.0800 
 31 H        8.7670     2.8650     0.9070 H     1 <1>   0.0800 
 32 H        8.7720     2.9210    -0.8440 H     1 <1>   0.0800 
 33 H        9.8860     0.7100    -0.9070 H     1 <1>   0.0800 
 34 H        9.8810     0.6540     0.8360 H     1 <1>   0.0800 
 35 H       11.3130     2.7410    -0.8410 H     1 <1>   0.0800 
 36 H       12.0630     1.4060    -0.0060 H     1 <1>   0.0800 
 37 H       11.3070     2.6850     0.9080 H     1 <1>   0.0800 
@<TRIPOS>BOND
  1   1   2  1   
  2   2   3  ar  
  3   2   4  ar  
  4   3   5  1   
  5   3   6  ar  
  6   4   7  ar  
  7   4  17  1   
  8   5   8  1   
  9   6   9  ar  
 10   6  18  1   
 11   7   9  ar  
 12   7  10  1   
 13   8  11  1   
 14   8  19  1   
 15   8  20  1   
 16   9  21  1   
 17  10  22  1   
 18  10  23  1   
 19  10  24  1   
 20  11  12  1   
 21  11  25  1   
 22  11  26  1   
 23  12  13  1   
 24  12  27  1   
 25  12  28  1   
 26  13  14  1   
 27  13  29  1   
 28  13  30  1   
 29  14  15  1   
 30  14  31  1   
 31  14  32  1   
 32  15  16  1   
 33  15  33  1   
 34  15  34  1   
 35  16  35  1   
 36  16  36  1   
 37  16  37  1   
@<TRIPOS>SUBSTRUCTURE
  1 ****   8 GROUP 4 **** **** 0

# MOE 2024.06 (io_trps.svl 2023.06)
