@<TRIPOS>MOLECULE
NONAME
50 53 1 0 0 
SMALL
USER_CHARGES


@<TRIPOS>ATOM
  1 CL       0.3910     1.3700     1.6720 Cl    1 <1>  -0.1770 
  2 C        1.7910     1.6320     0.6540 C.ar  1 <1>   0.1770 
  3 C        1.8230     2.7220    -0.2120 C.ar  1 <1>   0.0820 
  4 C        2.8380     0.7400     0.7420 C.ar  1 <1>  -0.1500 
  5 O        0.7520     3.5540    -0.2370 O.3   1 <1>  -0.3630 
  6 C        2.9540     2.9000    -0.9980 C.ar  1 <1>  -0.1500 
  7 C        3.9810     0.9010    -0.0480 C.ar  1 <1>   0.0280 
  8 C        0.7400     4.7870    -0.9520 C.3   1 <1>   0.4050 
  9 C        4.0100     2.0070    -0.9130 C.ar  1 <1>   0.0820 
 10 C        5.1230     0.0250    -0.0290 C.2   1 <1>  -0.1670 
 11 C        1.7470     5.7640    -0.3360 C.ar  1 <1>  -0.1440 
 12 C       -0.6750     5.3680    -0.9750 C.2   1 <1>   0.6590 
 13 O        5.0850     2.2380    -1.6940 O.3   1 <1>  -0.2330 
 14 C        6.1910     0.3230    -0.8130 C.2   1 <1>  -0.1240 
 15 C        5.0980    -1.2060     0.8800 C.3   1 <1>  -0.0220 
 16 C        1.8770     5.8820     1.0410 C.ar  1 <1>  -0.1500 
 17 C        2.5440     6.5480    -1.1590 C.ar  1 <1>  -0.1500 
 18 O       -1.2300     5.6250    -2.0160 O.2   1 <1>  -0.5700 
 19 O       -1.2650     5.5810     0.1990 O.3   1 <1>  -0.4300 
 20 C        6.1700     1.4650    -1.6840 C.2   1 <1>   0.7060 
 21 C        7.4630    -0.5260    -0.8300 C.3   1 <1>  -0.0220 
 22 C        6.2190    -2.2040     0.5670 C.3   1 <1>  -0.1600 
 23 C        2.7940     6.7620     1.5870 C.ar  1 <1>  -0.1500 
 24 C        3.4620     7.4280    -0.6140 C.ar  1 <1>  -0.1500 
 25 C       -2.5650     6.1120     0.2910 C.3   1 <1>   0.1200 
 26 O        7.0830     1.7740    -2.4250 O.2   1 <1>  -0.5700 
 27 C        7.5510    -1.4800     0.3660 C.3   1 <1>  -0.1600 
 28 C        3.5890     7.5350     0.7600 C.ar  1 <1>  -0.1500 
 29 C       -2.9230     6.2240     1.7690 C.3   1 <1>  -0.2400 
 30 H        2.7530    -0.0740     1.4350 H     1 <1>   0.1500 
 31 H        3.0500     3.7210    -1.6810 H     1 <1>   0.1500 
 32 H        1.0090     4.5690    -1.9680 H     1 <1>   0.0800 
 33 H        4.1610    -1.7240     0.7740 H     1 <1>   0.0800 
 34 H        5.1880    -0.8790     1.9010 H     1 <1>   0.0800 
 35 H        1.2620     5.2860     1.6950 H     1 <1>   0.1500 
 36 H        2.4580     6.4810    -2.2310 H     1 <1>   0.1500 
 37 H        8.3300     0.1130    -0.8240 H     1 <1>   0.0800 
 38 H        7.4830    -1.0930    -1.7450 H     1 <1>   0.0800 
 39 H        5.9730    -2.7470    -0.3300 H     1 <1>   0.0800 
 40 H        6.3040    -2.9140     1.3710 H     1 <1>   0.0800 
 41 H        2.8890     6.8450     2.6560 H     1 <1>   0.1500 
 42 H        4.0800     8.0310    -1.2570 H     1 <1>   0.1500 
 43 H       -3.2410     5.4490    -0.2220 H     1 <1>   0.0800 
 44 H       -2.5740     7.0780    -0.1840 H     1 <1>   0.0800 
 45 H        7.7900    -0.9180     1.2540 H     1 <1>   0.0800 
 46 H        8.3400    -2.1930     0.2010 H     1 <1>   0.0800 
 47 H        4.3030     8.2190     1.1840 H     1 <1>   0.1500 
 48 H       -2.8950     5.2530     2.2310 H     1 <1>   0.0800 
 49 H       -3.9140     6.6260     1.8740 H     1 <1>   0.0800 
 50 H       -2.2320     6.8800     2.2680 H     1 <1>   0.0800 
@<TRIPOS>BOND
  1   1   2  1   
  2   2   3  ar  
  3   2   4  ar  
  4   3   5  1   
  5   3   6  ar  
  6   4   7  ar  
  7   4  30  1   
  8   5   8  1   
  9   6   9  ar  
 10   6  31  1   
 11   7   9  ar  
 12   7  10  1   
 13   8  11  1   
 14   8  12  1   
 15   8  32  1   
 16   9  13  1   
 17  10  14  2   
 18  10  15  1   
 19  11  16  ar  
 20  11  17  ar  
 21  12  18  2   
 22  12  19  1   
 23  13  20  1   
 24  14  20  1   
 25  14  21  1   
 26  15  22  1   
 27  15  33  1   
 28  15  34  1   
 29  16  23  ar  
 30  16  35  1   
 31  17  24  ar  
 32  17  36  1   
 33  19  25  1   
 34  20  26  2   
 35  21  27  1   
 36  21  37  1   
 37  21  38  1   
 38  22  27  1   
 39  22  39  1   
 40  22  40  1   
 41  23  28  ar  
 42  23  41  1   
 43  24  28  ar  
 44  24  42  1   
 45  25  29  1   
 46  25  43  1   
 47  25  44  1   
 48  27  45  1   
 49  27  46  1   
 50  28  47  1   
 51  29  48  1   
 52  29  49  1   
 53  29  50  1   
@<TRIPOS>SUBSTRUCTURE
  1 ****   6 GROUP 4 **** **** 0

# MOE 2024.06 (io_trps.svl 2023.06)
