@<TRIPOS>MOLECULE
NONAME
33 34 1 0 0 
SMALL
USER_CHARGES


@<TRIPOS>ATOM
  1 CL      -0.3100     0.4410     1.1900 Cl    1 <1>  -0.1770 
  2 C        0.3310     1.8890     0.4480 C.ar  1 <1>   0.1770 
  3 C       -0.4620     2.6610    -0.3900 C.ar  1 <1>  -0.1440 
  4 C        1.6420     2.2340     0.7200 C.ar  1 <1>  -0.1500 
  5 C        0.0860     3.8060    -0.9520 C.ar  1 <1>  -0.1500 
  6 C       -1.9110     2.2900    -0.6870 C.3   1 <1>   0.0890 
  7 C        2.1790     3.3740     0.1490 C.ar  1 <1>  -0.1500 
  8 C        1.3990     4.1580    -0.6850 C.ar  1 <1>  -0.1500 
  9 S       -3.1020     3.1710     0.3320 S.o2  1 <1>   1.3330 
 10 O       -3.1610     4.5390    -0.1370 O.2   1 <1>  -0.6500 
 11 O       -2.8700     2.9110     1.7360 O.2   1 <1>  -0.6500 
 12 N       -4.5680     2.4200    -0.0760 N.am  1 <1>  -0.8490 
 13 C       -5.7100     3.3300     0.0870 C.3   1 <1>   0.1960 
 14 C       -4.7850     1.1800     0.6820 C.3   1 <1>   0.1960 
 15 C       -6.9940     2.6770    -0.4390 C.3   1 <1>  -0.1600 
 16 C       -6.0230     0.4460     0.1580 C.3   1 <1>  -0.1600 
 17 C       -7.2690     1.3340     0.2460 C.3   1 <1>  -0.1600 
 18 H        2.2310     1.6160     1.3730 H     1 <1>   0.1500 
 19 H       -0.5080     4.4350    -1.5950 H     1 <1>   0.1500 
 20 H       -2.0460     1.2360    -0.5610 H     1 <1>   0.0800 
 21 H       -2.1170     2.5060    -1.7170 H     1 <1>   0.0800 
 22 H        3.1980     3.6530     0.3540 H     1 <1>   0.1500 
 23 H        1.8140     5.0490    -1.1260 H     1 <1>   0.1500 
 24 H       -5.5400     4.2360    -0.4700 H     1 <1>   0.0800 
 25 H       -5.8220     3.5920     1.1270 H     1 <1>   0.0800 
 26 H       -4.9150     1.4070     1.7290 H     1 <1>   0.0800 
 27 H       -3.9280     0.5350     0.5870 H     1 <1>   0.0800 
 28 H       -6.8940     2.5310    -1.5000 H     1 <1>   0.0800 
 29 H       -7.8230     3.3430    -0.2760 H     1 <1>   0.0800 
 30 H       -6.1760    -0.4500     0.7330 H     1 <1>   0.0800 
 31 H       -5.8500     0.1570    -0.8640 H     1 <1>   0.0800 
 32 H       -8.1060     0.8450    -0.2230 H     1 <1>   0.0800 
 33 H       -7.5150     1.5030     1.2800 H     1 <1>   0.0800 
@<TRIPOS>BOND
  1   1   2  1   
  2   2   3  ar  
  3   2   4  ar  
  4   3   5  ar  
  5   3   6  1   
  6   4   7  ar  
  7   4  18  1   
  8   5   8  ar  
  9   5  19  1   
 10   6   9  1   
 11   6  20  1   
 12   6  21  1   
 13   7   8  ar  
 14   7  22  1   
 15   8  23  1   
 16   9  10  2   
 17   9  11  2   
 18   9  12  am  
 19  12  13  1   
 20  12  14  1   
 21  13  15  1   
 22  13  24  1   
 23  13  25  1   
 24  14  16  1   
 25  14  26  1   
 26  14  27  1   
 27  15  17  1   
 28  15  28  1   
 29  15  29  1   
 30  16  17  1   
 31  16  30  1   
 32  16  31  1   
 33  17  32  1   
 34  17  33  1   
@<TRIPOS>SUBSTRUCTURE
  1 ****   9 GROUP 4 **** **** 0

# MOE 2024.06 (io_trps.svl 2023.06)
