@<TRIPOS>MOLECULE
NONAME
48 50 1 0 0 
SMALL
USER_CHARGES


@<TRIPOS>ATOM
  1 S       -0.0610     2.2930     0.5100 S.o2  1 <1>   1.4470 
  2 O        0.4510     3.2670    -0.4250 O.2   1 <1>  -0.6500 
  3 O       -0.9680     2.6710     1.5670 O.2   1 <1>  -0.6500 
  4 N        1.2760     1.6090     1.3380 N.am  1 <1>  -0.7570 
  5 C       -0.7190     0.8450    -0.3600 C.ar  1 <1>  -0.0090 
  6 C        2.2970     0.9200     0.7040 C.ar  1 <1>   0.1990 
  7 C       -1.6490     0.0120     0.2420 C.ar  1 <1>  -0.1500 
  8 C       -0.2730     0.5030    -1.6290 C.ar  1 <1>  -0.1500 
  9 C        2.5200    -0.4330     0.9670 C.ar  1 <1>  -0.1440 
 10 C        3.1110     1.5760    -0.2120 C.ar  1 <1>  -0.1500 
 11 C       -2.1380    -1.1380    -0.3730 C.ar  1 <1>   0.0860 
 12 C       -0.7380    -0.6320    -2.2670 C.ar  1 <1>  -0.1500 
 13 C        3.5400    -1.0990     0.3070 C.ar  1 <1>  -0.1500 
 14 C        1.6540    -1.2040     1.9580 C.3   1 <1>  -0.0970 
 15 C        4.1270     0.9050    -0.8660 C.ar  1 <1>  -0.1500 
 16 C       -1.6610    -1.4570    -1.6480 C.ar  1 <1>  -0.1430 
 17 C       -3.1060    -1.9550     0.3310 C.2   1 <1>   0.5440 
 18 C        4.3420    -0.4360    -0.6060 C.ar  1 <1>  -0.1500 
 19 C       -2.1340    -2.7170    -2.3610 C.3   1 <1>  -0.0970 
 20 O       -2.7230    -2.6700     1.2370 O.2   1 <1>  -0.5700 
 21 N       -4.4470    -1.9210     0.0160 N.am  1 <1>  -0.6600 
 22 C       -5.4550    -2.7820     0.7060 C.3   1 <1>   0.1400 
 23 C       -5.0610    -0.9470    -0.9360 C.3   1 <1>   0.1400 
 24 C       -6.5950    -1.9250     1.2790 C.3   1 <1>   0.1200 
 25 C       -6.2230    -0.1960    -0.2630 C.3   1 <1>   0.1200 
 26 O       -7.1400    -1.0970     0.2890 O.3   1 <1>  -0.5600 
 27 H        0.9620     1.2420     2.2280 H     1 <1>   0.4200 
 28 H       -2.0110     0.2500     1.2290 H     1 <1>   0.1500 
 29 H        0.4550     1.1290    -2.1200 H     1 <1>   0.1500 
 30 H        2.9490     2.6210    -0.4090 H     1 <1>   0.1500 
 31 H       -0.3660    -0.8700    -3.2490 H     1 <1>   0.1500 
 32 H        3.7200    -2.1430     0.4970 H     1 <1>   0.1500 
 33 H        0.6330    -1.2230     1.6240 H     1 <1>   0.0800 
 34 H        1.7010    -0.7450     2.9290 H     1 <1>   0.0800 
 35 H        1.9910    -2.2210     2.0530 H     1 <1>   0.0800 
 36 H        4.7500     1.4250    -1.5730 H     1 <1>   0.1500 
 37 H        5.1320    -0.9630    -1.1130 H     1 <1>   0.1500 
 38 H       -3.1740    -2.6310    -2.6180 H     1 <1>   0.0800 
 39 H       -2.0070    -3.5730    -1.7210 H     1 <1>   0.0800 
 40 H       -1.5730    -2.8870    -3.2620 H     1 <1>   0.0800 
 41 H       -4.9980    -3.3420     1.5040 H     1 <1>   0.0800 
 42 H       -5.8610    -3.4850     0.0010 H     1 <1>   0.0800 
 43 H       -5.4370    -1.4790    -1.7920 H     1 <1>   0.0800 
 44 H       -4.3350    -0.2330    -1.2810 H     1 <1>   0.0800 
 45 H       -6.2350    -1.3100     2.0860 H     1 <1>   0.0800 
 46 H       -7.3830    -2.5560     1.6510 H     1 <1>   0.0800 
 47 H       -6.7470     0.4030    -0.9860 H     1 <1>   0.0800 
 48 H       -5.8570     0.4470     0.5190 H     1 <1>   0.0800 
@<TRIPOS>BOND
  1   1   2  2   
  2   1   3  2   
  3   1   4  am  
  4   1   5  1   
  5   4   6  1   
  6   4  27  1   
  7   5   7  ar  
  8   5   8  ar  
  9   6   9  ar  
 10   6  10  ar  
 11   7  11  ar  
 12   7  28  1   
 13   8  12  ar  
 14   8  29  1   
 15   9  13  ar  
 16   9  14  1   
 17  10  15  ar  
 18  10  30  1   
 19  11  16  ar  
 20  11  17  1   
 21  12  16  ar  
 22  12  31  1   
 23  13  18  ar  
 24  13  32  1   
 25  14  33  1   
 26  14  34  1   
 27  14  35  1   
 28  15  18  ar  
 29  15  36  1   
 30  16  19  1   
 31  17  20  2   
 32  17  21  am  
 33  18  37  1   
 34  19  38  1   
 35  19  39  1   
 36  19  40  1   
 37  21  22  1   
 38  21  23  1   
 39  22  24  1   
 40  22  41  1   
 41  22  42  1   
 42  23  25  1   
 43  23  43  1   
 44  23  44  1   
 45  24  26  1   
 46  24  45  1   
 47  24  46  1   
 48  25  26  1   
 49  25  47  1   
 50  25  48  1   
@<TRIPOS>SUBSTRUCTURE
  1 ****   7 GROUP 4 **** **** 0

# MOE 2024.06 (io_trps.svl 2023.06)
