@<TRIPOS>MOLECULE
NONAME
46 47 1 0 0 
SMALL
USER_CHARGES


@<TRIPOS>ATOM
  1 S       -0.1740     0.9120     1.8270 S.o2  1 <1>   1.4470 
  2 O        0.2280     1.4540     3.1070 O.2   1 <1>  -0.6500 
  3 O       -0.9740    -0.2930     1.7860 O.2   1 <1>  -0.6500 
  4 N       -1.0920     2.1150     1.0700 N.am  1 <1>  -0.8490 
  5 C        1.2600     0.7190     0.7310 C.ar  1 <1>  -0.0090 
  6 C       -2.4210     2.2210     1.7330 C.3   1 <1>   0.2570 
  7 C       -0.4160     3.4170     1.0450 C.3   1 <1>   0.1960 
  8 C        2.5590     0.8290     1.2140 C.ar  1 <1>  -0.1500 
  9 C        1.0930     0.4590    -0.6230 C.ar  1 <1>  -0.1500 
 10 C       -3.4470     3.1230     1.0280 C.2   1 <1>   0.5690 
 11 C       -0.5400     4.0120    -0.3540 C.3   1 <1>  -0.2400 
 12 C        3.6510     0.6890     0.3750 C.ar  1 <1>  -0.1500 
 13 C        2.1800     0.3180    -1.4680 C.ar  1 <1>  -0.1500 
 14 O       -3.7150     4.1740     1.5670 O.2   1 <1>  -0.5700 
 15 N       -4.0350     2.7480    -0.1580 N.am  1 <1>  -0.6600 
 16 C        3.4670     0.4320    -0.9720 C.ar  1 <1>  -0.1430 
 17 C       -3.6750     1.5230    -0.9280 C.3   1 <1>   0.1400 
 18 C       -5.0800     3.5870    -0.8080 C.3   1 <1>   0.1400 
 19 C        4.6630     0.2780    -1.8950 C.3   1 <1>  -0.0970 
 20 C       -4.9260     0.6670    -1.1460 C.3   1 <1>  -0.1600 
 21 C       -6.3450     2.7510    -1.0310 C.3   1 <1>  -0.1600 
 22 C       -6.0480     1.4680    -1.8220 C.3   1 <1>  -0.1600 
 23 H       -2.2900     2.5820     2.7390 H     1 <1>   0.0800 
 24 H       -2.8690     1.2470     1.8080 H     1 <1>   0.0800 
 25 H        0.6320     3.3080     1.2700 H     1 <1>   0.0800 
 26 H       -0.8350     4.0890     1.7780 H     1 <1>   0.0800 
 27 H        2.7200     1.0280     2.2610 H     1 <1>   0.1500 
 28 H        0.0960     0.3670    -1.0200 H     1 <1>   0.1500 
 29 H       -1.5670     4.2060    -0.6010 H     1 <1>   0.0800 
 30 H       -0.1160     3.3430    -1.0810 H     1 <1>   0.0800 
 31 H       -0.0050     4.9430    -0.3950 H     1 <1>   0.0800 
 32 H        4.6460     0.7810     0.7760 H     1 <1>   0.1500 
 33 H        2.0190     0.1180    -2.5140 H     1 <1>   0.1500 
 34 H       -2.9280     0.9400    -0.4200 H     1 <1>   0.0800 
 35 H       -3.2670     1.8200    -1.8790 H     1 <1>   0.0800 
 36 H       -4.7050     3.9440    -1.7510 H     1 <1>   0.0800 
 37 H       -5.3180     4.4420    -0.1980 H     1 <1>   0.0800 
 38 H        4.9500     1.2390    -2.2830 H     1 <1>   0.0800 
 39 H        4.4240    -0.3720    -2.7170 H     1 <1>   0.0800 
 40 H        5.4960    -0.1430    -1.3620 H     1 <1>   0.0800 
 41 H       -5.2650     0.2980    -0.1940 H     1 <1>   0.0800 
 42 H       -4.6720    -0.1830    -1.7550 H     1 <1>   0.0800 
 43 H       -7.0720     3.3420    -1.5600 H     1 <1>   0.0800 
 44 H       -6.7640     2.4980    -0.0730 H     1 <1>   0.0800 
 45 H       -6.9380     0.8660    -1.8870 H     1 <1>   0.0800 
 46 H       -5.7470     1.7290    -2.8230 H     1 <1>   0.0800 
@<TRIPOS>BOND
  1   1   2  2   
  2   1   3  2   
  3   1   4  am  
  4   1   5  1   
  5   4   6  1   
  6   4   7  1   
  7   5   8  ar  
  8   5   9  ar  
  9   6  10  1   
 10   6  23  1   
 11   6  24  1   
 12   7  11  1   
 13   7  25  1   
 14   7  26  1   
 15   8  12  ar  
 16   8  27  1   
 17   9  13  ar  
 18   9  28  1   
 19  10  14  2   
 20  10  15  am  
 21  11  29  1   
 22  11  30  1   
 23  11  31  1   
 24  12  16  ar  
 25  12  32  1   
 26  13  16  ar  
 27  13  33  1   
 28  15  17  1   
 29  15  18  1   
 30  16  19  1   
 31  17  20  1   
 32  17  34  1   
 33  17  35  1   
 34  18  21  1   
 35  18  36  1   
 36  18  37  1   
 37  19  38  1   
 38  19  39  1   
 39  19  40  1   
 40  20  22  1   
 41  20  41  1   
 42  20  42  1   
 43  21  22  1   
 44  21  43  1   
 45  21  44  1   
 46  22  45  1   
 47  22  46  1   
@<TRIPOS>SUBSTRUCTURE
  1 ****   4 GROUP 4 **** **** 0

# MOE 2024.06 (io_trps.svl 2023.06)
