@<TRIPOS>MOLECULE
NONAME
52 54 1 0 0 
SMALL
USER_CHARGES


@<TRIPOS>ATOM
  1 S        0.1400     0.9170    -1.0420 S.o2  1 <1>   1.4470 
  2 O        1.0370     2.0190    -1.3190 O.2   1 <1>  -0.6500 
  3 O        0.2030    -0.2740    -1.8590 O.2   1 <1>  -0.6500 
  4 N        0.4520     0.4330     0.5520 N.am  1 <1>  -0.8490 
  5 C       -1.5720     1.5130    -0.9700 C.ar  1 <1>  -0.0090 
  6 C        0.5790     1.5640     1.4980 C.3   1 <1>   0.1960 
  7 C        1.6090    -0.4830     0.6090 C.3   1 <1>   0.1960 
  8 C       -1.9500     2.7030    -1.5810 C.ar  1 <1>  -0.1500 
  9 C       -2.5570     0.7920    -0.3040 C.ar  1 <1>  -0.1500 
 10 C        2.0450     1.8690     1.8650 C.3   1 <1>   0.1200 
 11 C        2.2570    -0.5180     2.0050 C.3   1 <1>   0.1200 
 12 C       -3.2540     3.1610    -1.5190 C.ar  1 <1>  -0.1500 
 13 C       -3.8610     1.2470    -0.2380 C.ar  1 <1>  -0.1500 
 14 O        2.6880     0.7530     2.4280 O.3   1 <1>  -0.5600 
 15 C       -4.2310     2.4450    -0.8400 C.ar  1 <1>   0.1170 
 16 N       -5.5400     2.9430    -0.8030 N.am  1 <1>  -0.5470 
 17 C       -6.5310     2.7510     0.1200 C.2   1 <1>   0.5690 
 18 O       -6.3870     2.1030     1.1270 O.2   1 <1>  -0.5700 
 19 C       -7.8710     3.4080    -0.1370 C.3   1 <1>  -0.0990 
 20 C       -9.0280     2.5010     0.2830 C.3   1 <1>   0.0700 
 21 S      -10.6040     3.3470    -0.1760 S.3   1 <1>  -0.3320 
 22 C      -11.9400     2.2420     0.3170 C.ar  1 <1>   0.1010 
 23 C      -11.7040     1.0360     0.9580 C.ar  1 <1>  -0.1500 
 24 C      -13.2300     2.6490     0.0300 C.ar  1 <1>  -0.1500 
 25 C      -12.7770     0.2340     1.3080 C.ar  1 <1>  -0.1500 
 26 C      -14.2970     1.8410     0.3830 C.ar  1 <1>  -0.1500 
 27 C      -14.0750     0.6300     1.0210 C.ar  1 <1>  -0.1430 
 28 C      -15.2470    -0.2530     1.4090 C.3   1 <1>  -0.0970 
 29 H        0.0540     1.3150     2.4040 H     1 <1>   0.0800 
 30 H        0.1170     2.4500     1.0970 H     1 <1>   0.0800 
 31 H        2.3610    -0.1740    -0.0990 H     1 <1>   0.0800 
 32 H        1.2880    -1.4720     0.3300 H     1 <1>   0.0800 
 33 H       -1.2090     3.2790    -2.1120 H     1 <1>   0.1500 
 34 H       -2.2960    -0.1390     0.1710 H     1 <1>   0.1500 
 35 H        2.0930     2.6700     2.5810 H     1 <1>   0.0800 
 36 H        2.5910     2.1640     0.9850 H     1 <1>   0.0800 
 37 H        3.1130    -1.1690     2.0050 H     1 <1>   0.0800 
 38 H        1.5470    -0.8850     2.7260 H     1 <1>   0.0800 
 39 H       -3.5100     4.0880    -2.0000 H     1 <1>   0.1500 
 40 H       -4.5950     0.6610     0.2850 H     1 <1>   0.1500 
 41 H       -5.7720     3.5850    -1.5580 H     1 <1>   0.3700 
 42 H       -7.9690     3.6380    -1.1820 H     1 <1>   0.0800 
 43 H       -7.9170     4.3230     0.4240 H     1 <1>   0.0800 
 44 H       -9.0380     2.3440     1.3480 H     1 <1>   0.0800 
 45 H       -9.0020     1.5600    -0.2370 H     1 <1>   0.0800 
 46 H      -10.7100     0.7090     1.1910 H     1 <1>   0.1500 
 47 H      -13.3940     3.5880    -0.4660 H     1 <1>   0.1500 
 48 H      -12.5970    -0.7030     1.8060 H     1 <1>   0.1500 
 49 H      -15.3000     2.1600     0.1590 H     1 <1>   0.1500 
 50 H      -14.9570    -1.2880     1.4030 H     1 <1>   0.0800 
 51 H      -16.0590    -0.1250     0.7160 H     1 <1>   0.0800 
 52 H      -15.5870     0.0070     2.3950 H     1 <1>   0.0800 
@<TRIPOS>BOND
  1   1   2  2   
  2   1   3  2   
  3   1   4  am  
  4   1   5  1   
  5   4   6  1   
  6   4   7  1   
  7   5   8  ar  
  8   5   9  ar  
  9   6  10  1   
 10   6  29  1   
 11   6  30  1   
 12   7  11  1   
 13   7  31  1   
 14   7  32  1   
 15   8  12  ar  
 16   8  33  1   
 17   9  13  ar  
 18   9  34  1   
 19  10  14  1   
 20  10  35  1   
 21  10  36  1   
 22  11  14  1   
 23  11  37  1   
 24  11  38  1   
 25  12  15  ar  
 26  12  39  1   
 27  13  15  ar  
 28  13  40  1   
 29  15  16  1   
 30  16  17  am  
 31  16  41  1   
 32  17  18  2   
 33  17  19  1   
 34  19  20  1   
 35  19  42  1   
 36  19  43  1   
 37  20  21  1   
 38  20  44  1   
 39  20  45  1   
 40  21  22  1   
 41  22  23  ar  
 42  22  24  ar  
 43  23  25  ar  
 44  23  46  1   
 45  24  26  ar  
 46  24  47  1   
 47  25  27  ar  
 48  25  48  1   
 49  26  27  ar  
 50  26  49  1   
 51  27  28  1   
 52  28  50  1   
 53  28  51  1   
 54  28  52  1   
@<TRIPOS>SUBSTRUCTURE
  1 ****  13 GROUP 4 **** **** 0

# MOE 2024.06 (io_trps.svl 2023.06)
