@<TRIPOS>MOLECULE
NONAME
45 46 1 0 0 
SMALL
USER_CHARGES


@<TRIPOS>ATOM
  1 F       -4.0480    -5.4380     2.4250 F     1 <1>  -0.1900 
  2 C       -4.2470    -5.4410     1.1300 C.ar  1 <1>   0.1900 
  3 C       -3.2340    -5.8810     0.2830 C.ar  1 <1>   0.0830 
  4 C       -5.4690    -4.9990     0.6590 C.ar  1 <1>  -0.1500 
  5 O       -2.0620    -6.3000     0.8350 O.3   1 <1>  -0.3630 
  6 C       -3.4780    -5.8680    -1.0880 C.ar  1 <1>  -0.1500 
  7 C       -5.6930    -4.9930    -0.7070 C.ar  1 <1>  -0.1500 
  8 C       -0.9540    -6.6690     0.0420 C.3   1 <1>   0.1200 
  9 C       -4.7000    -5.4260    -1.5730 C.ar  1 <1>  -0.1500 
 10 C        0.2100    -7.0170     0.9800 C.3   1 <1>   0.2000 
 11 O        0.3780    -5.9790     1.9010 O.3   1 <1>  -0.6800 
 12 C        1.5370    -7.2370     0.2250 C.3   1 <1>   0.3430 
 13 N        2.7020    -6.9780     1.1340 N.4   1 <1>  -0.9590 
 14 C        3.9040    -6.3810     0.4910 C.3   1 <1>   0.4230 
 15 C        3.0360    -8.1610     1.9820 C.3   1 <1>   0.2630 
 16 C        3.6060    -4.9400     0.0560 C.3   1 <1>  -0.1600 
 17 C        4.4110    -7.2270    -0.6880 C.3   1 <1>  -0.1600 
 18 C        4.8480    -4.2940    -0.5750 C.3   1 <1>  -0.1600 
 19 C        5.6540    -6.5840    -1.3210 C.3   1 <1>  -0.1600 
 20 C        5.3770    -5.1350    -1.7450 C.3   1 <1>  -0.1600 
 21 H       -6.2240    -4.6670     1.3490 H     1 <1>   0.1500 
 22 H       -2.7400    -6.1960    -1.7950 H     1 <1>   0.1500 
 23 H       -6.6380    -4.6520    -1.0960 H     1 <1>   0.1500 
 24 H       -0.6990    -5.8380    -0.5920 H     1 <1>   0.0800 
 25 H       -1.2320    -7.5200    -0.5560 H     1 <1>   0.0800 
 26 H       -4.8840    -5.4180    -2.6350 H     1 <1>   0.1500 
 27 H       -0.0420    -7.9050     1.5340 H     1 <1>   0.0800 
 28 H       -0.5150    -5.6980     2.2170 H     1 <1>   0.4000 
 29 H        1.5670    -6.5480    -0.6010 H     1 <1>   0.0800 
 30 H        1.5810    -8.2350    -0.1800 H     1 <1>   0.0800 
 31 H        2.3140    -6.2510     1.7720 H     1 <1>   0.4500 
 32 H        4.6940    -6.3330     1.2240 H     1 <1>   0.0800 
 33 H        3.3860    -8.9760     1.3690 H     1 <1>   0.0800 
 34 H        2.1660    -8.4840     2.5300 H     1 <1>   0.0800 
 35 H        3.8080    -7.9050     2.6900 H     1 <1>   0.0800 
 36 H        3.3070    -4.3560     0.9100 H     1 <1>   0.0800 
 37 H        2.8120    -4.9170    -0.6680 H     1 <1>   0.0800 
 38 H        3.6550    -7.3080    -1.4480 H     1 <1>   0.0800 
 39 H        4.6710    -8.2150    -0.3530 H     1 <1>   0.0800 
 40 H        5.6220    -4.1930     0.1680 H     1 <1>   0.0800 
 41 H        4.6040    -3.3050    -0.9260 H     1 <1>   0.0800 
 42 H        5.9610    -7.1550    -2.1810 H     1 <1>   0.0800 
 43 H        6.4690    -6.5970    -0.6150 H     1 <1>   0.0800 
 44 H        6.2830    -4.6930    -2.1230 H     1 <1>   0.0800 
 45 H        4.6570    -5.1270    -2.5470 H     1 <1>   0.0800 
@<TRIPOS>BOND
  1   1   2  1   
  2   2   3  ar  
  3   2   4  ar  
  4   3   5  1   
  5   3   6  ar  
  6   4   7  ar  
  7   4  21  1   
  8   5   8  1   
  9   6   9  ar  
 10   6  22  1   
 11   7   9  ar  
 12   7  23  1   
 13   8  10  1   
 14   8  24  1   
 15   8  25  1   
 16   9  26  1   
 17  10  11  1   
 18  10  12  1   
 19  10  27  1   
 20  11  28  1   
 21  12  13  1   
 22  12  29  1   
 23  12  30  1   
 24  13  14  1   
 25  13  15  1   
 26  13  31  1   
 27  14  16  1   
 28  14  17  1   
 29  14  32  1   
 30  15  33  1   
 31  15  34  1   
 32  15  35  1   
 33  16  18  1   
 34  16  36  1   
 35  16  37  1   
 36  17  19  1   
 37  17  38  1   
 38  17  39  1   
 39  18  20  1   
 40  18  40  1   
 41  18  41  1   
 42  19  20  1   
 43  19  42  1   
 44  19  43  1   
 45  20  44  1   
 46  20  45  1   
@<TRIPOS>SUBSTRUCTURE
  1 ****   8 GROUP 4 **** **** 0

# MOE 2024.06 (io_trps.svl 2023.06)
