@<TRIPOS>MOLECULE
NONAME
40 42 1 0 0 
SMALL
USER_CHARGES


@<TRIPOS>ATOM
  1 CL      -2.4300     0.8620     1.7010 Cl    1 <1>  -0.1770 
  2 C       -1.3150     2.0240     1.0240 C.ar  1 <1>   0.1770 
  3 C       -1.5510     2.5460    -0.2420 C.ar  1 <1>  -0.1440 
  4 C       -0.2210     2.4070     1.7770 C.ar  1 <1>  -0.1500 
  5 C       -0.6590     3.4770    -0.7610 C.ar  1 <1>  -0.1500 
  6 C       -2.7580     2.0990    -1.0450 C.3   1 <1>   0.4870 
  7 C        0.6490     3.3360     1.2420 C.ar  1 <1>   0.1770 
  8 C        0.4420     3.8730    -0.0160 C.ar  1 <1>  -0.1500 
  9 N       -4.0020     2.5890    -0.3920 N.4   1 <1>  -0.9590 
 10 CL       2.0340     3.8430     2.1700 Cl    1 <1>  -0.1770 
 11 C       -5.2360     2.0210    -1.0490 C.3   1 <1>   0.3430 
 12 C       -4.0610     4.1000    -0.3280 C.3   1 <1>   0.3430 
 13 C       -6.5420     2.5250    -0.3960 C.3   1 <1>   0.2090 
 14 C       -5.3600     4.6150     0.3280 C.3   1 <1>   0.2090 
 15 N       -6.5560     4.0150    -0.3320 N.pl3 1 <1>  -0.8380 
 16 C       -7.7790     4.6070    -0.0410 C.ar  1 <1>   0.1000 
 17 C       -8.4350     5.3360    -1.0280 C.ar  1 <1>  -0.1500 
 18 C       -8.3630     4.4860     1.2200 C.ar  1 <1>  -0.1500 
 19 C       -9.6540     5.9380    -0.7710 C.ar  1 <1>  -0.1500 
 20 C       -9.5820     5.0820     1.4920 C.ar  1 <1>  -0.1500 
 21 C      -10.2060     5.7980     0.4880 C.ar  1 <1>   0.1900 
 22 F      -11.3580     6.3640     0.7400 F     1 <1>  -0.1900 
 23 H       -0.0460     1.9960     2.7550 H     1 <1>   0.1500 
 24 H       -0.8010     3.9000    -1.7430 H     1 <1>   0.1500 
 25 H       -2.7690     1.0210    -1.0930 H     1 <1>   0.0800 
 26 H       -2.6920     2.4810    -2.0510 H     1 <1>   0.0800 
 27 H        1.1440     4.5930    -0.4040 H     1 <1>   0.1500 
 28 H       -3.9790     2.2420     0.5780 H     1 <1>   0.4500 
 29 H       -5.2170     0.9450    -1.0020 H     1 <1>   0.0800 
 30 H       -5.2560     2.3070    -2.0880 H     1 <1>   0.0800 
 31 H       -4.0110     4.5040    -1.3250 H     1 <1>   0.0800 
 32 H       -3.2180     4.4790     0.2250 H     1 <1>   0.0800 
 33 H       -6.6380     2.1170     0.5950 H     1 <1>   0.0800 
 34 H       -7.3850     2.1890    -0.9760 H     1 <1>   0.0800 
 35 H       -5.4060     5.6880     0.2350 H     1 <1>   0.0800 
 36 H       -5.3630     4.3740     1.3760 H     1 <1>   0.0800 
 37 H       -7.9820     5.4270    -1.9980 H     1 <1>   0.1500 
 38 H       -7.8630     3.9250     1.9880 H     1 <1>   0.1500 
 39 H      -10.1700     6.5030    -1.5260 H     1 <1>   0.1500 
 40 H      -10.0450     4.9980     2.4590 H     1 <1>   0.1500 
@<TRIPOS>BOND
  1   1   2  1   
  2   2   3  ar  
  3   2   4  ar  
  4   3   5  ar  
  5   3   6  1   
  6   4   7  ar  
  7   4  23  1   
  8   5   8  ar  
  9   5  24  1   
 10   6   9  1   
 11   6  25  1   
 12   6  26  1   
 13   7   8  ar  
 14   7  10  1   
 15   8  27  1   
 16   9  11  1   
 17   9  12  1   
 18   9  28  1   
 19  11  13  1   
 20  11  29  1   
 21  11  30  1   
 22  12  14  1   
 23  12  31  1   
 24  12  32  1   
 25  13  15  1   
 26  13  33  1   
 27  13  34  1   
 28  14  15  1   
 29  14  35  1   
 30  14  36  1   
 31  15  16  1   
 32  16  17  ar  
 33  16  18  ar  
 34  17  19  ar  
 35  17  37  1   
 36  18  20  ar  
 37  18  38  1   
 38  19  21  ar  
 39  19  39  1   
 40  20  21  ar  
 41  20  40  1   
 42  21  22  1   
@<TRIPOS>SUBSTRUCTURE
  1 ****  12 GROUP 4 **** **** 0

# MOE 2024.06 (io_trps.svl 2023.06)
