@<TRIPOS>MOLECULE
NONAME
32 34 1 0 0 
SMALL
USER_CHARGES


@<TRIPOS>ATOM
  1 S       -0.7680     0.2370    -1.1040 S.3   1 <1>  -0.4600 
  2 C       -1.8490     1.5160    -0.3980 C.3   1 <1>   0.0700 
  3 C        0.7280     1.1850    -1.5050 C.3   1 <1>   0.0700 
  4 C       -1.0990     2.2360     0.7270 C.3   1 <1>   0.1400 
  5 C        1.1930     1.9560    -0.2630 C.3   1 <1>   0.1400 
  6 N        0.1330     2.9020     0.2050 N.am  1 <1>  -0.6600 
  7 C        0.1500     4.2570    -0.0560 C.2   1 <1>   0.5440 
  8 O       -0.9030     4.8660    -0.0590 O.2   1 <1>  -0.5700 
  9 C        1.3790     4.9720    -0.3420 C.ar  1 <1>   0.0860 
 10 C        2.4840     4.8870     0.5060 C.ar  1 <1>  -0.1500 
 11 C        1.4880     5.7790    -1.4840 C.ar  1 <1>  -0.1500 
 12 C        3.6320     5.5780     0.1740 C.ar  1 <1>   0.0400 
 13 C        2.6510     6.4650    -1.7950 C.ar  1 <1>  -0.1500 
 14 S        5.1530     5.6430     1.0370 S.3   1 <1>  -0.0800 
 15 C        3.7510     6.3640    -0.9570 C.ar  1 <1>   0.2270 
 16 C        5.7920     6.7130    -0.2060 C.2   1 <1>   0.1980 
 17 N        4.9800     6.9870    -1.1430 N.2   1 <1>  -0.5650 
 18 C        7.2160     7.1870    -0.0350 C.3   1 <1>  -0.0600 
 19 H       -2.7290     1.0230    -0.0280 H     1 <1>   0.0800 
 20 H       -2.1130     2.2000    -1.1850 H     1 <1>   0.0800 
 21 H        0.4830     1.8540    -2.3100 H     1 <1>   0.0800 
 22 H        1.4720     0.4800    -1.8280 H     1 <1>   0.0800 
 23 H       -0.8270     1.5280     1.4900 H     1 <1>   0.0800 
 24 H       -1.7510     2.9660     1.1760 H     1 <1>   0.0800 
 25 H        2.0950     2.4850    -0.5080 H     1 <1>   0.0800 
 26 H        1.4220     1.2610     0.5260 H     1 <1>   0.0800 
 27 H        2.4420     4.2960     1.4040 H     1 <1>   0.1500 
 28 H        0.6310     5.8640    -2.1310 H     1 <1>   0.1500 
 29 H        2.7230     7.0790    -2.6750 H     1 <1>   0.1500 
 30 H        7.8810     6.3440    -0.0170 H     1 <1>   0.0800 
 31 H        7.3090     7.7350     0.8840 H     1 <1>   0.0800 
 32 H        7.4850     7.8290    -0.8540 H     1 <1>   0.0800 
@<TRIPOS>BOND
  1   1   2  1   
  2   1   3  1   
  3   2   4  1   
  4   2  19  1   
  5   2  20  1   
  6   3   5  1   
  7   3  21  1   
  8   3  22  1   
  9   4   6  1   
 10   4  23  1   
 11   4  24  1   
 12   5   6  1   
 13   5  25  1   
 14   5  26  1   
 15   6   7  am  
 16   7   8  2   
 17   7   9  1   
 18   9  10  ar  
 19   9  11  ar  
 20  10  12  ar  
 21  10  27  1   
 22  11  13  ar  
 23  11  28  1   
 24  12  14  1   
 25  12  15  ar  
 26  13  15  ar  
 27  13  29  1   
 28  14  16  1   
 29  15  17  1   
 30  16  17  2   
 31  16  18  1   
 32  18  30  1   
 33  18  31  1   
 34  18  32  1   
@<TRIPOS>SUBSTRUCTURE
  1 ****   9 GROUP 4 **** **** 0

# MOE 2024.06 (io_trps.svl 2023.06)
