@<TRIPOS>MOLECULE
NONAME
46 47 1 0 0 
SMALL
USER_CHARGES


@<TRIPOS>ATOM
  1 S       -0.4710    -0.0980    -0.4970 S.3   1 <1>  -0.3320 
  2 C       -2.2220     0.3040    -0.3300 C.ar  1 <1>   0.1020 
  3 C        0.4750     1.3700     0.1010 C.3   1 <1>  -0.0100 
  4 C       -2.6560     1.5120     0.1920 C.ar  1 <1>  -0.1500 
  5 C       -3.1250    -0.6540    -0.7520 C.ar  1 <1>  -0.1500 
  6 C       -4.0140     1.7660     0.3000 C.ar  1 <1>  -0.1430 
  7 C       -4.4860    -0.4180    -0.6510 C.ar  1 <1>  -0.1430 
  8 C       -4.9220     0.7900    -0.1090 C.ar  1 <1>   0.0820 
  9 C       -4.4820     3.1030     0.8580 C.3   1 <1>  -0.0960 
 10 C       -5.4640    -1.4770    -1.1390 C.3   1 <1>  -0.0970 
 11 O       -6.2470     1.0240     0.0120 O.3   1 <1>  -0.3630 
 12 C       -6.8330     0.6140     1.2410 C.3   1 <1>   0.1810 
 13 C       -8.3130     0.9630     1.2840 C.2   1 <1>   0.5690 
 14 O       -8.8980     0.8280     2.3330 O.2   1 <1>  -0.5700 
 15 N       -8.8970     1.4170     0.1390 N.am  1 <1>  -0.4930 
 16 C      -10.2180     1.8800    -0.0870 C.2   1 <1>   0.0630 
 17 C      -10.5680     3.0410    -0.7790 C.2   1 <1>   0.1080 
 18 C      -11.3990     1.3310     0.2770 C.2   1 <1>  -0.3320 
 19 N      -11.8500     3.2120    -0.8410 N.2   1 <1>  -0.7070 
 20 C       -9.5960     4.0200    -1.3990 C.3   1 <1>  -0.0590 
 21 N      -12.3660     2.1630    -0.1800 N.pl3 1 <1>   0.3140 
 22 C      -11.6780     0.0440     1.0400 C.3   1 <1>  -0.0600 
 23 C      -13.8160     2.0130    -0.0130 C.3   1 <1>   0.0160 
 24 H        1.5210     1.1460    -0.0050 H     1 <1>   0.0800 
 25 H        0.2230     1.5320     1.1330 H     1 <1>   0.0800 
 26 H        0.2030     2.2120    -0.5100 H     1 <1>   0.0800 
 27 H       -1.9500     2.2530     0.5110 H     1 <1>   0.1500 
 28 H       -2.7520    -1.5770    -1.1580 H     1 <1>   0.1500 
 29 H       -3.6960     3.8350     0.8070 H     1 <1>   0.0800 
 30 H       -4.7790     2.9900     1.8850 H     1 <1>   0.0800 
 31 H       -5.3180     3.4720     0.2910 H     1 <1>   0.0800 
 32 H       -4.9790    -2.1620    -1.8100 H     1 <1>   0.0800 
 33 H       -6.2820    -1.0170    -1.6650 H     1 <1>   0.0800 
 34 H       -5.8520    -2.0320    -0.3050 H     1 <1>   0.0800 
 35 H       -6.3240     1.1110     2.0460 H     1 <1>   0.0800 
 36 H       -6.7090    -0.4470     1.3430 H     1 <1>   0.0800 
 37 H       -8.2510     1.5470    -0.6410 H     1 <1>   0.3700 
 38 H       -8.7520     4.1640    -0.7510 H     1 <1>   0.0800 
 39 H      -10.0840     4.9660    -1.5500 H     1 <1>   0.0800 
 40 H       -9.2620     3.6450    -2.3490 H     1 <1>   0.0800 
 41 H      -10.7820    -0.5420     1.1320 H     1 <1>   0.0800 
 42 H      -12.4130    -0.5480     0.5250 H     1 <1>   0.0800 
 43 H      -12.0360     0.2740     2.0280 H     1 <1>   0.0800 
 44 H      -14.0420     1.9110     1.0310 H     1 <1>   0.0800 
 45 H      -14.1430     1.1420    -0.5490 H     1 <1>   0.0800 
 46 H      -14.3070     2.8840    -0.4050 H     1 <1>   0.0800 
@<TRIPOS>BOND
  1   1   2  1   
  2   1   3  1   
  3   2   4  ar  
  4   2   5  ar  
  5   3  24  1   
  6   3  25  1   
  7   3  26  1   
  8   4   6  ar  
  9   4  27  1   
 10   5   7  ar  
 11   5  28  1   
 12   6   8  ar  
 13   6   9  1   
 14   7   8  ar  
 15   7  10  1   
 16   8  11  1   
 17   9  29  1   
 18   9  30  1   
 19   9  31  1   
 20  10  32  1   
 21  10  33  1   
 22  10  34  1   
 23  11  12  1   
 24  12  13  1   
 25  12  35  1   
 26  12  36  1   
 27  13  14  2   
 28  13  15  am  
 29  15  16  1   
 30  15  37  1   
 31  16  17  1   
 32  16  18  2   
 33  17  19  2   
 34  17  20  1   
 35  18  21  1   
 36  18  22  1   
 37  19  21  1   
 38  20  38  1   
 39  20  39  1   
 40  20  40  1   
 41  21  23  1   
 42  22  41  1   
 43  22  42  1   
 44  22  43  1   
 45  23  44  1   
 46  23  45  1   
 47  23  46  1   
@<TRIPOS>SUBSTRUCTURE
  1 ****  11 GROUP 4 **** **** 0

# MOE 2024.06 (io_trps.svl 2023.06)
