@<TRIPOS>MOLECULE
NONAME
37 38 1 0 0 
SMALL
USER_CHARGES


@<TRIPOS>ATOM
  1 CL      -1.5150    -1.8610     2.1930 Cl    1 <1>  -0.1770 
  2 C       -0.5510    -2.4520     0.8620 C.ar  1 <1>   0.1770 
  3 C       -0.8810    -2.1470    -0.4480 C.ar  1 <1>   0.1770 
  4 C        0.5580    -3.2310     1.1430 C.ar  1 <1>  -0.1500 
  5 CL      -2.2760    -1.1620    -0.8160 Cl    1 <1>  -0.1770 
  6 C       -0.1030    -2.6220    -1.4880 C.ar  1 <1>  -0.1500 
  7 C        1.3490    -3.7080     0.1040 C.ar  1 <1>  -0.1440 
  8 C        1.0100    -3.4020    -1.2100 C.ar  1 <1>  -0.1500 
  9 C        2.5730    -4.5580     0.4060 C.3   1 <1>   0.4870 
 10 N        3.7960    -3.7430     0.1920 N.4   1 <1>  -0.9590 
 11 C        5.0720    -4.5300     0.2670 C.3   1 <1>   0.3430 
 12 C        3.8800    -2.5120     1.0460 C.3   1 <1>   0.3430 
 13 C        6.3100    -3.6310     0.0190 C.3   1 <1>   0.1100 
 14 C        5.0610    -1.6180     0.6000 C.3   1 <1>   0.1100 
 15 N        5.9330    -2.2680    -0.4190 N.3   1 <1>  -0.8100 
 16 C        7.1430    -1.4310    -0.6880 C.3   1 <1>   0.1710 
 17 C        6.8420    -0.0030    -1.1650 C.2   1 <1>   0.5690 
 18 O        6.7340     0.8800    -0.3520 O.2   1 <1>  -0.5700 
 19 N        6.6800     0.2640    -2.4760 N.am  1 <1>  -0.8000 
 20 H        0.7800    -3.4530     2.1730 H     1 <1>   0.1500 
 21 H       -0.3720    -2.3810    -2.5020 H     1 <1>   0.1500 
 22 H        1.6010    -3.7680    -2.0340 H     1 <1>   0.1500 
 23 H        2.5800    -5.4140    -0.2500 H     1 <1>   0.0800 
 24 H        2.5350    -4.9090     1.4240 H     1 <1>   0.0800 
 25 H        3.7830    -3.3610    -0.7650 H     1 <1>   0.4500 
 26 H        5.0600    -5.3120    -0.4750 H     1 <1>   0.0800 
 27 H        5.1660    -4.9980     1.2330 H     1 <1>   0.0800 
 28 H        4.0150    -2.7880     2.0790 H     1 <1>   0.0800 
 29 H        2.9690    -1.9410     0.9740 H     1 <1>   0.0800 
 30 H        6.9310    -4.0940    -0.7300 H     1 <1>   0.0800 
 31 H        6.8900    -3.5740     0.9260 H     1 <1>   0.0800 
 32 H        5.6420    -1.3450     1.4660 H     1 <1>   0.0800 
 33 H        4.6570    -0.7070     0.1920 H     1 <1>   0.0800 
 34 H        7.7440    -1.9110    -1.4390 H     1 <1>   0.0800 
 35 H        7.7370    -1.3580     0.2060 H     1 <1>   0.0800 
 36 H        6.4880     1.2230    -2.7690 H     1 <1>   0.3700 
 37 H        6.7210    -0.4370    -3.2150 H     1 <1>   0.3700 
@<TRIPOS>BOND
  1   1   2  1   
  2   2   3  ar  
  3   2   4  ar  
  4   3   5  1   
  5   3   6  ar  
  6   4   7  ar  
  7   4  20  1   
  8   6   8  ar  
  9   6  21  1   
 10   7   8  ar  
 11   7   9  1   
 12   8  22  1   
 13   9  10  1   
 14   9  23  1   
 15   9  24  1   
 16  10  11  1   
 17  10  12  1   
 18  10  25  1   
 19  11  13  1   
 20  11  26  1   
 21  11  27  1   
 22  12  14  1   
 23  12  28  1   
 24  12  29  1   
 25  13  15  1   
 26  13  30  1   
 27  13  31  1   
 28  14  15  1   
 29  14  32  1   
 30  14  33  1   
 31  15  16  1   
 32  16  17  1   
 33  16  34  1   
 34  16  35  1   
 35  17  18  2   
 36  17  19  am  
 37  19  36  1   
 38  19  37  1   
@<TRIPOS>SUBSTRUCTURE
  1 ****  12 GROUP 4 **** **** 0

# MOE 2024.06 (io_trps.svl 2023.06)
