@<TRIPOS>MOLECULE
NONAME
59 62 1 0 0 
SMALL
USER_CHARGES


@<TRIPOS>ATOM
  1 CL      -1.8250    -0.4450     0.2980 Cl    1 <1>  -0.1770 
  2 C       -2.2790     1.1200    -0.3260 C.ar  1 <1>   0.1770 
  3 C       -1.7650     1.5410    -1.5380 C.ar  1 <1>  -0.1500 
  4 C       -3.1430     1.9150     0.4020 C.ar  1 <1>  -0.1500 
  5 C       -2.1240     2.7840    -2.0310 C.ar  1 <1>  -0.1500 
  6 C       -3.4980     3.1580    -0.0950 C.ar  1 <1>  -0.1500 
  7 C       -2.9900     3.5970    -1.3110 C.ar  1 <1>  -0.1430 
  8 C       -3.3840     4.9700    -1.8350 C.3   1 <1>   0.2840 
  9 N       -2.7130     6.0110    -1.0280 N.am  1 <1>  -0.6600 
 10 C       -3.3280     6.8360    -0.1580 C.2   1 <1>   0.5690 
 11 C       -1.2470     6.1520    -1.0060 C.3   1 <1>   0.1400 
 12 O       -4.5130     6.8910     0.0530 O.2   1 <1>  -0.5700 
 13 C       -2.3270     7.6970     0.5570 C.3   1 <1>  -0.0990 
 14 C       -0.9860     6.9990     0.2530 C.3   1 <1>  -0.0190 
 15 C        0.1900     7.9570     0.1310 C.2   1 <1>   0.5690 
 16 O        0.8960     7.9220    -0.8480 O.2   1 <1>  -0.5700 
 17 N        0.4190     8.8330     1.1510 N.am  1 <1>  -0.7300 
 18 C        1.4880     9.8500     1.2380 C.3   1 <1>   0.2200 
 19 C        1.3420    10.8690     0.1000 C.3   1 <1>  -0.1600 
 20 C        2.8640     9.1720     1.2460 C.3   1 <1>  -0.1600 
 21 C        2.5210    11.8340     0.0530 C.3   1 <1>   0.3430 
 22 C        3.9940    10.1900     1.1640 C.3   1 <1>   0.3430 
 23 N        3.7860    11.0580    -0.0310 N.4   1 <1>  -0.9590 
 24 C        4.9610    11.9320    -0.2980 C.3   1 <1>   0.4860 
 25 C        6.1610    11.0520    -0.5830 C.ar  1 <1>  -0.1430 
 26 C        6.2460    10.3460    -1.7760 C.ar  1 <1>  -0.1500 
 27 C        7.1800    10.9380     0.3520 C.ar  1 <1>  -0.1500 
 28 C        7.3310     9.5240    -2.0220 C.ar  1 <1>  -0.1500 
 29 C        8.2650    10.1150     0.1030 C.ar  1 <1>  -0.1500 
 30 C        8.3390     9.4070    -1.0820 C.ar  1 <1>  -0.1500 
 31 H       -1.0950     0.9020    -2.0840 H     1 <1>   0.1500 
 32 H       -3.5300     1.5670     1.3420 H     1 <1>   0.1500 
 33 H       -1.7240     3.1160    -2.9740 H     1 <1>   0.1500 
 34 H       -4.1680     3.7900     0.4650 H     1 <1>   0.1500 
 35 H       -4.4520     5.0900    -1.7660 H     1 <1>   0.0800 
 36 H       -3.1000     5.0800    -2.8670 H     1 <1>   0.0800 
 37 H       -0.9320     6.6580    -1.9040 H     1 <1>   0.0800 
 38 H       -0.7610     5.1940    -0.9370 H     1 <1>   0.0800 
 39 H       -2.5400     7.7310     1.6090 H     1 <1>   0.0800 
 40 H       -2.3670     8.6840     0.1340 H     1 <1>   0.0800 
 41 H       -0.7690     6.3130     1.0530 H     1 <1>   0.0800 
 42 H       -0.2070     8.8000     1.9600 H     1 <1>   0.3700 
 43 H        1.3700    10.3750     2.1730 H     1 <1>   0.0800 
 44 H        0.4350    11.4290     0.2390 H     1 <1>   0.0800 
 45 H        1.2790    10.3760    -0.8530 H     1 <1>   0.0800 
 46 H        2.9660     8.4960     0.4160 H     1 <1>   0.0800 
 47 H        2.9740     8.5980     2.1490 H     1 <1>   0.0800 
 48 H        2.5250    12.4490     0.9390 H     1 <1>   0.0800 
 49 H        2.4200    12.4760    -0.8080 H     1 <1>   0.0800 
 50 H        4.9340     9.6660     1.0850 H     1 <1>   0.0800 
 51 H        4.0140    10.7920     2.0590 H     1 <1>   0.0800 
 52 H        3.7150    10.4180    -0.8350 H     1 <1>   0.4500 
 53 H        5.1600    12.5640     0.5520 H     1 <1>   0.0800 
 54 H        4.7710    12.5590    -1.1550 H     1 <1>   0.0800 
 55 H        5.4790    10.4240    -2.5270 H     1 <1>   0.1500 
 56 H        7.1480    11.4830     1.2800 H     1 <1>   0.1500 
 57 H        7.3970     8.9750    -2.9460 H     1 <1>   0.1500 
 58 H        9.0550    10.0250     0.8290 H     1 <1>   0.1500 
 59 H        9.1840     8.7670    -1.2750 H     1 <1>   0.1500 
@<TRIPOS>BOND
  1   1   2  1   
  2   2   3  ar  
  3   2   4  ar  
  4   3   5  ar  
  5   3  31  1   
  6   4   6  ar  
  7   4  32  1   
  8   5   7  ar  
  9   5  33  1   
 10   6   7  ar  
 11   6  34  1   
 12   7   8  1   
 13   8   9  1   
 14   8  35  1   
 15   8  36  1   
 16   9  10  am  
 17   9  11  1   
 18  10  12  2   
 19  10  13  1   
 20  11  14  1   
 21  11  37  1   
 22  11  38  1   
 23  13  14  1   
 24  13  39  1   
 25  13  40  1   
 26  14  15  1   
 27  14  41  1   
 28  15  16  2   
 29  15  17  am  
 30  17  18  1   
 31  17  42  1   
 32  18  19  1   
 33  18  20  1   
 34  18  43  1   
 35  19  21  1   
 36  19  44  1   
 37  19  45  1   
 38  20  22  1   
 39  20  46  1   
 40  20  47  1   
 41  21  23  1   
 42  21  48  1   
 43  21  49  1   
 44  22  23  1   
 45  22  50  1   
 46  22  51  1   
 47  23  24  1   
 48  23  52  1   
 49  24  25  1   
 50  24  53  1   
 51  24  54  1   
 52  25  26  ar  
 53  25  27  ar  
 54  26  28  ar  
 55  26  55  1   
 56  27  29  ar  
 57  27  56  1   
 58  28  30  ar  
 59  28  57  1   
 60  29  30  ar  
 61  29  58  1   
 62  30  59  1   
@<TRIPOS>SUBSTRUCTURE
  1 ****  16 GROUP 4 **** **** 0

# MOE 2024.06 (io_trps.svl 2023.06)
