@<TRIPOS>MOLECULE
NONAME
32 32 1 0 0 
SMALL
USER_CHARGES


@<TRIPOS>ATOM
  1 O        0.4150     1.2230     1.9680 O.2   1 <1>  -0.5700 
  2 C        0.7940     1.5060     0.8590 C.2   1 <1>   0.5690 
  3 N        1.8930     0.9430     0.3080 N.am  1 <1>  -0.7300 
  4 C        0.0230     2.5300     0.0470 C.3   1 <1>  -0.0990 
  5 C        2.7840     0.0070     0.9970 C.3   1 <1>   0.3640 
  6 C       -0.7520     1.8990    -1.1200 C.3   1 <1>  -0.2400 
  7 C        4.1970     0.2180     0.4630 C.ar  1 <1>  -0.1440 
  8 C        2.2830    -1.4160     0.7650 C.3   1 <1>  -0.2400 
  9 C        4.5210    -0.0540    -0.8610 C.ar  1 <1>  -0.1500 
 10 C        5.1850     0.6990     1.3100 C.ar  1 <1>  -0.1500 
 11 C        5.8090     0.1500    -1.3240 C.ar  1 <1>  -0.1500 
 12 C        6.4750     0.9050     0.8490 C.ar  1 <1>  -0.1500 
 13 C        6.7940     0.6290    -0.4770 C.ar  1 <1>   0.0820 
 14 O        8.0290     0.8010    -1.0100 O.3   1 <1>  -0.3630 
 15 C        9.1030     1.2780    -0.2310 C.3   1 <1>   0.0400 
 16 H        2.2300     1.2450    -0.6040 H     1 <1>   0.3700 
 17 H        0.7110     3.2660    -0.3270 H     1 <1>   0.0800 
 18 H       -0.6680     3.0310     0.7010 H     1 <1>   0.0800 
 19 H        2.7610     0.2150     2.0540 H     1 <1>   0.0800 
 20 H       -0.0790     1.4140    -1.8040 H     1 <1>   0.0800 
 21 H       -1.3010     2.6560    -1.6530 H     1 <1>   0.0800 
 22 H       -1.4490     1.1690    -0.7460 H     1 <1>   0.0800 
 23 H        2.2120    -1.6390    -0.2830 H     1 <1>   0.0800 
 24 H        1.3160    -1.5360     1.2200 H     1 <1>   0.0800 
 25 H        2.9620    -2.1140     1.2220 H     1 <1>   0.0800 
 26 H        3.7760    -0.4270    -1.5410 H     1 <1>   0.1500 
 27 H        4.9540     0.9210     2.3370 H     1 <1>   0.1500 
 28 H        6.0600    -0.0620    -2.3470 H     1 <1>   0.1500 
 29 H        7.2120     1.2780     1.5330 H     1 <1>   0.1500 
 30 H        9.9730     1.3310    -0.8600 H     1 <1>   0.0800 
 31 H        9.2790     0.5920     0.5780 H     1 <1>   0.0800 
 32 H        8.8580     2.2580     0.1380 H     1 <1>   0.0800 
@<TRIPOS>BOND
  1   1   2  2   
  2   2   3  am  
  3   2   4  1   
  4   3   5  1   
  5   3  16  1   
  6   4   6  1   
  7   4  17  1   
  8   4  18  1   
  9   5   7  1   
 10   5   8  1   
 11   5  19  1   
 12   6  20  1   
 13   6  21  1   
 14   6  22  1   
 15   7   9  ar  
 16   7  10  ar  
 17   8  23  1   
 18   8  24  1   
 19   8  25  1   
 20   9  11  ar  
 21   9  26  1   
 22  10  12  ar  
 23  10  27  1   
 24  11  13  ar  
 25  11  28  1   
 26  12  13  ar  
 27  12  29  1   
 28  13  14  1   
 29  14  15  1   
 30  15  30  1   
 31  15  31  1   
 32  15  32  1   
@<TRIPOS>SUBSTRUCTURE
  1 ****   7 GROUP 4 **** **** 0

# MOE 2024.06 (io_trps.svl 2023.06)
