@<TRIPOS>MOLECULE
NONAME
31 31 1 0 0 
SMALL
USER_CHARGES


@<TRIPOS>ATOM
  1 O       -1.1190     0.1830    -0.6850 O.2   1 <1>  -0.5700 
  2 C       -0.9170     1.3650    -0.4970 C.2   1 <1>   0.6340 
  3 O        0.3210     1.8400    -0.6820 O.3   1 <1>  -0.4300 
  4 C       -1.9490     2.2950    -0.0780 C.ar  1 <1>   0.0860 
  5 C        1.3870     1.0050    -1.0880 C.3   1 <1>   0.0400 
  6 C       -3.2640     1.8690     0.1240 C.ar  1 <1>  -0.1500 
  7 C       -1.6850     3.6490     0.1410 C.ar  1 <1>  -0.1500 
  8 C       -4.2740     2.7330     0.5200 C.ar  1 <1>  -0.1440 
  9 C       -2.6750     4.5250     0.5420 C.ar  1 <1>  -0.1500 
 10 C       -3.9770     4.0750     0.7380 C.ar  1 <1>   0.0830 
 11 C       -5.7010     2.2300     0.7330 C.3   1 <1>   0.2640 
 12 O       -4.9810     4.8900     1.1420 O.3   1 <1>  -0.3630 
 13 O       -5.9670     1.1440    -0.1300 O.3   1 <1>  -0.4300 
 14 C       -4.7880     6.2660     1.3820 C.3   1 <1>   0.0400 
 15 C       -7.1380     0.5330    -0.1040 C.2   1 <1>   0.6590 
 16 O       -8.0220     0.8560     0.6440 O.2   1 <1>  -0.5700 
 17 C       -7.3010    -0.6060    -1.0760 C.3   1 <1>  -0.1790 
 18 H        2.2770     1.6030    -1.1720 H     1 <1>   0.0800 
 19 H        1.1430     0.5680    -2.0410 H     1 <1>   0.0800 
 20 H        1.5260     0.2330    -0.3510 H     1 <1>   0.0800 
 21 H       -3.4880     0.8280    -0.0370 H     1 <1>   0.1500 
 22 H       -0.6860     4.0230    -0.0040 H     1 <1>   0.1500 
 23 H       -2.4140     5.5550     0.6980 H     1 <1>   0.1500 
 24 H       -6.4200     3.0010     0.5180 H     1 <1>   0.0800 
 25 H       -5.8310     1.8990     1.7480 H     1 <1>   0.0800 
 26 H       -4.0640     6.3860     2.1690 H     1 <1>   0.0800 
 27 H       -5.7290     6.6880     1.6850 H     1 <1>   0.0800 
 28 H       -4.4530     6.7360     0.4740 H     1 <1>   0.0800 
 29 H       -7.1750    -0.2420    -2.0780 H     1 <1>   0.0800 
 30 H       -8.2800    -1.0340    -0.9750 H     1 <1>   0.0800 
 31 H       -6.5610    -1.3580    -0.8740 H     1 <1>   0.0800 
@<TRIPOS>BOND
  1   1   2  2   
  2   2   3  1   
  3   2   4  1   
  4   3   5  1   
  5   4   6  ar  
  6   4   7  ar  
  7   5  18  1   
  8   5  19  1   
  9   5  20  1   
 10   6   8  ar  
 11   6  21  1   
 12   7   9  ar  
 13   7  22  1   
 14   8  10  ar  
 15   8  11  1   
 16   9  10  ar  
 17   9  23  1   
 18  10  12  1   
 19  11  13  1   
 20  11  24  1   
 21  11  25  1   
 22  12  14  1   
 23  13  15  1   
 24  14  26  1   
 25  14  27  1   
 26  14  28  1   
 27  15  16  2   
 28  15  17  1   
 29  17  29  1   
 30  17  30  1   
 31  17  31  1   
@<TRIPOS>SUBSTRUCTURE
  1 ****   6 GROUP 4 **** **** 0

# MOE 2024.06 (io_trps.svl 2023.06)
