@<TRIPOS>MOLECULE
NONAME
45 47 1 0 0 
SMALL
USER_CHARGES


@<TRIPOS>ATOM
  1 S       -0.4620    -0.2590     0.4340 S.3   1 <1>  -0.3320 
  2 C        1.1300    -1.0120     0.1450 C.ar  1 <1>   0.7220 
  3 C       -1.6730    -1.4700    -0.3000 C.3   1 <1>   0.1310 
  4 N        2.1450    -0.3330     0.5800 N.ar  1 <1>  -0.6200 
  5 N        1.1140    -2.1550    -0.4670 N.ar  1 <1>  -0.6200 
  6 C       -3.1130    -1.0040    -0.1460 C.2   1 <1>   0.5690 
  7 C        3.2940    -0.9240     0.3460 C.ar  1 <1>   0.7200 
  8 C        2.3190    -2.6330    -0.6360 C.ar  1 <1>   0.7200 
  9 O       -3.9820    -1.7490    -0.5290 O.2   1 <1>  -0.5700 
 10 N       -3.3520     0.2220     0.4160 N.am  1 <1>  -0.5470 
 11 N        3.4340    -2.0780    -0.2600 N.ar  1 <1>  -0.6200 
 12 N        4.4360    -0.2820     0.7720 N.pl3 1 <1>  -0.8380 
 13 N        2.4590    -3.8230    -1.2610 N.pl3 1 <1>  -0.8690 
 14 C       -4.5320     0.9300     0.6930 C.ar  1 <1>   0.1170 
 15 C        4.4250     1.0030     1.5430 C.3   1 <1>   0.2090 
 16 C        5.8100    -0.8620     0.6320 C.3   1 <1>   0.2090 
 17 C        1.3940    -4.7170    -1.7840 C.3   1 <1>   0.1290 
 18 C       -4.4440     2.0640     1.4930 C.ar  1 <1>  -0.1500 
 19 C       -5.7830     0.5650     0.2040 C.ar  1 <1>  -0.1500 
 20 C        5.5190     1.9600     1.0360 C.3   1 <1>   0.1200 
 21 C        6.8180     0.2100     0.1790 C.3   1 <1>   0.1200 
 22 C       -5.5670     2.8100     1.8000 C.ar  1 <1>  -0.1500 
 23 C       -6.9090     1.3080     0.5090 C.ar  1 <1>  -0.1500 
 24 O        6.7720     1.3330     1.0160 O.3   1 <1>  -0.5600 
 25 C       -6.8040     2.4320     1.3080 C.ar  1 <1>  -0.1500 
 26 H       -1.5340    -2.4080     0.2050 H     1 <1>   0.0800 
 27 H       -1.4290    -1.5770    -1.3400 H     1 <1>   0.0800 
 28 H       -2.4990     0.6990     0.7140 H     1 <1>   0.3700 
 29 H        3.4250    -4.1400    -1.3440 H     1 <1>   0.4000 
 30 H        4.5990     0.7910     2.5830 H     1 <1>   0.0800 
 31 H        3.4750     1.5000     1.4630 H     1 <1>   0.0800 
 32 H        5.8250    -1.6650    -0.0830 H     1 <1>   0.0800 
 33 H        6.1230    -1.2610     1.5810 H     1 <1>   0.0800 
 34 H        0.4210    -4.2750    -1.6550 H     1 <1>   0.0800 
 35 H        1.4190    -5.6560    -1.2570 H     1 <1>   0.0800 
 36 H        1.5550    -4.8970    -2.8320 H     1 <1>   0.0800 
 37 H       -3.4900     2.3670     1.8830 H     1 <1>   0.1500 
 38 H       -5.8890    -0.3020    -0.4220 H     1 <1>   0.1500 
 39 H        5.5910     2.8150     1.6830 H     1 <1>   0.0800 
 40 H        5.2870     2.2980     0.0410 H     1 <1>   0.0800 
 41 H        6.6030     0.5210    -0.8280 H     1 <1>   0.0800 
 42 H        7.8170    -0.1850     0.2140 H     1 <1>   0.0800 
 43 H       -5.4820     3.6850     2.4220 H     1 <1>   0.1500 
 44 H       -7.8690     1.0090     0.1230 H     1 <1>   0.1500 
 45 H       -7.6800     3.0100     1.5450 H     1 <1>   0.1500 
@<TRIPOS>BOND
  1   1   2  1   
  2   1   3  1   
  3   2   4  ar  
  4   2   5  ar  
  5   3   6  1   
  6   3  26  1   
  7   3  27  1   
  8   4   7  ar  
  9   5   8  ar  
 10   6   9  2   
 11   6  10  am  
 12   7  11  ar  
 13   7  12  1   
 14   8  11  ar  
 15   8  13  1   
 16  10  14  1   
 17  10  28  1   
 18  12  15  1   
 19  12  16  1   
 20  13  17  1   
 21  13  29  1   
 22  14  18  ar  
 23  14  19  ar  
 24  15  20  1   
 25  15  30  1   
 26  15  31  1   
 27  16  21  1   
 28  16  32  1   
 29  16  33  1   
 30  17  34  1   
 31  17  35  1   
 32  17  36  1   
 33  18  22  ar  
 34  18  37  1   
 35  19  23  ar  
 36  19  38  1   
 37  20  24  1   
 38  20  39  1   
 39  20  40  1   
 40  21  24  1   
 41  21  41  1   
 42  21  42  1   
 43  22  25  ar  
 44  22  43  1   
 45  23  25  ar  
 46  23  44  1   
 47  25  45  1   
@<TRIPOS>SUBSTRUCTURE
  1 ****   1 GROUP 4 **** **** 0

# MOE 2024.06 (io_trps.svl 2023.06)
