@<TRIPOS>MOLECULE
NONAME
41 41 1 0 0 
SMALL
USER_CHARGES


@<TRIPOS>ATOM
  1 O       -0.2850    -0.3510     0.4610 O.3   1 <1>  -0.3630 
  2 C       -1.4490    -0.9810     0.1290 C.ar  1 <1>   0.0830 
  3 C        0.5740    -0.7890     1.4890 C.3   1 <1>   0.0400 
  4 C       -2.0230    -2.0990     0.7580 C.ar  1 <1>   0.0830 
  5 C       -2.1040    -0.4230    -0.9560 C.ar  1 <1>  -0.1500 
  6 O       -1.4530    -2.7260     1.8100 O.3   1 <1>  -0.5330 
  7 C       -3.2300    -2.6080     0.2990 C.ar  1 <1>  -0.1500 
  8 C       -3.3040    -0.9340    -1.4120 C.ar  1 <1>  -0.1500 
  9 C       -3.8840    -2.0220    -0.7780 C.ar  1 <1>  -0.1430 
 10 C       -5.2190    -2.5540    -1.2610 C.3   1 <1>   0.4860 
 11 N       -6.2940    -2.0530    -0.3420 N.4   1 <1>  -0.9590 
 12 C       -7.5990    -2.7710    -0.5960 C.3   1 <1>   0.3430 
 13 C       -6.3990    -0.5540    -0.4490 C.3   1 <1>   0.2630 
 14 C       -8.7220    -2.4590     0.4380 C.3   1 <1>   0.3430 
 15 N      -10.0400    -3.1500     0.1700 N.4   1 <1>  -0.9590 
 16 C      -11.0940    -2.6390     1.1120 C.3   1 <1>   0.2630 
 17 C       -9.9760    -4.6480     0.2930 C.3   1 <1>   0.2630 
 18 H        1.4250    -0.1340     1.5160 H     1 <1>   0.0800 
 19 H        0.8920    -1.7940     1.2740 H     1 <1>   0.0800 
 20 H        0.0480    -0.7430     2.4260 H     1 <1>   0.0800 
 21 H       -1.6540     0.4250    -1.4450 H     1 <1>   0.1500 
 22 H       -1.8830    -3.5590     2.0680 H     1 <1>   0.4500 
 23 H       -3.6490    -3.4670     0.7900 H     1 <1>   0.1500 
 24 H       -3.7670    -0.4670    -2.2650 H     1 <1>   0.1500 
 25 H       -5.1880    -3.6320    -1.2550 H     1 <1>   0.0800 
 26 H       -5.4000    -2.2250    -2.2720 H     1 <1>   0.0800 
 27 H       -5.9310    -2.2610     0.6020 H     1 <1>   0.4500 
 28 H       -7.4150    -3.8330    -0.5840 H     1 <1>   0.0800 
 29 H       -7.9530    -2.5070    -1.5790 H     1 <1>   0.0800 
 30 H       -6.6850    -0.2630    -1.4480 H     1 <1>   0.0800 
 31 H       -5.4480    -0.0950    -0.2230 H     1 <1>   0.0800 
 32 H       -7.1250    -0.1680     0.2470 H     1 <1>   0.0800 
 33 H       -8.8910    -1.3950     0.4400 H     1 <1>   0.0800 
 34 H       -8.3770    -2.7400     1.4200 H     1 <1>   0.0800 
 35 H      -10.3770    -2.9230    -0.7830 H     1 <1>   0.4500 
 36 H      -10.8300    -2.8590     2.1340 H     1 <1>   0.0800 
 37 H      -12.0450    -3.1030     0.8990 H     1 <1>   0.0800 
 38 H      -11.2110    -1.5710     1.0090 H     1 <1>   0.0800 
 39 H       -9.6620    -4.9330     1.2840 H     1 <1>   0.0800 
 40 H       -9.2880    -5.0640    -0.4240 H     1 <1>   0.0800 
 41 H      -10.9490    -5.0780     0.1110 H     1 <1>   0.0800 
@<TRIPOS>BOND
  1   1   2  1   
  2   1   3  1   
  3   2   4  ar  
  4   2   5  ar  
  5   3  18  1   
  6   3  19  1   
  7   3  20  1   
  8   4   6  1   
  9   4   7  ar  
 10   5   8  ar  
 11   5  21  1   
 12   6  22  1   
 13   7   9  ar  
 14   7  23  1   
 15   8   9  ar  
 16   8  24  1   
 17   9  10  1   
 18  10  11  1   
 19  10  25  1   
 20  10  26  1   
 21  11  12  1   
 22  11  13  1   
 23  11  27  1   
 24  12  14  1   
 25  12  28  1   
 26  12  29  1   
 27  13  30  1   
 28  13  31  1   
 29  13  32  1   
 30  14  15  1   
 31  14  33  1   
 32  14  34  1   
 33  15  16  1   
 34  15  17  1   
 35  15  35  1   
 36  16  36  1   
 37  16  37  1   
 38  16  38  1   
 39  17  39  1   
 40  17  40  1   
 41  17  41  1   
@<TRIPOS>SUBSTRUCTURE
  1 ****   9 GROUP 4 **** **** 0

# MOE 2024.06 (io_trps.svl 2023.06)
