@<TRIPOS>MOLECULE
NONAME
41 41 1 0 0 
SMALL
USER_CHARGES


@<TRIPOS>ATOM
  1 O       -4.1150     7.7510    -0.0630 O.3   1 <1>  -0.3630 
  2 C       -5.3560     7.1930    -0.0260 C.ar  1 <1>   0.0830 
  3 C       -2.9470     6.9740    -0.0270 C.3   1 <1>   0.1200 
  4 C       -6.4600     8.0480    -0.0120 C.ar  1 <1>  -0.1440 
  5 C       -5.5450     5.8130     0.0020 C.ar  1 <1>  -0.1500 
  6 C       -1.7680     7.9460    -0.0460 C.3   1 <1>   0.3430 
  7 C       -7.7410     7.5070     0.0440 C.ar  1 <1>  -0.1440 
  8 C       -6.2790     9.5670    -0.0510 C.3   1 <1>  -0.0960 
  9 C       -6.8190     5.2800     0.0510 C.ar  1 <1>  -0.1440 
 10 N       -0.4550     7.2310    -0.0060 N.4   1 <1>  -0.9060 
 11 C       -7.9080     6.1310     0.0720 C.ar  1 <1>  -0.1500 
 12 C       -8.9870     8.3840     0.0780 C.3   1 <1>  -0.0970 
 13 C       -7.0330     3.7770     0.0800 C.3   1 <1>  -0.0970 
 14 C        0.6840     8.1980    -0.0250 C.3   1 <1>   0.3430 
 15 C        2.0400     7.4890     0.0150 C.3   1 <1>   0.1200 
 16 O        3.0090     8.4780    -0.0080 O.3   1 <1>  -0.5600 
 17 C        4.3200     8.0060     0.0230 C.3   1 <1>   0.0400 
 18 H       -2.9440     6.3390    -0.8960 H     1 <1>   0.0800 
 19 H       -2.9620     6.3960     0.8800 H     1 <1>   0.0800 
 20 H       -4.7190     5.1320    -0.0160 H     1 <1>   0.1500 
 21 H       -1.8500     8.6020     0.8060 H     1 <1>   0.0800 
 22 H       -1.8290     8.5420    -0.9420 H     1 <1>   0.0800 
 23 H       -5.2850     9.8530    -0.3370 H     1 <1>   0.0800 
 24 H       -6.4850     9.9790     0.9200 H     1 <1>   0.0800 
 25 H       -6.9530    10.0050    -0.7650 H     1 <1>   0.0800 
 26 H       -0.3810     6.6010    -0.8150 H     1 <1>   0.4500 
 27 H       -0.4010     6.6570     0.8460 H     1 <1>   0.4500 
 28 H       -8.8990     5.7140     0.1100 H     1 <1>   0.1500 
 29 H       -8.9050     9.1170     0.8590 H     1 <1>   0.0800 
 30 H       -9.8680     7.7970     0.2640 H     1 <1>   0.0800 
 31 H       -9.1080     8.8840    -0.8660 H     1 <1>   0.0800 
 32 H       -6.1650     3.2730     0.4640 H     1 <1>   0.0800 
 33 H       -7.2310     3.4200    -0.9150 H     1 <1>   0.0800 
 34 H       -7.8710     3.5320     0.7080 H     1 <1>   0.0800 
 35 H        0.6180     8.8560     0.8270 H     1 <1>   0.0800 
 36 H        0.6380     8.7970    -0.9210 H     1 <1>   0.0800 
 37 H        2.1760     6.8610    -0.8490 H     1 <1>   0.0800 
 38 H        2.1560     6.9220     0.9230 H     1 <1>   0.0800 
 39 H        4.9830     8.8540     0.0020 H     1 <1>   0.0800 
 40 H        4.5020     7.3880    -0.8400 H     1 <1>   0.0800 
 41 H        4.4810     7.4480     0.9300 H     1 <1>   0.0800 
@<TRIPOS>BOND
  1   1   2  1   
  2   1   3  1   
  3   2   4  ar  
  4   2   5  ar  
  5   3   6  1   
  6   3  18  1   
  7   3  19  1   
  8   4   7  ar  
  9   4   8  1   
 10   5   9  ar  
 11   5  20  1   
 12   6  10  1   
 13   6  21  1   
 14   6  22  1   
 15   7  11  ar  
 16   7  12  1   
 17   8  23  1   
 18   8  24  1   
 19   8  25  1   
 20   9  11  ar  
 21   9  13  1   
 22  10  14  1   
 23  10  26  1   
 24  10  27  1   
 25  11  28  1   
 26  12  29  1   
 27  12  30  1   
 28  12  31  1   
 29  13  32  1   
 30  13  33  1   
 31  13  34  1   
 32  14  15  1   
 33  14  35  1   
 34  14  36  1   
 35  15  16  1   
 36  15  37  1   
 37  15  38  1   
 38  16  17  1   
 39  17  39  1   
 40  17  40  1   
 41  17  41  1   
@<TRIPOS>SUBSTRUCTURE
  1 ****   1 GROUP 4 **** **** 0

# MOE 2024.06 (io_trps.svl 2023.06)
