@<TRIPOS>MOLECULE
NONAME
38 38 1 0 0 
SMALL
USER_CHARGES


@<TRIPOS>ATOM
  1 CL      -0.2670     0.0680     0.2450 Cl    1 <1>  -0.1770 
  2 C        1.3540     0.7000     0.1060 C.ar  1 <1>   0.1770 
  3 C        1.5420     1.9900    -0.3530 C.ar  1 <1>  -0.1500 
  4 C        2.4260    -0.1010     0.4580 C.ar  1 <1>  -0.1500 
  5 C        2.8300     2.4860    -0.4610 C.ar  1 <1>  -0.1500 
  6 C        3.7130     0.3990     0.3490 C.ar  1 <1>  -0.1500 
  7 C        3.9190     1.6990    -0.1130 C.ar  1 <1>   0.0830 
  8 O        5.1440     2.2650    -0.2490 O.3   1 <1>  -0.3630 
  9 C        6.3190     1.5550     0.0740 C.3   1 <1>   0.1200 
 10 C        7.5110     2.4710    -0.1920 C.3   1 <1>   0.1200 
 11 O        8.6860     1.7840     0.1250 O.3   1 <1>  -0.5600 
 12 C        9.8470     2.5170    -0.0750 C.3   1 <1>   0.1200 
 13 C       11.0240     1.6180     0.3170 C.3   1 <1>   0.3430 
 14 N       12.3360     2.3150     0.1510 N.4   1 <1>  -0.9060 
 15 C       13.4860     1.4890     0.5450 C.3   1 <1>   0.4230 
 16 C       14.6900     2.4140     0.6640 C.3   1 <1>  -0.2400 
 17 C       13.7290     0.4190    -0.5150 C.3   1 <1>  -0.2400 
 18 H        0.6930     2.5930    -0.6200 H     1 <1>   0.1500 
 19 H        2.2490    -1.1000     0.8120 H     1 <1>   0.1500 
 20 H        2.9980     3.4870    -0.8160 H     1 <1>   0.1500 
 21 H        4.5340    -0.2350     0.6260 H     1 <1>   0.1500 
 22 H        6.3700     0.6810    -0.5500 H     1 <1>   0.0800 
 23 H        6.2770     1.2860     1.1150 H     1 <1>   0.0800 
 24 H        7.4430     3.3490     0.4270 H     1 <1>   0.0800 
 25 H        7.5370     2.7440    -1.2330 H     1 <1>   0.0800 
 26 H        9.8050     3.3930     0.5490 H     1 <1>   0.0800 
 27 H        9.9000     2.7910    -1.1150 H     1 <1>   0.0800 
 28 H       10.9980     0.7350    -0.3000 H     1 <1>   0.0800 
 29 H       10.8990     1.3190     1.3450 H     1 <1>   0.0800 
 30 H       12.3490     3.1680     0.7200 H     1 <1>   0.4500 
 31 H       12.4690     2.5980    -0.8260 H     1 <1>   0.4500 
 32 H       13.3000     1.0230     1.5020 H     1 <1>   0.0800 
 33 H       14.9090     2.8970    -0.2720 H     1 <1>   0.0800 
 34 H       15.5550     1.8420     0.9520 H     1 <1>   0.0800 
 35 H       14.5280     3.1580     1.4240 H     1 <1>   0.0800 
 36 H       13.8980     0.8570    -1.4830 H     1 <1>   0.0800 
 37 H       12.9060    -0.2700    -0.5710 H     1 <1>   0.0800 
 38 H       14.6040    -0.1510    -0.2540 H     1 <1>   0.0800 
@<TRIPOS>BOND
  1   1   2  1   
  2   2   3  ar  
  3   2   4  ar  
  4   3   5  ar  
  5   3  18  1   
  6   4   6  ar  
  7   4  19  1   
  8   5   7  ar  
  9   5  20  1   
 10   6   7  ar  
 11   6  21  1   
 12   7   8  1   
 13   8   9  1   
 14   9  10  1   
 15   9  22  1   
 16   9  23  1   
 17  10  11  1   
 18  10  24  1   
 19  10  25  1   
 20  11  12  1   
 21  12  13  1   
 22  12  26  1   
 23  12  27  1   
 24  13  14  1   
 25  13  28  1   
 26  13  29  1   
 27  14  15  1   
 28  14  30  1   
 29  14  31  1   
 30  15  16  1   
 31  15  17  1   
 32  15  32  1   
 33  16  33  1   
 34  16  34  1   
 35  16  35  1   
 36  17  36  1   
 37  17  37  1   
 38  17  38  1   
@<TRIPOS>SUBSTRUCTURE
  1 ****   9 GROUP 4 **** **** 0

# MOE 2024.06 (io_trps.svl 2023.06)
