@<TRIPOS>MOLECULE
NONAME
31 31 1 0 0 
SMALL
USER_CHARGES


@<TRIPOS>ATOM
  1 CL       1.3320     0.9320     1.8520 Cl    1 <1>  -0.1770 
  2 C        0.7790     2.0600     0.6380 C.ar  1 <1>   0.1770 
  3 C        1.5370     2.2860    -0.5080 C.ar  1 <1>   0.0860 
  4 C       -0.4220     2.7070     0.8620 C.ar  1 <1>  -0.1500 
  5 C        2.7980     1.6200    -0.7430 C.2   1 <1>   0.5440 
  6 C        1.0210     3.1830    -1.4430 C.ar  1 <1>  -0.1500 
  7 C       -0.9100     3.6040    -0.0730 C.ar  1 <1>  -0.1430 
  8 O        2.8450     0.7540    -1.5960 O.2   1 <1>  -0.5700 
  9 N        3.9520     1.9610    -0.0590 N.am  1 <1>  -0.6600 
 10 C       -0.1800     3.8360    -1.2280 C.ar  1 <1>  -0.1500 
 11 C       -2.2260     4.3260     0.1520 C.3   1 <1>  -0.0970 
 12 C        4.0210     3.0790     0.9210 C.3   1 <1>   0.1400 
 13 C        5.1720     1.1120    -0.1600 C.3   1 <1>   0.1400 
 14 C        4.1270     4.4180     0.1940 C.3   1 <1>  -0.2400 
 15 C        6.2000     1.7750    -1.0730 C.3   1 <1>  -0.2400 
 16 H       -0.9680     2.5010     1.7660 H     1 <1>   0.1500 
 17 H        1.5780     3.3620    -2.3470 H     1 <1>   0.1500 
 18 H       -0.5490     4.5260    -1.9680 H     1 <1>   0.1500 
 19 H       -2.7770     3.8780     0.9600 H     1 <1>   0.0800 
 20 H       -2.8300     4.2790    -0.7370 H     1 <1>   0.0800 
 21 H       -2.0410     5.3580     0.3920 H     1 <1>   0.0800 
 22 H        4.8780     2.9490     1.5600 H     1 <1>   0.0800 
 23 H        3.1470     3.0730     1.5490 H     1 <1>   0.0800 
 24 H        4.9150     0.1450    -0.5590 H     1 <1>   0.0800 
 25 H        5.5890     0.9550     0.8200 H     1 <1>   0.0800 
 26 H        4.9930     4.4370    -0.4410 H     1 <1>   0.0800 
 27 H        4.2170     5.2110     0.9140 H     1 <1>   0.0800 
 28 H        3.2510     4.6000    -0.3990 H     1 <1>   0.0800 
 29 H        5.7610     1.9710    -2.0350 H     1 <1>   0.0800 
 30 H        7.0370     1.1150    -1.2090 H     1 <1>   0.0800 
 31 H        6.5560     2.6910    -0.6420 H     1 <1>   0.0800 
@<TRIPOS>BOND
  1   1   2  1   
  2   2   3  ar  
  3   2   4  ar  
  4   3   5  1   
  5   3   6  ar  
  6   4   7  ar  
  7   4  16  1   
  8   5   8  2   
  9   5   9  am  
 10   6  10  ar  
 11   6  17  1   
 12   7  10  ar  
 13   7  11  1   
 14   9  12  1   
 15   9  13  1   
 16  10  18  1   
 17  11  19  1   
 18  11  20  1   
 19  11  21  1   
 20  12  14  1   
 21  12  22  1   
 22  12  23  1   
 23  13  15  1   
 24  13  24  1   
 25  13  25  1   
 26  14  26  1   
 27  14  27  1   
 28  14  28  1   
 29  15  29  1   
 30  15  30  1   
 31  15  31  1   
@<TRIPOS>SUBSTRUCTURE
  1 ****   3 GROUP 4 **** **** 0

# MOE 2024.06 (io_trps.svl 2023.06)
