@<TRIPOS>MOLECULE
NONAME
33 35 1 0 0 
SMALL
USER_CHARGES


@<TRIPOS>ATOM
  1 O        0.0100     2.5480    -1.5760 O.3   1 <1>  -0.6800 
  2 C       -0.2870     3.4550    -0.5880 C.3   1 <1>   0.4240 
  3 C       -1.7940     3.3350    -0.3400 C.ar  1 <1>  -0.1440 
  4 C        0.2400     4.8750    -1.1030 C.3   1 <1>  -0.0800 
  5 C        0.5460     3.0260     0.7030 C.3   1 <1>   0.3430 
  6 C       -2.2890     2.1640     0.2270 C.ar  1 <1>  -0.1500 
  7 C       -2.7000     4.3400    -0.6690 C.ar  1 <1>  -0.1500 
  8 C        1.8040     4.7110    -1.4020 C.3   1 <1>  -0.1600 
  9 C        0.2110     5.8570     0.1550 C.3   1 <1>  -0.1600 
 10 N        1.6100     4.0660     0.8940 N.4   1 <1>  -0.9590 
 11 C       -3.6400     2.0110     0.4810 C.ar  1 <1>  -0.1500 
 12 C       -4.0520     4.1860    -0.4160 C.ar  1 <1>  -0.1500 
 13 C        2.6210     4.1120    -0.1820 C.3   1 <1>   0.3430 
 14 C        1.0830     5.3550     1.3780 C.3   1 <1>   0.3430 
 15 C       -4.5230     3.0240     0.1630 C.ar  1 <1>  -0.1500 
 16 H       -0.7820     2.4320    -2.1440 H     1 <1>   0.4000 
 17 H       -0.3040     5.2530    -1.9530 H     1 <1>   0.0800 
 18 H        0.9780     2.0490     0.5600 H     1 <1>   0.0800 
 19 H       -0.1000     3.0060     1.5660 H     1 <1>   0.0800 
 20 H       -1.6360     1.3440     0.4730 H     1 <1>   0.1500 
 21 H       -2.3920     5.2600    -1.1320 H     1 <1>   0.1500 
 22 H        2.2230     5.6690    -1.6610 H     1 <1>   0.0800 
 23 H        1.9570     4.0810    -2.2630 H     1 <1>   0.0800 
 24 H       -0.8000     6.0030     0.4960 H     1 <1>   0.0800 
 25 H        0.5670     6.8310    -0.1400 H     1 <1>   0.0800 
 26 H        1.1510     4.4120     0.1400 H     1 <1>   0.4500 
 27 H       -4.0090     1.1000     0.9230 H     1 <1>   0.1500 
 28 H       -4.7430     4.9720    -0.6710 H     1 <1>   0.1500 
 29 H        3.4520     4.7460     0.0900 H     1 <1>   0.0800 
 30 H        2.9810     3.1190    -0.4050 H     1 <1>   0.0800 
 31 H        0.4810     5.2160     2.2630 H     1 <1>   0.0800 
 32 H        1.8890     6.0400     1.5950 H     1 <1>   0.0800 
 33 H       -5.5760     2.9060     0.3600 H     1 <1>   0.1500 
@<TRIPOS>BOND
  1   1   2  1   
  2   1  16  1   
  3   2   3  1   
  4   2   4  1   
  5   2   5  1   
  6   3   6  ar  
  7   3   7  ar  
  8   4   8  1   
  9   4   9  1   
 10   4  17  1   
 11   5  10  1   
 12   5  18  1   
 13   5  19  1   
 14   6  11  ar  
 15   6  20  1   
 16   7  12  ar  
 17   7  21  1   
 18   8  13  1   
 19   8  22  1   
 20   8  23  1   
 21   9  14  1   
 22   9  24  1   
 23   9  25  1   
 24  10  13  1   
 25  10  14  1   
 26  10  26  1   
 27  11  15  ar  
 28  11  27  1   
 29  12  15  ar  
 30  12  28  1   
 31  13  29  1   
 32  13  30  1   
 33  14  31  1   
 34  14  32  1   
 35  15  33  1   
@<TRIPOS>SUBSTRUCTURE
  1 ****   2 GROUP 4 **** **** 0

# MOE 2024.06 (io_trps.svl 2023.06)
