@<TRIPOS>MOLECULE
NONAME
35 36 1 0 0 
SMALL
USER_CHARGES


@<TRIPOS>ATOM
  1 BR      -0.2310    -0.0910    -2.4810 Br    1 <1>  -0.1110 
  2 C       -1.1310     0.7930    -1.0180 C.ar  1 <1>   0.1110 
  3 C       -0.6160     1.9470    -0.4260 C.ar  1 <1>   0.0830 
  4 C       -2.3260     0.2340    -0.6040 C.ar  1 <1>  -0.1500 
  5 O        0.5600     2.5320    -0.7710 O.3   1 <1>  -0.3630 
  6 C       -1.3510     2.5530     0.5820 C.ar  1 <1>  -0.1500 
  7 C       -3.0370     0.8440     0.4160 C.ar  1 <1>  -0.1500 
  8 C        1.7360     1.7580    -0.7530 C.3   1 <1>   0.1200 
  9 C       -2.5510     2.0020     1.0030 C.ar  1 <1>  -0.1500 
 10 C        2.8810     2.6690    -0.3020 C.3   1 <1>   0.3430 
 11 N        4.2150     1.9830    -0.3390 N.4   1 <1>  -0.9590 
 12 C        4.3150     0.8740     0.6600 C.3   1 <1>   0.3430 
 13 C        5.3090     2.9810    -0.1500 C.3   1 <1>   0.3430 
 14 C        5.6510     0.1480     0.4920 C.3   1 <1>  -0.1600 
 15 C        6.6670     2.3010    -0.3360 C.3   1 <1>  -0.1600 
 16 C        6.8410     1.1090     0.6140 C.3   1 <1>  -0.1600 
 17 H       -2.6990    -0.6580    -1.0750 H     1 <1>   0.1500 
 18 H       -0.9850     3.4550     1.0390 H     1 <1>   0.1500 
 19 H       -3.9700     0.4220     0.7500 H     1 <1>   0.1500 
 20 H        1.9120     1.4030    -1.7520 H     1 <1>   0.0800 
 21 H        1.5960     0.9370    -0.0730 H     1 <1>   0.0800 
 22 H       -3.1130     2.4780     1.7900 H     1 <1>   0.1500 
 23 H        2.6790     3.0160     0.6980 H     1 <1>   0.0800 
 24 H        2.9040     3.5230    -0.9590 H     1 <1>   0.0800 
 25 H        4.3500     1.5710    -1.2720 H     1 <1>   0.4500 
 26 H        3.5110     0.1700     0.5220 H     1 <1>   0.0800 
 27 H        4.2480     1.2750     1.6590 H     1 <1>   0.0800 
 28 H        5.2520     3.4030     0.8410 H     1 <1>   0.0800 
 29 H        5.2090     3.7820    -0.8660 H     1 <1>   0.0800 
 30 H        5.6730    -0.3450    -0.4640 H     1 <1>   0.0800 
 31 H        5.7340    -0.6150     1.2480 H     1 <1>   0.0800 
 32 H        7.4480     3.0190    -0.1510 H     1 <1>   0.0800 
 33 H        6.7680     1.9760    -1.3570 H     1 <1>   0.0800 
 34 H        7.7570     0.5890     0.3860 H     1 <1>   0.0800 
 35 H        6.9120     1.4660     1.6280 H     1 <1>   0.0800 
@<TRIPOS>BOND
  1   1   2  1   
  2   2   3  ar  
  3   2   4  ar  
  4   3   5  1   
  5   3   6  ar  
  6   4   7  ar  
  7   4  17  1   
  8   5   8  1   
  9   6   9  ar  
 10   6  18  1   
 11   7   9  ar  
 12   7  19  1   
 13   8  10  1   
 14   8  20  1   
 15   8  21  1   
 16   9  22  1   
 17  10  11  1   
 18  10  23  1   
 19  10  24  1   
 20  11  12  1   
 21  11  13  1   
 22  11  25  1   
 23  12  14  1   
 24  12  26  1   
 25  12  27  1   
 26  13  15  1   
 27  13  28  1   
 28  13  29  1   
 29  14  16  1   
 30  14  30  1   
 31  14  31  1   
 32  15  16  1   
 33  15  32  1   
 34  15  33  1   
 35  16  34  1   
 36  16  35  1   
@<TRIPOS>SUBSTRUCTURE
  1 ****   8 GROUP 4 **** **** 0

# MOE 2024.06 (io_trps.svl 2023.06)
