@<TRIPOS>MOLECULE
NONAME
45 47 1 0 0 
SMALL
USER_CHARGES


@<TRIPOS>ATOM
  1 CL      -0.3030    -0.9230    -1.3140 Cl    1 <1>  -0.1770 
  2 C       -0.0750     0.3940    -0.1860 C.ar  1 <1>   0.1770 
  3 C        1.1550     0.5740     0.4490 C.ar  1 <1>   0.0530 
  4 C       -1.1510     1.2280     0.0480 C.ar  1 <1>  -0.1500 
  5 C        2.2950    -0.2750     0.2100 C.2   1 <1>   0.1330 
  6 C        1.2520     1.6290     1.3540 C.ar  1 <1>  -0.1500 
  7 C       -1.0230     2.2760     0.9430 C.ar  1 <1>  -0.1500 
  8 N        2.8650    -1.0240     1.1150 N.2   1 <1>  -0.3380 
  9 N        2.9310    -0.3960    -0.9720 N.pl3 1 <1>   0.0480 
 10 C        0.1820     2.4720     1.5980 C.ar  1 <1>  -0.1500 
 11 N        3.8740    -1.6730     0.5350 N.2   1 <1>  -0.3380 
 12 C        3.8800    -1.2800    -0.6880 C.2   1 <1>   0.2430 
 13 C        2.6520     0.2510    -2.2720 C.3   1 <1>   0.0160 
 14 S        5.0180    -1.8990    -1.9230 S.3   1 <1>  -0.2860 
 15 C        4.3070    -3.5690    -2.2930 C.3   1 <1>   0.1310 
 16 C        2.8220    -3.4330    -2.6130 C.2   1 <1>   0.5690 
 17 O        2.5010    -2.9130    -3.6530 O.2   1 <1>  -0.5700 
 18 N        1.8560    -3.8710    -1.7700 N.am  1 <1>  -0.7300 
 19 C        1.9830    -4.4110    -0.4060 C.3   1 <1>   0.2200 
 20 C        2.0200    -5.9410    -0.4750 C.3   1 <1>  -0.1600 
 21 C        0.7960    -3.9280     0.4320 C.3   1 <1>  -0.1600 
 22 C        2.0640    -6.5560     0.9320 C.3   1 <1>  -0.1600 
 23 C        0.8390    -4.5320     1.8430 C.3   1 <1>  -0.1600 
 24 C        0.8890    -6.0650     1.7890 C.3   1 <1>  -0.1600 
 25 H       -2.0820     1.0570    -0.4630 H     1 <1>   0.1500 
 26 H        2.1830     1.7830     1.8740 H     1 <1>   0.1500 
 27 H       -1.8550     2.9320     1.1340 H     1 <1>   0.1500 
 28 H        0.2840     3.2810     2.3010 H     1 <1>   0.1500 
 29 H        2.0870     1.1520    -2.1190 H     1 <1>   0.0800 
 30 H        2.0910    -0.4250    -2.8920 H     1 <1>   0.0800 
 31 H        3.5790     0.4920    -2.7600 H     1 <1>   0.0800 
 32 H        4.4840    -4.1890    -1.4350 H     1 <1>   0.0800 
 33 H        4.8370    -3.9560    -3.1420 H     1 <1>   0.0800 
 34 H        0.8950    -3.7170    -2.0800 H     1 <1>   0.3700 
 35 H        2.8910    -4.0550     0.0510 H     1 <1>   0.0800 
 36 H        2.8870    -6.2580    -1.0270 H     1 <1>   0.0800 
 37 H        1.1420    -6.2980    -0.9860 H     1 <1>   0.0800 
 38 H       -0.1260    -4.2100    -0.0440 H     1 <1>   0.0800 
 39 H        0.8290    -2.8570     0.5130 H     1 <1>   0.0800 
 40 H        2.9900    -6.2830     1.4110 H     1 <1>   0.0800 
 41 H        2.0340    -7.6290     0.8590 H     1 <1>   0.0800 
 42 H       -0.0280    -4.2160     2.3970 H     1 <1>   0.0800 
 43 H        1.7100    -4.1610     2.3580 H     1 <1>   0.0800 
 44 H        0.9830    -6.4560     2.7870 H     1 <1>   0.0800 
 45 H       -0.0330    -6.4360     1.3750 H     1 <1>   0.0800 
@<TRIPOS>BOND
  1   1   2  1   
  2   2   3  ar  
  3   2   4  ar  
  4   3   5  1   
  5   3   6  ar  
  6   4   7  ar  
  7   4  25  1   
  8   5   8  2   
  9   5   9  1   
 10   6  10  ar  
 11   6  26  1   
 12   7  10  ar  
 13   7  27  1   
 14   8  11  1   
 15   9  12  1   
 16   9  13  1   
 17  10  28  1   
 18  11  12  2   
 19  12  14  1   
 20  13  29  1   
 21  13  30  1   
 22  13  31  1   
 23  14  15  1   
 24  15  16  1   
 25  15  32  1   
 26  15  33  1   
 27  16  17  2   
 28  16  18  am  
 29  18  19  1   
 30  18  34  1   
 31  19  20  1   
 32  19  21  1   
 33  19  35  1   
 34  20  22  1   
 35  20  36  1   
 36  20  37  1   
 37  21  23  1   
 38  21  38  1   
 39  21  39  1   
 40  22  24  1   
 41  22  40  1   
 42  22  41  1   
 43  23  24  1   
 44  23  42  1   
 45  23  43  1   
 46  24  44  1   
 47  24  45  1   
@<TRIPOS>SUBSTRUCTURE
  1 ****   5 GROUP 4 **** **** 0

# MOE 2024.06 (io_trps.svl 2023.06)
