@<TRIPOS>MOLECULE
NONAME
41 42 1 0 0 
SMALL
USER_CHARGES


@<TRIPOS>ATOM
  1 S       -0.2650    -1.1610     1.1550 S.o2  1 <1>   1.4470 
  2 O       -0.3130    -2.5890     0.9410 O.2   1 <1>  -0.6500 
  3 O        0.0240    -0.6230     2.4630 O.2   1 <1>  -0.6500 
  4 N        0.9820    -0.5570     0.2080 N.am  1 <1>  -0.9140 
  5 C       -1.7350    -0.3730     0.4430 C.ar  1 <1>  -0.0090 
  6 C        2.1570    -1.4230     0.1690 C.3   1 <1>   0.1160 
  7 C       -2.3300     0.7290     1.0410 C.ar  1 <1>  -0.1500 
  8 C       -2.2890    -0.8410    -0.7420 C.ar  1 <1>  -0.1500 
  9 C       -3.4450     1.3740     0.5050 C.ar  1 <1>   0.0860 
 10 C       -3.4030    -0.2380    -1.2910 C.ar  1 <1>  -0.1500 
 11 C       -3.9970     0.8500    -0.6750 C.ar  1 <1>   0.0830 
 12 C       -3.9400     2.5550     1.1740 C.2   1 <1>   0.5440 
 13 O       -5.0980     1.3400    -1.2880 O.3   1 <1>  -0.3630 
 14 O       -4.5540     2.4210     2.2170 O.2   1 <1>  -0.5700 
 15 N       -3.7200     3.8240     0.6750 N.am  1 <1>  -0.6600 
 16 C       -6.2310     1.7490    -0.5480 C.3   1 <1>   0.0400 
 17 C       -4.2520     5.0420     1.3480 C.3   1 <1>   0.1400 
 18 C       -2.9770     4.1020    -0.5860 C.3   1 <1>   0.1400 
 19 C       -5.1740     5.8010     0.3860 C.3   1 <1>  -0.1600 
 20 C       -3.8910     4.8410    -1.5680 C.3   1 <1>  -0.1600 
 21 C       -4.4750     6.1180    -0.9440 C.3   1 <1>  -0.1600 
 22 H        1.2480     0.2980     0.6970 H     1 <1>   0.4200 
 23 H        1.9150    -2.3530    -0.3190 H     1 <1>   0.0800 
 24 H        2.5020    -1.6330     1.1680 H     1 <1>   0.0800 
 25 H        2.9470    -0.9420    -0.3820 H     1 <1>   0.0800 
 26 H       -1.9180     1.1140     1.9600 H     1 <1>   0.1500 
 27 H       -1.8410    -1.6890    -1.2340 H     1 <1>   0.1500 
 28 H       -3.8270    -0.6160    -2.2060 H     1 <1>   0.1500 
 29 H       -7.0970     1.6450    -1.1760 H     1 <1>   0.0800 
 30 H       -6.1130     2.7790    -0.2640 H     1 <1>   0.0800 
 31 H       -6.3330     1.1250     0.3230 H     1 <1>   0.0800 
 32 H       -3.4270     5.6690     1.6360 H     1 <1>   0.0800 
 33 H       -4.7980     4.7820     2.2390 H     1 <1>   0.0800 
 34 H       -2.6230     3.1940    -1.0410 H     1 <1>   0.0800 
 35 H       -2.1220     4.7140    -0.3560 H     1 <1>   0.0800 
 36 H       -5.4950     6.7150     0.8520 H     1 <1>   0.0800 
 37 H       -6.0500     5.2030     0.2040 H     1 <1>   0.0800 
 38 H       -4.6880     4.1820    -1.8640 H     1 <1>   0.0800 
 39 H       -3.3330     5.0940    -2.4510 H     1 <1>   0.0800 
 40 H       -3.6800     6.8230    -0.7690 H     1 <1>   0.0800 
 41 H       -5.1750     6.5680    -1.6250 H     1 <1>   0.0800 
@<TRIPOS>BOND
  1   1   2  2   
  2   1   3  2   
  3   1   4  am  
  4   1   5  1   
  5   4   6  1   
  6   4  22  1   
  7   5   7  ar  
  8   5   8  ar  
  9   6  23  1   
 10   6  24  1   
 11   6  25  1   
 12   7   9  ar  
 13   7  26  1   
 14   8  10  ar  
 15   8  27  1   
 16   9  11  ar  
 17   9  12  1   
 18  10  11  ar  
 19  10  28  1   
 20  11  13  1   
 21  12  14  2   
 22  12  15  am  
 23  13  16  1   
 24  15  17  1   
 25  15  18  1   
 26  16  29  1   
 27  16  30  1   
 28  16  31  1   
 29  17  19  1   
 30  17  32  1   
 31  17  33  1   
 32  18  20  1   
 33  18  34  1   
 34  18  35  1   
 35  19  21  1   
 36  19  36  1   
 37  19  37  1   
 38  20  21  1   
 39  20  38  1   
 40  20  39  1   
 41  21  40  1   
 42  21  41  1   
@<TRIPOS>SUBSTRUCTURE
  1 ****   9 GROUP 4 **** **** 0

# MOE 2024.06 (io_trps.svl 2023.06)
