@<TRIPOS>MOLECULE
NONAME
33 34 1 0 0 
SMALL
USER_CHARGES


@<TRIPOS>ATOM
  1 F        0.5770    -0.3030     0.6930 F     1 <1>  -0.1900 
  2 C        1.7760    -0.7810     0.4840 C.ar  1 <1>   0.1900 
  3 C        2.8700     0.0090     0.7940 C.ar  1 <1>  -0.1500 
  4 C        1.8990    -2.0590    -0.0400 C.ar  1 <1>  -0.1500 
  5 C        4.1260    -0.5230     0.5600 C.ar  1 <1>  -0.1440 
  6 C        3.1660    -2.5760    -0.2660 C.ar  1 <1>  -0.1500 
  7 C        4.2780    -1.7970     0.0380 C.ar  1 <1>   0.1170 
  8 C        5.4930     0.0980     0.7990 C.3   1 <1>   0.4250 
  9 N        5.6300    -2.1030    -0.1040 N.am  1 <1>  -0.4770 
 10 N        5.6240     1.3520     0.0100 N.am  1 <1>  -0.7300 
 11 C        6.3950    -1.0470     0.3090 C.2   1 <1>   0.5690 
 12 C        6.1730    -3.3720    -0.6370 C.3   1 <1>   0.1400 
 13 C        5.3400     2.5740     0.5020 C.2   1 <1>   0.5690 
 14 O        7.6040    -1.0000     0.2740 O.2   1 <1>  -0.5700 
 15 C        6.1870    -4.4360     0.4640 C.3   1 <1>  -0.1600 
 16 O        4.8960     2.7280     1.6110 O.2   1 <1>  -0.5700 
 17 C        5.5860     3.7730    -0.3740 C.3   1 <1>  -0.1790 
 18 C        6.7240    -5.7730    -0.0590 C.3   1 <1>  -0.2400 
 19 H        2.7430     0.9970     1.2010 H     1 <1>   0.1500 
 20 H        1.0170    -2.6320    -0.2630 H     1 <1>   0.1500 
 21 H        3.2880    -3.5640    -0.6700 H     1 <1>   0.1500 
 22 H        5.6570     0.2810     1.8460 H     1 <1>   0.0800 
 23 H        6.0300     1.2380    -0.9190 H     1 <1>   0.3700 
 24 H        7.1750    -3.2070    -0.9960 H     1 <1>   0.0800 
 25 H        5.5690    -3.6970    -1.4670 H     1 <1>   0.0800 
 26 H        5.1900    -4.5810     0.8420 H     1 <1>   0.0800 
 27 H        6.8130    -4.0980     1.2720 H     1 <1>   0.0800 
 28 H        4.9860     3.7030    -1.2610 H     1 <1>   0.0800 
 29 H        6.6250     3.8200    -0.6420 H     1 <1>   0.0800 
 30 H        5.3220     4.6690     0.1570 H     1 <1>   0.0800 
 31 H        6.1060    -6.1430    -0.8580 H     1 <1>   0.0800 
 32 H        6.7290    -6.5010     0.7340 H     1 <1>   0.0800 
 33 H        7.7310    -5.6580    -0.4210 H     1 <1>   0.0800 
@<TRIPOS>BOND
  1   1   2  1   
  2   2   3  ar  
  3   2   4  ar  
  4   3   5  ar  
  5   3  19  1   
  6   4   6  ar  
  7   4  20  1   
  8   5   7  ar  
  9   5   8  1   
 10   6   7  ar  
 11   6  21  1   
 12   7   9  1   
 13   8  10  1   
 14   8  11  1   
 15   8  22  1   
 16   9  11  am  
 17   9  12  1   
 18  10  13  am  
 19  10  23  1   
 20  11  14  2   
 21  12  15  1   
 22  12  24  1   
 23  12  25  1   
 24  13  16  2   
 25  13  17  1   
 26  15  18  1   
 27  15  26  1   
 28  15  27  1   
 29  17  28  1   
 30  17  29  1   
 31  17  30  1   
 32  18  31  1   
 33  18  32  1   
 34  18  33  1   
@<TRIPOS>SUBSTRUCTURE
  1 ****   5 GROUP 4 **** **** 0

# MOE 2024.06 (io_trps.svl 2023.06)
