@<TRIPOS>MOLECULE
NONAME
46 48 1 0 0 
SMALL
USER_CHARGES


@<TRIPOS>ATOM
  1 O        0.2140    -3.9820    -1.6330 O.2   1 <1>  -0.5700 
  2 C        0.4050    -3.1000    -0.8380 C.2   1 <1>   0.6590 
  3 O       -0.3560    -2.0180    -0.7760 O.3   1 <1>  -0.4300 
  4 C        1.5590    -3.1490     0.1620 C.3   1 <1>  -0.0190 
  5 C       -1.4510    -1.8390    -1.6450 C.3   1 <1>   0.1200 
  6 C        2.7480    -2.3080    -0.3360 C.3   1 <1>  -0.1600 
  7 C        2.0210    -4.5910     0.4580 C.3   1 <1>  -0.1600 
  8 C       -2.1010    -0.4980    -1.3190 C.3   1 <1>  -0.2400 
  9 C        3.9430    -2.3850     0.6140 C.3   1 <1>   0.3430 
 10 C        3.2230    -4.6260     1.3970 C.3   1 <1>   0.3430 
 11 N        4.3270    -3.8130     0.8170 N.4   1 <1>  -0.9590 
 12 C        5.5830    -3.9410     1.6080 C.3   1 <1>   0.4860 
 13 C        6.7130    -3.3340     0.8030 C.ar  1 <1>  -0.1440 
 14 C        7.1780    -3.9840    -0.3700 C.ar  1 <1>   0.0000 
 15 C        7.2570    -2.1430     1.2120 C.ar  1 <1>  -0.1500 
 16 C        8.1690    -3.3360    -1.1420 C.ar  1 <1>   0.0000 
 17 C        6.7160    -5.2460    -0.8190 C.ar  1 <1>  -0.1500 
 18 C        8.2620    -1.5290     0.4600 C.ar  1 <1>  -0.1500 
 19 C        8.6990    -2.1110    -0.6940 C.ar  1 <1>  -0.1500 
 20 C        8.6090    -3.9320    -2.3410 C.ar  1 <1>  -0.1500 
 21 C        7.1660    -5.8030    -1.9840 C.ar  1 <1>  -0.1500 
 22 C        8.1180    -5.1360    -2.7580 C.ar  1 <1>  -0.1500 
 23 H        1.1950    -2.7190     1.0790 H     1 <1>   0.0800 
 24 H       -2.1440    -2.6510    -1.4950 H     1 <1>   0.0800 
 25 H       -1.0910    -1.8570    -2.6600 H     1 <1>   0.0800 
 26 H        2.4440    -1.2790    -0.4290 H     1 <1>   0.0800 
 27 H        3.0500    -2.6410    -1.3140 H     1 <1>   0.0800 
 28 H        2.2760    -5.0940    -0.4600 H     1 <1>   0.0800 
 29 H        1.2090    -5.1400     0.9040 H     1 <1>   0.0800 
 30 H       -2.4490    -0.4910    -0.3010 H     1 <1>   0.0800 
 31 H       -2.9420    -0.3370    -1.9680 H     1 <1>   0.0800 
 32 H       -1.3980     0.3020    -1.4660 H     1 <1>   0.0800 
 33 H        3.6860    -1.9350     1.5590 H     1 <1>   0.0800 
 34 H        4.7690    -1.8350     0.1890 H     1 <1>   0.0800 
 35 H        3.5430    -5.6480     1.5290 H     1 <1>   0.0800 
 36 H        2.9420    -4.2300     2.3600 H     1 <1>   0.0800 
 37 H        4.5490    -4.1810    -0.1190 H     1 <1>   0.4500 
 38 H        5.8030    -4.9780     1.8020 H     1 <1>   0.0800 
 39 H        5.4840    -3.4300     2.5520 H     1 <1>   0.0800 
 40 H        6.9310    -1.6450     2.1100 H     1 <1>   0.1500 
 41 H        6.0050    -5.8020    -0.2400 H     1 <1>   0.1500 
 42 H        8.6820    -0.5950     0.7990 H     1 <1>   0.1500 
 43 H        9.4680    -1.6390    -1.2810 H     1 <1>   0.1500 
 44 H        9.3510    -3.4190    -2.9280 H     1 <1>   0.1500 
 45 H        6.8060    -6.7610    -2.3220 H     1 <1>   0.1500 
 46 H        8.4600    -5.5860    -3.6750 H     1 <1>   0.1500 
@<TRIPOS>BOND
  1   1   2  2   
  2   2   3  1   
  3   2   4  1   
  4   3   5  1   
  5   4   6  1   
  6   4   7  1   
  7   4  23  1   
  8   5   8  1   
  9   5  24  1   
 10   5  25  1   
 11   6   9  1   
 12   6  26  1   
 13   6  27  1   
 14   7  10  1   
 15   7  28  1   
 16   7  29  1   
 17   8  30  1   
 18   8  31  1   
 19   8  32  1   
 20   9  11  1   
 21   9  33  1   
 22   9  34  1   
 23  10  11  1   
 24  10  35  1   
 25  10  36  1   
 26  11  12  1   
 27  11  37  1   
 28  12  13  1   
 29  12  38  1   
 30  12  39  1   
 31  13  14  ar  
 32  13  15  ar  
 33  14  16  ar  
 34  14  17  ar  
 35  15  18  ar  
 36  15  40  1   
 37  16  19  ar  
 38  16  20  ar  
 39  17  21  ar  
 40  17  41  1   
 41  18  19  ar  
 42  18  42  1   
 43  19  43  1   
 44  20  22  ar  
 45  20  44  1   
 46  21  22  ar  
 47  21  45  1   
 48  22  46  1   
@<TRIPOS>SUBSTRUCTURE
  1 ****  11 GROUP 4 **** **** 0

# MOE 2024.06 (io_trps.svl 2023.06)
