@<TRIPOS>MOLECULE
NONAME
58 60 1 0 0 
SMALL
USER_CHARGES


@<TRIPOS>ATOM
  1 O       -0.4320    -0.4260     0.2470 O.3   1 <1>  -0.3630 
  2 C       -1.7160    -0.8540     0.3700 C.ar  1 <1>   0.0830 
  3 C        0.5190    -1.2090     0.9330 C.3   1 <1>   0.0400 
  4 C       -2.5400    -0.3520     1.3880 C.ar  1 <1>   0.0830 
  5 C       -2.2180    -1.8370    -0.4930 C.ar  1 <1>   0.0830 
  6 O       -2.2080     0.6370     2.2630 O.3   1 <1>  -0.3630 
  7 C       -3.8080    -0.8800     1.5660 C.ar  1 <1>  -0.1500 
  8 O       -1.5450    -2.3680    -1.5490 O.3   1 <1>  -0.3630 
  9 C       -3.4900    -2.3470    -0.2920 C.ar  1 <1>  -0.1500 
 10 C       -1.3680     1.7030     1.8700 C.3   1 <1>   0.0400 
 11 C       -4.2930    -1.8750     0.7330 C.ar  1 <1>  -0.1430 
 12 C       -0.7520    -1.5390    -2.3740 C.3   1 <1>   0.0400 
 13 C       -5.6900    -2.4280     0.9310 C.3   1 <1>   0.4860 
 14 N       -6.5710    -1.8630    -0.1240 N.4   1 <1>  -0.9590 
 15 C       -6.6850    -0.3590    -0.0160 C.3   1 <1>   0.3430 
 16 C       -7.9330    -2.5090    -0.1260 C.3   1 <1>   0.3430 
 17 C       -7.5910     0.2540    -1.1040 C.3   1 <1>   0.2090 
 18 C       -8.8540    -1.9500    -1.2290 C.3   1 <1>   0.2090 
 19 N       -8.8980    -0.4600    -1.2050 N.pl3 1 <1>  -0.8380 
 20 C      -10.0130     0.1360    -0.6160 C.ar  1 <1>   0.1000 
 21 C      -11.0480     0.6430    -1.4020 C.ar  1 <1>  -0.1430 
 22 C      -10.1110     0.2280     0.7690 C.ar  1 <1>  -0.1500 
 23 C      -12.1490     1.2230    -0.7960 C.ar  1 <1>  -0.1500 
 24 C      -10.9820     0.5690    -2.9210 C.3   1 <1>  -0.0970 
 25 C      -11.2110     0.8090     1.3740 C.ar  1 <1>  -0.1430 
 26 C      -12.2320     1.3070     0.5830 C.ar  1 <1>  -0.1500 
 27 C      -11.3180     0.9100     2.8850 C.3   1 <1>  -0.0970 
 28 H        0.4880    -2.2130     0.5490 H     1 <1>   0.0800 
 29 H        1.4920    -0.7810     0.7690 H     1 <1>   0.0800 
 30 H        0.2850    -1.2010     1.9830 H     1 <1>   0.0800 
 31 H       -4.4030    -0.4900     2.3740 H     1 <1>   0.1500 
 32 H       -3.8280    -3.1230    -0.9570 H     1 <1>   0.1500 
 33 H       -1.5450     2.5310     2.5320 H     1 <1>   0.0800 
 34 H       -1.5990     1.9840     0.8580 H     1 <1>   0.0800 
 35 H       -0.3430     1.3890     1.9530 H     1 <1>   0.0800 
 36 H       -0.6660    -2.0090    -3.3370 H     1 <1>   0.0800 
 37 H       -1.2250    -0.5780    -2.4730 H     1 <1>   0.0800 
 38 H        0.2240    -1.4370    -1.9350 H     1 <1>   0.0800 
 39 H       -6.0570    -2.1620     1.9090 H     1 <1>   0.0800 
 40 H       -5.6590    -3.5030     0.8570 H     1 <1>   0.0800 
 41 H       -6.1200    -2.0560    -1.0270 H     1 <1>   0.4500 
 42 H       -5.7080     0.0910    -0.0890 H     1 <1>   0.0800 
 43 H       -7.0930    -0.0970     0.9450 H     1 <1>   0.0800 
 44 H       -8.4140    -2.3400     0.8230 H     1 <1>   0.0800 
 45 H       -7.8360    -3.5740    -0.2610 H     1 <1>   0.0800 
 46 H       -7.0950     0.2120    -2.0570 H     1 <1>   0.0800 
 47 H       -7.7690     1.2920    -0.8780 H     1 <1>   0.0800 
 48 H       -9.8500    -2.3370    -1.0930 H     1 <1>   0.0800 
 49 H       -8.5090    -2.2750    -2.1950 H     1 <1>   0.0800 
 50 H       -9.3220    -0.1600     1.3790 H     1 <1>   0.1500 
 51 H      -12.9530     1.6170    -1.3930 H     1 <1>   0.1500 
 52 H      -10.9460    -0.4590    -3.2340 H     1 <1>   0.0800 
 53 H      -10.0980     1.0690    -3.2720 H     1 <1>   0.0800 
 54 H      -11.8400     1.0340    -3.3710 H     1 <1>   0.0800 
 55 H      -13.0960     1.7610     1.0360 H     1 <1>   0.1500 
 56 H      -10.3970     0.6260     3.3590 H     1 <1>   0.0800 
 57 H      -12.1030     0.2640     3.2380 H     1 <1>   0.0800 
 58 H      -11.5500     1.9210     3.1690 H     1 <1>   0.0800 
@<TRIPOS>BOND
  1   1   2  1   
  2   1   3  1   
  3   2   4  ar  
  4   2   5  ar  
  5   3  28  1   
  6   3  29  1   
  7   3  30  1   
  8   4   6  1   
  9   4   7  ar  
 10   5   8  1   
 11   5   9  ar  
 12   6  10  1   
 13   7  11  ar  
 14   7  31  1   
 15   8  12  1   
 16   9  11  ar  
 17   9  32  1   
 18  10  33  1   
 19  10  34  1   
 20  10  35  1   
 21  11  13  1   
 22  12  36  1   
 23  12  37  1   
 24  12  38  1   
 25  13  14  1   
 26  13  39  1   
 27  13  40  1   
 28  14  15  1   
 29  14  16  1   
 30  14  41  1   
 31  15  17  1   
 32  15  42  1   
 33  15  43  1   
 34  16  18  1   
 35  16  44  1   
 36  16  45  1   
 37  17  19  1   
 38  17  46  1   
 39  17  47  1   
 40  18  19  1   
 41  18  48  1   
 42  18  49  1   
 43  19  20  1   
 44  20  21  ar  
 45  20  22  ar  
 46  21  23  ar  
 47  21  24  1   
 48  22  25  ar  
 49  22  50  1   
 50  23  26  ar  
 51  23  51  1   
 52  24  52  1   
 53  24  53  1   
 54  24  54  1   
 55  25  26  ar  
 56  25  27  1   
 57  26  55  1   
 58  27  56  1   
 59  27  57  1   
 60  27  58  1   
@<TRIPOS>SUBSTRUCTURE
  1 ****  15 GROUP 4 **** **** 0

# MOE 2024.06 (io_trps.svl 2023.06)
