@<TRIPOS>MOLECULE
NONAME
24 25 1 0 0 
SMALL
USER_CHARGES


@<TRIPOS>ATOM
  1 O       -0.2560    -0.5800    -1.2770 O.2   1 <1>  -0.5700 
  2 C       -0.2430    -1.6780    -0.7610 C.2   1 <1>   0.5440 
  3 N        0.9890    -2.2190    -0.5440 N.am  1 <1>  -0.7300 
  4 C       -1.4780    -2.3450    -0.3930 C.ar  1 <1>   0.0860 
  5 C        1.3590    -3.2920     0.4110 C.3   1 <1>   0.0600 
  6 C       -1.6860    -3.7030    -0.6620 C.ar  1 <1>  -0.1500 
  7 C       -2.5070    -1.6360     0.2400 C.ar  1 <1>  -0.1500 
  8 C       -2.8680    -4.3100    -0.2880 C.ar  1 <1>  -0.1430 
  9 C       -3.6920    -2.2480     0.6130 C.ar  1 <1>  -0.1500 
 10 C       -3.8500    -3.5930     0.3410 C.ar  1 <1>   0.0830 
 11 C       -3.3400    -5.7240    -0.4500 C.3   1 <1>  -0.0170 
 12 O       -4.9290    -4.3290     0.6350 O.3   1 <1>  -0.3630 
 13 C       -4.7400    -5.6650     0.1890 C.3   1 <1>   0.1200 
 14 H        1.7600    -1.6470    -0.9000 H     1 <1>   0.3700 
 15 H        0.5130    -3.5740     1.0140 H     1 <1>   0.0800 
 16 H        2.1420    -2.9420     1.0620 H     1 <1>   0.0800 
 17 H        1.7110    -4.1540    -0.1300 H     1 <1>   0.0800 
 18 H       -0.9210    -4.2670    -1.1650 H     1 <1>   0.1500 
 19 H       -2.3650    -0.5870     0.4360 H     1 <1>   0.1500 
 20 H       -4.4810    -1.7040     1.1010 H     1 <1>   0.1500 
 21 H       -2.7050    -6.4130     0.0770 H     1 <1>   0.0800 
 22 H       -3.4020    -6.0000    -1.4880 H     1 <1>   0.0800 
 23 H       -4.8150    -6.3160     1.0420 H     1 <1>   0.0800 
 24 H       -5.5120    -5.8910    -0.5240 H     1 <1>   0.0800 
@<TRIPOS>BOND
  1   1   2  2   
  2   2   3  am  
  3   2   4  1   
  4   3   5  1   
  5   3  14  1   
  6   4   6  ar  
  7   4   7  ar  
  8   5  15  1   
  9   5  16  1   
 10   5  17  1   
 11   6   8  ar  
 12   6  18  1   
 13   7   9  ar  
 14   7  19  1   
 15   8  10  ar  
 16   8  11  1   
 17   9  10  ar  
 18   9  20  1   
 19  10  12  1   
 20  11  13  1   
 21  11  21  1   
 22  11  22  1   
 23  12  13  1   
 24  13  23  1   
 25  13  24  1   
@<TRIPOS>SUBSTRUCTURE
  1 ****   6 GROUP 4 **** **** 0

# MOE 2024.06 (io_trps.svl 2023.06)
