@<TRIPOS>MOLECULE
NONAME
71 72 1 0 0 
SMALL
USER_CHARGES


@<TRIPOS>ATOM
  1 O        0.1570    -0.1790    -2.9950 O.2   1 <1>  -0.5700 
  2 C       -0.2790    -0.9920    -2.2180 C.2   1 <1>   0.5690 
  3 N        0.2990    -1.2050    -1.0100 N.am  1 <1>  -0.7300 
  4 C       -1.5010    -1.7890    -2.5870 C.3   1 <1>  -0.0380 
  5 C        1.4710    -0.4660    -0.5290 C.3   1 <1>   0.2200 
  6 C       -2.6890    -1.2560    -1.8170 C.2   1 <1>   0.3280 
  7 C        2.7320    -1.2270    -0.9220 C.3   1 <1>  -0.1600 
  8 C        1.4030    -0.3310     0.9870 C.3   1 <1>  -0.1600 
  9 N       -3.0320    -1.8340    -0.7490 N.2   1 <1>  -0.6960 
 10 C       -3.3200    -0.0390    -2.4790 C.3   1 <1>  -0.1790 
 11 C        4.0010    -0.5260    -0.4240 C.3   1 <1>   0.5030 
 12 C        2.6330     0.3950     1.5500 C.3   1 <1>   0.5030 
 13 C       -4.1170    -1.6080     0.1980 C.3   1 <1>   0.1660 
 14 N        3.8830    -0.1560     0.9980 N.4   1 <1>  -0.9060 
 15 C        4.3460     0.7080    -1.2620 C.3   1 <1>  -0.2400 
 16 C        5.1810    -1.4950    -0.4990 C.3   1 <1>  -0.2400 
 17 C        2.5740     1.9050     1.3040 C.3   1 <1>  -0.2400 
 18 C        2.7150     0.1640     3.0580 C.3   1 <1>  -0.2400 
 19 C       -5.4950    -1.7150    -0.4570 C.3   1 <1>  -0.1600 
 20 C       -3.9530    -0.2930     0.9560 C.3   1 <1>  -0.1600 
 21 C       -6.6290    -1.5430     0.5640 C.3   1 <1>   0.5030 
 22 C       -5.0620    -0.0890     1.9990 C.3   1 <1>   0.5030 
 23 N       -6.3930    -0.3790     1.4360 N.4   1 <1>  -0.9060 
 24 C       -6.8430    -2.8020     1.4080 C.3   1 <1>  -0.2400 
 25 C       -7.9340    -1.2430    -0.1710 C.3   1 <1>  -0.2400 
 26 C       -4.8300    -0.9270     3.2590 C.3   1 <1>  -0.2400 
 27 C       -5.1080     1.3810     2.4140 C.3   1 <1>  -0.2400 
 28 H       -0.1350    -1.8810    -0.3750 H     1 <1>   0.3700 
 29 H       -1.3340    -2.8200    -2.3370 H     1 <1>   0.0800 
 30 H       -1.6760    -1.7280    -3.6450 H     1 <1>   0.0800 
 31 H        1.4700     0.5100    -0.9880 H     1 <1>   0.0800 
 32 H        2.7730    -1.3110    -1.9950 H     1 <1>   0.0800 
 33 H        2.6840    -2.2230    -0.5210 H     1 <1>   0.0800 
 34 H        1.3320    -1.3110     1.4250 H     1 <1>   0.0800 
 35 H        0.5150     0.2140     1.2560 H     1 <1>   0.0800 
 36 H       -3.7570    -0.3280    -3.4180 H     1 <1>   0.0800 
 37 H       -2.5650     0.7020    -2.6720 H     1 <1>   0.0800 
 38 H       -4.0780     0.4200    -1.8830 H     1 <1>   0.0800 
 39 H       -4.0370    -2.4100     0.9110 H     1 <1>   0.0800 
 40 H        4.6370     0.4980     1.2130 H     1 <1>   0.4500 
 41 H        4.0830    -1.0060     1.5290 H     1 <1>   0.4500 
 42 H        3.5150     1.3740    -1.3760 H     1 <1>   0.0800 
 43 H        4.6220     0.4010    -2.2560 H     1 <1>   0.0800 
 44 H        5.1800     1.2450    -0.8460 H     1 <1>   0.0800 
 45 H        5.0060    -2.3740     0.0950 H     1 <1>   0.0800 
 46 H        6.0930    -1.0250    -0.1750 H     1 <1>   0.0800 
 47 H        5.3250    -1.8160    -1.5160 H     1 <1>   0.0800 
 48 H        2.3810     2.1480     0.2790 H     1 <1>   0.0800 
 49 H        3.4820     2.3880     1.6180 H     1 <1>   0.0800 
 50 H        1.7670     2.3320     1.8740 H     1 <1>   0.0800 
 51 H        2.7870    -0.8840     3.2920 H     1 <1>   0.0800 
 52 H        1.8280     0.5420     3.5360 H     1 <1>   0.0800 
 53 H        3.5580     0.6780     3.4860 H     1 <1>   0.0800 
 54 H       -5.5840    -2.6770    -0.9300 H     1 <1>   0.0800 
 55 H       -5.6020    -0.9740    -1.2220 H     1 <1>   0.0800 
 56 H       -3.9610     0.5310     0.2710 H     1 <1>   0.0800 
 57 H       -2.9960    -0.2880     1.4480 H     1 <1>   0.0800 
 58 H       -7.0570    -0.4270     2.2100 H     1 <1>   0.4500 
 59 H       -6.6530     0.4420     0.8870 H     1 <1>   0.4500 
 60 H       -5.9330    -3.1690     1.8390 H     1 <1>   0.0800 
 61 H       -7.2200    -3.5940     0.7840 H     1 <1>   0.0800 
 62 H       -7.5640    -2.6330     2.1880 H     1 <1>   0.0800 
 63 H       -7.8570    -0.3470    -0.7610 H     1 <1>   0.0800 
 64 H       -8.7560    -1.1430     0.5170 H     1 <1>   0.0800 
 65 H       -8.1700    -2.0510    -0.8420 H     1 <1>   0.0800 
 66 H       -4.6300    -1.9560     3.0370 H     1 <1>   0.0800 
 67 H       -5.6670    -0.8640     3.9310 H     1 <1>   0.0800 
 68 H       -3.9650    -0.5590     3.7830 H     1 <1>   0.0800 
 69 H       -5.3000     2.0220     1.5710 H     1 <1>   0.0800 
 70 H       -4.1600     1.6740     2.8320 H     1 <1>   0.0800 
 71 H       -5.8600     1.5510     3.1640 H     1 <1>   0.0800 
@<TRIPOS>BOND
  1   1   2  2   
  2   2   3  am  
  3   2   4  1   
  4   3   5  1   
  5   3  28  1   
  6   4   6  1   
  7   4  29  1   
  8   4  30  1   
  9   5   7  1   
 10   5   8  1   
 11   5  31  1   
 12   6   9  2   
 13   6  10  1   
 14   7  11  1   
 15   7  32  1   
 16   7  33  1   
 17   8  12  1   
 18   8  34  1   
 19   8  35  1   
 20   9  13  1   
 21  10  36  1   
 22  10  37  1   
 23  10  38  1   
 24  11  14  1   
 25  11  15  1   
 26  11  16  1   
 27  12  14  1   
 28  12  17  1   
 29  12  18  1   
 30  13  19  1   
 31  13  20  1   
 32  13  39  1   
 33  14  40  1   
 34  14  41  1   
 35  15  42  1   
 36  15  43  1   
 37  15  44  1   
 38  16  45  1   
 39  16  46  1   
 40  16  47  1   
 41  17  48  1   
 42  17  49  1   
 43  17  50  1   
 44  18  51  1   
 45  18  52  1   
 46  18  53  1   
 47  19  21  1   
 48  19  54  1   
 49  19  55  1   
 50  20  22  1   
 51  20  56  1   
 52  20  57  1   
 53  21  23  1   
 54  21  24  1   
 55  21  25  1   
 56  22  23  1   
 57  22  26  1   
 58  22  27  1   
 59  23  58  1   
 60  23  59  1   
 61  24  60  1   
 62  24  61  1   
 63  24  62  1   
 64  25  63  1   
 65  25  64  1   
 66  25  65  1   
 67  26  66  1   
 68  26  67  1   
 69  26  68  1   
 70  27  69  1   
 71  27  70  1   
 72  27  71  1   
@<TRIPOS>SUBSTRUCTURE
  1 ****   3 GROUP 4 **** **** 0

# MOE 2024.06 (io_trps.svl 2023.06)
