@<TRIPOS>MOLECULE
NONAME
41 42 1 0 0 
SMALL
USER_CHARGES


@<TRIPOS>ATOM
  1 CL       3.4610    -2.8900    -2.5880 Cl    1 <1>  -0.1770 
  2 C        1.9910    -2.8890    -1.6330 C.ar  1 <1>   0.1770 
  3 C        2.0610    -2.5920    -0.2720 C.ar  1 <1>   0.1170 
  4 C        0.7980    -3.1850    -2.2640 C.ar  1 <1>  -0.1500 
  5 N        3.3150    -2.2990     0.3020 N.am  1 <1>  -0.5470 
  6 C        0.8670    -2.6000     0.4450 C.ar  1 <1>  -0.1500 
  7 C       -0.3750    -3.1890    -1.5290 C.ar  1 <1>  -0.1500 
  8 C        3.7290    -2.0740     1.5880 C.2   1 <1>   0.5690 
  9 C       -0.3360    -2.8950    -0.1760 C.ar  1 <1>  -0.1500 
 10 O        2.9880    -2.0990     2.5390 O.2   1 <1>  -0.5700 
 11 C        5.1980    -1.7700     1.8420 C.3   1 <1>   0.1310 
 12 S        6.2520    -2.1520     0.3560 S.3   1 <1>  -0.2860 
 13 C        7.8870    -1.6440     0.8950 C.2   1 <1>   0.2430 
 14 N        8.1280    -1.1430     2.0530 N.2   1 <1>  -0.3380 
 15 N        8.9670    -1.7510     0.1210 N.pl3 1 <1>   0.0480 
 16 N        9.4400    -0.8920     2.0700 N.2   1 <1>  -0.3380 
 17 C        9.9200    -1.2510     0.9240 C.2   1 <1>   0.0060 
 18 C        9.0510    -2.2820    -1.2540 C.3   1 <1>   0.0160 
 19 C       11.3900    -1.1180     0.5490 C.3   1 <1>   0.0200 
 20 C       11.6470    -0.0180    -0.5010 C.3   1 <1>  -0.0800 
 21 C       13.1310     0.0100    -0.8890 C.3   1 <1>  -0.2400 
 22 C       11.2220     1.3650     0.0130 C.3   1 <1>  -0.2400 
 23 H        0.7880    -3.4100    -3.3150 H     1 <1>   0.1500 
 24 H        4.0790    -2.2890    -0.3800 H     1 <1>   0.3700 
 25 H        0.8620    -2.3740     1.4950 H     1 <1>   0.1500 
 26 H       -1.3130    -3.4180    -2.0060 H     1 <1>   0.1500 
 27 H       -1.2460    -2.8960     0.3990 H     1 <1>   0.1500 
 28 H        5.5680    -2.3670     2.6550 H     1 <1>   0.0800 
 29 H        5.3300    -0.7290     2.0690 H     1 <1>   0.0800 
 30 H        8.7370    -1.5220    -1.9460 H     1 <1>   0.0800 
 31 H        8.4080    -3.1390    -1.3480 H     1 <1>   0.0800 
 32 H       10.0600    -2.5750    -1.4730 H     1 <1>   0.0800 
 33 H       11.7430    -2.0650     0.1840 H     1 <1>   0.0800 
 34 H       11.9490    -0.8920     1.4410 H     1 <1>   0.0800 
 35 H       11.0760    -0.2380    -1.3860 H     1 <1>   0.0800 
 36 H       13.7420     0.2390    -0.0330 H     1 <1>   0.0800 
 37 H       13.3050     0.7580    -1.6420 H     1 <1>   0.0800 
 38 H       13.4360    -0.9430    -1.2840 H     1 <1>   0.0800 
 39 H       11.7600     1.6170     0.9100 H     1 <1>   0.0800 
 40 H       10.1690     1.3820     0.2350 H     1 <1>   0.0800 
 41 H       11.4200     2.1190    -0.7280 H     1 <1>   0.0800 
@<TRIPOS>BOND
  1   1   2  1   
  2   2   3  ar  
  3   2   4  ar  
  4   3   5  1   
  5   3   6  ar  
  6   4   7  ar  
  7   4  23  1   
  8   5   8  am  
  9   5  24  1   
 10   6   9  ar  
 11   6  25  1   
 12   7   9  ar  
 13   7  26  1   
 14   8  10  2   
 15   8  11  1   
 16   9  27  1   
 17  11  12  1   
 18  11  28  1   
 19  11  29  1   
 20  12  13  1   
 21  13  14  2   
 22  13  15  1   
 23  14  16  1   
 24  15  17  1   
 25  15  18  1   
 26  16  17  2   
 27  17  19  1   
 28  18  30  1   
 29  18  31  1   
 30  18  32  1   
 31  19  20  1   
 32  19  33  1   
 33  19  34  1   
 34  20  21  1   
 35  20  22  1   
 36  20  35  1   
 37  21  36  1   
 38  21  37  1   
 39  21  38  1   
 40  22  39  1   
 41  22  40  1   
 42  22  41  1   
@<TRIPOS>SUBSTRUCTURE
  1 ****  12 GROUP 4 **** **** 0

# MOE 2024.06 (io_trps.svl 2023.06)
