@<TRIPOS>MOLECULE
NONAME
30 30 1 0 0 
SMALL
USER_CHARGES


@<TRIPOS>ATOM
  1 S       -0.0630    -0.9750    -1.3070 S.o2  1 <1>   1.2040 
  2 O       -0.2760    -0.1570    -2.4810 O.2   1 <1>  -0.6500 
  3 O        0.7860    -2.1430    -1.3950 O.2   1 <1>  -0.6500 
  4 C       -1.6530    -1.4250    -0.5740 C.ar  1 <1>  -0.0090 
  5 C        0.6360     0.0870    -0.0480 C.3   1 <1>  -0.0550 
  6 C       -2.7860    -0.6480    -0.7850 C.ar  1 <1>  -0.1500 
  7 C       -1.7750    -2.5390     0.2480 C.ar  1 <1>  -0.1500 
  8 C        2.0280     0.6210    -0.4310 C.3   1 <1>  -0.0990 
  9 C       -3.9960    -0.9680    -0.1940 C.ar  1 <1>  -0.1500 
 10 C       -2.9820    -2.8650     0.8410 C.ar  1 <1>  -0.1500 
 11 C        2.6200     1.5200     0.6330 C.2   1 <1>   0.6590 
 12 C       -4.1000    -2.0780     0.6250 C.ar  1 <1>  -0.1440 
 13 O        2.0360     1.7670     1.6570 O.2   1 <1>  -0.5700 
 14 O        3.8190     2.0140     0.3630 O.3   1 <1>  -0.4300 
 15 C       -5.4260    -2.4330     1.2740 C.3   1 <1>  -0.0970 
 16 C        4.4920     2.8670     1.2670 C.3   1 <1>   0.0400 
 17 H        0.7160    -0.4580     0.8740 H     1 <1>   0.0800 
 18 H       -0.0200     0.9190     0.1210 H     1 <1>   0.0800 
 19 H       -2.7240     0.2180    -1.4240 H     1 <1>   0.1500 
 20 H       -0.9160    -3.1650     0.4240 H     1 <1>   0.1500 
 21 H        1.9600     1.1800    -1.3470 H     1 <1>   0.0800 
 22 H        2.7000    -0.2030    -0.5910 H     1 <1>   0.0800 
 23 H       -4.8580    -0.3490    -0.3790 H     1 <1>   0.1500 
 24 H       -3.0480    -3.7350     1.4710 H     1 <1>   0.1500 
 25 H       -6.0050    -1.5450     1.4560 H     1 <1>   0.0800 
 26 H       -5.2650    -2.9310     2.2130 H     1 <1>   0.0800 
 27 H       -5.9840    -3.0850     0.6260 H     1 <1>   0.0800 
 28 H        4.6410     2.3440     2.1950 H     1 <1>   0.0800 
 29 H        3.8910     3.7460     1.4280 H     1 <1>   0.0800 
 30 H        5.4390     3.1400     0.8380 H     1 <1>   0.0800 
@<TRIPOS>BOND
  1   1   2  2   
  2   1   3  2   
  3   1   4  1   
  4   1   5  1   
  5   4   6  ar  
  6   4   7  ar  
  7   5   8  1   
  8   5  17  1   
  9   5  18  1   
 10   6   9  ar  
 11   6  19  1   
 12   7  10  ar  
 13   7  20  1   
 14   8  11  1   
 15   8  21  1   
 16   8  22  1   
 17   9  12  ar  
 18   9  23  1   
 19  10  12  ar  
 20  10  24  1   
 21  11  13  2   
 22  11  14  1   
 23  12  15  1   
 24  14  16  1   
 25  15  25  1   
 26  15  26  1   
 27  15  27  1   
 28  16  28  1   
 29  16  29  1   
 30  16  30  1   
@<TRIPOS>SUBSTRUCTURE
  1 ****   5 GROUP 4 **** **** 0

# MOE 2024.06 (io_trps.svl 2023.06)
