@<TRIPOS>MOLECULE
NONAME
46 49 1 0 0 
SMALL
USER_CHARGES


@<TRIPOS>ATOM
  1 O       -0.4140     0.7900    -0.6810 O.2   1 <1>  -0.5700 
  2 C       -0.2900     1.9880    -0.5340 C.2   1 <1>   0.5690 
  3 N        0.9900     2.5190    -0.4500 N.am  1 <1>  -0.6600 
  4 C       -1.6070     2.8290    -0.4570 C.3   1 <1>   0.0610 
  5 C        1.3950     3.9190    -0.1240 C.3   1 <1>   0.1400 
  6 C        2.1800     1.6370    -0.6530 C.3   1 <1>   0.1400 
  7 C       -2.8350     1.9240    -0.7610 C.3   1 <1>  -0.1600 
  8 C       -1.7870     3.4250     0.9700 C.3   1 <1>  -0.1600 
  9 C       -1.6350     3.9170    -1.5600 C.3   1 <1>  -0.1600 
 10 C        2.2300     3.9320     1.1620 C.3   1 <1>  -0.1600 
 11 C        3.0240     1.6020     0.6250 C.3   1 <1>  -0.1600 
 12 C       -4.1990     2.6390    -0.8070 C.3   1 <1>  -0.0800 
 13 C       -2.8520     4.5330     1.1160 C.3   1 <1>  -0.0800 
 14 C       -2.8940     4.7820    -1.4410 C.3   1 <1>  -0.0800 
 15 C        3.4530     3.0120     1.0530 C.3   1 <1>  -0.1600 
 16 C       -4.7910     2.8350     0.5980 C.3   1 <1>  -0.1600 
 17 C       -4.1560     3.9260    -1.6520 C.3   1 <1>  -0.1600 
 18 C       -4.2570     4.0010     1.4420 C.3   1 <1>  -0.1600 
 19 C       -2.8750     5.4950    -0.0850 C.3   1 <1>  -0.1600 
 20 H        0.5550     4.5680     0.0100 H     1 <1>   0.0800 
 21 H        1.9810     4.3090    -0.9390 H     1 <1>   0.0800 
 22 H        2.7670     2.0240    -1.4670 H     1 <1>   0.0800 
 23 H        1.8890     0.6340    -0.9130 H     1 <1>   0.0800 
 24 H       -2.8760     1.1180    -0.0490 H     1 <1>   0.0800 
 25 H       -2.6810     1.4650    -1.7230 H     1 <1>   0.0800 
 26 H       -0.8610     3.8400     1.3070 H     1 <1>   0.0800 
 27 H       -2.0040     2.6270     1.6590 H     1 <1>   0.0800 
 28 H       -1.6160     3.4440    -2.5270 H     1 <1>   0.0800 
 29 H       -0.7810     4.5580    -1.5220 H     1 <1>   0.0800 
 30 H        1.6100     3.6120     1.9820 H     1 <1>   0.0800 
 31 H        2.5530     4.9370     1.3680 H     1 <1>   0.0800 
 32 H        3.8950     0.9930     0.4600 H     1 <1>   0.0800 
 33 H        2.4450     1.1420     1.4070 H     1 <1>   0.0800 
 34 H       -4.8740     1.9630    -1.3060 H     1 <1>   0.0800 
 35 H       -2.5710     5.1260     1.9700 H     1 <1>   0.0800 
 36 H       -2.8680     5.5330    -2.2120 H     1 <1>   0.0800 
 37 H        3.9630     2.9670     2.0000 H     1 <1>   0.0800 
 38 H        4.1370     3.4120     0.3240 H     1 <1>   0.0800 
 39 H       -4.6540     1.9230     1.1530 H     1 <1>   0.0800 
 40 H       -5.8550     2.9650     0.4990 H     1 <1>   0.0800 
 41 H       -5.0380     4.5160    -1.4730 H     1 <1>   0.0800 
 42 H       -4.1790     3.6360    -2.6880 H     1 <1>   0.0800 
 43 H       -4.9550     4.8170     1.3740 H     1 <1>   0.0800 
 44 H       -4.2670     3.6860     2.4710 H     1 <1>   0.0800 
 45 H       -1.9930     6.1110    -0.0410 H     1 <1>   0.0800 
 46 H       -3.7190     6.1590    -0.0140 H     1 <1>   0.0800 
@<TRIPOS>BOND
  1   1   2  2   
  2   2   3  am  
  3   2   4  1   
  4   3   5  1   
  5   3   6  1   
  6   4   7  1   
  7   4   8  1   
  8   4   9  1   
  9   5  10  1   
 10   5  20  1   
 11   5  21  1   
 12   6  11  1   
 13   6  22  1   
 14   6  23  1   
 15   7  12  1   
 16   7  24  1   
 17   7  25  1   
 18   8  13  1   
 19   8  26  1   
 20   8  27  1   
 21   9  14  1   
 22   9  28  1   
 23   9  29  1   
 24  10  15  1   
 25  10  30  1   
 26  10  31  1   
 27  11  15  1   
 28  11  32  1   
 29  11  33  1   
 30  12  16  1   
 31  12  17  1   
 32  12  34  1   
 33  13  18  1   
 34  13  19  1   
 35  13  35  1   
 36  14  17  1   
 37  14  19  1   
 38  14  36  1   
 39  15  37  1   
 40  15  38  1   
 41  16  18  1   
 42  16  39  1   
 43  16  40  1   
 44  17  41  1   
 45  17  42  1   
 46  18  43  1   
 47  18  44  1   
 48  19  45  1   
 49  19  46  1   
@<TRIPOS>SUBSTRUCTURE
  1 ****   4 GROUP 4 **** **** 0

# MOE 2024.06 (io_trps.svl 2023.06)
