@<TRIPOS>MOLECULE
NONAME
38 39 1 0 0 
SMALL
USER_CHARGES


@<TRIPOS>ATOM
  1 O       -0.4040    -0.7180     2.3240 O.2   1 <1>  -0.5700 
  2 C       -0.4330    -1.0560     1.1660 C.2   1 <1>   0.6300 
  3 N       -1.5890    -1.1960     0.4820 N.am  1 <1>  -0.7300 
  4 C        0.8670    -1.3360     0.4310 C.3   1 <1>  -0.1000 
  5 C       -2.9270    -1.1330     1.0680 C.3   1 <1>   0.3640 
  6 C        1.0090    -2.4910    -0.5180 C.3   1 <1>  -0.1950 
  7 C        1.7080    -2.5300     0.8010 C.3   1 <1>  -0.2000 
  8 C       -3.8470    -2.0800     0.2900 C.ar  1 <1>  -0.1430 
  9 C       -3.4130     0.3150     1.1180 C.3   1 <1>  -0.2400 
 10 C        1.8120    -2.3490    -1.8110 C.3   1 <1>  -0.1450 
 11 C       -4.2110    -1.9360    -1.0530 C.ar  1 <1>  -0.1430 
 12 C       -4.3370    -3.1710     1.0000 C.ar  1 <1>  -0.1500 
 13 C       -5.0510    -2.8760    -1.6330 C.ar  1 <1>  -0.1500 
 14 C       -3.7530    -0.7930    -1.9520 C.3   1 <1>  -0.0970 
 15 C       -5.1700    -4.1070     0.4140 C.ar  1 <1>  -0.1430 
 16 C       -5.5290    -3.9520    -0.9100 C.ar  1 <1>  -0.1500 
 17 C       -5.6860    -5.2850     1.2210 C.3   1 <1>  -0.0970 
 18 H       -1.5720    -1.5990    -0.4520 H     1 <1>   0.3700 
 19 H        1.3930    -0.4250     0.2110 H     1 <1>   0.1000 
 20 H       -2.8570    -1.4770     2.0870 H     1 <1>   0.0800 
 21 H        0.1720    -3.1600    -0.6290 H     1 <1>   0.1000 
 22 H        1.3410    -3.1900     1.5690 H     1 <1>   0.1000 
 23 H        2.7760    -2.4040     0.8440 H     1 <1>   0.1000 
 24 H       -3.3380     0.7970     0.1640 H     1 <1>   0.0800 
 25 H       -2.8220     0.8630     1.8290 H     1 <1>   0.0800 
 26 H       -4.4380     0.3370     1.4410 H     1 <1>   0.0800 
 27 H        2.6580    -1.7000    -1.6670 H     1 <1>   0.0800 
 28 H        1.1910    -1.9400    -2.5880 H     1 <1>   0.0800 
 29 H        2.1700    -3.3130    -2.1270 H     1 <1>   0.0800 
 30 H       -4.0650    -3.3030     2.0330 H     1 <1>   0.1500 
 31 H       -5.3470    -2.7760    -2.6620 H     1 <1>   0.1500 
 32 H       -3.8040    -1.0810    -2.9870 H     1 <1>   0.0800 
 33 H       -4.3960     0.0560    -1.8110 H     1 <1>   0.0800 
 34 H       -2.7400    -0.5030    -1.7510 H     1 <1>   0.0800 
 35 H       -6.1790    -4.6650    -1.3840 H     1 <1>   0.1500 
 36 H       -4.9270    -5.6340     1.8980 H     1 <1>   0.0800 
 37 H       -5.9610    -6.0970     0.5730 H     1 <1>   0.0800 
 38 H       -6.5480    -4.9860     1.7890 H     1 <1>   0.0800 
@<TRIPOS>BOND
  1   1   2  2   
  2   2   3  am  
  3   2   4  1   
  4   3   5  1   
  5   3  18  1   
  6   4   6  1   
  7   4   7  1   
  8   4  19  1   
  9   5   8  1   
 10   5   9  1   
 11   5  20  1   
 12   6   7  1   
 13   6  10  1   
 14   6  21  1   
 15   7  22  1   
 16   7  23  1   
 17   8  11  ar  
 18   8  12  ar  
 19   9  24  1   
 20   9  25  1   
 21   9  26  1   
 22  10  27  1   
 23  10  28  1   
 24  10  29  1   
 25  11  13  ar  
 26  11  14  1   
 27  12  15  ar  
 28  12  30  1   
 29  13  16  ar  
 30  13  31  1   
 31  14  32  1   
 32  14  33  1   
 33  14  34  1   
 34  15  16  ar  
 35  15  17  1   
 36  16  35  1   
 37  17  36  1   
 38  17  37  1   
 39  17  38  1   
@<TRIPOS>SUBSTRUCTURE
  1 ****   3 GROUP 4 **** **** 0

# MOE 2024.06 (io_trps.svl 2023.06)
