@<TRIPOS>MOLECULE
NONAME
38 39 1 0 0 
SMALL
USER_CHARGES


@<TRIPOS>ATOM
  1 O        1.4010     1.0750     1.7430 O.2   1 <1>  -0.5700 
  2 C        0.8880     1.8720     0.9810 C.2   1 <1>   0.6900 
  3 N        1.6750     2.7050     0.2300 N.am  1 <1>  -0.4200 
  4 N       -0.4810     1.9590     0.8770 N.am  1 <1>  -0.4200 
  5 C        1.1170     3.7200    -0.5060 C.2   1 <1>   0.6900 
  6 C        3.1240     2.3710     0.0650 C.3   1 <1>   0.2010 
  7 C       -1.0580     2.9370     0.0990 C.2   1 <1>   0.6900 
  8 C       -1.3470     1.0040     1.6300 C.3   1 <1>   0.0600 
  9 O        1.8250     4.5320    -1.0690 O.2   1 <1>  -0.5700 
 10 N       -0.2530     3.8300    -0.5740 N.am  1 <1>  -0.4200 
 11 C        3.3170     1.1660    -0.8620 C.2   1 <1>   0.5690 
 12 O       -2.2680     3.0160     0.0150 O.2   1 <1>  -0.5700 
 13 C       -0.8650     4.8880    -1.4330 C.3   1 <1>   0.0600 
 14 O        2.9650     1.3090    -2.0120 O.2   1 <1>  -0.5700 
 15 N        3.8530    -0.0250    -0.4260 N.am  1 <1>  -0.6600 
 16 C        3.8960    -1.2010    -1.3520 C.3   1 <1>   0.1400 
 17 C        4.3190    -0.2660     0.9780 C.3   1 <1>   0.1400 
 18 C        3.5790    -2.4910    -0.5890 C.3   1 <1>  -0.1600 
 19 C        5.2540    -1.4790     1.0550 C.3   1 <1>  -0.1600 
 20 C        4.5830    -2.7640     0.5440 C.3   1 <1>  -0.1600 
 21 H        3.5480     2.1940     1.0320 H     1 <1>   0.0800 
 22 H        3.6540     3.2020    -0.3640 H     1 <1>   0.0800 
 23 H       -0.8320     0.0730     1.7940 H     1 <1>   0.0800 
 24 H       -2.2470     0.7970     1.0760 H     1 <1>   0.0800 
 25 H       -1.6110     1.4330     2.5810 H     1 <1>   0.0800 
 26 H       -0.2670     5.7820    -1.4080 H     1 <1>   0.0800 
 27 H       -1.8540     5.1350    -1.0900 H     1 <1>   0.0800 
 28 H       -0.9230     4.5340    -2.4470 H     1 <1>   0.0800 
 29 H        4.8750    -1.2640    -1.7940 H     1 <1>   0.0800 
 30 H        3.1780    -1.0780    -2.1460 H     1 <1>   0.0800 
 31 H        3.4620    -0.4360     1.6070 H     1 <1>   0.0800 
 32 H        4.8500     0.5940     1.3430 H     1 <1>   0.0800 
 33 H        3.5700    -3.3210    -1.2730 H     1 <1>   0.0800 
 34 H        2.5880    -2.4000    -0.1790 H     1 <1>   0.0800 
 35 H        5.5770    -1.6220     2.0710 H     1 <1>   0.0800 
 36 H        6.1300    -1.2680     0.4650 H     1 <1>   0.0800 
 37 H        5.3480    -3.4380     0.1970 H     1 <1>   0.0800 
 38 H        4.0640    -3.2490     1.3530 H     1 <1>   0.0800 
@<TRIPOS>BOND
  1   1   2  2   
  2   2   3  am  
  3   2   4  am  
  4   3   5  am  
  5   3   6  1   
  6   4   7  am  
  7   4   8  1   
  8   5   9  2   
  9   5  10  am  
 10   6  11  1   
 11   6  21  1   
 12   6  22  1   
 13   7  10  am  
 14   7  12  2   
 15   8  23  1   
 16   8  24  1   
 17   8  25  1   
 18  10  13  1   
 19  11  14  2   
 20  11  15  am  
 21  13  26  1   
 22  13  27  1   
 23  13  28  1   
 24  15  16  1   
 25  15  17  1   
 26  16  18  1   
 27  16  29  1   
 28  16  30  1   
 29  17  19  1   
 30  17  31  1   
 31  17  32  1   
 32  18  20  1   
 33  18  33  1   
 34  18  34  1   
 35  19  20  1   
 36  19  35  1   
 37  19  36  1   
 38  20  37  1   
 39  20  38  1   
@<TRIPOS>SUBSTRUCTURE
  1 ****   3 GROUP 4 **** **** 0

# MOE 2024.06 (io_trps.svl 2023.06)
