@<TRIPOS>MOLECULE
NONAME
42 44 1 0 0 
SMALL
USER_CHARGES


@<TRIPOS>ATOM
  1 O        0.2130    -1.9060    -0.3520 O.2   1 <1>  -0.5700 
  2 C       -0.6810    -2.4110     0.3010 C.2   1 <1>   0.7150 
  3 N       -0.3660    -3.3820     1.2010 N.am  1 <1>  -0.7300 
  4 C       -2.0460    -2.0060     0.1320 C.2   1 <1>  -0.2370 
  5 C        1.0040    -3.8160     1.5880 C.3   1 <1>   0.1400 
  6 N       -2.3880    -1.0040    -0.7450 N.pl3 1 <1>   0.0330 
  7 C       -3.1980    -2.4510     0.7190 C.2   1 <1>  -0.1500 
  8 C        1.8110    -4.3210     0.3710 C.3   1 <1>   0.3430 
  9 C       -3.7420    -0.8180    -0.7120 C.ar  1 <1>  -0.1520 
 10 C       -4.2800    -1.7160     0.2020 C.ar  1 <1>   0.0000 
 11 N        3.1730    -3.6980     0.2560 N.4   1 <1>  -0.9590 
 12 C       -4.5610     0.0720    -1.4130 C.ar  1 <1>  -0.1500 
 13 C       -5.6610    -1.7310     0.4260 C.ar  1 <1>  -0.1500 
 14 C        3.0730    -2.2440    -0.0890 C.3   1 <1>   0.3430 
 15 C        3.9880    -4.4250    -0.7600 C.3   1 <1>   0.3430 
 16 C       -5.9170     0.0470    -1.1840 C.ar  1 <1>  -0.1500 
 17 C       -6.4670    -0.8550    -0.2640 C.ar  1 <1>  -0.1500 
 18 C        4.4690    -1.6180    -0.1020 C.3   1 <1>  -0.1600 
 19 C        5.4080    -3.8560    -0.7850 C.3   1 <1>  -0.1600 
 20 C        5.4100    -2.3480    -1.0690 C.3   1 <1>  -0.1600 
 21 H       -1.1340    -3.7100     1.7920 H     1 <1>   0.3700 
 22 H        0.9220    -4.6130     2.3070 H     1 <1>   0.0800 
 23 H        1.5030    -2.9890     2.0620 H     1 <1>   0.0800 
 24 H       -1.7260    -0.4830    -1.3290 H     1 <1>   0.2700 
 25 H       -3.3190    -3.2260     1.4530 H     1 <1>   0.1500 
 26 H        1.2520    -4.1110    -0.5270 H     1 <1>   0.0800 
 27 H        1.9130    -5.3900     0.4540 H     1 <1>   0.0800 
 28 H        3.6650    -3.7700     1.1550 H     1 <1>   0.4500 
 29 H       -4.1300     0.7610    -2.1170 H     1 <1>   0.1500 
 30 H       -6.0720    -2.4270     1.1340 H     1 <1>   0.1500 
 31 H        2.4550    -1.7290     0.6280 H     1 <1>   0.0800 
 32 H        2.6150    -2.1300    -1.0590 H     1 <1>   0.0800 
 33 H        3.5400    -4.3130    -1.7340 H     1 <1>   0.0800 
 34 H        4.0280    -5.4760    -0.5220 H     1 <1>   0.0800 
 35 H       -6.5700     0.7210    -1.7100 H     1 <1>   0.1500 
 36 H       -7.5310    -0.8540    -0.1030 H     1 <1>   0.1500 
 37 H        4.8780    -1.6340     0.8940 H     1 <1>   0.0800 
 38 H        4.3860    -0.5860    -0.3980 H     1 <1>   0.0800 
 39 H        5.9750    -4.3600    -1.5490 H     1 <1>   0.0800 
 40 H        5.8910    -4.0540     0.1560 H     1 <1>   0.0800 
 41 H        6.4090    -1.9570    -0.9750 H     1 <1>   0.0800 
 42 H        5.0850    -2.1740    -2.0820 H     1 <1>   0.0800 
@<TRIPOS>BOND
  1   1   2  2   
  2   2   3  am  
  3   2   4  1   
  4   3   5  1   
  5   3  21  1   
  6   4   6  1   
  7   4   7  2   
  8   5   8  1   
  9   5  22  1   
 10   5  23  1   
 11   6   9  1   
 12   6  24  1   
 13   7  10  1   
 14   7  25  1   
 15   8  11  1   
 16   8  26  1   
 17   8  27  1   
 18   9  10  ar  
 19   9  12  ar  
 20  10  13  ar  
 21  11  14  1   
 22  11  15  1   
 23  11  28  1   
 24  12  16  ar  
 25  12  29  1   
 26  13  17  ar  
 27  13  30  1   
 28  14  18  1   
 29  14  31  1   
 30  14  32  1   
 31  15  19  1   
 32  15  33  1   
 33  15  34  1   
 34  16  17  ar  
 35  16  35  1   
 36  17  36  1   
 37  18  20  1   
 38  18  37  1   
 39  18  38  1   
 40  19  20  1   
 41  19  39  1   
 42  19  40  1   
 43  20  41  1   
 44  20  42  1   
@<TRIPOS>SUBSTRUCTURE
  1 ****   2 GROUP 4 **** **** 0

# MOE 2024.06 (io_trps.svl 2023.06)
