@<TRIPOS>MOLECULE
NONAME
36 37 1 0 0 
SMALL
USER_CHARGES


@<TRIPOS>ATOM
  1 O        0.9810    -1.0960    -2.4980 O.2   1 <1>  -0.5700 
  2 C        1.6320    -1.6720    -1.6430 C.2   1 <1>   0.6900 
  3 N        1.1930    -2.5190    -0.6840 N.am  1 <1>  -0.3510 
  4 N        2.9360    -1.4370    -1.4810 N.am  1 <1>  -0.7300 
  5 N        2.2990    -2.8440     0.2580 N.3   1 <1>  -0.6390 
  6 C       -0.2320    -2.7420    -0.2840 C.3   1 <1>   0.3000 
  7 C        3.3820    -1.9290    -0.1850 C.3   1 <1>   0.5700 
  8 C       -0.3160    -3.8140     0.8150 C.3   1 <1>  -0.2400 
  9 C       -0.8130    -1.4310     0.2530 C.3   1 <1>  -0.2400 
 10 C       -1.0430    -3.2350    -1.4890 C.3   1 <1>  -0.2400 
 11 C        4.6920    -2.7030    -0.3570 C.3   1 <1>  -0.1600 
 12 C        3.5290    -0.7660     0.8140 C.3   1 <1>  -0.1600 
 13 C        5.8580    -1.8120    -0.8390 C.3   1 <1>  -0.1600 
 14 C        4.9650    -0.2140     0.9380 C.3   1 <1>  -0.1600 
 15 C        5.7510    -0.3460    -0.3720 C.3   1 <1>  -0.1600 
 16 H        3.2800    -0.5320    -1.7790 H     1 <1>   0.3700 
 17 H        2.6400    -3.7520    -0.0720 H     1 <1>   0.3600 
 18 H        0.1870    -3.4850     1.7060 H     1 <1>   0.0800 
 19 H        0.1300    -4.7310     0.4760 H     1 <1>   0.0800 
 20 H       -1.3410    -4.0090     1.0690 H     1 <1>   0.0800 
 21 H       -0.2280    -1.0810     1.0850 H     1 <1>   0.0800 
 22 H       -1.8250    -1.5780     0.5840 H     1 <1>   0.0800 
 23 H       -0.8160    -0.6770    -0.5140 H     1 <1>   0.0800 
 24 H       -0.5920    -4.1180    -1.9050 H     1 <1>   0.0800 
 25 H       -1.1010    -2.4810    -2.2510 H     1 <1>   0.0800 
 26 H       -2.0470    -3.4730    -1.1900 H     1 <1>   0.0800 
 27 H        4.5520    -3.5180    -1.0440 H     1 <1>   0.0800 
 28 H        4.9550    -3.1160     0.6010 H     1 <1>   0.0800 
 29 H        3.2280    -1.1070     1.7890 H     1 <1>   0.0800 
 30 H        2.8570     0.0260     0.5340 H     1 <1>   0.0800 
 31 H        5.8950    -1.8250    -1.9150 H     1 <1>   0.0800 
 32 H        6.7810    -2.2350    -0.4820 H     1 <1>   0.0800 
 33 H        5.4880    -0.7610     1.7050 H     1 <1>   0.0800 
 34 H        4.9300     0.8180     1.2450 H     1 <1>   0.0800 
 35 H        5.2560     0.2350    -1.1320 H     1 <1>   0.0800 
 36 H        6.7390     0.0640    -0.2500 H     1 <1>   0.0800 
@<TRIPOS>BOND
  1   1   2  2   
  2   2   3  am  
  3   2   4  am  
  4   3   5  1   
  5   3   6  1   
  6   4   7  1   
  7   4  16  1   
  8   5   7  1   
  9   5  17  1   
 10   6   8  1   
 11   6   9  1   
 12   6  10  1   
 13   7  11  1   
 14   7  12  1   
 15   8  18  1   
 16   8  19  1   
 17   8  20  1   
 18   9  21  1   
 19   9  22  1   
 20   9  23  1   
 21  10  24  1   
 22  10  25  1   
 23  10  26  1   
 24  11  13  1   
 25  11  27  1   
 26  11  28  1   
 27  12  14  1   
 28  12  29  1   
 29  12  30  1   
 30  13  15  1   
 31  13  31  1   
 32  13  32  1   
 33  14  15  1   
 34  14  33  1   
 35  14  34  1   
 36  15  35  1   
 37  15  36  1   
@<TRIPOS>SUBSTRUCTURE
  1 ****   7 GROUP 4 **** **** 0

# MOE 2024.06 (io_trps.svl 2023.06)
