@<TRIPOS>MOLECULE
NONAME
43 45 1 0 0 
SMALL
USER_CHARGES


@<TRIPOS>ATOM
  1 S        0.6900    -0.2140     1.1000 S.o2  1 <1>   1.4470 
  2 O        1.3330    -0.4890     2.3670 O.2   1 <1>  -0.6500 
  3 O       -0.0580     1.0130     0.9330 O.2   1 <1>  -0.6500 
  4 N        1.9060    -0.2130    -0.0790 N.am  1 <1>  -0.8490 
  5 C       -0.3530    -1.6170     0.6080 C.ar  1 <1>  -0.0090 
  6 C        2.6500     1.0580    -0.0720 C.3   1 <1>   0.1960 
  7 C        2.8470    -1.3350     0.0850 C.3   1 <1>   0.1960 
  8 C       -0.6330    -2.6540     1.4970 C.ar  1 <1>  -0.1500 
  9 C       -0.8940    -1.6820    -0.6750 C.ar  1 <1>  -0.1500 
 10 C        3.7470     1.0810    -1.1550 C.3   1 <1>   0.1100 
 11 C        3.9350    -1.3210    -1.0060 C.3   1 <1>   0.1100 
 12 C       -1.4230    -3.7290     1.1220 C.ar  1 <1>  -0.1500 
 13 C       -1.6870    -2.7480    -1.0690 C.ar  1 <1>  -0.1500 
 14 N        4.6890    -0.0470    -0.9980 N.3   1 <1>  -0.8100 
 15 C       -1.9360    -3.7550    -0.1590 C.ar  1 <1>   0.1900 
 16 C        5.7270    -0.0300    -2.0730 C.3   1 <1>   0.1710 
 17 F       -2.6800    -4.7640    -0.5210 F     1 <1>  -0.1900 
 18 C        6.9290    -0.9360    -1.7930 C.2   1 <1>   0.5690 
 19 O        7.5710    -1.3740    -2.7190 O.2   1 <1>  -0.5700 
 20 N        7.2170    -1.2090    -0.4940 N.am  1 <1>  -0.5790 
 21 C        8.3040    -2.0540     0.0120 C.3   1 <1>   0.0490 
 22 C        8.0140    -2.9490     1.1710 C.3   1 <1>  -0.2000 
 23 C        8.8690    -1.7310     1.3550 C.3   1 <1>  -0.2000 
 24 H        3.1020     1.2140     0.8930 H     1 <1>   0.0800 
 25 H        1.9720     1.8740    -0.2560 H     1 <1>   0.0800 
 26 H        2.3120    -2.2670     0.0280 H     1 <1>   0.0800 
 27 H        3.3260    -1.2820     1.0490 H     1 <1>   0.0800 
 28 H       -0.2280    -2.6190     2.4960 H     1 <1>   0.1500 
 29 H       -0.6890    -0.8840    -1.3700 H     1 <1>   0.1500 
 30 H        4.2860     2.0090    -1.0810 H     1 <1>   0.0800 
 31 H        3.2790     1.0390    -2.1240 H     1 <1>   0.0800 
 32 H        3.4670    -1.4690    -1.9650 H     1 <1>   0.0800 
 33 H        4.6080    -2.1430    -0.8330 H     1 <1>   0.0800 
 34 H       -1.6390    -4.5300     1.8070 H     1 <1>   0.1500 
 35 H       -2.1050    -2.7980    -2.0580 H     1 <1>   0.1500 
 36 H        6.1090     0.9690    -2.1810 H     1 <1>   0.0800 
 37 H        5.2890    -0.3170    -3.0130 H     1 <1>   0.0800 
 38 H        6.5710    -0.8190     0.1980 H     1 <1>   0.3700 
 39 H        8.9670    -2.4050    -0.7630 H     1 <1>   0.1000 
 40 H        8.4900    -3.9130     1.2070 H     1 <1>   0.1000 
 41 H        7.0220    -2.9590     1.5850 H     1 <1>   0.1000 
 42 H        8.4750    -0.8900     1.8960 H     1 <1>   0.1000 
 43 H        9.9240    -1.8700     1.5150 H     1 <1>   0.1000 
@<TRIPOS>BOND
  1   1   2  2   
  2   1   3  2   
  3   1   4  am  
  4   1   5  1   
  5   4   6  1   
  6   4   7  1   
  7   5   8  ar  
  8   5   9  ar  
  9   6  10  1   
 10   6  24  1   
 11   6  25  1   
 12   7  11  1   
 13   7  26  1   
 14   7  27  1   
 15   8  12  ar  
 16   8  28  1   
 17   9  13  ar  
 18   9  29  1   
 19  10  14  1   
 20  10  30  1   
 21  10  31  1   
 22  11  14  1   
 23  11  32  1   
 24  11  33  1   
 25  12  15  ar  
 26  12  34  1   
 27  13  15  ar  
 28  13  35  1   
 29  14  16  1   
 30  15  17  1   
 31  16  18  1   
 32  16  36  1   
 33  16  37  1   
 34  18  19  2   
 35  18  20  am  
 36  20  21  1   
 37  20  38  1   
 38  21  22  1   
 39  21  23  1   
 40  21  39  1   
 41  22  23  1   
 42  22  40  1   
 43  22  41  1   
 44  23  42  1   
 45  23  43  1   
@<TRIPOS>SUBSTRUCTURE
  1 ****   7 GROUP 4 **** **** 0

# MOE 2024.06 (io_trps.svl 2023.06)
