@<TRIPOS>MOLECULE
NONAME
50 52 1 0 0 
SMALL
USER_CHARGES


@<TRIPOS>ATOM
  1 O        0.2660     1.9290    -0.8420 O.2   1 <1>  -0.5700 
  2 C       -0.6030     2.1480    -0.0220 C.2   1 <1>   0.6340 
  3 O       -0.2690     2.1710     1.2730 O.3   1 <1>  -0.4300 
  4 C       -1.9880     2.3880    -0.3730 C.ar  1 <1>   0.0860 
  5 C        1.0570     1.9470     1.6980 C.3   1 <1>   0.1200 
  6 C       -2.4100     2.3720    -1.7050 C.ar  1 <1>  -0.1500 
  7 C       -2.9690     2.6460     0.5900 C.ar  1 <1>  -0.1500 
  8 C        1.0880     2.0430     3.2200 C.3   1 <1>  -0.2400 
  9 C       -3.7260     2.5990    -2.0560 C.ar  1 <1>  -0.1500 
 10 C       -4.2860     2.8730     0.2410 C.ar  1 <1>  -0.1500 
 11 C       -4.6930     2.8540    -1.0880 C.ar  1 <1>   0.1170 
 12 N       -6.0370     3.0930    -1.3810 N.am  1 <1>  -0.5470 
 13 C       -6.7720     3.0660    -2.5330 C.2   1 <1>   0.5690 
 14 O       -6.3340     2.7820    -3.6210 O.2   1 <1>  -0.5700 
 15 C       -8.2520     3.4310    -2.3930 C.3   1 <1>   0.1710 
 16 N       -8.7760     3.2750    -1.0010 N.3   1 <1>  -0.8100 
 17 C      -10.0370     4.0320    -0.8310 C.3   1 <1>   0.1100 
 18 C       -9.0300     1.8440    -0.6920 C.3   1 <1>   0.1100 
 19 C      -10.6080     3.9070     0.5940 C.3   1 <1>   0.2090 
 20 C       -9.5730     1.6340     0.7350 C.3   1 <1>   0.2090 
 21 N      -10.7880     2.4720     0.9830 N.pl3 1 <1>  -0.8380 
 22 C      -11.8740     2.0220     1.7080 C.ar  1 <1>   0.7200 
 23 N      -11.8320     0.7660     2.1520 N.ar  1 <1>  -0.6200 
 24 N      -12.8740     2.8810     1.9050 N.ar  1 <1>  -0.6200 
 25 C      -12.8690     0.3520     2.8390 C.ar  1 <1>   0.1600 
 26 C      -13.8980     2.4410     2.5950 C.ar  1 <1>   0.1600 
 27 C      -13.9460     1.1630     3.0930 C.ar  1 <1>  -0.1500 
 28 H        1.6890     2.6950     1.2500 H     1 <1>   0.0800 
 29 H        1.3610     0.9690     1.3650 H     1 <1>   0.0800 
 30 H       -1.6860     2.1780    -2.4790 H     1 <1>   0.1500 
 31 H       -2.6930     2.6690     1.6300 H     1 <1>   0.1500 
 32 H        0.7720     3.0200     3.5370 H     1 <1>   0.0800 
 33 H        2.0900     1.8760     3.5730 H     1 <1>   0.0800 
 34 H        0.4440     1.2970     3.6520 H     1 <1>   0.0800 
 35 H       -3.9980     2.5780    -3.0960 H     1 <1>   0.1500 
 36 H       -5.0110     3.0690     1.0110 H     1 <1>   0.1500 
 37 H       -6.6460     3.3070    -0.5830 H     1 <1>   0.3700 
 38 H       -8.8280     2.8330    -3.0770 H     1 <1>   0.0800 
 39 H       -8.3470     4.4590    -2.6950 H     1 <1>   0.0800 
 40 H      -10.7770     3.6760    -1.5280 H     1 <1>   0.0800 
 41 H       -9.8600     5.0730    -1.0350 H     1 <1>   0.0800 
 42 H       -8.1190     1.2810    -0.7970 H     1 <1>   0.0800 
 43 H       -9.7470     1.4410    -1.3870 H     1 <1>   0.0800 
 44 H      -11.5410     4.4400     0.6310 H     1 <1>   0.0800 
 45 H       -9.9340     4.3750     1.2880 H     1 <1>   0.0800 
 46 H       -8.8130     1.8990     1.4480 H     1 <1>   0.0800 
 47 H       -9.7920     0.5890     0.8600 H     1 <1>   0.0800 
 48 H      -12.8580    -0.6590     3.2090 H     1 <1>   0.1500 
 49 H      -14.7180     3.1170     2.7670 H     1 <1>   0.1500 
 50 H      -14.7900     0.8140     3.6570 H     1 <1>   0.1500 
@<TRIPOS>BOND
  1   1   2  2   
  2   2   3  1   
  3   2   4  1   
  4   3   5  1   
  5   4   6  ar  
  6   4   7  ar  
  7   5   8  1   
  8   5  28  1   
  9   5  29  1   
 10   6   9  ar  
 11   6  30  1   
 12   7  10  ar  
 13   7  31  1   
 14   8  32  1   
 15   8  33  1   
 16   8  34  1   
 17   9  11  ar  
 18   9  35  1   
 19  10  11  ar  
 20  10  36  1   
 21  11  12  1   
 22  12  13  am  
 23  12  37  1   
 24  13  14  2   
 25  13  15  1   
 26  15  16  1   
 27  15  38  1   
 28  15  39  1   
 29  16  17  1   
 30  16  18  1   
 31  17  19  1   
 32  17  40  1   
 33  17  41  1   
 34  18  20  1   
 35  18  42  1   
 36  18  43  1   
 37  19  21  1   
 38  19  44  1   
 39  19  45  1   
 40  20  21  1   
 41  20  46  1   
 42  20  47  1   
 43  21  22  1   
 44  22  23  ar  
 45  22  24  ar  
 46  23  25  ar  
 47  24  26  ar  
 48  25  27  ar  
 49  25  48  1   
 50  26  27  ar  
 51  26  49  1   
 52  27  50  1   
@<TRIPOS>SUBSTRUCTURE
  1 ****  12 GROUP 4 **** **** 0

# MOE 2024.06 (io_trps.svl 2023.06)
