@<TRIPOS>MOLECULE
NONAME
59 60 1 0 0 
SMALL
USER_CHARGES


@<TRIPOS>ATOM
  1 O       -4.7410    -1.8130     0.3460 O.3   1 <1>  -0.5600 
  2 C       -5.9600    -1.3960     0.8900 C.3   1 <1>   0.2000 
  3 C       -3.9330    -2.5820     1.1900 C.3   1 <1>   0.1200 
  4 C       -7.0010    -1.3600    -0.2530 C.3   1 <1>  -0.0800 
  5 C       -5.7710    -0.0190     1.5620 C.3   1 <1>  -0.1600 
  6 C       -2.7090    -3.0590     0.3970 C.3   1 <1>   0.2000 
  7 C       -7.2780    -2.7550    -0.8840 C.3   1 <1>  -0.0800 
  8 C       -6.6040    -0.3160    -1.3300 C.3   1 <1>  -0.1600 
  9 C       -6.1710     1.1800     0.6790 C.3   1 <1>  -0.0800 
 10 O       -3.1660    -3.5450    -0.8190 O.3   1 <1>  -0.6800 
 11 C       -1.8880    -4.1260     1.1630 C.3   1 <1>   0.1100 
 12 C       -8.3760    -2.6870    -1.9600 C.3   1 <1>  -0.2400 
 13 C       -7.6930    -3.8040     0.1600 C.3   1 <1>  -0.2400 
 14 C       -5.8290     0.9000    -0.7880 C.3   1 <1>  -0.1600 
 15 C       -5.4930     2.4660     1.1660 C.3   1 <1>  -0.2400 
 16 N       -0.9150    -4.8890     0.3430 N.3   1 <1>  -0.8100 
 17 C       -0.2500    -5.9610     1.1000 C.3   1 <1>   0.1100 
 18 C        0.0420    -4.0500    -0.4030 C.3   1 <1>   0.1100 
 19 C        0.6080    -6.8390     0.1660 C.3   1 <1>   0.3430 
 20 C        0.8950    -4.9130    -1.3520 C.3   1 <1>   0.3430 
 21 N        1.6020    -6.0220    -0.6180 N.4   1 <1>  -0.9590 
 22 C        2.3810    -6.8780    -1.5600 C.3   1 <1>   0.2630 
 23 H       -6.2660    -2.1040     1.6400 H     1 <1>   0.0800 
 24 H       -4.5000    -3.4310     1.5330 H     1 <1>   0.0800 
 25 H       -3.6320    -1.9840     2.0320 H     1 <1>   0.0800 
 26 H       -7.9220    -1.0260     0.1910 H     1 <1>   0.0800 
 27 H       -4.7480     0.0810     1.8760 H     1 <1>   0.0800 
 28 H       -6.3800     0.0130     2.4470 H     1 <1>   0.0800 
 29 H       -2.0880    -2.2050     0.1910 H     1 <1>   0.0800 
 30 H       -6.3740    -3.1030    -1.3570 H     1 <1>   0.0800 
 31 H       -7.4980     0.0340    -1.8140 H     1 <1>   0.0800 
 32 H       -5.9920    -0.7860    -2.0820 H     1 <1>   0.0800 
 33 H       -7.2370     1.3200     0.7490 H     1 <1>   0.0800 
 34 H       -3.9380    -2.9840    -1.0620 H     1 <1>   0.4000 
 35 H       -2.5850    -4.8260     1.5930 H     1 <1>   0.0800 
 36 H       -1.3730    -3.6450     1.9770 H     1 <1>   0.0800 
 37 H       -9.2870    -2.2920    -1.5460 H     1 <1>   0.0800 
 38 H       -8.5750    -3.6680    -2.3530 H     1 <1>   0.0800 
 39 H       -8.0720    -2.0660    -2.7830 H     1 <1>   0.0800 
 40 H       -8.5340    -3.4560     0.7340 H     1 <1>   0.0800 
 41 H       -6.8800    -4.0280     0.8250 H     1 <1>   0.0800 
 42 H       -7.9690    -4.7240    -0.3250 H     1 <1>   0.0800 
 43 H       -6.0450     1.7600    -1.3970 H     1 <1>   0.0800 
 44 H       -4.7730     0.7030    -0.8640 H     1 <1>   0.0800 
 45 H       -4.4230     2.3840     1.0840 H     1 <1>   0.0800 
 46 H       -5.7470     2.6550     2.1930 H     1 <1>   0.0800 
 47 H       -5.8180     3.3040     0.5760 H     1 <1>   0.0800 
 48 H       -0.9970    -6.5830     1.5630 H     1 <1>   0.0800 
 49 H        0.3630    -5.5400     1.8780 H     1 <1>   0.0800 
 50 H        0.6730    -3.5080     0.2790 H     1 <1>   0.0800 
 51 H       -0.4950    -3.3360    -1.0040 H     1 <1>   0.0800 
 52 H       -0.0540    -7.3500    -0.5140 H     1 <1>   0.0800 
 53 H        1.1230    -7.5830     0.7510 H     1 <1>   0.0800 
 54 H        1.6120    -4.2850    -1.8530 H     1 <1>   0.0800 
 55 H        0.2390    -5.3320    -2.0980 H     1 <1>   0.0800 
 56 H        2.2400    -5.5820     0.0580 H     1 <1>   0.4500 
 57 H        1.7200    -7.3420    -2.2750 H     1 <1>   0.0800 
 58 H        2.9030    -7.6510    -1.0200 H     1 <1>   0.0800 
 59 H        3.1050    -6.2840    -2.0940 H     1 <1>   0.0800 
@<TRIPOS>BOND
  1   1   2  1   
  2   1   3  1   
  3   2   4  1   
  4   2   5  1   
  5   2  23  1   
  6   3   6  1   
  7   3  24  1   
  8   3  25  1   
  9   4   7  1   
 10   4   8  1   
 11   4  26  1   
 12   5   9  1   
 13   5  27  1   
 14   5  28  1   
 15   6  10  1   
 16   6  11  1   
 17   6  29  1   
 18   7  12  1   
 19   7  13  1   
 20   7  30  1   
 21   8  14  1   
 22   8  31  1   
 23   8  32  1   
 24   9  14  1   
 25   9  15  1   
 26   9  33  1   
 27  10  34  1   
 28  11  16  1   
 29  11  35  1   
 30  11  36  1   
 31  12  37  1   
 32  12  38  1   
 33  12  39  1   
 34  13  40  1   
 35  13  41  1   
 36  13  42  1   
 37  14  43  1   
 38  14  44  1   
 39  15  45  1   
 40  15  46  1   
 41  15  47  1   
 42  16  17  1   
 43  16  18  1   
 44  17  19  1   
 45  17  48  1   
 46  17  49  1   
 47  18  20  1   
 48  18  50  1   
 49  18  51  1   
 50  19  21  1   
 51  19  52  1   
 52  19  53  1   
 53  20  21  1   
 54  20  54  1   
 55  20  55  1   
 56  21  22  1   
 57  21  56  1   
 58  22  57  1   
 59  22  58  1   
 60  22  59  1   
@<TRIPOS>SUBSTRUCTURE
  1 ****   6 GROUP 4 **** **** 0

# MOE 2024.06 (io_trps.svl 2023.06)
