@<TRIPOS>MOLECULE
NONAME
51 52 1 0 0 
SMALL
USER_CHARGES


@<TRIPOS>ATOM
  1 S       -1.8480    -0.5820    -0.9840 S.o2  1 <1>   1.5760 
  2 O       -0.7060     0.2930    -1.0860 O.2   1 <1>  -0.6500 
  3 O       -2.9650    -0.4520    -1.8930 O.2   1 <1>  -0.6500 
  4 N       -1.3450    -2.2360    -1.0390 N.am  1 <1>  -0.6930 
  5 N       -2.4620    -0.4500     0.5890 N.am  1 <1>  -0.8490 
  6 C       -0.0160    -2.6380    -0.8990 C.ar  1 <1>   0.1990 
  7 C       -2.4060    -3.2630    -1.2570 C.3   1 <1>   0.2570 
  8 C       -1.4620    -0.7800     1.6130 C.3   1 <1>   0.1160 
  9 C       -2.9580     0.9060     0.8320 C.3   1 <1>   0.1160 
 10 C        0.3410    -3.6060     0.0350 C.ar  1 <1>  -0.1500 
 11 C        0.9860    -2.0990    -1.7000 C.ar  1 <1>  -0.1500 
 12 C       -3.3330    -3.4920    -0.0480 C.2   1 <1>   0.5690 
 13 C        1.6540    -4.0190     0.1690 C.ar  1 <1>  -0.1500 
 14 C        2.3010    -2.5060    -1.5690 C.ar  1 <1>  -0.1500 
 15 O       -2.9260    -4.2390     0.8120 O.2   1 <1>  -0.5700 
 16 N       -4.5830    -2.9180     0.0790 N.am  1 <1>  -0.6600 
 17 C        2.6380    -3.4680    -0.6330 C.ar  1 <1>  -0.1500 
 18 C       -5.2490    -2.0430    -0.9380 C.3   1 <1>   0.1400 
 19 C       -5.2780    -2.9490     1.4060 C.3   1 <1>   0.1400 
 20 C       -6.7580    -2.3350    -1.0450 C.3   1 <1>   0.3430 
 21 C       -6.7810    -3.2390     1.2560 C.3   1 <1>   0.3430 
 22 N       -7.4450    -2.2900     0.2920 N.4   1 <1>  -0.9590 
 23 C       -8.9000    -2.5560     0.1450 C.3   1 <1>   0.3430 
 24 C       -9.6300    -2.1240     1.4110 C.3   1 <1>  -0.2400 
 25 H       -1.9280    -4.2030    -1.4710 H     1 <1>   0.0800 
 26 H       -2.9690    -3.0070    -2.1310 H     1 <1>   0.0800 
 27 H       -1.1850    -1.8170     1.5410 H     1 <1>   0.0800 
 28 H       -1.8670    -0.6180     2.5970 H     1 <1>   0.0800 
 29 H       -0.5780    -0.1750     1.4920 H     1 <1>   0.0800 
 30 H       -3.7110     1.1600     0.1050 H     1 <1>   0.0800 
 31 H       -2.1530     1.6210     0.7560 H     1 <1>   0.0800 
 32 H       -3.3940     0.9740     1.8140 H     1 <1>   0.0800 
 33 H       -0.4110    -4.0410     0.6670 H     1 <1>   0.1500 
 34 H        0.7360    -1.3540    -2.4340 H     1 <1>   0.1500 
 35 H        1.9120    -4.7680     0.8980 H     1 <1>   0.1500 
 36 H        3.0620    -2.0730    -2.1950 H     1 <1>   0.1500 
 37 H        3.6610    -3.7860    -0.5300 H     1 <1>   0.1500 
 38 H       -4.8150    -2.1830    -1.9100 H     1 <1>   0.0800 
 39 H       -5.1060    -1.0130    -0.6600 H     1 <1>   0.0800 
 40 H       -5.1360    -2.0000     1.8940 H     1 <1>   0.0800 
 41 H       -4.8500    -3.7030     2.0440 H     1 <1>   0.0800 
 42 H       -6.8850    -3.3110    -1.4840 H     1 <1>   0.0800 
 43 H       -7.2040    -1.6140    -1.7110 H     1 <1>   0.0800 
 44 H       -7.2450    -3.1660     2.2250 H     1 <1>   0.0800 
 45 H       -6.8990    -4.2530     0.9090 H     1 <1>   0.0800 
 46 H       -7.3330    -1.3380     0.6650 H     1 <1>   0.4500 
 47 H       -9.0720    -3.6030    -0.0460 H     1 <1>   0.0800 
 48 H       -9.2890    -1.9920    -0.6890 H     1 <1>   0.0800 
 49 H       -9.3490    -2.7270     2.2550 H     1 <1>   0.0800 
 50 H      -10.6880    -2.2480     1.2630 H     1 <1>   0.0800 
 51 H       -9.4470    -1.0860     1.6260 H     1 <1>   0.0800 
@<TRIPOS>BOND
  1   1   2  2   
  2   1   3  2   
  3   1   4  am  
  4   1   5  am  
  5   4   6  1   
  6   4   7  1   
  7   5   8  1   
  8   5   9  1   
  9   6  10  ar  
 10   6  11  ar  
 11   7  12  1   
 12   7  25  1   
 13   7  26  1   
 14   8  27  1   
 15   8  28  1   
 16   8  29  1   
 17   9  30  1   
 18   9  31  1   
 19   9  32  1   
 20  10  13  ar  
 21  10  33  1   
 22  11  14  ar  
 23  11  34  1   
 24  12  15  2   
 25  12  16  am  
 26  13  17  ar  
 27  13  35  1   
 28  14  17  ar  
 29  14  36  1   
 30  16  18  1   
 31  16  19  1   
 32  17  37  1   
 33  18  20  1   
 34  18  38  1   
 35  18  39  1   
 36  19  21  1   
 37  19  40  1   
 38  19  41  1   
 39  20  22  1   
 40  20  42  1   
 41  20  43  1   
 42  21  22  1   
 43  21  44  1   
 44  21  45  1   
 45  22  23  1   
 46  22  46  1   
 47  23  24  1   
 48  23  47  1   
 49  23  48  1   
 50  24  49  1   
 51  24  50  1   
 52  24  51  1   
@<TRIPOS>SUBSTRUCTURE
  1 ****  12 GROUP 4 **** **** 0

# MOE 2024.06 (io_trps.svl 2023.06)
