@<TRIPOS>MOLECULE
NONAME
37 38 1 0 0 
SMALL
USER_CHARGES


@<TRIPOS>ATOM
  1 CL       1.0890    -0.3550    -2.5590 Cl    1 <1>  -0.1770 
  2 C        2.0050    -0.9910    -1.2200 C.ar  1 <1>   0.1770 
  3 C        3.0760    -0.2650    -0.7350 C.ar  1 <1>  -0.1500 
  4 C        1.6520    -2.2070    -0.6680 C.ar  1 <1>  -0.1500 
  5 C        3.8200    -0.7660     0.3250 C.ar  1 <1>  -0.1440 
  6 C        2.3870    -2.7040     0.3940 C.ar  1 <1>  -0.1500 
  7 C        3.4650    -1.9860     0.8890 C.ar  1 <1>  -0.1500 
  8 C        5.0070     0.0050     0.8520 C.3   1 <1>   0.4870 
  9 N        6.1720    -0.4360     0.0460 N.4   1 <1>  -0.9060 
 10 C        7.4700     0.1950     0.3820 C.3   1 <1>   0.4230 
 11 C        7.4820     1.6660    -0.0490 C.3   1 <1>  -0.1600 
 12 C        8.5860    -0.5750    -0.3280 C.3   1 <1>  -0.1600 
 13 C        8.8570     2.3000     0.1810 C.3   1 <1>   0.3430 
 14 C        9.9500     0.0770    -0.0900 C.3   1 <1>   0.3430 
 15 N        9.9110     1.5060    -0.5150 N.4   1 <1>  -0.9590 
 16 C       11.2560     2.1410    -0.3050 C.3   1 <1>   0.2630 
 17 H        3.2990     0.6810    -1.1990 H     1 <1>   0.1500 
 18 H        0.8130    -2.7520    -1.0650 H     1 <1>   0.1500 
 19 H        2.1140    -3.6490     0.8350 H     1 <1>   0.1500 
 20 H        4.0110    -2.3980     1.7220 H     1 <1>   0.1500 
 21 H        5.1570    -0.2170     1.8970 H     1 <1>   0.0800 
 22 H        4.8350     1.0630     0.7370 H     1 <1>   0.0800 
 23 H        5.9270    -0.2970    -0.9420 H     1 <1>   0.4500 
 24 H        6.2250    -1.4570     0.1610 H     1 <1>   0.4500 
 25 H        7.6330     0.1350     1.4480 H     1 <1>   0.0800 
 26 H        6.7640     2.2260     0.5230 H     1 <1>   0.0800 
 27 H        7.2290     1.7600    -1.0910 H     1 <1>   0.0800 
 28 H        8.4060    -0.6200    -1.3880 H     1 <1>   0.0800 
 29 H        8.6280    -1.5820     0.0480 H     1 <1>   0.0800 
 30 H        9.0700     2.3380     1.2380 H     1 <1>   0.0800 
 31 H        8.8550     3.3140    -0.1930 H     1 <1>   0.0800 
 32 H       10.7070    -0.4530    -0.6500 H     1 <1>   0.0800 
 33 H       10.2080     0.0150     0.9570 H     1 <1>   0.0800 
 34 H        9.7320     1.5410    -1.5320 H     1 <1>   0.4500 
 35 H       11.5170     2.1420     0.7410 H     1 <1>   0.0800 
 36 H       11.2510     3.1610    -0.6580 H     1 <1>   0.0800 
 37 H       12.0170     1.6010    -0.8470 H     1 <1>   0.0800 
@<TRIPOS>BOND
  1   1   2  1   
  2   2   3  ar  
  3   2   4  ar  
  4   3   5  ar  
  5   3  17  1   
  6   4   6  ar  
  7   4  18  1   
  8   5   7  ar  
  9   5   8  1   
 10   6   7  ar  
 11   6  19  1   
 12   7  20  1   
 13   8   9  1   
 14   8  21  1   
 15   8  22  1   
 16   9  10  1   
 17   9  23  1   
 18   9  24  1   
 19  10  11  1   
 20  10  12  1   
 21  10  25  1   
 22  11  13  1   
 23  11  26  1   
 24  11  27  1   
 25  12  14  1   
 26  12  28  1   
 27  12  29  1   
 28  13  15  1   
 29  13  30  1   
 30  13  31  1   
 31  14  15  1   
 32  14  32  1   
 33  14  33  1   
 34  15  16  1   
 35  15  34  1   
 36  16  35  1   
 37  16  36  1   
 38  16  37  1   
@<TRIPOS>SUBSTRUCTURE
  1 ****   9 GROUP 4 **** **** 0

# MOE 2024.06 (io_trps.svl 2023.06)
