@<TRIPOS>MOLECULE
NONAME
44 46 1 0 0 
SMALL
USER_CHARGES


@<TRIPOS>ATOM
  1 N        0.4510    -0.1710     0.2560 N.ar  1 <1>  -0.6200 
  2 C        1.6540     0.3760     0.3900 C.ar  1 <1>   0.7200 
  3 C       -0.4340     0.5370    -0.4040 C.ar  1 <1>   0.1600 
  4 N        2.0620     1.5350    -0.1230 N.ar  1 <1>  -0.6200 
  5 N        2.5840    -0.3540     1.0930 N.pl3 1 <1>  -0.8380 
  6 C       -0.1280     1.7610    -0.9480 C.ar  1 <1>  -0.1500 
  7 C        1.1550     2.2210    -0.7790 C.ar  1 <1>   0.1600 
  8 C        2.7640    -1.7950     0.7570 C.3   1 <1>   0.2090 
  9 C        3.8250     0.2980     1.6050 C.3   1 <1>   0.2090 
 10 C        3.8920    -1.9470    -0.2880 C.3   1 <1>   0.3430 
 11 C        4.9470     0.1660     0.5560 C.3   1 <1>   0.3430 
 12 N        5.1760    -1.2700     0.1310 N.4   1 <1>  -0.9590 
 13 C        6.2160    -1.3570    -0.9270 C.3   1 <1>   0.4860 
 14 C        7.5260    -0.8690    -0.3400 C.ar  1 <1>  -0.1430 
 15 C        8.2980    -1.6660     0.5010 C.ar  1 <1>  -0.1430 
 16 C        7.9480     0.4170    -0.6510 C.ar  1 <1>  -0.1500 
 17 C        9.4670    -1.1460     1.0350 C.ar  1 <1>  -0.1500 
 18 C        7.9200    -3.0990     0.8590 C.3   1 <1>  -0.0970 
 19 C        9.1160     0.9290    -0.1150 C.ar  1 <1>  -0.1430 
 20 C        9.8720     0.1410     0.7320 C.ar  1 <1>  -0.1500 
 21 C        9.5710     2.3370    -0.4570 C.3   1 <1>  -0.0970 
 22 H       -1.4260     0.1320    -0.5140 H     1 <1>   0.1500 
 23 H       -0.8630     2.3330    -1.4840 H     1 <1>   0.1500 
 24 H        1.4390     3.1740    -1.1930 H     1 <1>   0.1500 
 25 H        1.8540    -2.2130     0.3620 H     1 <1>   0.0800 
 26 H        3.0080    -2.3420     1.6510 H     1 <1>   0.0800 
 27 H        4.1240    -0.1700     2.5260 H     1 <1>   0.0800 
 28 H        3.6430     1.3380     1.8180 H     1 <1>   0.0800 
 29 H        3.5420    -1.5120    -1.2090 H     1 <1>   0.0800 
 30 H        4.0670    -2.9950    -0.4630 H     1 <1>   0.0800 
 31 H        5.8560     0.5790     0.9630 H     1 <1>   0.0800 
 32 H        4.6680     0.7590    -0.2990 H     1 <1>   0.0800 
 33 H        5.5610    -1.7540     0.9490 H     1 <1>   0.4500 
 34 H        5.9410    -0.7490    -1.7730 H     1 <1>   0.0800 
 35 H        6.3300    -2.3750    -1.2590 H     1 <1>   0.0800 
 36 H        7.3720     1.0370    -1.3170 H     1 <1>   0.1500 
 37 H       10.0810    -1.7390     1.6910 H     1 <1>   0.1500 
 38 H        7.1270    -3.1110     1.5840 H     1 <1>   0.0800 
 39 H        8.7630    -3.6140     1.2840 H     1 <1>   0.0800 
 40 H        7.6180    -3.6460    -0.0160 H     1 <1>   0.0800 
 41 H       10.7850     0.5230     1.1560 H     1 <1>   0.1500 
 42 H        8.7270     2.9760    -0.6450 H     1 <1>   0.0800 
 43 H       10.1920     2.3150    -1.3350 H     1 <1>   0.0800 
 44 H       10.1390     2.7570     0.3540 H     1 <1>   0.0800 
@<TRIPOS>BOND
  1   1   2  ar  
  2   1   3  ar  
  3   2   4  ar  
  4   2   5  1   
  5   3   6  ar  
  6   3  22  1   
  7   4   7  ar  
  8   5   8  1   
  9   5   9  1   
 10   6   7  ar  
 11   6  23  1   
 12   7  24  1   
 13   8  10  1   
 14   8  25  1   
 15   8  26  1   
 16   9  11  1   
 17   9  27  1   
 18   9  28  1   
 19  10  12  1   
 20  10  29  1   
 21  10  30  1   
 22  11  12  1   
 23  11  31  1   
 24  11  32  1   
 25  12  13  1   
 26  12  33  1   
 27  13  14  1   
 28  13  34  1   
 29  13  35  1   
 30  14  15  ar  
 31  14  16  ar  
 32  15  17  ar  
 33  15  18  1   
 34  16  19  ar  
 35  16  36  1   
 36  17  20  ar  
 37  17  37  1   
 38  18  38  1   
 39  18  39  1   
 40  18  40  1   
 41  19  20  ar  
 42  19  21  1   
 43  20  41  1   
 44  21  42  1   
 45  21  43  1   
 46  21  44  1   
@<TRIPOS>SUBSTRUCTURE
  1 ****  11 GROUP 4 **** **** 0

# MOE 2024.06 (io_trps.svl 2023.06)
