@<TRIPOS>MOLECULE
NONAME
51 52 1 0 0 
SMALL
USER_CHARGES


@<TRIPOS>ATOM
  1 S        0.4070    -0.2910    -0.7500 S.o2  1 <1>   1.3330 
  2 O        1.6200    -0.6450    -1.4510 O.2   1 <1>  -0.6500 
  3 O        0.3280    -0.4610     0.6780 O.2   1 <1>  -0.6500 
  4 N        0.0860     1.3690    -1.1120 N.am  1 <1>  -0.6930 
  5 C       -0.9600    -1.1170    -1.5340 C.3   1 <1>  -0.1350 
  6 C       -0.9540     2.0180    -0.4510 C.ar  1 <1>   0.1990 
  7 C        1.2740     2.1680    -1.5600 C.3   1 <1>   0.3370 
  8 C       -0.8170     2.4500     0.8640 C.ar  1 <1>  -0.1500 
  9 C       -2.1560     2.2480    -1.1100 C.ar  1 <1>  -0.1500 
 10 C        2.3230     2.3860    -0.4400 C.2   1 <1>   0.5690 
 11 C        0.8150     3.4770    -2.2260 C.3   1 <1>  -0.2400 
 12 C       -1.8580     3.0950     1.5080 C.ar  1 <1>  -0.1500 
 13 C       -3.2020     2.8910    -0.4720 C.ar  1 <1>  -0.1500 
 14 O        2.3800     3.4430     0.1470 O.2   1 <1>  -0.5700 
 15 N        3.1830     1.3730    -0.1340 N.am  1 <1>  -0.7300 
 16 C       -3.0550     3.3110     0.8440 C.ar  1 <1>   0.0820 
 17 C        4.1390     1.3800     1.0010 C.3   1 <1>   0.1400 
 18 O       -4.0540     3.9540     1.5040 O.3   1 <1>  -0.1650 
 19 C        5.3490     2.2560     0.6810 C.3   1 <1>   0.1200 
 20 C       -5.3470     3.5610     1.3900 C.ar  1 <1>   0.0820 
 21 O        6.2950     2.0970     1.6920 O.3   1 <1>  -0.5600 
 22 C       -6.3300     4.5390     1.3880 C.ar  1 <1>  -0.1500 
 23 C       -5.7040     2.2210     1.2920 C.ar  1 <1>  -0.1500 
 24 C        7.4160     2.9060     1.5440 C.3   1 <1>   0.0400 
 25 C       -7.6630     4.1840     1.2750 C.ar  1 <1>  -0.1500 
 26 C       -7.0380     1.8680     1.1780 C.ar  1 <1>  -0.1500 
 27 C       -8.0160     2.8490     1.1680 C.ar  1 <1>  -0.1500 
 28 H       -0.8680    -2.1780    -1.4080 H     1 <1>   0.0800 
 29 H       -0.9770    -0.8940    -2.5820 H     1 <1>   0.0800 
 30 H       -1.8850    -0.7990    -1.0950 H     1 <1>   0.0800 
 31 H        1.7710     1.6090    -2.3330 H     1 <1>   0.0800 
 32 H        0.1090     2.2780     1.3840 H     1 <1>   0.1500 
 33 H       -2.2660     1.9270    -2.1290 H     1 <1>   0.1500 
 34 H        0.3570     4.1320    -1.5050 H     1 <1>   0.0800 
 35 H        0.1210     3.2710    -3.0200 H     1 <1>   0.0800 
 36 H        1.6670     3.9870    -2.6380 H     1 <1>   0.0800 
 37 H       -1.7440     3.4290     2.5230 H     1 <1>   0.1500 
 38 H       -4.1250     3.0730    -0.9930 H     1 <1>   0.1500 
 39 H        3.0380     0.4560    -0.5830 H     1 <1>   0.3700 
 40 H        4.4640     0.3720     1.1930 H     1 <1>   0.0800 
 41 H        3.6460     1.7620     1.8790 H     1 <1>   0.0800 
 42 H        5.0530     3.2910     0.6400 H     1 <1>   0.0800 
 43 H        5.7940     1.9540    -0.2510 H     1 <1>   0.0800 
 44 H       -6.0470     5.5720     1.4740 H     1 <1>   0.1500 
 45 H       -4.9470     1.4570     1.3110 H     1 <1>   0.1500 
 46 H        8.0830     2.7070     2.3630 H     1 <1>   0.0800 
 47 H        7.1130     3.9390     1.5650 H     1 <1>   0.0800 
 48 H        7.9030     2.6720     0.6130 H     1 <1>   0.0800 
 49 H       -8.4250     4.9440     1.2710 H     1 <1>   0.1500 
 50 H       -7.3160     0.8310     1.1000 H     1 <1>   0.1500 
 51 H       -9.0530     2.5730     1.0800 H     1 <1>   0.1500 
@<TRIPOS>BOND
  1   1   2  2   
  2   1   3  2   
  3   1   4  am  
  4   1   5  1   
  5   4   6  1   
  6   4   7  1   
  7   5  28  1   
  8   5  29  1   
  9   5  30  1   
 10   6   8  ar  
 11   6   9  ar  
 12   7  10  1   
 13   7  11  1   
 14   7  31  1   
 15   8  12  ar  
 16   8  32  1   
 17   9  13  ar  
 18   9  33  1   
 19  10  14  2   
 20  10  15  am  
 21  11  34  1   
 22  11  35  1   
 23  11  36  1   
 24  12  16  ar  
 25  12  37  1   
 26  13  16  ar  
 27  13  38  1   
 28  15  17  1   
 29  15  39  1   
 30  16  18  1   
 31  17  19  1   
 32  17  40  1   
 33  17  41  1   
 34  18  20  1   
 35  19  21  1   
 36  19  42  1   
 37  19  43  1   
 38  20  22  ar  
 39  20  23  ar  
 40  21  24  1   
 41  22  25  ar  
 42  22  44  1   
 43  23  26  ar  
 44  23  45  1   
 45  24  46  1   
 46  24  47  1   
 47  24  48  1   
 48  25  27  ar  
 49  25  49  1   
 50  26  27  ar  
 51  26  50  1   
 52  27  51  1   
@<TRIPOS>SUBSTRUCTURE
  1 ****   8 GROUP 4 **** **** 0

# MOE 2024.06 (io_trps.svl 2023.06)
