@<TRIPOS>MOLECULE
NONAME
44 46 1 0 0 
SMALL
USER_CHARGES


@<TRIPOS>ATOM
  1 N        0.3350     0.0320    -0.8380 N.ar  1 <1>  -0.6200 
  2 C        1.4410    -0.3920    -0.2390 C.ar  1 <1>   0.7200 
  3 C       -0.1010    -0.7040    -1.8320 C.ar  1 <1>   0.1600 
  4 N        2.1730    -1.4520    -0.5780 N.ar  1 <1>  -0.6200 
  5 N        1.9000     0.3690     0.8110 N.pl3 1 <1>  -0.8380 
  6 C        0.5610    -1.8340    -2.2460 C.ar  1 <1>  -0.1500 
  7 C        1.7120    -2.1690    -1.5770 C.ar  1 <1>   0.1600 
  8 C        2.8950    -0.1940     1.7700 C.3   1 <1>   0.2090 
  9 C        2.0240     1.8420     0.6190 C.3   1 <1>   0.2090 
 10 C        4.3220     0.1380     1.2890 C.3   1 <1>   0.3430 
 11 C        3.4540     2.1870     0.1530 C.3   1 <1>   0.3430 
 12 N        4.5270     1.6220     1.0660 N.4   1 <1>  -0.9590 
 13 C        5.9220     1.9120     0.6270 C.3   1 <1>   0.4230 
 14 C        6.2200     3.4090     0.7780 C.3   1 <1>  -0.1600 
 15 C        6.2090     1.4380    -0.8080 C.3   1 <1>  -0.1600 
 16 C        7.6760     3.7130     0.3950 C.3   1 <1>  -0.1600 
 17 C        7.6660     1.7350    -1.1920 C.3   1 <1>  -0.1600 
 18 C        7.9970     3.2280    -1.0280 C.3   1 <1>  -0.0800 
 19 C        9.4710     3.4850    -1.3570 C.3   1 <1>  -0.2400 
 20 H       -1.0070    -0.3980    -2.3280 H     1 <1>   0.1500 
 21 H        0.1920    -2.4300    -3.0600 H     1 <1>   0.1500 
 22 H        2.2650    -3.0460    -1.8710 H     1 <1>   0.1500 
 23 H        2.7750    -1.2620     1.8500 H     1 <1>   0.0800 
 24 H        2.7260     0.2210     2.7480 H     1 <1>   0.0800 
 25 H        1.8020     2.3440     1.5450 H     1 <1>   0.0800 
 26 H        1.3170     2.1930    -0.1140 H     1 <1>   0.0800 
 27 H        4.4860    -0.3940     0.3670 H     1 <1>   0.0800 
 28 H        5.0310    -0.2280     2.0130 H     1 <1>   0.0800 
 29 H        3.5500     3.2570     0.0870 H     1 <1>   0.0800 
 30 H        3.5760     1.7830    -0.8380 H     1 <1>   0.0800 
 31 H        4.4050     2.0750     1.9780 H     1 <1>   0.4500 
 32 H        6.6000     1.3870     1.2820 H     1 <1>   0.0800 
 33 H        6.0610     3.7150     1.7970 H     1 <1>   0.0800 
 34 H        5.5770     3.9870     0.1380 H     1 <1>   0.0800 
 35 H        5.5720     1.9450    -1.5100 H     1 <1>   0.0800 
 36 H        6.0440     0.3790    -0.8970 H     1 <1>   0.0800 
 37 H        8.3400     3.2340     1.0960 H     1 <1>   0.0800 
 38 H        7.8480     4.7740     0.4590 H     1 <1>   0.0800 
 39 H        7.8320     1.4420    -2.2150 H     1 <1>   0.0800 
 40 H        8.3280     1.1500    -0.5750 H     1 <1>   0.0800 
 41 H        7.3980     3.7910    -1.7260 H     1 <1>   0.0800 
 42 H       10.1150     2.9430    -0.6870 H     1 <1>   0.0800 
 43 H        9.6960     4.5340    -1.2740 H     1 <1>   0.0800 
 44 H        9.6890     3.1750    -2.3650 H     1 <1>   0.0800 
@<TRIPOS>BOND
  1   1   2  ar  
  2   1   3  ar  
  3   2   4  ar  
  4   2   5  1   
  5   3   6  ar  
  6   3  20  1   
  7   4   7  ar  
  8   5   8  1   
  9   5   9  1   
 10   6   7  ar  
 11   6  21  1   
 12   7  22  1   
 13   8  10  1   
 14   8  23  1   
 15   8  24  1   
 16   9  11  1   
 17   9  25  1   
 18   9  26  1   
 19  10  12  1   
 20  10  27  1   
 21  10  28  1   
 22  11  12  1   
 23  11  29  1   
 24  11  30  1   
 25  12  13  1   
 26  12  31  1   
 27  13  14  1   
 28  13  15  1   
 29  13  32  1   
 30  14  16  1   
 31  14  33  1   
 32  14  34  1   
 33  15  17  1   
 34  15  35  1   
 35  15  36  1   
 36  16  18  1   
 37  16  37  1   
 38  16  38  1   
 39  17  18  1   
 40  17  39  1   
 41  17  40  1   
 42  18  19  1   
 43  18  41  1   
 44  19  42  1   
 45  19  43  1   
 46  19  44  1   
@<TRIPOS>SUBSTRUCTURE
  1 ****  11 GROUP 4 **** **** 0

# MOE 2024.06 (io_trps.svl 2023.06)
