@<TRIPOS>MOLECULE
NONAME
46 48 1 0 0 
SMALL
USER_CHARGES


@<TRIPOS>ATOM
  1 O       -0.5220     0.8970    -1.7820 O.2   1 <1>  -0.5700 
  2 C       -0.5570     1.9010    -1.1100 C.2   1 <1>   0.5690 
  3 N       -1.6250     2.3260    -0.3670 N.am  1 <1>  -0.2370 
  4 C        0.5960     2.9180    -1.0680 C.3   1 <1>   0.2510 
  5 C       -2.7910     1.5660    -0.1120 C.ar  1 <1>   0.1170 
  6 C       -1.3990     3.6080     0.0550 C.2   1 <1>   0.5690 
  7 N        1.8040     2.5580    -0.2580 N.3   1 <1>  -0.8100 
  8 C       -0.0750     4.1400    -0.4270 C.3   1 <1>  -0.0990 
  9 C       -4.0580     2.1240    -0.2440 C.ar  1 <1>  -0.1500 
 10 C       -2.6990     0.2360     0.2780 C.ar  1 <1>  -0.1500 
 11 O       -2.1440     4.2940     0.7070 O.2   1 <1>  -0.5700 
 12 C        2.1920     1.1400    -0.4130 C.3   1 <1>   0.1100 
 13 C        2.9170     3.4840    -0.5550 C.3   1 <1>   0.1100 
 14 C       -5.2050     1.3870     0.0030 C.ar  1 <1>  -0.1430 
 15 C       -3.8360    -0.5090     0.5250 C.ar  1 <1>  -0.1500 
 16 C        3.3040     0.6970     0.5480 C.3   1 <1>  -0.1600 
 17 C        3.8350     3.6190     0.6620 C.3   1 <1>  -0.1600 
 18 C       -5.0940     0.0560     0.3910 C.ar  1 <1>  -0.1430 
 19 C       -6.5620     2.0570    -0.1550 C.3   1 <1>  -0.0970 
 20 C        4.6960     1.2170     0.1630 C.3   1 <1>  -0.1600 
 21 C        5.0050     2.6230     0.6960 C.3   1 <1>  -0.1600 
 22 C       -6.3230    -0.7970     0.6720 C.3   1 <1>  -0.0970 
 23 H        0.8910     3.1300    -2.0820 H     1 <1>   0.0800 
 24 H       -0.2510     4.9080    -1.1560 H     1 <1>   0.0800 
 25 H        0.4790     4.5360     0.4040 H     1 <1>   0.0800 
 26 H       -4.1430     3.1530    -0.5410 H     1 <1>   0.1500 
 27 H       -1.7320    -0.2230     0.3850 H     1 <1>   0.1500 
 28 H        2.4790     0.9430    -1.4320 H     1 <1>   0.0800 
 29 H        1.3450     0.5160    -0.1870 H     1 <1>   0.0800 
 30 H        2.5260     4.4650    -0.7660 H     1 <1>   0.0800 
 31 H        3.4650     3.1630    -1.4250 H     1 <1>   0.0800 
 32 H       -3.7320    -1.5380     0.8230 H     1 <1>   0.1500 
 33 H        3.3390    -0.3770     0.5100 H     1 <1>   0.0800 
 34 H        3.0520     0.9680     1.5580 H     1 <1>   0.0800 
 35 H        3.2430     3.5200     1.5560 H     1 <1>   0.0800 
 36 H        4.2490     4.6110     0.6700 H     1 <1>   0.0800 
 37 H       -6.4530     3.0870    -0.4450 H     1 <1>   0.0800 
 38 H       -7.0980     2.0260     0.7760 H     1 <1>   0.0800 
 39 H       -7.1370     1.5530    -0.9110 H     1 <1>   0.0800 
 40 H        4.7960     1.2050    -0.9080 H     1 <1>   0.0800 
 41 H        5.4390     0.5440     0.5540 H     1 <1>   0.0800 
 42 H        5.3420     2.5430     1.7150 H     1 <1>   0.0800 
 43 H        5.8240     3.0230     0.1240 H     1 <1>   0.0800 
 44 H       -6.8900    -0.3710     1.4790 H     1 <1>   0.0800 
 45 H       -6.0430    -1.7980     0.9480 H     1 <1>   0.0800 
 46 H       -6.9430    -0.8510    -0.2040 H     1 <1>   0.0800 
@<TRIPOS>BOND
  1   1   2  2   
  2   2   3  am  
  3   2   4  1   
  4   3   5  1   
  5   3   6  am  
  6   4   7  1   
  7   4   8  1   
  8   4  23  1   
  9   5   9  ar  
 10   5  10  ar  
 11   6   8  1   
 12   6  11  2   
 13   7  12  1   
 14   7  13  1   
 15   8  24  1   
 16   8  25  1   
 17   9  14  ar  
 18   9  26  1   
 19  10  15  ar  
 20  10  27  1   
 21  12  16  1   
 22  12  28  1   
 23  12  29  1   
 24  13  17  1   
 25  13  30  1   
 26  13  31  1   
 27  14  18  ar  
 28  14  19  1   
 29  15  18  ar  
 30  15  32  1   
 31  16  20  1   
 32  16  33  1   
 33  16  34  1   
 34  17  21  1   
 35  17  35  1   
 36  17  36  1   
 37  18  22  1   
 38  19  37  1   
 39  19  38  1   
 40  19  39  1   
 41  20  21  1   
 42  20  40  1   
 43  20  41  1   
 44  21  42  1   
 45  21  43  1   
 46  22  44  1   
 47  22  45  1   
 48  22  46  1   
@<TRIPOS>SUBSTRUCTURE
  1 ****   3 GROUP 4 **** **** 0

# MOE 2024.06 (io_trps.svl 2023.06)
