@<TRIPOS>MOLECULE
NONAME
48 49 1 0 0 
SMALL
USER_CHARGES


@<TRIPOS>ATOM
  1 O       -1.4270     0.0600     1.0660 O.3   1 <1>  -0.3630 
  2 C       -1.9880     0.8380     0.0970 C.ar  1 <1>   0.0830 
  3 C       -0.0500     0.0740     1.3640 C.3   1 <1>   0.1200 
  4 C       -1.4090     1.9510    -0.5390 C.ar  1 <1>   0.0830 
  5 C       -3.2680     0.4440    -0.2550 C.ar  1 <1>  -0.1500 
  6 C        0.2410    -1.0950     2.2990 C.3   1 <1>  -0.2400 
  7 O       -0.1580     2.3690    -0.1910 O.3   1 <1>  -0.3620 
  8 C       -2.1440     2.6200    -1.5160 C.ar  1 <1>  -0.1500 
  9 C       -3.9970     1.1250    -1.2160 C.ar  1 <1>  -0.1440 
 10 C        0.4940     3.4450    -0.8300 C.3   1 <1>   0.0400 
 11 C       -3.4230     2.2130    -1.8520 C.ar  1 <1>  -0.1500 
 12 C       -5.4090     0.6830    -1.5490 C.3   1 <1>   0.4860 
 13 N       -6.2790     0.9040    -0.3550 N.4   1 <1>  -0.9590 
 14 C       -7.6540     0.3220    -0.4750 C.3   1 <1>   0.4230 
 15 C       -6.2990     2.3590    -0.0080 C.3   1 <1>   0.3430 
 16 C       -8.4090     0.5450     0.8490 C.3   1 <1>  -0.1600 
 17 C       -7.5810    -1.1810    -0.8280 C.3   1 <1>  -0.1600 
 18 C       -7.0090     2.5730     1.3260 C.3   1 <1>  -0.1600 
 19 C       -8.4310     2.0130     1.2870 C.3   1 <1>  -0.1600 
 20 C       -8.9470    -1.8830    -0.9060 C.3   1 <1>  -0.2400 
 21 H        0.1850     1.0090     1.8420 H     1 <1>   0.0800 
 22 H        0.5020    -0.0240     0.4450 H     1 <1>   0.0800 
 23 H       -3.6750    -0.4170     0.2440 H     1 <1>   0.1500 
 24 H       -0.3250    -0.9930     3.2070 H     1 <1>   0.0800 
 25 H        1.2870    -1.1090     2.5460 H     1 <1>   0.0800 
 26 H       -0.0100    -2.0240     1.8190 H     1 <1>   0.0800 
 27 H       -1.7370     3.4700    -2.0320 H     1 <1>   0.1500 
 28 H        1.4690     3.5530    -0.3910 H     1 <1>   0.0800 
 29 H       -0.0760     4.3440    -0.6730 H     1 <1>   0.0800 
 30 H        0.5900     3.2240    -1.8790 H     1 <1>   0.0800 
 31 H       -3.9580     2.7570    -2.6130 H     1 <1>   0.1500 
 32 H       -5.3800    -0.3610    -1.8100 H     1 <1>   0.0800 
 33 H       -5.7840     1.2380    -2.3930 H     1 <1>   0.0800 
 34 H       -5.8190     0.4310     0.4300 H     1 <1>   0.4500 
 35 H       -8.1870     0.8350    -1.2590 H     1 <1>   0.0800 
 36 H       -6.8090     2.9130    -0.7800 H     1 <1>   0.0800 
 37 H       -5.2920     2.7380     0.0710 H     1 <1>   0.0800 
 38 H       -7.9640    -0.0560     1.6240 H     1 <1>   0.0800 
 39 H       -9.4300     0.2230     0.7420 H     1 <1>   0.0800 
 40 H       -6.9750    -1.6980    -0.1040 H     1 <1>   0.0800 
 41 H       -7.1320    -1.3040    -1.7970 H     1 <1>   0.0800 
 42 H       -7.0460     3.6280     1.5400 H     1 <1>   0.0800 
 43 H       -6.4440     2.1050     2.1130 H     1 <1>   0.0800 
 44 H       -8.8850     2.0990     2.2610 H     1 <1>   0.0800 
 45 H       -9.0280     2.5880     0.5970 H     1 <1>   0.0800 
 46 H       -9.4030    -1.9670     0.0650 H     1 <1>   0.0800 
 47 H       -8.8220    -2.8810    -1.2910 H     1 <1>   0.0800 
 48 H       -9.6160    -1.3540    -1.5630 H     1 <1>   0.0800 
@<TRIPOS>BOND
  1   1   2  1   
  2   1   3  1   
  3   2   4  ar  
  4   2   5  ar  
  5   3   6  1   
  6   3  21  1   
  7   3  22  1   
  8   4   7  1   
  9   4   8  ar  
 10   5   9  ar  
 11   5  23  1   
 12   6  24  1   
 13   6  25  1   
 14   6  26  1   
 15   7  10  1   
 16   8  11  ar  
 17   8  27  1   
 18   9  11  ar  
 19   9  12  1   
 20  10  28  1   
 21  10  29  1   
 22  10  30  1   
 23  11  31  1   
 24  12  13  1   
 25  12  32  1   
 26  12  33  1   
 27  13  14  1   
 28  13  15  1   
 29  13  34  1   
 30  14  16  1   
 31  14  17  1   
 32  14  35  1   
 33  15  18  1   
 34  15  36  1   
 35  15  37  1   
 36  16  19  1   
 37  16  38  1   
 38  16  39  1   
 39  17  20  1   
 40  17  40  1   
 41  17  41  1   
 42  18  19  1   
 43  18  42  1   
 44  18  43  1   
 45  19  44  1   
 46  19  45  1   
 47  20  46  1   
 48  20  47  1   
 49  20  48  1   
@<TRIPOS>SUBSTRUCTURE
  1 ****   5 GROUP 4 **** **** 0

# MOE 2024.06 (io_trps.svl 2023.06)
