@<TRIPOS>MOLECULE
NONAME
38 39 1 0 0 
SMALL
USER_CHARGES


@<TRIPOS>ATOM
  1 P       -0.0340    -0.4760     0.1080 P.3   1 <1>   1.0780 
  2 O        1.1010    -1.0840    -0.5790 O.2   1 <1>  -0.7000 
  3 O       -1.4120    -0.6540    -0.6910 O.3   1 <1>  -0.5510 
  4 C        0.1130     1.2750     0.3440 C.3   1 <1>  -0.1070 
  5 C       -0.3740    -1.1790     1.6960 C.3   1 <1>  -0.2400 
  6 C       -1.5770    -1.6150    -1.6780 C.3   1 <1>   0.1200 
  7 C        1.4110     1.5360     1.0620 C.2   1 <1>   0.7200 
  8 C       -0.3370     2.3100    -0.6550 C.3   1 <1>  -0.2000 
  9 C       -1.0380     2.1920     0.6680 C.3   1 <1>  -0.2000 
 10 C       -1.7540    -2.9930    -1.0410 C.3   1 <1>  -0.2400 
 11 O        1.5090     1.3940     2.2540 O.2   1 <1>  -0.5700 
 12 O        2.4340     1.9090     0.3120 O.3   1 <1>  -0.4300 
 13 C        3.7120     2.1000     0.8710 C.3   1 <1>   0.2630 
 14 C        4.6790     2.4800    -0.2390 C.ar  1 <1>  -0.1440 
 15 C        5.4120     3.6560    -0.1660 C.ar  1 <1>  -0.1500 
 16 C        4.8420     1.6460    -1.3350 C.ar  1 <1>  -0.1500 
 17 C        6.2970     3.9920    -1.1750 C.ar  1 <1>  -0.1500 
 18 C        5.7270     1.9810    -2.3450 C.ar  1 <1>  -0.1500 
 19 C        6.4560     3.1540    -2.2650 C.ar  1 <1>  -0.1500 
 20 H       -1.2130    -0.7010     2.1640 H     1 <1>   0.0800 
 21 H        0.4670    -1.0830     2.3550 H     1 <1>   0.0800 
 22 H       -0.5980    -2.2250     1.6180 H     1 <1>   0.0800 
 23 H       -0.7260    -1.5910    -2.3390 H     1 <1>   0.0800 
 24 H       -2.4600    -1.3530    -2.2350 H     1 <1>   0.0800 
 25 H       -0.8540     1.9820    -1.5410 H     1 <1>   0.1000 
 26 H        0.2850     3.1700    -0.8390 H     1 <1>   0.1000 
 27 H       -0.8980     2.9680     1.4010 H     1 <1>   0.1000 
 28 H       -2.0400     1.7970     0.6730 H     1 <1>   0.1000 
 29 H       -0.8420    -3.3150    -0.5720 H     1 <1>   0.0800 
 30 H       -2.0020    -3.7080    -1.8050 H     1 <1>   0.0800 
 31 H       -2.5530    -2.9730    -0.3210 H     1 <1>   0.0800 
 32 H        4.0210     1.1800     1.3370 H     1 <1>   0.0800 
 33 H        3.6450     2.8750     1.6140 H     1 <1>   0.0800 
 34 H        5.2970     4.3160     0.6760 H     1 <1>   0.1500 
 35 H        4.2730     0.7330    -1.4050 H     1 <1>   0.1500 
 36 H        6.8630     4.9050    -1.1130 H     1 <1>   0.1500 
 37 H        5.8450     1.3280    -3.1920 H     1 <1>   0.1500 
 38 H        7.1440     3.4150    -3.0500 H     1 <1>   0.1500 
@<TRIPOS>BOND
  1   1   2  2   
  2   1   3  1   
  3   1   4  1   
  4   1   5  1   
  5   3   6  1   
  6   4   7  1   
  7   4   8  1   
  8   4   9  1   
  9   5  20  1   
 10   5  21  1   
 11   5  22  1   
 12   6  10  1   
 13   6  23  1   
 14   6  24  1   
 15   7  11  2   
 16   7  12  1   
 17   8   9  1   
 18   8  25  1   
 19   8  26  1   
 20   9  27  1   
 21   9  28  1   
 22  10  29  1   
 23  10  30  1   
 24  10  31  1   
 25  12  13  1   
 26  13  14  1   
 27  13  32  1   
 28  13  33  1   
 29  14  15  ar  
 30  14  16  ar  
 31  15  17  ar  
 32  15  34  1   
 33  16  18  ar  
 34  16  35  1   
 35  17  19  ar  
 36  17  36  1   
 37  18  19  ar  
 38  18  37  1   
 39  19  38  1   
@<TRIPOS>SUBSTRUCTURE
  1 ****  12 GROUP 4 **** **** 0

# MOE 2024.06 (io_trps.svl 2023.06)
