@<TRIPOS>MOLECULE
NONAME
55 59 1 0 0 
SMALL
USER_CHARGES


@<TRIPOS>ATOM
  1 O        0.3160     1.3890    -1.1780 O.3   1 <1>  -0.3630 
  2 C       -0.8340     1.5790    -0.4560 C.ar  1 <1>   0.0830 
  3 C        0.4450     0.3050    -2.0740 C.3   1 <1>   0.0400 
  4 C       -0.9010     2.6790     0.4200 C.ar  1 <1>   0.1000 
  5 C       -1.9270     0.7230    -0.5670 C.ar  1 <1>  -0.1500 
  6 N        0.1420     3.5990     0.6040 N.pl3 1 <1>  -0.8380 
  7 C       -2.0610     2.8800     1.1540 C.ar  1 <1>  -0.1500 
  8 C       -3.0730     0.9460     0.1770 C.ar  1 <1>  -0.1500 
  9 C        0.4360     4.4420    -0.5900 C.3   1 <1>   0.2090 
 10 C        1.3570     3.0290     1.2520 C.3   1 <1>   0.2090 
 11 C       -3.1400     2.0240     1.0380 C.ar  1 <1>  -0.1500 
 12 C        1.4870     5.5210    -0.2660 C.3   1 <1>   0.3430 
 13 C        2.3970     4.1260     1.5520 C.3   1 <1>   0.3430 
 14 N        2.7520     4.9490     0.3340 N.4   1 <1>  -0.9590 
 15 C        3.8030     5.9880     0.6050 C.3   1 <1>   0.4230 
 16 C        4.1690     6.7650    -0.6890 C.3   1 <1>  -0.0800 
 17 C        5.0980     5.3420     1.1680 C.3   1 <1>  -0.0800 
 18 C        4.7980     5.8160    -1.7360 C.3   1 <1>  -0.1600 
 19 C        5.1940     7.8670    -0.3470 C.3   1 <1>  -0.1600 
 20 C        5.7290     4.3880     0.1260 C.3   1 <1>  -0.1600 
 21 C        6.1170     6.4510     1.5000 C.3   1 <1>  -0.1600 
 22 C        6.0710     5.1680    -1.1590 C.3   1 <1>  -0.0800 
 23 C        6.4740     7.2400     0.2290 C.3   1 <1>  -0.0800 
 24 C        7.0790     6.2790    -0.8110 C.3   1 <1>  -0.1600 
 25 H        1.4190     0.3540    -2.5240 H     1 <1>   0.0800 
 26 H       -0.3120     0.3870    -2.8350 H     1 <1>   0.0800 
 27 H        0.3420    -0.6160    -1.5270 H     1 <1>   0.0800 
 28 H       -1.9160    -0.1250    -1.2230 H     1 <1>   0.1500 
 29 H       -2.1130     3.7180     1.8240 H     1 <1>   0.1500 
 30 H       -3.9130     0.2790     0.0860 H     1 <1>   0.1500 
 31 H       -0.4740     4.9160    -0.9150 H     1 <1>   0.0800 
 32 H        0.7900     3.8260    -1.3980 H     1 <1>   0.0800 
 33 H        1.7980     2.2810     0.6160 H     1 <1>   0.0800 
 34 H        1.0700     2.5480     2.1720 H     1 <1>   0.0800 
 35 H       -4.0310     2.1980     1.6170 H     1 <1>   0.1500 
 36 H        1.0470     6.2220     0.4220 H     1 <1>   0.0800 
 37 H        1.7130     6.0470    -1.1770 H     1 <1>   0.0800 
 38 H        3.2770     3.6500     1.9480 H     1 <1>   0.0800 
 39 H        1.9950     4.7690     2.3170 H     1 <1>   0.0800 
 40 H        3.1580     4.3100    -0.3590 H     1 <1>   0.4500 
 41 H        3.4240     6.6890     1.3320 H     1 <1>   0.0800 
 42 H        3.3090     7.2570    -1.1020 H     1 <1>   0.0800 
 43 H        4.9020     4.8140     2.0830 H     1 <1>   0.0800 
 44 H        4.1010     5.0550    -2.0380 H     1 <1>   0.0800 
 45 H        5.0550     6.3760    -2.6200 H     1 <1>   0.0800 
 46 H        4.7750     8.5580     0.3650 H     1 <1>   0.0800 
 47 H        5.4370     8.4290    -1.2330 H     1 <1>   0.0800 
 48 H        5.0690     3.5710    -0.1030 H     1 <1>   0.0800 
 49 H        6.6310     3.9590     0.5300 H     1 <1>   0.0800 
 50 H        7.0110     6.0150     1.9140 H     1 <1>   0.0800 
 51 H        5.7130     7.1190     2.2410 H     1 <1>   0.0800 
 52 H        6.5070     4.5030    -1.8860 H     1 <1>   0.0800 
 53 H        7.1870     8.0130     0.4660 H     1 <1>   0.0800 
 54 H        7.3440     6.8240    -1.7010 H     1 <1>   0.0800 
 55 H        7.9840     5.8430    -0.4220 H     1 <1>   0.0800 
@<TRIPOS>BOND
  1   1   2  1   
  2   1   3  1   
  3   2   4  ar  
  4   2   5  ar  
  5   3  25  1   
  6   3  26  1   
  7   3  27  1   
  8   4   6  1   
  9   4   7  ar  
 10   5   8  ar  
 11   5  28  1   
 12   6   9  1   
 13   6  10  1   
 14   7  11  ar  
 15   7  29  1   
 16   8  11  ar  
 17   8  30  1   
 18   9  12  1   
 19   9  31  1   
 20   9  32  1   
 21  10  13  1   
 22  10  33  1   
 23  10  34  1   
 24  11  35  1   
 25  12  14  1   
 26  12  36  1   
 27  12  37  1   
 28  13  14  1   
 29  13  38  1   
 30  13  39  1   
 31  14  15  1   
 32  14  40  1   
 33  15  16  1   
 34  15  17  1   
 35  15  41  1   
 36  16  18  1   
 37  16  19  1   
 38  16  42  1   
 39  17  20  1   
 40  17  21  1   
 41  17  43  1   
 42  18  22  1   
 43  18  44  1   
 44  18  45  1   
 45  19  23  1   
 46  19  46  1   
 47  19  47  1   
 48  20  22  1   
 49  20  48  1   
 50  20  49  1   
 51  21  23  1   
 52  21  50  1   
 53  21  51  1   
 54  22  24  1   
 55  22  52  1   
 56  23  24  1   
 57  23  53  1   
 58  24  54  1   
 59  24  55  1   
@<TRIPOS>SUBSTRUCTURE
  1 ****  14 GROUP 4 **** **** 0

# MOE 2024.06 (io_trps.svl 2023.06)
