@<TRIPOS>MOLECULE
NONAME
53 54 1 0 0 
SMALL
USER_CHARGES


@<TRIPOS>ATOM
  1 O        4.0540    -3.0240     0.1490 O.3   1 <1>  -0.3630 
  2 C        4.3200    -1.7140     0.3450 C.ar  1 <1>   0.0820 
  3 C        3.2820    -3.3300    -0.9930 C.3   1 <1>   0.1200 
  4 C        5.4730    -1.1570    -0.2010 C.ar  1 <1>  -0.1440 
  5 C        3.4450    -0.9370     1.1010 C.ar  1 <1>  -0.1440 
  6 C        3.1500    -4.8500    -1.1010 C.3   1 <1>   0.2000 
  7 C        5.7270     0.1910    -0.0090 C.ar  1 <1>  -0.1500 
  8 C        6.4590    -1.9970    -1.0000 C.3   1 <1>  -0.0960 
  9 C        3.7210     0.4090     1.2790 C.ar  1 <1>  -0.1500 
 10 C        2.1980    -1.5330     1.7380 C.3   1 <1>  -0.0960 
 11 O        2.2690    -5.1620    -2.1190 O.3   1 <1>  -0.6800 
 12 C        2.6060    -5.5020     0.1850 C.3   1 <1>   0.1100 
 13 C        4.8570     0.9780     0.7270 C.ar  1 <1>  -0.1430 
 14 N        2.0590    -6.8680    -0.0580 N.3   1 <1>  -0.8100 
 15 C        5.1460     2.4550     0.9270 C.3   1 <1>  -0.0970 
 16 C        1.2270    -7.3030     1.0820 C.3   1 <1>   0.1100 
 17 C        3.1340    -7.8480    -0.3360 C.3   1 <1>   0.1100 
 18 C        0.6330    -8.7080     0.8480 C.3   1 <1>   0.3430 
 19 C        2.5670    -9.2610    -0.5830 C.3   1 <1>   0.3430 
 20 N        1.7020    -9.7270     0.5590 N.4   1 <1>  -0.9590 
 21 C        1.1000   -11.0610     0.3070 C.3   1 <1>   0.3430 
 22 C        2.1780   -12.1350     0.3880 C.3   1 <1>  -0.2400 
 23 H        3.7770    -2.9320    -1.8600 H     1 <1>   0.0800 
 24 H        2.3160    -2.8700    -0.8800 H     1 <1>   0.0800 
 25 H        4.1060    -5.2700    -1.3570 H     1 <1>   0.0800 
 26 H        6.6100     0.6340    -0.4330 H     1 <1>   0.1500 
 27 H        6.6040    -2.9510    -0.5240 H     1 <1>   0.0800 
 28 H        7.4140    -1.5070    -1.0640 H     1 <1>   0.0800 
 29 H        6.0840    -2.1550    -1.9940 H     1 <1>   0.0800 
 30 H        3.0490     1.0210     1.8530 H     1 <1>   0.1500 
 31 H        2.4220    -2.4960     2.1600 H     1 <1>   0.0800 
 32 H        1.4270    -1.6440     0.9980 H     1 <1>   0.0800 
 33 H        1.8320    -0.8990     2.5250 H     1 <1>   0.0800 
 34 H        1.7820    -5.9580    -1.8070 H     1 <1>   0.4000 
 35 H        1.8210    -4.8680     0.5620 H     1 <1>   0.0800 
 36 H        3.3820    -5.5280     0.9320 H     1 <1>   0.0800 
 37 H        6.2060     2.6340     0.9300 H     1 <1>   0.0800 
 38 H        4.7440     2.7930     1.8650 H     1 <1>   0.0800 
 39 H        4.6990     3.0230     0.1310 H     1 <1>   0.0800 
 40 H        0.4160    -6.6060     1.2130 H     1 <1>   0.0800 
 41 H        1.8110    -7.3030     1.9870 H     1 <1>   0.0800 
 42 H        3.8290    -7.8770     0.4870 H     1 <1>   0.0800 
 43 H        3.6780    -7.5450    -1.2140 H     1 <1>   0.0800 
 44 H       -0.0490    -8.6520     0.0160 H     1 <1>   0.0800 
 45 H        0.0710    -9.0030     1.7190 H     1 <1>   0.0800 
 46 H        3.3850    -9.9450    -0.7290 H     1 <1>   0.0800 
 47 H        1.9870    -9.2390    -1.4910 H     1 <1>   0.0800 
 48 H        2.2980    -9.7940     1.3930 H     1 <1>   0.4500 
 49 H        0.6280   -11.0800    -0.6630 H     1 <1>   0.0800 
 50 H        0.3480   -11.2670     1.0520 H     1 <1>   0.0800 
 51 H        2.9030   -12.0290    -0.3980 H     1 <1>   0.0800 
 52 H        1.7190   -13.1010     0.2760 H     1 <1>   0.0800 
 53 H        2.6710   -12.1140     1.3440 H     1 <1>   0.0800 
@<TRIPOS>BOND
  1   1   2  1   
  2   1   3  1   
  3   2   4  ar  
  4   2   5  ar  
  5   3   6  1   
  6   3  23  1   
  7   3  24  1   
  8   4   7  ar  
  9   4   8  1   
 10   5   9  ar  
 11   5  10  1   
 12   6  11  1   
 13   6  12  1   
 14   6  25  1   
 15   7  13  ar  
 16   7  26  1   
 17   8  27  1   
 18   8  28  1   
 19   8  29  1   
 20   9  13  ar  
 21   9  30  1   
 22  10  31  1   
 23  10  32  1   
 24  10  33  1   
 25  11  34  1   
 26  12  14  1   
 27  12  35  1   
 28  12  36  1   
 29  13  15  1   
 30  14  16  1   
 31  14  17  1   
 32  15  37  1   
 33  15  38  1   
 34  15  39  1   
 35  16  18  1   
 36  16  40  1   
 37  16  41  1   
 38  17  19  1   
 39  17  42  1   
 40  17  43  1   
 41  18  20  1   
 42  18  44  1   
 43  18  45  1   
 44  19  20  1   
 45  19  46  1   
 46  19  47  1   
 47  20  21  1   
 48  20  48  1   
 49  21  22  1   
 50  21  49  1   
 51  21  50  1   
 52  22  51  1   
 53  22  52  1   
 54  22  53  1   
@<TRIPOS>SUBSTRUCTURE
  1 ****  12 GROUP 4 **** **** 0

# MOE 2024.06 (io_trps.svl 2023.06)
