@<TRIPOS>MOLECULE
NONAME
36 38 1 0 0 
SMALL
USER_CHARGES


@<TRIPOS>ATOM
  1 CL      -1.8500    -1.3040    -0.4430 Cl    1 <1>  -0.1770 
  2 C       -0.6800    -2.5470    -0.0680 C.ar  1 <1>   0.4870 
  3 N       -1.1390    -3.5770     0.6130 N.ar  1 <1>  -0.6200 
  4 C        0.6220    -2.3960    -0.5050 C.ar  1 <1>   0.1000 
  5 C       -0.2330    -4.4980     0.8550 C.ar  1 <1>   0.4700 
  6 N        1.0810    -1.2870    -1.2650 N.pl3 1 <1>  -0.9000 
  7 C        1.4730    -3.4570    -0.1570 C.ar  1 <1>   0.4100 
  8 N        1.0430    -4.5070     0.5110 N.ar  1 <1>  -0.6200 
  9 N        2.8200    -3.4340    -0.5030 N.pl3 1 <1>  -0.8380 
 10 C        3.5420    -4.7370    -0.7090 C.3   1 <1>   0.2090 
 11 C        3.6570    -2.3450     0.1090 C.3   1 <1>   0.2090 
 12 C        5.0060    -4.5220    -1.1390 C.3   1 <1>   0.2090 
 13 C        4.9460    -2.8670     0.7720 C.3   1 <1>   0.2090 
 14 N        5.7890    -3.6800    -0.1650 N.pl3 1 <1>  -0.8380 
 15 C        6.9440    -4.2030     0.4020 C.ar  1 <1>   0.4100 
 16 N        6.9150    -5.4640     0.7780 N.ar  1 <1>  -0.6200 
 17 C        8.0750    -3.3940     0.5740 C.ar  1 <1>   0.1000 
 18 C        8.0230    -5.9290     1.3300 C.ar  1 <1>   0.4700 
 19 N        8.0840    -2.0400     0.1500 N.pl3 1 <1>  -0.9000 
 20 C        9.1470    -4.0380     1.1620 C.ar  1 <1>   0.4870 
 21 N        9.1550    -5.2980     1.5510 N.ar  1 <1>  -0.6200 
 22 CL      10.6350    -3.1560     1.4150 Cl    1 <1>  -0.1770 
 23 H       -0.5740    -5.3590     1.4070 H     1 <1>   0.1500 
 24 H        1.9120    -1.5380    -1.8160 H     1 <1>   0.4000 
 25 H        0.3660    -0.8420    -1.8520 H     1 <1>   0.4000 
 26 H        3.0280    -5.3080    -1.4610 H     1 <1>   0.0800 
 27 H        3.5320    -5.3060     0.2040 H     1 <1>   0.0800 
 28 H        3.9290    -1.6430    -0.6590 H     1 <1>   0.0800 
 29 H        3.0790    -1.8150     0.8460 H     1 <1>   0.0800 
 30 H        5.4750    -5.4810    -1.2700 H     1 <1>   0.0800 
 31 H        5.0100    -4.0320    -2.0960 H     1 <1>   0.0800 
 32 H        4.6790    -3.4710     1.6220 H     1 <1>   0.0800 
 33 H        5.5190    -2.0300     1.1340 H     1 <1>   0.0800 
 34 H        7.9930    -6.9620     1.6380 H     1 <1>   0.1500 
 35 H        8.9890    -1.6980    -0.1910 H     1 <1>   0.4000 
 36 H        7.3370    -1.8720    -0.5380 H     1 <1>   0.4000 
@<TRIPOS>BOND
  1   1   2  1   
  2   2   3  ar  
  3   2   4  ar  
  4   3   5  ar  
  5   4   6  1   
  6   4   7  ar  
  7   5   8  ar  
  8   5  23  1   
  9   6  24  1   
 10   6  25  1   
 11   7   8  ar  
 12   7   9  1   
 13   9  10  1   
 14   9  11  1   
 15  10  12  1   
 16  10  26  1   
 17  10  27  1   
 18  11  13  1   
 19  11  28  1   
 20  11  29  1   
 21  12  14  1   
 22  12  30  1   
 23  12  31  1   
 24  13  14  1   
 25  13  32  1   
 26  13  33  1   
 27  14  15  1   
 28  15  16  ar  
 29  15  17  ar  
 30  16  18  ar  
 31  17  19  1   
 32  17  20  ar  
 33  18  21  ar  
 34  18  34  1   
 35  19  35  1   
 36  19  36  1   
 37  20  21  ar  
 38  20  22  1   
@<TRIPOS>SUBSTRUCTURE
  1 ****  13 GROUP 4 **** **** 0

# MOE 2024.06 (io_trps.svl 2023.06)
