@<TRIPOS>MOLECULE
NONAME
38 39 1 0 0 
SMALL
USER_CHARGES


@<TRIPOS>ATOM
  1 CL      -2.9120     0.5280    -2.4010 Cl    1 <1>  -0.1770 
  2 C       -1.7810     1.6080    -1.6130 C.ar  1 <1>   0.1770 
  3 C       -2.0940     2.1630    -0.3740 C.ar  1 <1>   0.0830 
  4 C       -0.5890     1.8890    -2.2520 C.ar  1 <1>  -0.1500 
  5 O       -3.2870     1.8340     0.1850 O.3   1 <1>  -0.3630 
  6 C       -1.1780     3.0230     0.2330 C.ar  1 <1>  -0.1500 
  7 C        0.3020     2.7440    -1.6320 C.ar  1 <1>   0.1770 
  8 C       -3.7860     2.4880     1.3410 C.3   1 <1>   0.1810 
  9 C        0.0210     3.3120    -0.4010 C.ar  1 <1>  -0.1500 
 10 CL       1.8150     3.1170    -2.4180 Cl    1 <1>  -0.1770 
 11 C       -5.1820     1.9770     1.6570 C.2   1 <1>   0.6590 
 12 O       -5.4580     1.4930     2.7250 O.2   1 <1>  -0.5700 
 13 O       -6.0800     2.0680     0.6810 O.3   1 <1>  -0.4300 
 14 C       -7.3580     1.4920     0.7760 C.3   1 <1>   0.2000 
 15 C       -7.2300    -0.0110     0.5040 C.3   1 <1>  -0.1600 
 16 C       -8.2450     2.1690    -0.2680 C.3   1 <1>  -0.1600 
 17 C       -8.6030    -0.6630     0.3900 C.3   1 <1>   0.3430 
 18 C       -9.5980     1.4720    -0.3700 C.3   1 <1>   0.3430 
 19 N       -9.3980     0.0240    -0.6710 N.4   1 <1>  -0.9590 
 20 C      -10.7070    -0.6650    -0.8840 C.3   1 <1>   0.2630 
 21 H       -0.3600     1.4540    -3.2070 H     1 <1>   0.1500 
 22 H       -1.3730     3.4700     1.1890 H     1 <1>   0.1500 
 23 H       -3.8230     3.5440     1.1480 H     1 <1>   0.0800 
 24 H       -3.1290     2.2770     2.1640 H     1 <1>   0.0800 
 25 H        0.7390     3.9730     0.0520 H     1 <1>   0.1500 
 26 H       -7.7470     1.6720     1.7660 H     1 <1>   0.0800 
 27 H       -6.6960    -0.4780     1.3130 H     1 <1>   0.0800 
 28 H       -6.6770    -0.1780    -0.4040 H     1 <1>   0.0800 
 29 H       -7.7620     2.1520    -1.2300 H     1 <1>   0.0800 
 30 H       -8.4000     3.1960     0.0110 H     1 <1>   0.0800 
 31 H       -9.1160    -0.5930     1.3360 H     1 <1>   0.0800 
 32 H       -8.4830    -1.7070     0.1460 H     1 <1>   0.0800 
 33 H      -10.1810     1.9350    -1.1500 H     1 <1>   0.0800 
 34 H      -10.1310     1.5810     0.5620 H     1 <1>   0.0800 
 35 H       -8.8530    -0.0350    -1.5450 H     1 <1>   0.4500 
 36 H      -11.3030    -0.6240     0.0130 H     1 <1>   0.0800 
 37 H      -10.5480    -1.6990    -1.1460 H     1 <1>   0.0800 
 38 H      -11.2530    -0.1910    -1.6840 H     1 <1>   0.0800 
@<TRIPOS>BOND
  1   1   2  1   
  2   2   3  ar  
  3   2   4  ar  
  4   3   5  1   
  5   3   6  ar  
  6   4   7  ar  
  7   4  21  1   
  8   5   8  1   
  9   6   9  ar  
 10   6  22  1   
 11   7   9  ar  
 12   7  10  1   
 13   8  11  1   
 14   8  23  1   
 15   8  24  1   
 16   9  25  1   
 17  11  12  2   
 18  11  13  1   
 19  13  14  1   
 20  14  15  1   
 21  14  16  1   
 22  14  26  1   
 23  15  17  1   
 24  15  27  1   
 25  15  28  1   
 26  16  18  1   
 27  16  29  1   
 28  16  30  1   
 29  17  19  1   
 30  17  31  1   
 31  17  32  1   
 32  18  19  1   
 33  18  33  1   
 34  18  34  1   
 35  19  20  1   
 36  19  35  1   
 37  20  36  1   
 38  20  37  1   
 39  20  38  1   
@<TRIPOS>SUBSTRUCTURE
  1 ****   5 GROUP 4 **** **** 0

# MOE 2024.06 (io_trps.svl 2023.06)
