@<TRIPOS>MOLECULE
NONAME
49 50 1 0 0 
SMALL
USER_CHARGES


@<TRIPOS>ATOM
  1 O        0.2230     0.6540    -0.1090 O.2   1 <1>  -0.5700 
  2 C        0.1040     1.8230    -0.4250 C.2   1 <1>   0.5440 
  3 N        1.1940     2.4940    -0.9490 N.am  1 <1>  -0.6600 
  4 C       -1.1780     2.4710    -0.2320 C.ar  1 <1>   0.0860 
  5 C        1.2710     3.9770    -1.0660 C.3   1 <1>   0.1400 
  6 C        2.4550     1.7780    -1.2950 C.3   1 <1>   0.1400 
  7 C       -1.7730     2.5200     1.0280 C.ar  1 <1>  -0.1500 
  8 C       -1.8660     3.0620    -1.2930 C.ar  1 <1>  -0.1500 
  9 C        2.4160     4.5060    -0.1980 C.3   1 <1>  -0.1600 
 10 C        3.6010     2.2940    -0.4220 C.3   1 <1>  -0.1600 
 11 C       -2.9900     3.1440     1.2310 C.ar  1 <1>  -0.1500 
 12 C       -3.0820     3.6900    -1.0990 C.ar  1 <1>  -0.1500 
 13 C        3.7550     3.8210    -0.5340 C.3   1 <1>  -0.0190 
 14 C       -3.6540     3.7400     0.1620 C.ar  1 <1>   0.0830 
 15 C        4.9060     4.3200     0.3400 C.2   1 <1>   0.5690 
 16 O       -4.8420     4.3740     0.2710 O.3   1 <1>  -0.3630 
 17 O        4.7040     4.6100     1.4950 O.2   1 <1>  -0.5700 
 18 N        6.1410     4.4140    -0.2180 N.am  1 <1>  -0.7300 
 19 C       -5.5300     4.4560     1.5000 C.3   1 <1>   0.0400 
 20 C        7.3630     4.8430     0.4950 C.3   1 <1>   0.1400 
 21 C        8.4400     3.7720     0.3260 C.3   1 <1>  -0.1600 
 22 C        9.7320     4.1670     1.0510 C.3   1 <1>  -0.1600 
 23 C       10.8090     3.0910     0.8820 C.3   1 <1>  -0.2400 
 24 H        0.3530     4.4400    -0.7480 H     1 <1>   0.0800 
 25 H        1.4380     4.2390    -2.0960 H     1 <1>   0.0800 
 26 H        2.6770     1.9490    -2.3340 H     1 <1>   0.0800 
 27 H        2.3450     0.7160    -1.1540 H     1 <1>   0.0800 
 28 H       -1.2630     2.0540     1.8530 H     1 <1>   0.1500 
 29 H       -1.4350     3.0220    -2.2780 H     1 <1>   0.1500 
 30 H        2.1700     4.3350     0.8360 H     1 <1>   0.0800 
 31 H        2.5090     5.5690    -0.3370 H     1 <1>   0.0800 
 32 H        4.5160     1.8110    -0.7160 H     1 <1>   0.0800 
 33 H        3.4050     2.0240     0.6020 H     1 <1>   0.0800 
 34 H       -3.4050     3.1570     2.2210 H     1 <1>   0.1500 
 35 H       -3.6020     4.1430    -1.9240 H     1 <1>   0.1500 
 36 H        3.9960     4.0600    -1.5550 H     1 <1>   0.0800 
 37 H        6.2760     4.1520    -1.1940 H     1 <1>   0.3700 
 38 H       -6.4470     4.9920     1.3350 H     1 <1>   0.0800 
 39 H       -4.9180     4.9870     2.2080 H     1 <1>   0.0800 
 40 H       -5.7450     3.4600     1.8460 H     1 <1>   0.0800 
 41 H        7.1480     4.9850     1.5420 H     1 <1>   0.0800 
 42 H        7.7010     5.7810     0.0880 H     1 <1>   0.0800 
 43 H        8.6480     3.6360    -0.7210 H     1 <1>   0.0800 
 44 H        8.0750     2.8440     0.7310 H     1 <1>   0.0800 
 45 H        9.5300     4.3020     2.1010 H     1 <1>   0.0800 
 46 H       10.1000     5.1000     0.6590 H     1 <1>   0.0800 
 47 H       10.4730     2.1540     1.2890 H     1 <1>   0.0800 
 48 H       11.7060     3.3850     1.3990 H     1 <1>   0.0800 
 49 H       11.0450     2.9530    -0.1580 H     1 <1>   0.0800 
@<TRIPOS>BOND
  1   1   2  2   
  2   2   3  am  
  3   2   4  1   
  4   3   5  1   
  5   3   6  1   
  6   4   7  ar  
  7   4   8  ar  
  8   5   9  1   
  9   5  24  1   
 10   5  25  1   
 11   6  10  1   
 12   6  26  1   
 13   6  27  1   
 14   7  11  ar  
 15   7  28  1   
 16   8  12  ar  
 17   8  29  1   
 18   9  13  1   
 19   9  30  1   
 20   9  31  1   
 21  10  13  1   
 22  10  32  1   
 23  10  33  1   
 24  11  14  ar  
 25  11  34  1   
 26  12  14  ar  
 27  12  35  1   
 28  13  15  1   
 29  13  36  1   
 30  14  16  1   
 31  15  17  2   
 32  15  18  am  
 33  16  19  1   
 34  18  20  1   
 35  18  37  1   
 36  19  38  1   
 37  19  39  1   
 38  19  40  1   
 39  20  21  1   
 40  20  41  1   
 41  20  42  1   
 42  21  22  1   
 43  21  43  1   
 44  21  44  1   
 45  22  23  1   
 46  22  45  1   
 47  22  46  1   
 48  23  47  1   
 49  23  48  1   
 50  23  49  1   
@<TRIPOS>SUBSTRUCTURE
  1 ****   9 GROUP 4 **** **** 0

# MOE 2024.06 (io_trps.svl 2023.06)
