@<TRIPOS>MOLECULE
NONAME
53 57 1 0 0 
SMALL
USER_CHARGES


@<TRIPOS>ATOM
  1 O        0.1300     0.4880     0.2240 O.2   1 <1>  -0.5700 
  2 C        0.7810    -0.5150     0.1390 C.2   1 <1>   0.4480 
  3 C        0.2320    -1.9000     0.5170 C.3   1 <1>   0.0610 
  4 C        2.2170    -0.5510    -0.4030 C.3   1 <1>   0.0610 
  5 C       -1.2270    -1.8450     1.0870 C.3   1 <1>  -0.0800 
  6 C        1.2240    -2.5140     1.5320 C.3   1 <1>   0.1100 
  7 C        0.3030    -2.7290    -0.7880 C.3   1 <1>   0.1100 
  8 C        2.8640     0.8260    -0.7800 C.3   1 <1>  -0.0800 
  9 C        3.0680    -1.2510     0.6800 C.3   1 <1>   0.1100 
 10 C        2.1560    -1.4680    -1.6440 C.3   1 <1>   0.1100 
 11 C       -1.3230    -1.1620     2.4660 C.3   1 <1>  -0.2400 
 12 C       -1.9150    -3.2200     1.1990 C.3   1 <1>  -0.2400 
 13 N        2.5800    -2.6160     0.9440 N.3   1 <1>  -0.8100 
 14 N        1.6990    -2.8210    -1.2800 N.3   1 <1>  -0.8100 
 15 C        3.0060     1.7990     0.4070 C.3   1 <1>  -0.2400 
 16 C        2.1610     1.5630    -1.9380 C.3   1 <1>  -0.2400 
 17 C        2.5780    -3.5040    -0.2690 C.3   1 <1>   0.7440 
 18 C        2.1540    -5.0010     0.0380 C.2   1 <1>   0.5690 
 19 C        4.0120    -3.7920    -0.8100 C.ar  1 <1>  -0.1440 
 20 O        1.1090    -5.4170     0.4970 O.2   1 <1>  -0.5700 
 21 N        3.1560    -5.8460    -0.2860 N.am  1 <1>  -0.5470 
 22 C        4.2420    -5.1610    -0.7780 C.ar  1 <1>   0.1170 
 23 C        5.0380    -2.9790    -1.2880 C.ar  1 <1>  -0.1500 
 24 C        5.4340    -5.7270    -1.2000 C.ar  1 <1>  -0.1500 
 25 C        6.2370    -3.5320    -1.7130 C.ar  1 <1>  -0.1500 
 26 C        6.4380    -4.9020    -1.6700 C.ar  1 <1>  -0.1500 
 27 H       -1.8160    -1.2570     0.4020 H     1 <1>   0.0800 
 28 H        1.2760    -1.8950     2.4100 H     1 <1>   0.0800 
 29 H        0.8860    -3.4800     1.8580 H     1 <1>   0.0800 
 30 H       -0.3110    -2.2640    -1.5410 H     1 <1>   0.0800 
 31 H       -0.0880    -3.7170    -0.6420 H     1 <1>   0.0800 
 32 H        3.8640     0.6190    -1.1220 H     1 <1>   0.0800 
 33 H        3.0110    -0.6910     1.5980 H     1 <1>   0.0800 
 34 H        4.1050    -1.2760     0.4120 H     1 <1>   0.0800 
 35 H        1.4590    -1.0610    -2.3570 H     1 <1>   0.0800 
 36 H        3.1000    -1.5190    -2.1460 H     1 <1>   0.0800 
 37 H       -0.8710    -1.7660     3.2330 H     1 <1>   0.0800 
 38 H       -2.3550    -1.0090     2.7290 H     1 <1>   0.0800 
 39 H       -0.8450    -0.1990     2.4600 H     1 <1>   0.0800 
 40 H       -1.3340    -3.9020     1.7940 H     1 <1>   0.0800 
 41 H       -2.0740    -3.6580     0.2300 H     1 <1>   0.0800 
 42 H       -2.8820    -3.1150     1.6590 H     1 <1>   0.0800 
 43 H        2.0460     2.0490     0.8210 H     1 <1>   0.0800 
 44 H        3.4730     2.7120     0.0820 H     1 <1>   0.0800 
 45 H        3.6210     1.3870     1.1860 H     1 <1>   0.0800 
 46 H        1.1400     1.7950    -1.6890 H     1 <1>   0.0800 
 47 H        2.1710     0.9830    -2.8410 H     1 <1>   0.0800 
 48 H        2.6660     2.4890    -2.1480 H     1 <1>   0.0800 
 49 H        3.0750    -6.8530    -0.1580 H     1 <1>   0.3700 
 50 H        4.9450    -1.9140    -1.3450 H     1 <1>   0.1500 
 51 H        5.5730    -6.7910    -1.1590 H     1 <1>   0.1500 
 52 H        7.0210    -2.8920    -2.0800 H     1 <1>   0.1500 
 53 H        7.3720    -5.3210    -2.0020 H     1 <1>   0.1500 
@<TRIPOS>BOND
  1   1   2  2   
  2   2   3  1   
  3   2   4  1   
  4   3   5  1   
  5   3   6  1   
  6   3   7  1   
  7   4   8  1   
  8   4   9  1   
  9   4  10  1   
 10   5  11  1   
 11   5  12  1   
 12   5  27  1   
 13   6  13  1   
 14   6  28  1   
 15   6  29  1   
 16   7  14  1   
 17   7  30  1   
 18   7  31  1   
 19   8  15  1   
 20   8  16  1   
 21   8  32  1   
 22   9  13  1   
 23   9  33  1   
 24   9  34  1   
 25  10  14  1   
 26  10  35  1   
 27  10  36  1   
 28  11  37  1   
 29  11  38  1   
 30  11  39  1   
 31  12  40  1   
 32  12  41  1   
 33  12  42  1   
 34  13  17  1   
 35  14  17  1   
 36  15  43  1   
 37  15  44  1   
 38  15  45  1   
 39  16  46  1   
 40  16  47  1   
 41  16  48  1   
 42  17  18  1   
 43  17  19  1   
 44  18  20  2   
 45  18  21  am  
 46  19  22  ar  
 47  19  23  ar  
 48  21  22  1   
 49  21  49  1   
 50  22  24  ar  
 51  23  25  ar  
 52  23  50  1   
 53  24  26  ar  
 54  24  51  1   
 55  25  26  ar  
 56  25  52  1   
 57  26  53  1   
@<TRIPOS>SUBSTRUCTURE
  1 ****  17 GROUP 4 **** **** 0

# MOE 2024.06 (io_trps.svl 2023.06)
