@<TRIPOS>MOLECULE
NONAME
29 29 1 0 0 
SMALL
USER_CHARGES


@<TRIPOS>ATOM
  1 O        0.4370     0.1240     0.0740 O.2   1 <1>  -0.5700 
  2 C        1.4430     0.8110     0.0250 C.2   1 <1>   0.6900 
  3 N        2.7040     0.2240     0.1070 N.am  1 <1>  -0.4690 
  4 N        1.3280     2.1820    -0.1070 N.am  1 <1>  -0.4200 
  5 C        3.8480     1.0090     0.1240 C.2   1 <1>   0.2090 
  6 C        2.8110    -1.2670     0.1640 C.3   1 <1>   0.0600 
  7 C        2.4610     2.9720    -0.0940 C.2   1 <1>   0.6160 
  8 C       -0.0180     2.8170    -0.2170 C.3   1 <1>   0.0600 
  9 N        5.0550     0.3720     0.2520 N.pl3 1 <1>  -0.8690 
 10 C        3.7160     2.3590     0.0240 C.2   1 <1>  -0.1360 
 11 O        2.3590     4.1900    -0.1780 O.2   1 <1>  -0.5700 
 12 C        6.3950     0.9920     0.2110 C.3   1 <1>   0.2090 
 13 C        7.4200    -0.0800    -0.1530 C.3   1 <1>  -0.1600 
 14 C        8.8380     0.5010    -0.2250 C.3   1 <1>  -0.2400 
 15 H        1.8610    -1.7390    -0.0120 H     1 <1>   0.0800 
 16 H        3.1670    -1.5620     1.1340 H     1 <1>   0.0800 
 17 H        3.4960    -1.6090    -0.5920 H     1 <1>   0.0800 
 18 H       -0.7230     2.1360    -0.6620 H     1 <1>   0.0800 
 19 H        0.0340     3.6980    -0.8330 H     1 <1>   0.0800 
 20 H       -0.3640     3.0910     0.7630 H     1 <1>   0.0800 
 21 H        5.0600    -0.6350     0.4260 H     1 <1>   0.4000 
 22 H        4.5620     3.0140     0.0370 H     1 <1>   0.1500 
 23 H        6.6230     1.4120     1.1770 H     1 <1>   0.0800 
 24 H        6.4120     1.7780    -0.5260 H     1 <1>   0.0800 
 25 H        7.1650    -0.5010    -1.1100 H     1 <1>   0.0800 
 26 H        7.3990    -0.8610     0.5860 H     1 <1>   0.0800 
 27 H        8.8920     1.2730    -0.9720 H     1 <1>   0.0800 
 28 H        9.5390    -0.2730    -0.4840 H     1 <1>   0.0800 
 29 H        9.1240     0.9160     0.7260 H     1 <1>   0.0800 
@<TRIPOS>BOND
  1   1   2  2   
  2   2   3  am  
  3   2   4  am  
  4   3   5  1   
  5   3   6  1   
  6   4   7  am  
  7   4   8  1   
  8   5   9  1   
  9   5  10  2   
 10   6  15  1   
 11   6  16  1   
 12   6  17  1   
 13   7  10  1   
 14   7  11  2   
 15   8  18  1   
 16   8  19  1   
 17   8  20  1   
 18   9  12  1   
 19   9  21  1   
 20  10  22  1   
 21  12  13  1   
 22  12  23  1   
 23  12  24  1   
 24  13  14  1   
 25  13  25  1   
 26  13  26  1   
 27  14  27  1   
 28  14  28  1   
 29  14  29  1   
@<TRIPOS>SUBSTRUCTURE
  1 ****   5 GROUP 4 **** **** 0

# MOE 2024.06 (io_trps.svl 2023.06)
