@<TRIPOS>MOLECULE
NONAME
44 47 1 0 0 
SMALL
USER_CHARGES


@<TRIPOS>ATOM
  1 S        0.0640    -0.1170     1.4520 S.3   1 <1>  -0.0800 
  2 C       -1.4790    -0.0910     0.6140 C.2   1 <1>   0.4340 
  3 C        0.4570    -1.5870     0.5800 C.ar  1 <1>   0.0400 
  4 S       -2.5540     1.2700     1.0250 S.3   1 <1>  -0.2860 
  5 N       -1.6990    -1.0340    -0.2090 N.2   1 <1>  -0.5650 
  6 C       -0.6100    -1.9000    -0.2460 C.ar  1 <1>   0.2270 
  7 C        1.6090    -2.3430     0.6590 C.ar  1 <1>  -0.1500 
  8 C       -4.0620     0.9630     0.0080 C.3   1 <1>   0.1500 
  9 C       -0.5080    -3.0370    -1.0330 C.ar  1 <1>  -0.1500 
 10 C        1.7090    -3.4830    -0.1320 C.ar  1 <1>   0.1170 
 11 C       -4.7540     2.3090    -0.1950 C.3   1 <1>  -0.2400 
 12 C       -4.9410    -0.0330     0.7640 C.3   1 <1>  -0.2400 
 13 C        0.6370    -3.8130    -0.9730 C.ar  1 <1>  -0.1500 
 14 N        2.8660    -4.2910    -0.0900 N.am  1 <1>  -0.2370 
 15 C        2.8810    -5.6630     0.0280 C.2   1 <1>   0.5690 
 16 C        4.1630    -3.8330    -0.1570 C.2   1 <1>   0.5690 
 17 O        1.9390    -6.4100    -0.0420 O.2   1 <1>  -0.5700 
 18 C        4.2960    -6.1320     0.2940 C.3   1 <1>  -0.0190 
 19 O        4.5330    -2.6880    -0.1050 O.2   1 <1>  -0.5700 
 20 C        5.1050    -5.0040    -0.3340 C.3   1 <1>  -0.0190 
 21 C        4.8350    -7.4780    -0.2020 C.3   1 <1>  -0.1600 
 22 C        6.5270    -5.0230     0.2350 C.3   1 <1>  -0.1600 
 23 C        6.3080    -7.6010     0.2460 C.3   1 <1>  -0.1600 
 24 C        7.1750    -6.3770    -0.1330 C.3   1 <1>  -0.1600 
 25 H        2.4070    -2.0460     1.3160 H     1 <1>   0.1500 
 26 H       -3.7350     0.5560    -0.9340 H     1 <1>   0.0800 
 27 H       -1.3270    -3.2990    -1.6790 H     1 <1>   0.1500 
 28 H       -5.0320     2.7360     0.7520 H     1 <1>   0.0800 
 29 H       -5.6400     2.1820    -0.7910 H     1 <1>   0.0800 
 30 H       -4.0940     2.9880    -0.7040 H     1 <1>   0.0800 
 31 H       -5.2110     0.3590     1.7280 H     1 <1>   0.0800 
 32 H       -4.4140    -0.9610     0.8990 H     1 <1>   0.0800 
 33 H       -5.8380    -0.2300     0.2050 H     1 <1>   0.0800 
 34 H        0.7030    -4.6960    -1.5860 H     1 <1>   0.1500 
 35 H        4.4120    -6.1030     1.3650 H     1 <1>   0.0800 
 36 H        5.1710    -5.1600    -1.3980 H     1 <1>   0.0800 
 37 H        4.7640    -7.5390    -1.2740 H     1 <1>   0.0800 
 38 H        4.2530    -8.2820     0.2170 H     1 <1>   0.0800 
 39 H        6.5050    -4.8980     1.3040 H     1 <1>   0.0800 
 40 H        7.1010    -4.2140    -0.1840 H     1 <1>   0.0800 
 41 H        6.7390    -8.4910    -0.1810 H     1 <1>   0.0800 
 42 H        6.3340    -7.7180     1.3170 H     1 <1>   0.0800 
 43 H        8.1360    -6.4560     0.3460 H     1 <1>   0.0800 
 44 H        7.3470    -6.3980    -1.1960 H     1 <1>   0.0800 
@<TRIPOS>BOND
  1   1   2  1   
  2   1   3  1   
  3   2   4  1   
  4   2   5  2   
  5   3   6  ar  
  6   3   7  ar  
  7   4   8  1   
  8   5   6  1   
  9   6   9  ar  
 10   7  10  ar  
 11   7  25  1   
 12   8  11  1   
 13   8  12  1   
 14   8  26  1   
 15   9  13  ar  
 16   9  27  1   
 17  10  13  ar  
 18  10  14  1   
 19  11  28  1   
 20  11  29  1   
 21  11  30  1   
 22  12  31  1   
 23  12  32  1   
 24  12  33  1   
 25  13  34  1   
 26  14  15  am  
 27  14  16  am  
 28  15  17  2   
 29  15  18  1   
 30  16  19  2   
 31  16  20  1   
 32  18  20  1   
 33  18  21  1   
 34  18  35  1   
 35  20  22  1   
 36  20  36  1   
 37  21  23  1   
 38  21  37  1   
 39  21  38  1   
 40  22  24  1   
 41  22  39  1   
 42  22  40  1   
 43  23  24  1   
 44  23  41  1   
 45  23  42  1   
 46  24  43  1   
 47  24  44  1   
@<TRIPOS>SUBSTRUCTURE
  1 ****  10 GROUP 4 **** **** 0

# MOE 2024.06 (io_trps.svl 2023.06)
