@<TRIPOS>MOLECULE
NONAME
47 49 1 0 0 
SMALL
USER_CHARGES


@<TRIPOS>ATOM
  1 S        0.0840    -0.1450     0.3790 S.3   1 <1>  -0.0800 
  2 C        1.0900     1.2790     0.2730 C.2   1 <1>   0.1660 
  3 C       -1.3770     0.8340     0.3960 C.2   1 <1>  -0.1400 
  4 N        2.4380     1.1930     0.2200 N.2   1 <1>  -0.5760 
  5 C        0.3440     2.4140     0.2530 C.2   1 <1>  -0.0860 
  6 C       -1.0740     2.1470     0.3240 C.2   1 <1>  -0.1810 
  7 C       -2.6770     0.0560     0.4850 C.3   1 <1>  -0.0600 
  8 C        3.0390     2.3280     0.1440 C.2   1 <1>   0.6510 
  9 C        1.0680     3.6440     0.1680 C.2   1 <1>   0.7160 
 10 C       -2.0820     3.2880     0.3160 C.3   1 <1>  -0.0590 
 11 S        4.8230     2.2770     0.0720 S.3   1 <1>  -0.3710 
 12 N        2.4510     3.5790     0.1130 N.am  1 <1>  -0.2370 
 13 O        0.5050     4.7300     0.1430 O.2   1 <1>  -0.5700 
 14 C        5.2360     0.4580     0.1360 C.3   1 <1>   0.1310 
 15 C        3.2200     4.7590     0.0280 C.ar  1 <1>   0.1170 
 16 C        6.7370     0.2090     0.0850 C.2   1 <1>   0.5690 
 17 C        3.5570     5.2950    -1.2100 C.ar  1 <1>  -0.1500 
 18 C        3.6570     5.4010     1.1810 C.ar  1 <1>  -0.1500 
 19 O        7.1180    -0.9360     0.1210 O.2   1 <1>  -0.5700 
 20 N        7.5890     1.2710     0.0020 N.am  1 <1>  -0.7300 
 21 C        4.3230     6.4440    -1.2940 C.ar  1 <1>  -0.1500 
 22 C        4.4230     6.5500     1.0990 C.ar  1 <1>  -0.1500 
 23 C        9.0610     1.2780    -0.0590 C.3   1 <1>   0.2200 
 24 C        4.7580     7.0710    -0.1390 C.ar  1 <1>  -0.1500 
 25 C        9.5370     0.5520    -1.3150 C.3   1 <1>  -0.2400 
 26 C        9.6410     0.6670     1.2140 C.3   1 <1>  -0.2400 
 27 H       -2.7620    -0.6060    -0.3570 H     1 <1>   0.0800 
 28 H       -3.5250     0.7140     0.4910 H     1 <1>   0.0800 
 29 H       -2.6890    -0.5280     1.3880 H     1 <1>   0.0800 
 30 H       -3.0900     2.9250     0.3740 H     1 <1>   0.0800 
 31 H       -1.9800     3.8600    -0.5890 H     1 <1>   0.0800 
 32 H       -1.9070     3.9380     1.1540 H     1 <1>   0.0800 
 33 H        4.7570    -0.0110    -0.7030 H     1 <1>   0.0800 
 34 H        4.8300     0.0680     1.0500 H     1 <1>   0.0800 
 35 H        3.2190     4.8130    -2.1100 H     1 <1>   0.1500 
 36 H        3.3970     5.0020     2.1450 H     1 <1>   0.1500 
 37 H        7.1590     2.1990    -0.0220 H     1 <1>   0.3700 
 38 H        4.5800     6.8520    -2.2560 H     1 <1>   0.1500 
 39 H        4.7580     7.0410     1.9960 H     1 <1>   0.1500 
 40 H        9.3850     2.3040    -0.1190 H     1 <1>   0.0800 
 41 H        5.3530     7.9660    -0.2040 H     1 <1>   0.1500 
 42 H        9.2740    -0.4890    -1.2750 H     1 <1>   0.0800 
 43 H       10.6060     0.6270    -1.3960 H     1 <1>   0.0800 
 44 H        9.0970     0.9960    -2.1890 H     1 <1>   0.0800 
 45 H        9.3800    -0.3730     1.2900 H     1 <1>   0.0800 
 46 H        9.2740     1.1890     2.0780 H     1 <1>   0.0800 
 47 H       10.7130     0.7440     1.2000 H     1 <1>   0.0800 
@<TRIPOS>BOND
  1   1   2  1   
  2   1   3  1   
  3   2   4  1   
  4   2   5  2   
  5   3   6  2   
  6   3   7  1   
  7   4   8  2   
  8   5   6  1   
  9   5   9  1   
 10   6  10  1   
 11   7  27  1   
 12   7  28  1   
 13   7  29  1   
 14   8  11  1   
 15   8  12  1   
 16   9  12  am  
 17   9  13  2   
 18  10  30  1   
 19  10  31  1   
 20  10  32  1   
 21  11  14  1   
 22  12  15  1   
 23  14  16  1   
 24  14  33  1   
 25  14  34  1   
 26  15  17  ar  
 27  15  18  ar  
 28  16  19  2   
 29  16  20  am  
 30  17  21  ar  
 31  17  35  1   
 32  18  22  ar  
 33  18  36  1   
 34  20  23  1   
 35  20  37  1   
 36  21  24  ar  
 37  21  38  1   
 38  22  24  ar  
 39  22  39  1   
 40  23  25  1   
 41  23  26  1   
 42  23  40  1   
 43  24  41  1   
 44  25  42  1   
 45  25  43  1   
 46  25  44  1   
 47  26  45  1   
 48  26  46  1   
 49  26  47  1   
@<TRIPOS>SUBSTRUCTURE
  1 ****   8 GROUP 4 **** **** 0

# MOE 2024.06 (io_trps.svl 2023.06)
