@<TRIPOS>MOLECULE
NONAME
34 34 1 0 0 
SMALL
USER_CHARGES


@<TRIPOS>ATOM
  1 S       -0.3270     0.1930     0.6500 S.o2  1 <1>   1.4470 
  2 O       -0.8600     0.4540     1.9670 O.2   1 <1>  -0.6500 
  3 O       -0.2970    -1.1530     0.1270 O.2   1 <1>  -0.6500 
  4 N       -1.2790     1.0230    -0.4520 N.am  1 <1>  -0.9140 
  5 C        1.3030     0.9680     0.4740 C.ar  1 <1>  -0.0090 
  6 C       -2.6910     0.9690    -0.1320 C.3   1 <1>   0.1960 
  7 C        2.4550     0.1980     0.3900 C.ar  1 <1>  -0.1500 
  8 C        1.4410     2.3500     0.4380 C.ar  1 <1>  -0.1500 
  9 C       -3.4600     1.6110    -1.2770 C.3   1 <1>  -0.2400 
 10 C        3.7150     0.7660     0.2490 C.ar  1 <1>   0.1170 
 11 C        2.6860     2.9450     0.3210 C.ar  1 <1>  -0.1500 
 12 N        4.8780    -0.0190     0.1550 N.am  1 <1>  -0.5470 
 13 C        3.8290     2.1590     0.2310 C.ar  1 <1>   0.0830 
 14 C        5.1720    -1.1920    -0.4640 C.2   1 <1>   0.5690 
 15 O        5.0830     2.6860     0.1290 O.3   1 <1>  -0.3630 
 16 O        6.2830    -1.6480    -0.3820 O.2   1 <1>  -0.5700 
 17 C        4.1500    -1.9360    -1.2900 C.3   1 <1>  -0.1790 
 18 C        5.2970     4.0790     0.0670 C.3   1 <1>   0.0400 
 19 H       -1.1550     0.4960    -1.3140 H     1 <1>   0.4200 
 20 H       -2.8800     1.5070     0.7840 H     1 <1>   0.0800 
 21 H       -3.0060    -0.0550    -0.0010 H     1 <1>   0.0800 
 22 H        2.3620    -0.8710     0.4480 H     1 <1>   0.1500 
 23 H        0.5600     2.9680     0.5070 H     1 <1>   0.1500 
 24 H       -3.1470     2.6320    -1.4080 H     1 <1>   0.0800 
 25 H       -4.5120     1.6050    -1.0520 H     1 <1>   0.0800 
 26 H       -3.3050     1.0670    -2.1910 H     1 <1>   0.0800 
 27 H        2.7380     4.0170     0.3050 H     1 <1>   0.1500 
 28 H        5.7190     0.4580     0.4890 H     1 <1>   0.3700 
 29 H        3.5250    -1.2460    -1.8250 H     1 <1>   0.0800 
 30 H        3.5500    -2.5560    -0.6520 H     1 <1>   0.0800 
 31 H        4.6550    -2.5620    -2.0020 H     1 <1>   0.0800 
 32 H        6.3550     4.2500    -0.0270 H     1 <1>   0.0800 
 33 H        4.9340     4.5310     0.9730 H     1 <1>   0.0800 
 34 H        4.7870     4.4740    -0.7940 H     1 <1>   0.0800 
@<TRIPOS>BOND
  1   1   2  2   
  2   1   3  2   
  3   1   4  am  
  4   1   5  1   
  5   4   6  1   
  6   4  19  1   
  7   5   7  ar  
  8   5   8  ar  
  9   6   9  1   
 10   6  20  1   
 11   6  21  1   
 12   7  10  ar  
 13   7  22  1   
 14   8  11  ar  
 15   8  23  1   
 16   9  24  1   
 17   9  25  1   
 18   9  26  1   
 19  10  12  1   
 20  10  13  ar  
 21  11  13  ar  
 22  11  27  1   
 23  12  14  am  
 24  12  28  1   
 25  13  15  1   
 26  14  16  2   
 27  14  17  1   
 28  15  18  1   
 29  17  29  1   
 30  17  30  1   
 31  17  31  1   
 32  18  32  1   
 33  18  33  1   
 34  18  34  1   
@<TRIPOS>SUBSTRUCTURE
  1 ****   7 GROUP 4 **** **** 0

# MOE 2024.06 (io_trps.svl 2023.06)
