@<TRIPOS>MOLECULE
NONAME
47 48 1 0 0 
SMALL
USER_CHARGES


@<TRIPOS>ATOM
  1 O        1.4410    -2.0800     1.9210 O.2   1 <1>  -0.5700 
  2 C        1.3680    -2.8160     0.9690 C.2   1 <1>   0.5690 
  3 N        2.3620    -2.9900     0.0470 N.am  1 <1>  -0.5470 
  4 C        0.0850    -3.5950     0.7870 C.3   1 <1>  -0.0990 
  5 C        3.6360    -2.4090    -0.0760 C.ar  1 <1>   0.1170 
  6 C       -1.0700    -2.6270     0.5220 C.3   1 <1>   0.1100 
  7 C        4.5410    -2.9900    -0.9550 C.ar  1 <1>  -0.1500 
  8 C        4.0360    -1.2740     0.6250 C.ar  1 <1>  -0.1500 
  9 N       -2.3280    -3.3550     0.2770 N.3   1 <1>  -0.8100 
 10 C        5.8090    -2.4680    -1.1350 C.ar  1 <1>   0.0830 
 11 C        5.3030    -0.7440     0.4540 C.ar  1 <1>  -0.1500 
 12 C       -2.9120    -3.8960     1.5350 C.3   1 <1>   0.1100 
 13 C       -3.3140    -2.4730    -0.3950 C.3   1 <1>   0.1100 
 14 O        6.6130    -3.1140    -2.0170 O.3   1 <1>  -0.3630 
 15 C        6.1940    -1.3350    -0.4230 C.ar  1 <1>  -0.1500 
 16 C       -4.3010    -4.5480     1.3230 C.3   1 <1>   0.3430 
 17 C       -4.6470    -3.1990    -0.7040 C.3   1 <1>   0.3430 
 18 C        7.9300    -2.6730    -2.2630 C.3   1 <1>   0.0400 
 19 N       -4.6610    -4.5880    -0.1310 N.4   1 <1>  -0.9590 
 20 C       -5.8960    -5.3620    -0.4020 C.3   1 <1>   0.3430 
 21 C       -5.9850    -5.6820    -1.8890 C.3   1 <1>  -0.2400 
 22 H        2.1680    -3.6910    -0.6650 H     1 <1>   0.3700 
 23 H       -0.0860    -4.1500     1.6890 H     1 <1>   0.0800 
 24 H        0.1790    -4.2800    -0.0340 H     1 <1>   0.0800 
 25 H       -0.8180    -2.0420    -0.3480 H     1 <1>   0.0800 
 26 H       -1.1820    -1.9470     1.3530 H     1 <1>   0.0800 
 27 H        4.2680    -3.8650    -1.5120 H     1 <1>   0.1500 
 28 H        3.3630    -0.7920     1.3090 H     1 <1>   0.1500 
 29 H        5.5920     0.1320     1.0080 H     1 <1>   0.1500 
 30 H       -3.0040    -3.1090     2.2660 H     1 <1>   0.0800 
 31 H       -2.2520    -4.6390     1.9470 H     1 <1>   0.0800 
 32 H       -2.9000    -2.1110    -1.3210 H     1 <1>   0.0800 
 33 H       -3.5160    -1.6150     0.2240 H     1 <1>   0.0800 
 34 H        7.1700    -0.9040    -0.5370 H     1 <1>   0.1500 
 35 H       -5.0420    -3.9860     1.8680 H     1 <1>   0.0800 
 36 H       -4.2830    -5.5460     1.7290 H     1 <1>   0.0800 
 37 H       -4.7740    -3.2450    -1.7730 H     1 <1>   0.0800 
 38 H       -5.4650    -2.6240    -0.3020 H     1 <1>   0.0800 
 39 H        8.3740    -3.3350    -2.9860 H     1 <1>   0.0800 
 40 H        8.4880    -2.7090    -1.3440 H     1 <1>   0.0800 
 41 H        7.8960    -1.6730    -2.6570 H     1 <1>   0.0800 
 42 H       -3.8510    -5.0490    -0.5740 H     1 <1>   0.4500 
 43 H       -6.7640    -4.8030    -0.0890 H     1 <1>   0.0800 
 44 H       -5.8710    -6.2870     0.1520 H     1 <1>   0.0800 
 45 H       -6.1200    -4.7920    -2.4760 H     1 <1>   0.0800 
 46 H       -6.8370    -6.3170    -2.0610 H     1 <1>   0.0800 
 47 H       -5.1080    -6.2090    -2.2210 H     1 <1>   0.0800 
@<TRIPOS>BOND
  1   1   2  2   
  2   2   3  am  
  3   2   4  1   
  4   3   5  1   
  5   3  22  1   
  6   4   6  1   
  7   4  23  1   
  8   4  24  1   
  9   5   7  ar  
 10   5   8  ar  
 11   6   9  1   
 12   6  25  1   
 13   6  26  1   
 14   7  10  ar  
 15   7  27  1   
 16   8  11  ar  
 17   8  28  1   
 18   9  12  1   
 19   9  13  1   
 20  10  14  1   
 21  10  15  ar  
 22  11  15  ar  
 23  11  29  1   
 24  12  16  1   
 25  12  30  1   
 26  12  31  1   
 27  13  17  1   
 28  13  32  1   
 29  13  33  1   
 30  14  18  1   
 31  15  34  1   
 32  16  19  1   
 33  16  35  1   
 34  16  36  1   
 35  17  19  1   
 36  17  37  1   
 37  17  38  1   
 38  18  39  1   
 39  18  40  1   
 40  18  41  1   
 41  19  20  1   
 42  19  42  1   
 43  20  21  1   
 44  20  43  1   
 45  20  44  1   
 46  21  45  1   
 47  21  46  1   
 48  21  47  1   
@<TRIPOS>SUBSTRUCTURE
  1 ****   4 GROUP 4 **** **** 0

# MOE 2024.06 (io_trps.svl 2023.06)
