@<TRIPOS>MOLECULE
NONAME
33 34 1 0 0 
SMALL
USER_CHARGES


@<TRIPOS>ATOM
  1 CL      -0.1190     0.2500    -1.6740 Cl    1 <1>  -0.1770 
  2 C       -1.5560     0.9850    -1.0120 C.ar  1 <1>   0.1770 
  3 C       -1.4300     2.0510    -0.1380 C.ar  1 <1>  -0.1500 
  4 C       -2.7970     0.4890    -1.3720 C.ar  1 <1>  -0.1500 
  5 C       -2.5720     2.6330     0.3850 C.ar  1 <1>  -0.1500 
  6 C       -3.9410     1.0710    -0.8490 C.ar  1 <1>  -0.1500 
  7 C       -3.8170     2.1400     0.0280 C.ar  1 <1>   0.1020 
  8 S       -5.2500     2.9550     0.7550 S.3   1 <1>  -0.3320 
  9 C       -6.7460     2.0920     0.1020 C.3   1 <1>   0.0700 
 10 C       -7.9780     2.7660     0.7060 C.3   1 <1>  -0.1600 
 11 C       -9.2610     2.1020     0.2080 C.3   1 <1>   0.1200 
 12 O      -10.3550     2.7660     0.7980 O.3   1 <1>  -0.3160 
 13 N      -11.5580     2.1870     0.3670 N.am  1 <1>  -0.0850 
 14 C      -12.1970     1.1870     1.0380 C.2   1 <1>   0.5690 
 15 C      -12.2640     2.6280    -0.7120 C.2   1 <1>   0.5690 
 16 O      -11.7910     0.5620     1.9870 O.2   1 <1>  -0.5700 
 17 C      -13.5370     0.9070     0.3900 C.3   1 <1>  -0.0990 
 18 O      -11.9270     3.4540    -1.5240 O.2   1 <1>  -0.5700 
 19 C      -13.5830     1.8880    -0.8020 C.3   1 <1>  -0.0990 
 20 H       -0.4530     2.4160     0.1240 H     1 <1>   0.1500 
 21 H       -2.8600    -0.3410    -2.0540 H     1 <1>   0.1500 
 22 H       -2.5040     3.4630     1.0670 H     1 <1>   0.1500 
 23 H       -4.9010     0.6850    -1.1290 H     1 <1>   0.1500 
 24 H       -6.6750     1.0600     0.3980 H     1 <1>   0.0800 
 25 H       -6.7280     2.1860    -0.9690 H     1 <1>   0.0800 
 26 H       -7.9860     3.8060     0.4260 H     1 <1>   0.0800 
 27 H       -7.9330     2.6920     1.7780 H     1 <1>   0.0800 
 28 H       -9.2930     1.0670     0.5020 H     1 <1>   0.0800 
 29 H       -9.3460     2.1900    -0.8620 H     1 <1>   0.0800 
 30 H      -14.3280     1.1000     1.0920 H     1 <1>   0.0800 
 31 H      -13.5780    -0.1160     0.0630 H     1 <1>   0.0800 
 32 H      -13.6480     1.3690    -1.7410 H     1 <1>   0.0800 
 33 H      -14.3970     2.5840    -0.7100 H     1 <1>   0.0800 
@<TRIPOS>BOND
  1   1   2  1   
  2   2   3  ar  
  3   2   4  ar  
  4   3   5  ar  
  5   3  20  1   
  6   4   6  ar  
  7   4  21  1   
  8   5   7  ar  
  9   5  22  1   
 10   6   7  ar  
 11   6  23  1   
 12   7   8  1   
 13   8   9  1   
 14   9  10  1   
 15   9  24  1   
 16   9  25  1   
 17  10  11  1   
 18  10  26  1   
 19  10  27  1   
 20  11  12  1   
 21  11  28  1   
 22  11  29  1   
 23  12  13  1   
 24  13  14  am  
 25  13  15  am  
 26  14  16  2   
 27  14  17  1   
 28  15  18  2   
 29  15  19  1   
 30  17  19  1   
 31  17  30  1   
 32  17  31  1   
 33  19  32  1   
 34  19  33  1   
@<TRIPOS>SUBSTRUCTURE
  1 ****   9 GROUP 4 **** **** 0

# MOE 2024.06 (io_trps.svl 2023.06)
