@<TRIPOS>MOLECULE
NONAME
40 41 1 0 0 
SMALL
USER_CHARGES


@<TRIPOS>ATOM
  1 O       -0.2300     0.1840    -0.9000 O.2   1 <1>  -0.5700 
  2 C       -0.6610     0.9270    -0.0420 C.2   1 <1>   0.6900 
  3 N        0.1050     1.9080     0.5110 N.am  1 <1>  -0.5470 
  4 N       -1.9390     0.8160     0.3930 N.am  1 <1>  -0.7300 
  5 C        1.4750     2.1620     0.3700 C.ar  1 <1>   0.1170 
  6 C       -2.9070    -0.1800    -0.0950 C.3   1 <1>   0.2200 
  7 C        2.4060     1.1490     0.1770 C.ar  1 <1>  -0.1500 
  8 C        1.9270     3.4730     0.4470 C.ar  1 <1>  -0.1500 
  9 C       -4.2300     0.5270    -0.4070 C.3   1 <1>  -0.1600 
 10 C       -3.0920    -1.2590     0.9780 C.3   1 <1>  -0.1600 
 11 C        3.7720     1.4020     0.0530 C.ar  1 <1>   0.0860 
 12 C        3.2730     3.7600     0.3260 C.ar  1 <1>  -0.1500 
 13 C       -5.3130    -0.4800    -0.8200 C.3   1 <1>  -0.1600 
 14 C       -4.1730    -2.2690     0.5670 C.3   1 <1>  -0.1600 
 15 C        4.7210     0.3200    -0.1420 C.2   1 <1>   0.6340 
 16 C        4.1810     2.7360     0.1310 C.ar  1 <1>  -0.1500 
 17 C       -5.4990    -1.5650     0.2500 C.3   1 <1>  -0.1600 
 18 O        4.4290    -0.8530    -0.0460 O.2   1 <1>  -0.5700 
 19 O        5.9870     0.6420    -0.4340 O.3   1 <1>  -0.4300 
 20 C        6.9770    -0.3450    -0.6450 C.3   1 <1>   0.0400 
 21 H       -0.4300     2.6260     0.9850 H     1 <1>   0.3700 
 22 H       -2.2200     1.3050     1.2370 H     1 <1>   0.3700 
 23 H       -2.5350    -0.6400    -0.9960 H     1 <1>   0.0800 
 24 H        2.0640     0.1300     0.1200 H     1 <1>   0.1500 
 25 H        1.2250     4.2730     0.5960 H     1 <1>   0.1500 
 26 H       -4.0750     1.2300    -1.2080 H     1 <1>   0.0800 
 27 H       -4.5670     1.0650     0.4610 H     1 <1>   0.0800 
 28 H       -3.3760    -0.8000     1.9080 H     1 <1>   0.0800 
 29 H       -2.1590    -1.7760     1.1210 H     1 <1>   0.0800 
 30 H        3.6140     4.7790     0.3830 H     1 <1>   0.1500 
 31 H       -5.0310    -0.9440    -1.7510 H     1 <1>   0.0800 
 32 H       -6.2450     0.0350    -0.9790 H     1 <1>   0.0800 
 33 H       -4.3220    -2.9810     1.3610 H     1 <1>   0.0800 
 34 H       -3.8400    -2.8110    -0.3020 H     1 <1>   0.0800 
 35 H        5.2260     2.9770     0.0380 H     1 <1>   0.1500 
 36 H       -6.2180    -2.2890    -0.0930 H     1 <1>   0.0800 
 37 H       -5.8890    -1.1160     1.1480 H     1 <1>   0.0800 
 38 H        7.9070     0.1460    -0.8680 H     1 <1>   0.0800 
 39 H        6.6760    -0.9670    -1.4710 H     1 <1>   0.0800 
 40 H        7.0730    -0.9370     0.2490 H     1 <1>   0.0800 
@<TRIPOS>BOND
  1   1   2  2   
  2   2   3  am  
  3   2   4  am  
  4   3   5  1   
  5   3  21  1   
  6   4   6  1   
  7   4  22  1   
  8   5   7  ar  
  9   5   8  ar  
 10   6   9  1   
 11   6  10  1   
 12   6  23  1   
 13   7  11  ar  
 14   7  24  1   
 15   8  12  ar  
 16   8  25  1   
 17   9  13  1   
 18   9  26  1   
 19   9  27  1   
 20  10  14  1   
 21  10  28  1   
 22  10  29  1   
 23  11  15  1   
 24  11  16  ar  
 25  12  16  ar  
 26  12  30  1   
 27  13  17  1   
 28  13  31  1   
 29  13  32  1   
 30  14  17  1   
 31  14  33  1   
 32  14  34  1   
 33  15  18  2   
 34  15  19  1   
 35  16  35  1   
 36  17  36  1   
 37  17  37  1   
 38  19  20  1   
 39  20  38  1   
 40  20  39  1   
 41  20  40  1   
@<TRIPOS>SUBSTRUCTURE
  1 ****   2 GROUP 4 **** **** 0

# MOE 2024.06 (io_trps.svl 2023.06)
