@<TRIPOS>MOLECULE
NONAME
40 42 1 0 0 
SMALL
USER_CHARGES


@<TRIPOS>ATOM
  1 O        0.5380     1.5840    -1.1520 O.2   1 <1>  -0.5700 
  2 C        0.5710     2.2550    -0.1500 C.2   1 <1>   0.6300 
  3 N       -0.5320     2.4930     0.6000 N.am  1 <1>  -0.7300 
  4 C        1.8810     2.8920     0.2830 C.3   1 <1>  -0.1000 
  5 C       -1.8720     1.8910     0.3620 C.3   1 <1>   0.1400 
  6 C        3.0250     2.0380     0.7480 C.3   1 <1>  -0.2000 
  7 C        2.3140     2.9240     1.7230 C.3   1 <1>  -0.2000 
  8 C       -2.9460     2.8280    -0.2570 C.3   1 <1>   0.1430 
  9 C       -4.2260     1.9540    -0.3130 C.ar  1 <1>  -0.1440 
 10 C       -3.1770     4.1000     0.6020 C.3   1 <1>  -0.1600 
 11 C       -2.5690     3.2820    -1.6910 C.3   1 <1>  -0.1600 
 12 C       -5.2510     2.0610     0.6260 C.ar  1 <1>  -0.1500 
 13 C       -4.3670     0.9890    -1.3080 C.ar  1 <1>  -0.1500 
 14 C       -2.1540     5.2200     0.3790 C.3   1 <1>   0.1200 
 15 C       -1.6060     4.4730    -1.7610 C.3   1 <1>   0.1200 
 16 C       -6.3760     1.2560     0.5580 C.ar  1 <1>  -0.1500 
 17 C       -5.4890     0.1820    -1.3790 C.ar  1 <1>  -0.1500 
 18 O       -2.0890     5.5130    -0.9750 O.3   1 <1>  -0.5600 
 19 C       -6.4990     0.3160    -0.4460 C.ar  1 <1>  -0.1500 
 20 H       -0.4380     3.0690     1.4350 H     1 <1>   0.3700 
 21 H        2.1280     3.7340    -0.3380 H     1 <1>   0.1000 
 22 H       -2.2420     1.5180     1.3010 H     1 <1>   0.0800 
 23 H       -1.7540     1.0360    -0.2830 H     1 <1>   0.0800 
 24 H        4.0200     2.2990     0.4300 H     1 <1>   0.1000 
 25 H        2.8750     0.9730     0.7980 H     1 <1>   0.1000 
 26 H        1.7090     2.4510     2.4760 H     1 <1>   0.1000 
 27 H        2.8250     3.7970     2.0910 H     1 <1>   0.1000 
 28 H       -3.1930     3.8460     1.6460 H     1 <1>   0.0800 
 29 H       -4.1360     4.5180     0.3510 H     1 <1>   0.0800 
 30 H       -3.4660     3.5690    -2.2120 H     1 <1>   0.0800 
 31 H       -2.1240     2.4700    -2.2360 H     1 <1>   0.0800 
 32 H       -5.2040     2.7670     1.4330 H     1 <1>   0.1500 
 33 H       -3.6010     0.8410    -2.0470 H     1 <1>   0.1500 
 34 H       -1.1710     4.9590     0.7230 H     1 <1>   0.0800 
 35 H       -2.4680     6.1150     0.8880 H     1 <1>   0.0800 
 36 H       -1.5380     4.8340    -2.7720 H     1 <1>   0.0800 
 37 H       -0.6180     4.2160    -1.4270 H     1 <1>   0.0800 
 38 H       -7.1570     1.3620     1.2900 H     1 <1>   0.1500 
 39 H       -5.5750    -0.5520    -2.1610 H     1 <1>   0.1500 
 40 H       -7.3730    -0.3090    -0.5000 H     1 <1>   0.1500 
@<TRIPOS>BOND
  1   1   2  2   
  2   2   3  am  
  3   2   4  1   
  4   3   5  1   
  5   3  20  1   
  6   4   6  1   
  7   4   7  1   
  8   4  21  1   
  9   5   8  1   
 10   5  22  1   
 11   5  23  1   
 12   6   7  1   
 13   6  24  1   
 14   6  25  1   
 15   7  26  1   
 16   7  27  1   
 17   8   9  1   
 18   8  10  1   
 19   8  11  1   
 20   9  12  ar  
 21   9  13  ar  
 22  10  14  1   
 23  10  28  1   
 24  10  29  1   
 25  11  15  1   
 26  11  30  1   
 27  11  31  1   
 28  12  16  ar  
 29  12  32  1   
 30  13  17  ar  
 31  13  33  1   
 32  14  18  1   
 33  14  34  1   
 34  14  35  1   
 35  15  18  1   
 36  15  36  1   
 37  15  37  1   
 38  16  19  ar  
 39  16  38  1   
 40  17  19  ar  
 41  17  39  1   
 42  19  40  1   
@<TRIPOS>SUBSTRUCTURE
  1 ****   8 GROUP 4 **** **** 0

# MOE 2024.06 (io_trps.svl 2023.06)
