@<TRIPOS>MOLECULE
NONAME
47 49 1 0 0 
SMALL
USER_CHARGES


@<TRIPOS>ATOM
  1 S       -0.6770     0.9040     1.3800 S.o2  1 <1>   1.4470 
  2 O        0.1860     0.1140     2.2320 O.2   1 <1>  -0.6500 
  3 O       -1.2120     2.1440     1.9020 O.2   1 <1>  -0.6500 
  4 N        0.2110     1.3170    -0.0040 N.am  1 <1>  -0.8490 
  5 C       -2.0270    -0.1360     0.7260 C.ar  1 <1>  -0.0090 
  6 C       -0.5320     2.2290    -0.8810 C.3   1 <1>   0.1960 
  7 C        1.5150     1.8830     0.3540 C.3   1 <1>   0.1960 
  8 C       -1.8220    -1.4030     0.1750 C.ar  1 <1>  -0.1440 
  9 C       -3.3280     0.3540     0.7510 C.ar  1 <1>  -0.1500 
 10 C        0.2380     2.4490    -2.1880 C.3   1 <1>  -0.1600 
 11 C        2.3620     2.1030    -0.9040 C.3   1 <1>  -0.1600 
 12 C       -2.8940    -2.1280    -0.3210 C.ar  1 <1>  -0.1500 
 13 C       -0.4330    -2.0290     0.0940 C.3   1 <1>  -0.0970 
 14 C       -4.4220    -0.3540     0.2610 C.ar  1 <1>   0.0860 
 15 C        1.6430     2.9990    -1.9190 C.3   1 <1>  -0.1600 
 16 C       -4.1730    -1.6120    -0.2810 C.ar  1 <1>  -0.1500 
 17 C       -5.7580     0.2080     0.3130 C.2   1 <1>   0.5440 
 18 O       -5.9210     1.4020     0.1620 O.2   1 <1>  -0.5700 
 19 N       -6.8280    -0.6190     0.5590 N.am  1 <1>  -0.5470 
 20 C       -8.2190    -0.3930     0.5940 C.ar  1 <1>   0.1170 
 21 C       -9.0590    -1.3510     1.1630 C.ar  1 <1>   0.1900 
 22 C       -8.8340     0.7430     0.0720 C.ar  1 <1>  -0.1500 
 23 F       -8.5250    -2.4440     1.6550 F     1 <1>  -0.1900 
 24 C      -10.4310    -1.2130     1.2330 C.ar  1 <1>  -0.1500 
 25 C      -10.2100     0.9020     0.1320 C.ar  1 <1>  -0.1500 
 26 C      -11.0110    -0.0690     0.7110 C.ar  1 <1>  -0.1500 
 27 H       -0.6860     3.1750    -0.3860 H     1 <1>   0.0800 
 28 H       -1.4960     1.8100    -1.1140 H     1 <1>   0.0800 
 29 H        2.0400     1.2050     1.0070 H     1 <1>   0.0800 
 30 H        1.3770     2.8150     0.8780 H     1 <1>   0.0800 
 31 H       -3.5100     1.3320     1.1670 H     1 <1>   0.1500 
 32 H       -0.3070     3.1350    -2.8110 H     1 <1>   0.0800 
 33 H        0.3060     1.5110    -2.7110 H     1 <1>   0.0800 
 34 H        2.5730     1.1460    -1.3480 H     1 <1>   0.0800 
 35 H        3.3010     2.5500    -0.6270 H     1 <1>   0.0800 
 36 H       -2.7360    -3.1050    -0.7470 H     1 <1>   0.1500 
 37 H       -0.0580    -2.2290     1.0820 H     1 <1>   0.0800 
 38 H        0.2510    -1.3700    -0.4110 H     1 <1>   0.0800 
 39 H       -0.4550    -2.9570    -0.4480 H     1 <1>   0.0800 
 40 H        1.5670     3.9970    -1.5230 H     1 <1>   0.0800 
 41 H        2.2040     3.0420    -2.8360 H     1 <1>   0.0800 
 42 H       -4.9840    -2.1910    -0.6880 H     1 <1>   0.1500 
 43 H       -6.5710    -1.5560     0.8710 H     1 <1>   0.3700 
 44 H       -8.2440     1.5130    -0.3890 H     1 <1>   0.1500 
 45 H      -11.0310    -1.9820     1.6860 H     1 <1>   0.1500 
 46 H      -10.6590     1.7920    -0.2760 H     1 <1>   0.1500 
 47 H      -12.0790     0.0650     0.7540 H     1 <1>   0.1500 
@<TRIPOS>BOND
  1   1   2  2   
  2   1   3  2   
  3   1   4  am  
  4   1   5  1   
  5   4   6  1   
  6   4   7  1   
  7   5   8  ar  
  8   5   9  ar  
  9   6  10  1   
 10   6  27  1   
 11   6  28  1   
 12   7  11  1   
 13   7  29  1   
 14   7  30  1   
 15   8  12  ar  
 16   8  13  1   
 17   9  14  ar  
 18   9  31  1   
 19  10  15  1   
 20  10  32  1   
 21  10  33  1   
 22  11  15  1   
 23  11  34  1   
 24  11  35  1   
 25  12  16  ar  
 26  12  36  1   
 27  13  37  1   
 28  13  38  1   
 29  13  39  1   
 30  14  16  ar  
 31  14  17  1   
 32  15  40  1   
 33  15  41  1   
 34  16  42  1   
 35  17  18  2   
 36  17  19  am  
 37  19  20  1   
 38  19  43  1   
 39  20  21  ar  
 40  20  22  ar  
 41  21  23  1   
 42  21  24  ar  
 43  22  25  ar  
 44  22  44  1   
 45  24  26  ar  
 46  24  45  1   
 47  25  26  ar  
 48  25  46  1   
 49  26  47  1   
@<TRIPOS>SUBSTRUCTURE
  1 ****   9 GROUP 4 **** **** 0

# MOE 2024.06 (io_trps.svl 2023.06)
