@<TRIPOS>MOLECULE
NONAME
41 43 1 0 0 
SMALL
USER_CHARGES


@<TRIPOS>ATOM
  1 S       -0.7190    -0.9710     1.8750 S.3   1 <1>  -0.0800 
  2 C       -0.7460    -1.1290     0.1220 C.2   1 <1>  -0.1400 
  3 C       -0.1240     0.6750     1.7630 C.2   1 <1>  -0.1100 
  4 C       -0.3210     0.0110    -0.4550 C.2   1 <1>  -0.1500 
  5 C       -1.1960    -2.4520    -0.4840 C.3   1 <1>   0.5380 
  6 C        0.0350     1.0380     0.4770 C.2   1 <1>  -0.1810 
  7 N       -2.4870    -2.8340     0.1230 N.am  1 <1>  -0.7300 
  8 C       -0.1210    -3.5170    -0.2930 C.2   1 <1>  -0.1240 
  9 C        0.5380     2.3820    -0.0100 C.3   1 <1>  -0.0590 
 10 C       -2.6520    -3.9200     0.8960 C.2   1 <1>   0.6900 
 11 C       -0.3870    -4.6320     0.4360 C.2   1 <1>  -0.0290 
 12 C        1.0900    -3.1630    -0.9630 C.2   1 <1>   0.6160 
 13 O       -3.6940    -4.1090     1.4810 O.2   1 <1>  -0.5700 
 14 N       -1.6270    -4.8000     1.0210 N.am  1 <1>  -0.5390 
 15 C        0.5810    -5.7780     0.6730 C.3   1 <1>  -0.1020 
 16 O        1.0430    -2.8500    -2.1400 O.2   1 <1>  -0.5700 
 17 N        2.3050    -3.1200    -0.3130 N.am  1 <1>  -0.6600 
 18 C        2.4200    -2.8540     1.1520 C.3   1 <1>   0.1400 
 19 C        3.5780    -2.8370    -1.0420 C.3   1 <1>   0.1400 
 20 C        2.9990    -1.4490     1.3920 C.3   1 <1>   0.1200 
 21 C        4.0920    -1.4330    -0.6850 C.3   1 <1>   0.1200 
 22 O        4.2090    -1.2890     0.7040 O.3   1 <1>  -0.5600 
 23 H        0.0470     1.2020     2.6850 H     1 <1>   0.1500 
 24 H       -0.2330     0.1740    -1.5160 H     1 <1>   0.1500 
 25 H       -1.3560    -2.3130    -1.5400 H     1 <1>   0.0800 
 26 H       -3.1840    -2.0980     0.2060 H     1 <1>   0.3700 
 27 H        0.7550     3.0260     0.8230 H     1 <1>   0.0800 
 28 H       -0.2080     2.8530    -0.6250 H     1 <1>   0.0800 
 29 H        1.4360     2.2510    -0.5880 H     1 <1>   0.0800 
 30 H       -1.8500    -5.6120     1.5950 H     1 <1>   0.3700 
 31 H        0.1310    -6.7050     0.3670 H     1 <1>   0.0800 
 32 H        0.8300    -5.8390     1.7170 H     1 <1>   0.0800 
 33 H        1.4890    -5.6520     0.1110 H     1 <1>   0.0800 
 34 H        3.0720    -3.5860     1.5960 H     1 <1>   0.0800 
 35 H        1.4630    -2.9270     1.6360 H     1 <1>   0.0800 
 36 H        3.4350    -2.9080    -2.1060 H     1 <1>   0.0800 
 37 H        4.3170    -3.5670    -0.7610 H     1 <1>   0.0800 
 38 H        3.1930    -1.2990     2.4390 H     1 <1>   0.0800 
 39 H        2.3100    -0.6940     1.0550 H     1 <1>   0.0800 
 40 H        3.4180    -0.6800    -1.0560 H     1 <1>   0.0800 
 41 H        5.0650    -1.2720    -1.1150 H     1 <1>   0.0800 
@<TRIPOS>BOND
  1   1   2  1   
  2   1   3  1   
  3   2   4  2   
  4   2   5  1   
  5   3   6  2   
  6   3  23  1   
  7   4   6  1   
  8   4  24  1   
  9   5   7  1   
 10   5   8  1   
 11   5  25  1   
 12   6   9  1   
 13   7  10  am  
 14   7  26  1   
 15   8  11  2   
 16   8  12  1   
 17   9  27  1   
 18   9  28  1   
 19   9  29  1   
 20  10  13  2   
 21  10  14  am  
 22  11  14  1   
 23  11  15  1   
 24  12  16  2   
 25  12  17  am  
 26  14  30  1   
 27  15  31  1   
 28  15  32  1   
 29  15  33  1   
 30  17  18  1   
 31  17  19  1   
 32  18  20  1   
 33  18  34  1   
 34  18  35  1   
 35  19  21  1   
 36  19  36  1   
 37  19  37  1   
 38  20  22  1   
 39  20  38  1   
 40  20  39  1   
 41  21  22  1   
 42  21  40  1   
 43  21  41  1   
@<TRIPOS>SUBSTRUCTURE
  1 ****   8 GROUP 4 **** **** 0

# MOE 2024.06 (io_trps.svl 2023.06)
