@<TRIPOS>MOLECULE
NONAME
33 34 1 0 0 
SMALL
USER_CHARGES


@<TRIPOS>ATOM
  1 BR      -0.0580    -0.3430    -0.2830 Br    1 <1>  -0.1110 
  2 C       -1.9700    -0.1100    -0.3030 C.ar  1 <1>   0.1110 
  3 C       -2.5390     0.6420    -1.3140 C.ar  1 <1>  -0.1500 
  4 C       -2.7240    -0.7030     0.6920 C.ar  1 <1>  -0.1500 
  5 C       -3.9140     0.8050    -1.3200 C.ar  1 <1>  -0.1500 
  6 C       -4.0970    -0.5290     0.6720 C.ar  1 <1>  -0.1500 
  7 C       -4.7010     0.2270    -0.3270 C.ar  1 <1>   0.1000 
  8 N       -6.0900     0.3880    -0.3320 N.pl3 1 <1>  -0.6000 
  9 C       -6.8640     1.5170    -0.1570 C.2   1 <1>  -0.0380 
 10 C       -8.2330     1.5030    -0.2580 C.2   1 <1>  -0.1240 
 11 C       -6.0530     2.7760     0.1670 C.3   1 <1>  -0.0220 
 12 C       -9.0250     0.3130    -0.5130 C.2   1 <1>   0.4950 
 13 C       -9.0010     2.8290    -0.0770 C.3   1 <1>  -0.0220 
 14 C       -6.8970     3.9330     0.6950 C.3   1 <1>  -0.1600 
 15 O       -8.4900    -0.7650    -0.7280 O.2   1 <1>  -0.5700 
 16 C      -10.5850     0.3370    -0.5210 C.3   1 <1>   1.0810 
 17 C       -8.1370     4.0890    -0.1750 C.3   1 <1>  -0.1600 
 18 F      -11.1060     0.9070     0.5650 F     1 <1>  -0.3400 
 19 F      -11.0850     1.0070    -1.5580 F     1 <1>  -0.3400 
 20 F      -11.1470    -0.8700    -0.5790 F     1 <1>  -0.3400 
 21 H       -1.9220     1.0850    -2.0740 H     1 <1>   0.1500 
 22 H       -2.2470    -1.2830     1.4610 H     1 <1>   0.1500 
 23 H       -4.3890     1.3770    -2.0960 H     1 <1>   0.1500 
 24 H       -4.7120    -0.9760     1.4330 H     1 <1>   0.1500 
 25 H       -6.6270    -0.4810    -0.5000 H     1 <1>   0.4000 
 26 H       -5.5450     3.0920    -0.7260 H     1 <1>   0.0800 
 27 H       -5.3040     2.5450     0.9060 H     1 <1>   0.0800 
 28 H       -9.4720     2.8260     0.8910 H     1 <1>   0.0800 
 29 H       -9.7680     2.9350    -0.8220 H     1 <1>   0.0800 
 30 H       -6.3170     4.8400     0.6830 H     1 <1>   0.0800 
 31 H       -7.1880     3.7330     1.7120 H     1 <1>   0.0800 
 32 H       -8.7060     4.9450     0.1460 H     1 <1>   0.0800 
 33 H       -7.8420     4.2490    -1.1990 H     1 <1>   0.0800 
@<TRIPOS>BOND
  1   1   2  1   
  2   2   3  ar  
  3   2   4  ar  
  4   3   5  ar  
  5   3  21  1   
  6   4   6  ar  
  7   4  22  1   
  8   5   7  ar  
  9   5  23  1   
 10   6   7  ar  
 11   6  24  1   
 12   7   8  1   
 13   8   9  1   
 14   8  25  1   
 15   9  10  2   
 16   9  11  1   
 17  10  12  1   
 18  10  13  1   
 19  11  14  1   
 20  11  26  1   
 21  11  27  1   
 22  12  15  2   
 23  12  16  1   
 24  13  17  1   
 25  13  28  1   
 26  13  29  1   
 27  14  17  1   
 28  14  30  1   
 29  14  31  1   
 30  16  18  1   
 31  16  19  1   
 32  16  20  1   
 33  17  32  1   
 34  17  33  1   
@<TRIPOS>SUBSTRUCTURE
  1 ****   9 GROUP 4 **** **** 0

# MOE 2024.06 (io_trps.svl 2023.06)
