@<TRIPOS>MOLECULE
NONAME
45 46 1 0 0 
SMALL
USER_CHARGES


@<TRIPOS>ATOM
  1 O       -0.1650    -0.4430     1.1070 O.2   1 <1>  -0.5700 
  2 C       -0.7260    -1.2420     0.3920 C.2   1 <1>   0.4950 
  3 C       -2.1080    -1.1570     0.0300 C.2   1 <1>   0.0290 
  4 C        0.1350    -2.3920    -0.1030 C.3   1 <1>  -0.0990 
  5 C       -2.5100    -1.9770    -1.0750 C.2   1 <1>   0.4950 
  6 C       -2.9300    -0.3050     0.7470 C.2   1 <1>  -0.0500 
  7 C       -0.6910    -3.6560    -0.3820 C.3   1 <1>   0.0000 
  8 O       -3.3670    -1.6820    -1.8750 O.2   1 <1>  -0.5700 
  9 C       -1.8020    -3.2900    -1.3790 C.3   1 <1>  -0.0990 
 10 N       -4.2830    -0.1490     0.7780 N.pl3 1 <1>  -0.8690 
 11 C       -1.2960    -4.2160     0.9200 C.3   1 <1>  -0.2400 
 12 C        0.2140    -4.7380    -0.9920 C.3   1 <1>  -0.2400 
 13 C       -5.3310    -0.9730     0.1190 C.3   1 <1>   0.2090 
 14 C       -6.6020    -0.9740     0.9660 C.3   1 <1>  -0.0170 
 15 C       -7.6850    -1.8190     0.3040 C.ar  1 <1>  -0.1430 
 16 C       -7.6630    -3.2100     0.3850 C.ar  1 <1>   0.0830 
 17 C       -8.7050    -1.1900    -0.3950 C.ar  1 <1>  -0.1500 
 18 O       -6.6420    -3.7890     1.0720 O.3   1 <1>  -0.3630 
 19 C       -8.6690    -3.9510    -0.2330 C.ar  1 <1>  -0.1500 
 20 C       -9.6990    -1.9310    -1.0070 C.ar  1 <1>  -0.1500 
 21 C       -6.5300    -5.1890     1.1960 C.3   1 <1>   0.0400 
 22 C       -9.6810    -3.3120    -0.9250 C.ar  1 <1>  -0.1500 
 23 H        0.6400    -2.0690    -0.9960 H     1 <1>   0.0800 
 24 H        0.8870    -2.6060     0.6360 H     1 <1>   0.0800 
 25 H       -2.4200     0.3560     1.4330 H     1 <1>   0.1500 
 26 H       -2.5350    -4.0750    -1.4220 H     1 <1>   0.0800 
 27 H       -1.3820    -3.1950    -2.3650 H     1 <1>   0.0800 
 28 H       -4.6860     0.5990     1.3550 H     1 <1>   0.4000 
 29 H       -0.5180    -4.4430     1.6280 H     1 <1>   0.0800 
 30 H       -1.8390    -5.1240     0.7220 H     1 <1>   0.0800 
 31 H       -1.9750    -3.5230     1.3840 H     1 <1>   0.0800 
 32 H        0.6730    -4.3900    -1.9010 H     1 <1>   0.0800 
 33 H       -0.3540    -5.6230    -1.2200 H     1 <1>   0.0800 
 34 H        0.9970    -5.0090    -0.3040 H     1 <1>   0.0800 
 35 H       -5.5410    -0.5730    -0.8590 H     1 <1>   0.0800 
 36 H       -4.9870    -1.9860     0.0090 H     1 <1>   0.0800 
 37 H       -6.3810    -1.3730     1.9400 H     1 <1>   0.0800 
 38 H       -6.9510     0.0350     1.0860 H     1 <1>   0.0800 
 39 H       -8.7300    -0.1170    -0.4690 H     1 <1>   0.1500 
 40 H       -8.6820    -5.0220    -0.1880 H     1 <1>   0.1500 
 41 H      -10.4860    -1.4340    -1.5470 H     1 <1>   0.1500 
 42 H       -7.4010    -5.5650     1.7040 H     1 <1>   0.0800 
 43 H       -5.6500    -5.4030     1.7740 H     1 <1>   0.0800 
 44 H       -6.4380    -5.6200     0.2150 H     1 <1>   0.0800 
 45 H      -10.4560    -3.8870    -1.4020 H     1 <1>   0.1500 
@<TRIPOS>BOND
  1   1   2  2   
  2   2   3  1   
  3   2   4  1   
  4   3   5  1   
  5   3   6  2   
  6   4   7  1   
  7   4  23  1   
  8   4  24  1   
  9   5   8  2   
 10   5   9  1   
 11   6  10  1   
 12   6  25  1   
 13   7   9  1   
 14   7  11  1   
 15   7  12  1   
 16   9  26  1   
 17   9  27  1   
 18  10  13  1   
 19  10  28  1   
 20  11  29  1   
 21  11  30  1   
 22  11  31  1   
 23  12  32  1   
 24  12  33  1   
 25  12  34  1   
 26  13  14  1   
 27  13  35  1   
 28  13  36  1   
 29  14  15  1   
 30  14  37  1   
 31  14  38  1   
 32  15  16  ar  
 33  15  17  ar  
 34  16  18  1   
 35  16  19  ar  
 36  17  20  ar  
 37  17  39  1   
 38  18  21  1   
 39  19  22  ar  
 40  19  40  1   
 41  20  22  ar  
 42  20  41  1   
 43  21  42  1   
 44  21  43  1   
 45  21  44  1   
 46  22  45  1   
@<TRIPOS>SUBSTRUCTURE
  1 ****  13 GROUP 4 **** **** 0

# MOE 2024.06 (io_trps.svl 2023.06)
