@<TRIPOS>MOLECULE
NONAME
36 38 1 0 0 
SMALL
USER_CHARGES


@<TRIPOS>ATOM
  1 S       -0.0170     2.0880    -0.6690 S.o2  1 <1>   1.5010 
  2 O       -0.7060     2.6330    -1.8130 O.2   1 <1>  -0.6500 
  3 O        0.5760     2.9400     0.3330 O.2   1 <1>  -0.6500 
  4 N        1.2470     1.1650    -1.3730 N.am  1 <1>  -0.7570 
  5 C       -1.0100     0.8070     0.1010 C.2   1 <1>  -0.0630 
  6 C        1.9250     0.1460    -0.7200 C.ar  1 <1>   0.1990 
  7 C       -1.4690     0.8610     1.4090 C.2   1 <1>   0.1390 
  8 C       -1.4750    -0.3850    -0.3540 C.2   1 <1>  -0.3020 
  9 C        2.0510    -1.0920    -1.3360 C.ar  1 <1>  -0.1500 
 10 C        2.4680     0.3290     0.5490 C.ar  1 <1>  -0.1500 
 11 N       -2.1480    -0.1920     1.7480 N.2   1 <1>  -0.7070 
 12 N       -2.1460    -0.9700     0.6540 N.pl3 1 <1>   0.3140 
 13 C        2.6850    -2.1360    -0.6880 C.ar  1 <1>   0.0830 
 14 C        3.1030    -0.7130     1.2050 C.ar  1 <1>  -0.1500 
 15 C       -2.7870    -2.3000     0.6350 C.3   1 <1>   0.0960 
 16 O        2.7860    -3.3330    -1.3210 O.3   1 <1>  -0.3630 
 17 C        3.2050    -1.9490     0.5940 C.ar  1 <1>   0.0830 
 18 C       -1.7380    -3.4170     0.7060 C.3   1 <1>  -0.2400 
 19 C        3.7020    -4.2660    -0.7780 C.3   1 <1>   0.1200 
 20 O        3.8160    -2.9650     1.2620 O.3   1 <1>  -0.3630 
 21 C        3.6100    -4.2700     0.7540 C.3   1 <1>   0.1200 
 22 H        1.0430     1.0400    -2.3580 H     1 <1>   0.4200 
 23 H       -1.2800     1.6850     2.0800 H     1 <1>   0.1500 
 24 H       -1.3540    -0.8410    -1.3190 H     1 <1>   0.1500 
 25 H        1.6540    -1.2550    -2.3200 H     1 <1>   0.1500 
 26 H        2.3980     1.2890     1.0280 H     1 <1>   0.1500 
 27 H        3.5160    -0.5720     2.1870 H     1 <1>   0.1500 
 28 H       -3.3680    -2.3870    -0.2650 H     1 <1>   0.0800 
 29 H       -3.4510    -2.3660     1.4790 H     1 <1>   0.0800 
 30 H       -1.0760    -3.3700    -0.1410 H     1 <1>   0.0800 
 31 H       -2.2250    -4.3760     0.7080 H     1 <1>   0.0800 
 32 H       -1.1630    -3.3240     1.6110 H     1 <1>   0.0800 
 33 H        4.6920    -3.9850    -1.0920 H     1 <1>   0.0800 
 34 H        3.4650    -5.2350    -1.1780 H     1 <1>   0.0800 
 35 H        4.3600    -4.9130     1.1810 H     1 <1>   0.0800 
 36 H        2.6380    -4.6040     1.0710 H     1 <1>   0.0800 
@<TRIPOS>BOND
  1   1   2  2   
  2   1   3  2   
  3   1   4  am  
  4   1   5  1   
  5   4   6  1   
  6   4  22  1   
  7   5   7  1   
  8   5   8  2   
  9   6   9  ar  
 10   6  10  ar  
 11   7  11  2   
 12   7  23  1   
 13   8  12  1   
 14   8  24  1   
 15   9  13  ar  
 16   9  25  1   
 17  10  14  ar  
 18  10  26  1   
 19  11  12  1   
 20  12  15  1   
 21  13  16  1   
 22  13  17  ar  
 23  14  17  ar  
 24  14  27  1   
 25  15  18  1   
 26  15  28  1   
 27  15  29  1   
 28  16  19  1   
 29  17  20  1   
 30  18  30  1   
 31  18  31  1   
 32  18  32  1   
 33  19  21  1   
 34  19  33  1   
 35  19  34  1   
 36  20  21  1   
 37  21  35  1   
 38  21  36  1   
@<TRIPOS>SUBSTRUCTURE
  1 ****   6 GROUP 4 **** **** 0

# MOE 2024.06 (io_trps.svl 2023.06)
