@<TRIPOS>MOLECULE
NONAME
42 43 1 0 0 
SMALL
USER_CHARGES


@<TRIPOS>ATOM
  1 S       -0.0920    -0.1510     0.1660 S.o2  1 <1>   1.4470 
  2 O       -0.1680    -1.1520    -0.8730 O.2   1 <1>  -0.6500 
  3 O       -0.5030    -0.4670     1.5160 O.2   1 <1>  -0.6500 
  4 N       -1.1110     1.0600    -0.3860 N.am  1 <1>  -0.9140 
  5 C        1.5320     0.6530     0.1750 C.ar  1 <1>  -0.0090 
  6 C       -2.5020     0.8140    -0.0590 C.3   1 <1>   0.1960 
  7 C        1.7730     1.7650     0.9730 C.ar  1 <1>  -0.1500 
  8 C        2.5790     0.1890    -0.6130 C.ar  1 <1>  -0.1500 
  9 C       -3.3590     1.8890    -0.7260 C.3   1 <1>  -0.1600 
 10 C        3.0080     2.3890     0.9850 C.ar  1 <1>  -0.1500 
 11 C        3.8140     0.8110    -0.6060 C.ar  1 <1>  -0.1500 
 12 C       -4.8460     1.6940    -0.4100 C.3   1 <1>  -0.2400 
 13 C        4.0520     1.9210     0.1970 C.ar  1 <1>   0.1170 
 14 N        5.2810     2.5920     0.2320 N.am  1 <1>  -0.5470 
 15 C        6.5480     2.1790    -0.0700 C.2   1 <1>   0.6900 
 16 O        6.7860     1.0240    -0.3670 O.2   1 <1>  -0.5700 
 17 N        7.5640     3.0950    -0.0150 N.am  1 <1>  -0.6600 
 18 C        7.4220     4.5570     0.1600 C.3   1 <1>   0.1400 
 19 C        8.9580     2.7350    -0.3580 C.3   1 <1>   0.1400 
 20 C        8.8490     5.0950     0.1350 C.3   1 <1>  -0.1600 
 21 C        9.6390     4.0640    -0.6650 C.3   1 <1>  -0.1600 
 22 H       -1.0320     0.9880    -1.3980 H     1 <1>   0.4200 
 23 H       -2.6360     0.8540     1.0110 H     1 <1>   0.0800 
 24 H       -2.7970    -0.1640    -0.4060 H     1 <1>   0.0800 
 25 H        0.9780     2.1440     1.5940 H     1 <1>   0.1500 
 26 H        2.4280    -0.6720    -1.2430 H     1 <1>   0.1500 
 27 H       -3.2200     1.8520    -1.7920 H     1 <1>   0.0800 
 28 H       -3.0490     2.8570    -0.3720 H     1 <1>   0.0800 
 29 H        3.1600     3.2450     1.6170 H     1 <1>   0.1500 
 30 H        4.5990     0.4270    -1.2330 H     1 <1>   0.1500 
 31 H       -5.1870     0.7380    -0.7690 H     1 <1>   0.0800 
 32 H       -5.4270     2.4640    -0.8870 H     1 <1>   0.0800 
 33 H       -5.0160     1.7480     0.6510 H     1 <1>   0.0800 
 34 H        5.2640     3.5220     0.6310 H     1 <1>   0.3700 
 35 H        6.9370     4.7910     1.0920 H     1 <1>   0.0800 
 36 H        6.8580     4.9590    -0.6650 H     1 <1>   0.0800 
 37 H        8.9900     2.0680    -1.2030 H     1 <1>   0.0800 
 38 H        9.4140     2.2600     0.4930 H     1 <1>   0.0800 
 39 H        9.2240     5.1380     1.1430 H     1 <1>   0.0800 
 40 H        8.9000     6.0780    -0.2990 H     1 <1>   0.0800 
 41 H        9.5450     4.2660    -1.7180 H     1 <1>   0.0800 
 42 H       10.6820     4.0480    -0.4030 H     1 <1>   0.0800 
@<TRIPOS>BOND
  1   1   2  2   
  2   1   3  2   
  3   1   4  am  
  4   1   5  1   
  5   4   6  1   
  6   4  22  1   
  7   5   7  ar  
  8   5   8  ar  
  9   6   9  1   
 10   6  23  1   
 11   6  24  1   
 12   7  10  ar  
 13   7  25  1   
 14   8  11  ar  
 15   8  26  1   
 16   9  12  1   
 17   9  27  1   
 18   9  28  1   
 19  10  13  ar  
 20  10  29  1   
 21  11  13  ar  
 22  11  30  1   
 23  12  31  1   
 24  12  32  1   
 25  12  33  1   
 26  13  14  1   
 27  14  15  am  
 28  14  34  1   
 29  15  16  2   
 30  15  17  am  
 31  17  18  1   
 32  17  19  1   
 33  18  20  1   
 34  18  35  1   
 35  18  36  1   
 36  19  21  1   
 37  19  37  1   
 38  19  38  1   
 39  20  21  1   
 40  20  39  1   
 41  20  40  1   
 42  21  41  1   
 43  21  42  1   
@<TRIPOS>SUBSTRUCTURE
  1 ****  13 GROUP 4 **** **** 0

# MOE 2024.06 (io_trps.svl 2023.06)
