@<TRIPOS>MOLECULE
NONAME
60 63 1 0 0 
SMALL
USER_CHARGES


@<TRIPOS>ATOM
  1 O        0.1720    -1.4550     1.6280 O.2   1 <1>  -0.5700 
  2 C        0.2680    -2.5190     1.0630 C.2   1 <1>   0.5690 
  3 N       -0.7020    -3.1400     0.3240 N.am  1 <1>  -0.2370 
  4 C        1.5520    -3.3510     1.1110 C.3   1 <1>   0.2510 
  5 C       -2.0030    -2.6320     0.0960 C.ar  1 <1>   0.1170 
  6 C       -0.2200    -4.3300    -0.1520 C.2   1 <1>   0.5690 
  7 N        2.7190    -2.6400     0.5510 N.3   1 <1>  -0.9000 
  8 C        1.2130    -4.5690     0.2490 C.3   1 <1>  -0.0990 
  9 C       -2.1930    -1.3100    -0.2990 C.ar  1 <1>  -0.1500 
 10 C       -3.1250    -3.4370     0.2620 C.ar  1 <1>  -0.1500 
 11 O       -0.8300    -5.1430    -0.7970 O.2   1 <1>  -0.5700 
 12 C        3.9870    -2.9360     1.2110 C.3   1 <1>   0.1900 
 13 C       -3.4620    -0.8040    -0.5190 C.ar  1 <1>  -0.1500 
 14 C       -4.3960    -2.9370     0.0430 C.ar  1 <1>  -0.1500 
 15 C        5.0020    -1.8920     0.7450 C.3   1 <1>  -0.1600 
 16 C        4.4730    -4.3470     0.8630 C.3   1 <1>  -0.1600 
 17 C       -4.5760    -1.6200    -0.3470 C.ar  1 <1>   0.0830 
 18 C        6.3910    -2.1640     1.3240 C.3   1 <1>   0.2090 
 19 C        5.8590    -4.6080     1.4510 C.3   1 <1>   0.2090 
 20 O       -5.8560    -1.2090    -0.5380 O.3   1 <1>  -0.3630 
 21 N        6.7980    -3.5540     0.9850 N.pl3 1 <1>  -0.8380 
 22 C       -6.1450     0.1140    -0.9250 C.3   1 <1>   0.1200 
 23 C        7.8980    -3.8310     0.1950 C.ar  1 <1>   0.7200 
 24 C       -7.6600     0.2490    -1.0460 C.3   1 <1>  -0.2400 
 25 N        8.8280    -2.8820     0.0970 N.ar  1 <1>  -0.6200 
 26 N        7.9360    -5.0220    -0.4020 N.ar  1 <1>  -0.6200 
 27 C        9.8640    -3.1510    -0.6560 C.ar  1 <1>   0.1670 
 28 C        8.9790    -5.2700    -1.1510 C.ar  1 <1>   0.1670 
 29 C        9.9880    -4.3510    -1.3130 C.ar  1 <1>  -0.1500 
 30 C       10.9240    -2.0770    -0.7710 C.3   1 <1>  -0.0970 
 31 C        9.0260    -6.6190    -1.8350 C.3   1 <1>  -0.0970 
 32 H        1.7290    -3.6360     2.1340 H     1 <1>   0.0800 
 33 H        2.5430    -1.6340     0.6960 H     1 <1>   0.3600 
 34 H        1.2840    -5.4800     0.8130 H     1 <1>   0.0800 
 35 H        1.8270    -4.6260    -0.6320 H     1 <1>   0.0800 
 36 H       -1.3390    -0.6690    -0.4320 H     1 <1>   0.1500 
 37 H       -3.0090    -4.4640     0.5600 H     1 <1>   0.1500 
 38 H        3.8720    -2.8470     2.2800 H     1 <1>   0.0800 
 39 H       -3.5610     0.2210    -0.8190 H     1 <1>   0.1500 
 40 H       -5.2590    -3.5650     0.1720 H     1 <1>   0.1500 
 41 H        4.6860    -0.9120     1.0480 H     1 <1>   0.0800 
 42 H        5.0750    -1.9110    -0.3290 H     1 <1>   0.0800 
 43 H        4.5290    -4.4620    -0.2050 H     1 <1>   0.0800 
 44 H        3.8000    -5.0840     1.2560 H     1 <1>   0.0800 
 45 H        6.3760    -2.0550     2.3950 H     1 <1>   0.0800 
 46 H        7.0820    -1.4410     0.9280 H     1 <1>   0.0800 
 47 H        6.1950    -5.5900     1.1690 H     1 <1>   0.0800 
 48 H        5.8140    -4.5780     2.5260 H     1 <1>   0.0800 
 49 H       -5.6700     0.3040    -1.8710 H     1 <1>   0.0800 
 50 H       -5.7630     0.7810    -0.1710 H     1 <1>   0.0800 
 51 H       -8.0330    -0.4340    -1.7880 H     1 <1>   0.0800 
 52 H       -7.9140     1.2510    -1.3410 H     1 <1>   0.0800 
 53 H       -8.1250     0.0400    -0.0990 H     1 <1>   0.0800 
 54 H       10.8390    -4.5630    -1.9290 H     1 <1>   0.1500 
 55 H       11.3090    -1.8480     0.2060 H     1 <1>   0.0800 
 56 H       10.4880    -1.1870    -1.1870 H     1 <1>   0.0800 
 57 H       11.7330    -2.3970    -1.4000 H     1 <1>   0.0800 
 58 H        9.0040    -7.3970    -1.0940 H     1 <1>   0.0800 
 59 H        9.9170    -6.7240    -2.4250 H     1 <1>   0.0800 
 60 H        8.1690    -6.7260    -2.4740 H     1 <1>   0.0800 
@<TRIPOS>BOND
  1   1   2  2   
  2   2   3  am  
  3   2   4  1   
  4   3   5  1   
  5   3   6  am  
  6   4   7  1   
  7   4   8  1   
  8   4  32  1   
  9   5   9  ar  
 10   5  10  ar  
 11   6   8  1   
 12   6  11  2   
 13   7  12  1   
 14   7  33  1   
 15   8  34  1   
 16   8  35  1   
 17   9  13  ar  
 18   9  36  1   
 19  10  14  ar  
 20  10  37  1   
 21  12  15  1   
 22  12  16  1   
 23  12  38  1   
 24  13  17  ar  
 25  13  39  1   
 26  14  17  ar  
 27  14  40  1   
 28  15  18  1   
 29  15  41  1   
 30  15  42  1   
 31  16  19  1   
 32  16  43  1   
 33  16  44  1   
 34  17  20  1   
 35  18  21  1   
 36  18  45  1   
 37  18  46  1   
 38  19  21  1   
 39  19  47  1   
 40  19  48  1   
 41  20  22  1   
 42  21  23  1   
 43  22  24  1   
 44  22  49  1   
 45  22  50  1   
 46  23  25  ar  
 47  23  26  ar  
 48  24  51  1   
 49  24  52  1   
 50  24  53  1   
 51  25  27  ar  
 52  26  28  ar  
 53  27  29  ar  
 54  27  30  1   
 55  28  29  ar  
 56  28  31  1   
 57  29  54  1   
 58  30  55  1   
 59  30  56  1   
 60  30  57  1   
 61  31  58  1   
 62  31  59  1   
 63  31  60  1   
@<TRIPOS>SUBSTRUCTURE
  1 ****   7 GROUP 4 **** **** 0

# MOE 2024.06 (io_trps.svl 2023.06)
