@<TRIPOS>MOLECULE
NONAME
48 50 1 0 0 
SMALL
USER_CHARGES


@<TRIPOS>ATOM
  1 S        0.3690    -0.8880     1.1240 S.o2  1 <1>   1.3330 
  2 O        1.0940    -2.0450     1.5900 O.2   1 <1>  -0.6500 
  3 O       -0.8210    -0.4430     1.8100 O.2   1 <1>  -0.6500 
  4 N        1.4650     0.4520     1.0590 N.am  1 <1>  -0.6930 
  5 C       -0.0270    -1.1080    -0.5960 C.3   1 <1>  -0.1350 
  6 C        2.7510     0.3470     0.5510 C.ar  1 <1>   0.1990 
  7 C        0.9720     1.7530     1.5480 C.3   1 <1>   0.3340 
  8 C        3.6810    -0.5260     1.1030 C.ar  1 <1>  -0.1500 
  9 C        3.1510     1.1180    -0.5350 C.ar  1 <1>  -0.1500 
 10 C        0.0710     2.3940     0.5060 C.2   1 <1>  -0.2880 
 11 C        4.9580    -0.6300     0.5870 C.ar  1 <1>  -0.1500 
 12 C        4.4300     1.0160    -1.0470 C.ar  1 <1>  -0.1500 
 13 C        0.3410     3.5110    -0.1780 C.2   1 <1>  -0.3000 
 14 C        5.3740     0.1420    -0.5020 C.ar  1 <1>   0.0860 
 15 C        6.7140     0.0510    -1.0540 C.2   1 <1>   0.5440 
 16 O        6.9450     0.4300    -2.1860 O.2   1 <1>  -0.5700 
 17 N        7.7470    -0.4510    -0.3120 N.am  1 <1>  -0.7300 
 18 C        9.1370    -0.6280    -0.7740 C.3   1 <1>   0.2200 
 19 C        9.6160    -2.0920    -0.6710 C.3   1 <1>  -0.0800 
 20 C       10.1200     0.1200     0.1400 C.3   1 <1>  -0.1600 
 21 C       11.1230    -1.8930    -0.5970 C.3   1 <1>  -0.1600 
 22 C        9.3450    -2.6730     0.7320 C.3   1 <1>  -0.1600 
 23 C       11.0680    -0.9910     0.6250 C.3   1 <1>  -0.0800 
 24 C       10.3100    -1.8760     1.6280 C.3   1 <1>  -0.1600 
 25 H       -0.7250    -1.9130    -0.7110 H     1 <1>   0.0800 
 26 H        0.8600    -1.3400    -1.1520 H     1 <1>   0.0800 
 27 H       -0.4620    -0.2140    -0.9960 H     1 <1>   0.0800 
 28 H        1.8120     2.3960     1.7460 H     1 <1>   0.0800 
 29 H        0.4360     1.6200     2.4730 H     1 <1>   0.0800 
 30 H        3.3960    -1.1300     1.9460 H     1 <1>   0.1500 
 31 H        2.4500     1.7960    -0.9850 H     1 <1>   0.1500 
 32 H       -0.8470     1.8470     0.3740 H     1 <1>   0.1500 
 33 H        5.6390    -1.3310     1.0350 H     1 <1>   0.1500 
 34 H        4.7140     1.6210    -1.8920 H     1 <1>   0.1500 
 35 H       -0.3240     3.9430    -0.9060 H     1 <1>   0.1500 
 36 H        1.2440     4.0890    -0.0700 H     1 <1>   0.1500 
 37 H        7.5970    -0.7050     0.6620 H     1 <1>   0.3700 
 38 H        9.2450    -0.2800    -1.7890 H     1 <1>   0.0800 
 39 H        9.2840    -2.7110    -1.4860 H     1 <1>   0.0800 
 40 H        9.6340     0.6240     0.9570 H     1 <1>   0.0800 
 41 H       10.6690     0.8400    -0.4410 H     1 <1>   0.0800 
 42 H       11.5230    -1.3970    -1.4660 H     1 <1>   0.0800 
 43 H       11.6590    -2.8100    -0.4170 H     1 <1>   0.0800 
 44 H        9.6080    -3.7170     0.7490 H     1 <1>   0.0800 
 45 H        8.3200    -2.5780     1.0410 H     1 <1>   0.0800 
 46 H       12.0200    -0.6350     0.9810 H     1 <1>   0.0800 
 47 H       10.9910    -2.5450     2.1270 H     1 <1>   0.0800 
 48 H        9.7880    -1.2910     2.3650 H     1 <1>   0.0800 
@<TRIPOS>BOND
  1   1   2  2   
  2   1   3  2   
  3   1   4  am  
  4   1   5  1   
  5   4   6  1   
  6   4   7  1   
  7   5  25  1   
  8   5  26  1   
  9   5  27  1   
 10   6   8  ar  
 11   6   9  ar  
 12   7  10  1   
 13   7  28  1   
 14   7  29  1   
 15   8  11  ar  
 16   8  30  1   
 17   9  12  ar  
 18   9  31  1   
 19  10  13  2   
 20  10  32  1   
 21  11  14  ar  
 22  11  33  1   
 23  12  14  ar  
 24  12  34  1   
 25  13  35  1   
 26  13  36  1   
 27  14  15  1   
 28  15  16  2   
 29  15  17  am  
 30  17  18  1   
 31  17  37  1   
 32  18  19  1   
 33  18  20  1   
 34  18  38  1   
 35  19  21  1   
 36  19  22  1   
 37  19  39  1   
 38  20  23  1   
 39  20  40  1   
 40  20  41  1   
 41  21  23  1   
 42  21  42  1   
 43  21  43  1   
 44  22  24  1   
 45  22  44  1   
 46  22  45  1   
 47  23  24  1   
 48  23  46  1   
 49  24  47  1   
 50  24  48  1   
@<TRIPOS>SUBSTRUCTURE
  1 ****  11 GROUP 4 **** **** 0

# MOE 2024.06 (io_trps.svl 2023.06)
