@<TRIPOS>MOLECULE
NONAME
31 32 1 0 0 
SMALL
USER_CHARGES


@<TRIPOS>ATOM
  1 S        0.4220     0.1740     0.0950 S.3   1 <1>  -0.0800 
  2 C       -0.7700    -0.6330    -0.9060 C.2   1 <1>  -0.1100 
  3 C       -0.0830    -0.7350     1.5060 C.2   1 <1>  -0.1100 
  4 C       -1.4880    -1.5130    -0.1800 C.2   1 <1>  -0.1810 
  5 C       -1.0880    -1.5750     1.1980 C.2   1 <1>  -0.1500 
  6 C       -2.6150    -2.3730    -0.7160 C.3   1 <1>   0.5240 
  7 N       -3.8830    -1.9210    -0.0880 N.4   1 <1>  -0.9590 
  8 C       -4.9530    -2.9360    -0.2830 C.3   1 <1>   0.3430 
  9 C       -4.2460    -0.5470    -0.5450 C.3   1 <1>   0.3430 
 10 C       -6.1910    -2.6420     0.5670 C.3   1 <1>  -0.1600 
 11 C       -5.0170     0.1760     0.5580 C.3   1 <1>  -0.1600 
 12 C       -7.0070    -1.4460     0.0560 C.3   1 <1>  -0.1600 
 13 C       -6.5330    -0.0840     0.5810 C.3   1 <1>  -0.1600 
 14 H       -0.7960    -0.3460    -1.9430 H     1 <1>   0.1500 
 15 H        0.4400    -0.5420     2.4270 H     1 <1>   0.1500 
 16 H       -1.5520    -2.2430     1.9030 H     1 <1>   0.1500 
 17 H       -2.4190    -3.4040    -0.4690 H     1 <1>   0.0800 
 18 H       -2.6750    -2.2800    -1.7880 H     1 <1>   0.0800 
 19 H       -3.6890    -1.8460     0.9170 H     1 <1>   0.4500 
 20 H       -4.5760    -3.9060    -0.0030 H     1 <1>   0.0800 
 21 H       -5.2360    -2.9780    -1.3230 H     1 <1>   0.0800 
 22 H       -4.8230    -0.5790    -1.4550 H     1 <1>   0.0800 
 23 H       -3.3460     0.0160    -0.7380 H     1 <1>   0.0800 
 24 H       -5.9310    -2.5210     1.6040 H     1 <1>   0.0800 
 25 H       -6.8240    -3.5110     0.5050 H     1 <1>   0.0800 
 26 H       -4.8750     1.2340     0.4220 H     1 <1>   0.0800 
 27 H       -4.5890    -0.0640     1.5160 H     1 <1>   0.0800 
 28 H       -8.0320    -1.5730     0.3680 H     1 <1>   0.0800 
 29 H       -7.0160    -1.4420    -1.0210 H     1 <1>   0.0800 
 30 H       -7.0240     0.6780    -0.0030 H     1 <1>   0.0800 
 31 H       -6.8810     0.0400     1.5940 H     1 <1>   0.0800 
@<TRIPOS>BOND
  1   1   2  1   
  2   1   3  1   
  3   2   4  2   
  4   2  14  1   
  5   3   5  2   
  6   3  15  1   
  7   4   5  1   
  8   4   6  1   
  9   5  16  1   
 10   6   7  1   
 11   6  17  1   
 12   6  18  1   
 13   7   8  1   
 14   7   9  1   
 15   7  19  1   
 16   8  10  1   
 17   8  20  1   
 18   8  21  1   
 19   9  11  1   
 20   9  22  1   
 21   9  23  1   
 22  10  12  1   
 23  10  24  1   
 24  10  25  1   
 25  11  13  1   
 26  11  26  1   
 27  11  27  1   
 28  12  13  1   
 29  12  28  1   
 30  12  29  1   
 31  13  30  1   
 32  13  31  1   
@<TRIPOS>SUBSTRUCTURE
  1 ****   7 GROUP 4 **** **** 0

# MOE 2024.06 (io_trps.svl 2023.06)
