@<TRIPOS>MOLECULE
NONAME
49 51 1 0 0 
SMALL
USER_CHARGES


@<TRIPOS>ATOM
  1 F        0.5610    -0.2590    -0.3510 F     1 <1>  -0.1900 
  2 C        1.7270    -0.8350    -0.2650 C.ar  1 <1>   0.1900 
  3 C        2.3100    -0.9810     0.9790 C.ar  1 <1>  -0.1500 
  4 C        2.3410    -1.2800    -1.4190 C.ar  1 <1>  -0.1500 
  5 C        3.5500    -1.5910     1.0620 C.ar  1 <1>  -0.1500 
  6 C        3.5810    -1.8870    -1.3180 C.ar  1 <1>  -0.1500 
  7 C        4.2130    -2.0470    -0.0820 C.ar  1 <1>   0.0860 
  8 C        5.5160    -2.6790     0.0030 C.2   1 <1>   0.5440 
  9 O        5.6450    -3.8110    -0.4250 O.2   1 <1>  -0.5700 
 10 N        6.6100    -2.0360     0.5500 N.am  1 <1>  -0.6600 
 11 C        7.8990    -2.7480     0.7760 C.3   1 <1>   0.1400 
 12 C        6.6660    -0.5680     0.7980 C.3   1 <1>   0.1400 
 13 C        8.9890    -2.1370    -0.1070 C.3   1 <1>  -0.1600 
 14 C        7.7530     0.0600    -0.0780 C.3   1 <1>  -0.1600 
 15 C        9.1220    -0.6210     0.1250 C.3   1 <1>  -0.0190 
 16 C       10.2190    -0.0270    -0.7600 C.2   1 <1>   0.5690 
 17 O        9.9390     0.5450    -1.7860 O.2   1 <1>  -0.5700 
 18 N       11.5060    -0.1680    -0.3630 N.am  1 <1>  -0.7300 
 19 C       12.6700     0.2580    -1.1530 C.3   1 <1>   0.2840 
 20 C       13.8560    -0.5760    -0.7060 C.ar  1 <1>  -0.1430 
 21 C       14.7330    -0.0950     0.2540 C.ar  1 <1>  -0.1500 
 22 C       14.0660    -1.8340    -1.2460 C.ar  1 <1>  -0.1500 
 23 C       15.8080    -0.8640     0.6650 C.ar  1 <1>  -0.1500 
 24 C       15.1410    -2.6020    -0.8350 C.ar  1 <1>  -0.1500 
 25 C       16.0190    -2.1210     0.1220 C.ar  1 <1>  -0.1430 
 26 C       17.1990    -2.9620     0.5750 C.3   1 <1>  -0.0970 
 27 H        1.7990    -0.6290     1.8570 H     1 <1>   0.1500 
 28 H        1.8560    -1.1550    -2.3710 H     1 <1>   0.1500 
 29 H        4.0200    -1.7230     2.0210 H     1 <1>   0.1500 
 30 H        4.0780    -2.2490    -2.2020 H     1 <1>   0.1500 
 31 H        7.8020    -3.7980     0.5540 H     1 <1>   0.0800 
 32 H        8.1700    -2.6570     1.8140 H     1 <1>   0.0800 
 33 H        6.8870    -0.3960     1.8380 H     1 <1>   0.0800 
 34 H        5.7250    -0.0990     0.5730 H     1 <1>   0.0800 
 35 H        8.7450    -2.3270    -1.1390 H     1 <1>   0.0800 
 36 H        9.9250    -2.6250     0.1010 H     1 <1>   0.0800 
 37 H        7.8350     1.1080     0.1490 H     1 <1>   0.0800 
 38 H        7.4550    -0.0240    -1.1090 H     1 <1>   0.0800 
 39 H        9.4160    -0.4620     1.1470 H     1 <1>   0.0800 
 40 H       11.7480    -0.7010     0.4730 H     1 <1>   0.3700 
 41 H       12.8560     1.3050    -0.9840 H     1 <1>   0.0800 
 42 H       12.4780     0.1090    -2.2020 H     1 <1>   0.0800 
 43 H       14.5840     0.8790     0.6870 H     1 <1>   0.1500 
 44 H       13.3900    -2.2220    -1.9900 H     1 <1>   0.1500 
 45 H       16.4820    -0.4790     1.4110 H     1 <1>   0.1500 
 46 H       15.2910    -3.5770    -1.2630 H     1 <1>   0.1500 
 47 H       18.0320    -2.3320     0.8300 H     1 <1>   0.0800 
 48 H       17.5070    -3.6310    -0.2080 H     1 <1>   0.0800 
 49 H       16.9230    -3.5400     1.4380 H     1 <1>   0.0800 
@<TRIPOS>BOND
  1   1   2  1   
  2   2   3  ar  
  3   2   4  ar  
  4   3   5  ar  
  5   3  27  1   
  6   4   6  ar  
  7   4  28  1   
  8   5   7  ar  
  9   5  29  1   
 10   6   7  ar  
 11   6  30  1   
 12   7   8  1   
 13   8   9  2   
 14   8  10  am  
 15  10  11  1   
 16  10  12  1   
 17  11  13  1   
 18  11  31  1   
 19  11  32  1   
 20  12  14  1   
 21  12  33  1   
 22  12  34  1   
 23  13  15  1   
 24  13  35  1   
 25  13  36  1   
 26  14  15  1   
 27  14  37  1   
 28  14  38  1   
 29  15  16  1   
 30  15  39  1   
 31  16  17  2   
 32  16  18  am  
 33  18  19  1   
 34  18  40  1   
 35  19  20  1   
 36  19  41  1   
 37  19  42  1   
 38  20  21  ar  
 39  20  22  ar  
 40  21  23  ar  
 41  21  43  1   
 42  22  24  ar  
 43  22  44  1   
 44  23  25  ar  
 45  23  45  1   
 46  24  25  ar  
 47  24  46  1   
 48  25  26  1   
 49  26  47  1   
 50  26  48  1   
 51  26  49  1   
@<TRIPOS>SUBSTRUCTURE
  1 ****  15 GROUP 4 **** **** 0

# MOE 2024.06 (io_trps.svl 2023.06)
