@<TRIPOS>MOLECULE
NONAME
41 43 1 0 0 
SMALL
USER_CHARGES


@<TRIPOS>ATOM
  1 O        0.1620     0.9650    -0.6540 O.3   1 <1>  -0.5600 
  2 C       -0.3590     1.5700     0.4850 C.3   1 <1>   0.5600 
  3 C        1.3150     0.2740    -0.3240 C.3   1 <1>   0.1200 
  4 O        0.5380     1.3540     1.5140 O.3   1 <1>  -0.5600 
  5 C       -0.5030     3.0600     0.2250 C.3   1 <1>  -0.1600 
  6 C       -1.6910     0.9240     0.8240 C.3   1 <1>  -0.1600 
  7 C        1.7250     0.8720     1.0010 C.3   1 <1>   0.1200 
  8 C       -1.4950     3.2730    -0.9090 C.3   1 <1>   0.3430 
  9 C       -2.6700     1.1680    -0.3150 C.3   1 <1>   0.3430 
 10 N       -2.8050     2.6360    -0.5760 N.4   1 <1>  -0.9590 
 11 C       -3.8070     2.8960    -1.6450 C.3   1 <1>   0.4860 
 12 C       -5.1700     2.4700    -1.1420 C.ar  1 <1>  -0.1440 
 13 C       -5.8260     3.2300    -0.1850 C.ar  1 <1>  -0.1500 
 14 C       -5.7740     1.3180    -1.6260 C.ar  1 <1>  -0.1500 
 15 C       -7.0660     2.8460     0.2970 C.ar  1 <1>   0.0820 
 16 C       -7.0140     0.9290    -1.1500 C.ar  1 <1>  -0.1500 
 17 O       -7.6260     3.6490     1.2330 O.3   1 <1>  -0.3620 
 18 C       -7.6620     1.6860    -0.1890 C.ar  1 <1>  -0.1500 
 19 C       -8.9230     3.4030     1.7320 C.3   1 <1>   0.0400 
 20 H        2.0590     0.4120    -1.0900 H     1 <1>   0.0800 
 21 H        1.0760    -0.7700    -0.2190 H     1 <1>   0.0800 
 22 H        0.4520     3.4710    -0.0460 H     1 <1>   0.0800 
 23 H       -0.8470     3.5570     1.1140 H     1 <1>   0.0800 
 24 H       -2.0800     1.3370     1.7370 H     1 <1>   0.0800 
 25 H       -1.5500    -0.1320     0.9640 H     1 <1>   0.0800 
 26 H        2.4040     1.6960     0.8650 H     1 <1>   0.0800 
 27 H        2.1470     0.1460     1.6740 H     1 <1>   0.0800 
 28 H       -1.0950     2.8310    -1.8090 H     1 <1>   0.0800 
 29 H       -1.6260     4.3300    -1.0780 H     1 <1>   0.0800 
 30 H       -3.6290     0.7460    -0.0580 H     1 <1>   0.0800 
 31 H       -2.3060     0.6730    -1.2020 H     1 <1>   0.0800 
 32 H       -3.1820     3.0630     0.2800 H     1 <1>   0.4500 
 33 H       -3.5530     2.3500    -2.5390 H     1 <1>   0.0800 
 34 H       -3.8330     3.9480    -1.8820 H     1 <1>   0.0800 
 35 H       -5.3990     4.1370     0.2040 H     1 <1>   0.1500 
 36 H       -5.2950     0.7130    -2.3780 H     1 <1>   0.1500 
 37 H       -7.4820     0.0350    -1.5280 H     1 <1>   0.1500 
 38 H       -8.6230     1.3620     0.1640 H     1 <1>   0.1500 
 39 H       -9.1660     4.1820     2.4320 H     1 <1>   0.0800 
 40 H       -8.9310     2.4500     2.2310 H     1 <1>   0.0800 
 41 H       -9.6210     3.4170     0.9140 H     1 <1>   0.0800 
@<TRIPOS>BOND
  1   1   2  1   
  2   1   3  1   
  3   2   4  1   
  4   2   5  1   
  5   2   6  1   
  6   3   7  1   
  7   3  20  1   
  8   3  21  1   
  9   4   7  1   
 10   5   8  1   
 11   5  22  1   
 12   5  23  1   
 13   6   9  1   
 14   6  24  1   
 15   6  25  1   
 16   7  26  1   
 17   7  27  1   
 18   8  10  1   
 19   8  28  1   
 20   8  29  1   
 21   9  10  1   
 22   9  30  1   
 23   9  31  1   
 24  10  11  1   
 25  10  32  1   
 26  11  12  1   
 27  11  33  1   
 28  11  34  1   
 29  12  13  ar  
 30  12  14  ar  
 31  13  15  ar  
 32  13  35  1   
 33  14  16  ar  
 34  14  36  1   
 35  15  17  1   
 36  15  18  ar  
 37  16  18  ar  
 38  16  37  1   
 39  17  19  1   
 40  18  38  1   
 41  19  39  1   
 42  19  40  1   
 43  19  41  1   
@<TRIPOS>SUBSTRUCTURE
  1 ****  10 GROUP 4 **** **** 0

# MOE 2024.06 (io_trps.svl 2023.06)
