@<TRIPOS>MOLECULE
NONAME
48 50 1 0 0 
SMALL
USER_CHARGES


@<TRIPOS>ATOM
  1 O        0.2230     0.1290     1.5430 O.2   1 <1>  -0.5700 
  2 C       -0.0290     0.8830     0.6190 C.2   1 <1>   0.5440 
  3 N        0.1030     0.4170    -0.6690 N.am  1 <1>  -0.6600 
  4 C       -0.4160     2.2480     0.8950 C.ar  1 <1>   0.0860 
  5 C        0.3370    -1.0310    -0.9450 C.3   1 <1>   0.1400 
  6 C        0.4710     1.3090    -1.8080 C.3   1 <1>   0.1400 
  7 C        0.4430     3.1060     1.5980 C.ar  1 <1>   0.1170 
  8 C       -1.6460     2.7390     0.4560 C.ar  1 <1>  -0.1500 
  9 C       -0.2090    -1.4270    -2.3260 C.3   1 <1>   0.1200 
 10 C       -0.0790     0.7670    -3.1380 C.3   1 <1>   0.1200 
 11 N        1.6800     2.6160     2.0380 N.am  1 <1>  -0.5470 
 12 C        0.0440     4.4180     1.8390 C.ar  1 <1>  -0.1500 
 13 C       -2.0260     4.0430     0.6990 C.ar  1 <1>  -0.1500 
 14 O        0.2820    -0.5720    -3.3190 O.3   1 <1>  -0.5600 
 15 C        2.8860     3.2300     2.2430 C.2   1 <1>   0.5690 
 16 C       -1.1760     4.8860     1.3930 C.ar  1 <1>  -0.1500 
 17 O        3.0440     4.4270     2.1760 O.2   1 <1>  -0.5700 
 18 C        4.1050     2.3450     2.5370 C.3   1 <1>   0.2610 
 19 O        4.0520     1.1450     1.7780 O.3   1 <1>  -0.3630 
 20 C        4.1820     1.9370     4.0110 C.3   1 <1>  -0.2400 
 21 C        4.1280     1.1410     0.4210 C.ar  1 <1>   0.0820 
 22 C        4.4190     2.2650    -0.3500 C.ar  1 <1>  -0.1500 
 23 C        3.8920    -0.0710    -0.2070 C.ar  1 <1>  -0.1500 
 24 C        4.4680     2.1640    -1.7300 C.ar  1 <1>  -0.1500 
 25 C        3.9430    -0.1700    -1.5870 C.ar  1 <1>  -0.1500 
 26 C        4.2310     0.9480    -2.3490 C.ar  1 <1>  -0.1500 
 27 H       -0.1410    -1.6290    -0.1890 H     1 <1>   0.0800 
 28 H        1.3920    -1.2320    -0.9080 H     1 <1>   0.0800 
 29 H        1.5430     1.3700    -1.8710 H     1 <1>   0.0800 
 30 H        0.0960     2.3040    -1.6510 H     1 <1>   0.0800 
 31 H       -2.3070     2.0790    -0.0790 H     1 <1>   0.1500 
 32 H       -1.2840    -1.3840    -2.3330 H     1 <1>   0.0800 
 33 H        0.0980    -2.4280    -2.5710 H     1 <1>   0.0800 
 34 H        0.3250     1.3300    -3.9610 H     1 <1>   0.0800 
 35 H       -1.1520     0.8410    -3.1620 H     1 <1>   0.0800 
 36 H        1.7330     1.5870     2.0550 H     1 <1>   0.3700 
 37 H        0.6920     5.0810     2.3840 H     1 <1>   0.1500 
 38 H       -2.9790     4.4070     0.3540 H     1 <1>   0.1500 
 39 H       -1.4650     5.9050     1.5880 H     1 <1>   0.1500 
 40 H        5.0040     2.8690     2.2680 H     1 <1>   0.0800 
 41 H        3.3040     1.3840     4.2930 H     1 <1>   0.0800 
 42 H        4.2450     2.8170     4.6270 H     1 <1>   0.0800 
 43 H        5.0570     1.3360     4.1820 H     1 <1>   0.0800 
 44 H        4.6100     3.2230     0.0960 H     1 <1>   0.1500 
 45 H        3.6660    -0.9350     0.3920 H     1 <1>   0.1500 
 46 H        4.6940     3.0330    -2.3230 H     1 <1>   0.1500 
 47 H        3.7560    -1.1140    -2.0680 H     1 <1>   0.1500 
 48 H        4.2710     0.8710    -3.4220 H     1 <1>   0.1500 
@<TRIPOS>BOND
  1   1   2  2   
  2   2   3  am  
  3   2   4  1   
  4   3   5  1   
  5   3   6  1   
  6   4   7  ar  
  7   4   8  ar  
  8   5   9  1   
  9   5  27  1   
 10   5  28  1   
 11   6  10  1   
 12   6  29  1   
 13   6  30  1   
 14   7  11  1   
 15   7  12  ar  
 16   8  13  ar  
 17   8  31  1   
 18   9  14  1   
 19   9  32  1   
 20   9  33  1   
 21  10  14  1   
 22  10  34  1   
 23  10  35  1   
 24  11  15  am  
 25  11  36  1   
 26  12  16  ar  
 27  12  37  1   
 28  13  16  ar  
 29  13  38  1   
 30  15  17  2   
 31  15  18  1   
 32  16  39  1   
 33  18  19  1   
 34  18  20  1   
 35  18  40  1   
 36  19  21  1   
 37  20  41  1   
 38  20  42  1   
 39  20  43  1   
 40  21  22  ar  
 41  21  23  ar  
 42  22  24  ar  
 43  22  44  1   
 44  23  25  ar  
 45  23  45  1   
 46  24  26  ar  
 47  24  46  1   
 48  25  26  ar  
 49  25  47  1   
 50  26  48  1   
@<TRIPOS>SUBSTRUCTURE
  1 ****   2 GROUP 4 **** **** 0

# MOE 2024.06 (io_trps.svl 2023.06)
