@<TRIPOS>MOLECULE
NONAME
45 48 1 0 0 
SMALL
USER_CHARGES


@<TRIPOS>ATOM
  1 O        0.5710     0.4420    -1.2120 O.2   1 <1>  -0.5700 
  2 C        1.5960     0.9470    -0.7770 C.2   1 <1>   0.6160 
  3 N        2.6370     0.1540    -0.3240 N.am  1 <1>  -0.2940 
  4 C        1.7300     2.3650    -0.7090 C.2   1 <1>  -0.1240 
  5 C        3.8370     0.7440     0.0920 C.ar  1 <1>   0.4270 
  6 C        2.4700    -1.2500    -0.2910 C.ar  1 <1>   0.1170 
  7 C        2.8700     2.9540    -0.2710 C.2   1 <1>  -0.1670 
  8 C        0.5020     3.1650    -1.1340 C.3   1 <1>   0.2580 
  9 N        4.8080    -0.0700     0.4940 N.ar  1 <1>  -0.6200 
 10 C        4.0060     2.1340     0.0760 C.ar  1 <1>   0.0280 
 11 C        2.6610    -2.0120    -1.4380 C.ar  1 <1>  -0.1500 
 12 C        2.1120    -1.8920     0.8890 C.ar  1 <1>  -0.1500 
 13 C        2.8960     4.4770    -0.1430 C.3   1 <1>  -0.0220 
 14 O        0.7640     4.5400    -1.2010 O.3   1 <1>  -0.5600 
 15 C        5.9390     0.4890     0.8360 C.ar  1 <1>   0.4700 
 16 C        5.3040     2.5710     0.4060 C.ar  1 <1>   0.4100 
 17 C        2.5000    -3.3860    -1.4060 C.ar  1 <1>  -0.1500 
 18 C        1.9500    -3.2660     0.9240 C.ar  1 <1>  -0.1500 
 19 C        1.4950     5.1230    -0.1660 C.3   1 <1>   0.2800 
 20 N        6.2500     1.7650     0.8090 N.ar  1 <1>  -0.6200 
 21 N        5.7460     3.8480     0.3130 N.pl3 1 <1>  -0.9000 
 22 C        2.1440    -4.0150    -0.2250 C.ar  1 <1>  -0.1500 
 23 C        1.5730     6.6200    -0.5320 C.3   1 <1>  -0.1600 
 24 C        0.7380     4.9300     1.1630 C.3   1 <1>  -0.2400 
 25 C        2.4230     7.5010     0.4020 C.3   1 <1>  -0.2400 
 26 H       -0.3130     3.0030    -0.4500 H     1 <1>   0.0800 
 27 H        0.1820     2.8570    -2.1150 H     1 <1>   0.0800 
 28 H        2.9330    -1.5230    -2.3550 H     1 <1>   0.1500 
 29 H        1.9640    -1.3100     1.7800 H     1 <1>   0.1500 
 30 H        3.4760     4.8800    -0.9520 H     1 <1>   0.0800 
 31 H        3.3670     4.7540     0.7830 H     1 <1>   0.0800 
 32 H        6.7160    -0.1790     1.1740 H     1 <1>   0.1500 
 33 H        2.6490    -3.9650    -2.3000 H     1 <1>   0.1500 
 34 H        1.6740    -3.7510     1.8430 H     1 <1>   0.1500 
 35 H        6.7390     3.9900     0.5090 H     1 <1>   0.4000 
 36 H        5.3500     4.4920    -0.3700 H     1 <1>   0.4000 
 37 H        2.0180    -5.0830    -0.1990 H     1 <1>   0.1500 
 38 H        0.5730     7.0180    -0.5560 H     1 <1>   0.0800 
 39 H        1.9720     6.7060    -1.5280 H     1 <1>   0.0800 
 40 H        0.6910     3.8960     1.4470 H     1 <1>   0.0800 
 41 H       -0.2590     5.3230     1.0810 H     1 <1>   0.0800 
 42 H        1.2400     5.4480     1.9580 H     1 <1>   0.0800 
 43 H        2.0220     7.5100     1.4000 H     1 <1>   0.0800 
 44 H        2.4200     8.5140     0.0380 H     1 <1>   0.0800 
 45 H        3.4430     7.1640     0.4370 H     1 <1>   0.0800 
@<TRIPOS>BOND
  1   1   2  2   
  2   2   3  am  
  3   2   4  1   
  4   3   5  1   
  5   3   6  1   
  6   4   7  2   
  7   4   8  1   
  8   5   9  ar  
  9   5  10  ar  
 10   6  11  ar  
 11   6  12  ar  
 12   7  10  1   
 13   7  13  1   
 14   8  14  1   
 15   8  26  1   
 16   8  27  1   
 17   9  15  ar  
 18  10  16  ar  
 19  11  17  ar  
 20  11  28  1   
 21  12  18  ar  
 22  12  29  1   
 23  13  19  1   
 24  13  30  1   
 25  13  31  1   
 26  14  19  1   
 27  15  20  ar  
 28  15  32  1   
 29  16  20  ar  
 30  16  21  1   
 31  17  22  ar  
 32  17  33  1   
 33  18  22  ar  
 34  18  34  1   
 35  19  23  1   
 36  19  24  1   
 37  21  35  1   
 38  21  36  1   
 39  22  37  1   
 40  23  25  1   
 41  23  38  1   
 42  23  39  1   
 43  24  40  1   
 44  24  41  1   
 45  24  42  1   
 46  25  43  1   
 47  25  44  1   
 48  25  45  1   
@<TRIPOS>SUBSTRUCTURE
  1 ****   5 GROUP 4 **** **** 0

# MOE 2024.06 (io_trps.svl 2023.06)
