@<TRIPOS>MOLECULE
NONAME
44 45 1 0 0 
SMALL
USER_CHARGES


@<TRIPOS>ATOM
  1 O       -0.3460    -0.1620     0.4220 O.3   1 <1>  -0.3630 
  2 C       -1.5090    -0.7150    -0.0160 C.ar  1 <1>   0.0830 
  3 C        0.2560     0.9430    -0.2160 C.3   1 <1>   0.0400 
  4 C       -1.9700    -1.8740     0.6110 C.ar  1 <1>  -0.1440 
  5 C       -2.2330    -0.1620    -1.0640 C.ar  1 <1>  -0.1500 
  6 C       -3.1440    -2.4870     0.1690 C.ar  1 <1>  -0.1430 
  7 C       -1.1630    -2.4620     1.7750 C.3   1 <1>  -0.0960 
  8 C       -3.4070    -0.7520    -1.4810 C.ar  1 <1>  -0.1500 
  9 C       -3.8750    -1.9030    -0.8670 C.ar  1 <1>  -0.1440 
 10 C       -3.6020    -3.7950     0.8230 C.3   1 <1>  -0.0970 
 11 C       -5.1980    -2.4640    -1.3590 C.3   1 <1>   0.4860 
 12 N       -6.2430    -2.2200    -0.3210 N.4   1 <1>  -0.9590 
 13 C       -7.5460    -2.8880    -0.6000 C.3   1 <1>   0.4230 
 14 C       -6.3960    -0.7510    -0.0790 C.3   1 <1>   0.3430 
 15 C       -8.5040    -2.6560     0.5760 C.3   1 <1>  -0.1600 
 16 C       -7.3510    -4.3920    -0.8060 C.3   1 <1>  -0.2400 
 17 C       -7.3300    -0.5020     1.1040 C.3   1 <1>  -0.1600 
 18 C       -8.6920    -1.1680     0.8900 C.3   1 <1>  -0.1600 
 19 H        1.1800     1.1570     0.2910 H     1 <1>   0.0800 
 20 H       -0.4030     1.7900    -0.1450 H     1 <1>   0.0800 
 21 H        0.4540     0.6890    -1.2420 H     1 <1>   0.0800 
 22 H       -1.8990     0.7260    -1.5650 H     1 <1>   0.1500 
 23 H       -0.5500    -1.7180     2.2510 H     1 <1>   0.0800 
 24 H       -0.5200    -3.2430     1.4110 H     1 <1>   0.0800 
 25 H       -1.8060    -2.8600     2.5360 H     1 <1>   0.0800 
 26 H       -3.9470    -0.2980    -2.2950 H     1 <1>   0.1500 
 27 H       -2.7590    -4.4460     0.9730 H     1 <1>   0.0800 
 28 H       -4.2980    -4.3430     0.2190 H     1 <1>   0.0800 
 29 H       -4.0490    -3.5930     1.7800 H     1 <1>   0.0800 
 30 H       -5.0800    -3.5180    -1.5420 H     1 <1>   0.0800 
 31 H       -5.4780    -1.9910    -2.2860 H     1 <1>   0.0800 
 32 H       -5.8700    -2.6120     0.5490 H     1 <1>   0.4500 
 33 H       -7.9830    -2.4630    -1.4900 H     1 <1>   0.0800 
 34 H       -6.7970    -0.2760    -0.9590 H     1 <1>   0.0800 
 35 H       -5.4360    -0.3080     0.1370 H     1 <1>   0.0800 
 36 H       -8.1350    -3.1630     1.4510 H     1 <1>   0.0800 
 37 H       -9.4640    -3.0830     0.3420 H     1 <1>   0.0800 
 38 H       -6.8350    -4.8350     0.0270 H     1 <1>   0.0800 
 39 H       -6.8230    -4.6020    -1.7180 H     1 <1>   0.0800 
 40 H       -8.3120    -4.8690    -0.8890 H     1 <1>   0.0800 
 41 H       -7.4660     0.5590     1.2260 H     1 <1>   0.0800 
 42 H       -6.8720    -0.8730     2.0050 H     1 <1>   0.0800 
 43 H       -9.2990    -1.0530     1.7740 H     1 <1>   0.0800 
 44 H       -9.2070    -0.6870     0.0750 H     1 <1>   0.0800 
@<TRIPOS>BOND
  1   1   2  1   
  2   1   3  1   
  3   2   4  ar  
  4   2   5  ar  
  5   3  19  1   
  6   3  20  1   
  7   3  21  1   
  8   4   6  ar  
  9   4   7  1   
 10   5   8  ar  
 11   5  22  1   
 12   6   9  ar  
 13   6  10  1   
 14   7  23  1   
 15   7  24  1   
 16   7  25  1   
 17   8   9  ar  
 18   8  26  1   
 19   9  11  1   
 20  10  27  1   
 21  10  28  1   
 22  10  29  1   
 23  11  12  1   
 24  11  30  1   
 25  11  31  1   
 26  12  13  1   
 27  12  14  1   
 28  12  32  1   
 29  13  15  1   
 30  13  16  1   
 31  13  33  1   
 32  14  17  1   
 33  14  34  1   
 34  14  35  1   
 35  15  18  1   
 36  15  36  1   
 37  15  37  1   
 38  16  38  1   
 39  16  39  1   
 40  16  40  1   
 41  17  18  1   
 42  17  41  1   
 43  17  42  1   
 44  18  43  1   
 45  18  44  1   
@<TRIPOS>SUBSTRUCTURE
  1 ****   9 GROUP 4 **** **** 0

# MOE 2024.06 (io_trps.svl 2023.06)
