@<TRIPOS>MOLECULE
NONAME
44 44 1 0 0 
SMALL
USER_CHARGES


@<TRIPOS>ATOM
  1 O        0.1240    -1.3820     1.5670 O.3   1 <1>  -0.3630 
  2 C       -1.1140    -1.3480     1.0090 C.ar  1 <1>   0.0830 
  3 C        1.1690    -1.9780     0.8390 C.3   1 <1>   0.1200 
  4 C       -1.3800    -0.7750    -0.2420 C.ar  1 <1>   0.0830 
  5 C       -2.1420    -1.9030     1.7500 C.ar  1 <1>  -0.1500 
  6 C        2.3040    -0.9580     0.7590 C.3   1 <1>  -0.1600 
  7 O       -0.3620    -0.1900    -0.9440 O.3   1 <1>  -0.3630 
  8 C       -2.6850    -0.8080    -0.7300 C.ar  1 <1>  -0.1500 
  9 C       -3.4330    -1.9200     1.2550 C.ar  1 <1>  -0.1500 
 10 C        3.3560    -1.4120    -0.2400 C.3   1 <1>   0.3430 
 11 C       -0.6430     0.7210    -1.9860 C.3   1 <1>   0.0400 
 12 C       -3.7090    -1.3760     0.0130 C.ar  1 <1>  -0.1430 
 13 N        4.4050    -0.3690    -0.3260 N.4   1 <1>  -0.9060 
 14 C       -5.1250    -1.4020    -0.5350 C.3   1 <1>  -0.0970 
 15 C        5.5080    -0.6880    -1.2450 C.3   1 <1>   0.4230 
 16 C        6.6640     0.2820    -0.9730 C.3   1 <1>  -0.1600 
 17 C        5.0160    -0.5600    -2.6840 C.3   1 <1>  -0.2400 
 18 C        7.2090     0.2150     0.4640 C.3   1 <1>  -0.2400 
 19 H        0.8100    -2.2570    -0.1380 H     1 <1>   0.0800 
 20 H        1.4710    -2.8650     1.3680 H     1 <1>   0.0800 
 21 H       -1.9280    -2.3230     2.7160 H     1 <1>   0.1500 
 22 H        2.7360    -0.8480     1.7380 H     1 <1>   0.0800 
 23 H        1.8920    -0.0170     0.4410 H     1 <1>   0.0800 
 24 H       -2.9270    -0.3980    -1.6910 H     1 <1>   0.1500 
 25 H       -4.2200    -2.3600     1.8430 H     1 <1>   0.1500 
 26 H        2.8940    -1.5550    -1.2050 H     1 <1>   0.0800 
 27 H        3.7850    -2.3490     0.0790 H     1 <1>   0.0800 
 28 H        0.2780     1.1860    -2.2870 H     1 <1>   0.0800 
 29 H       -1.3260     1.4690    -1.6220 H     1 <1>   0.0800 
 30 H       -1.0680     0.1850    -2.8160 H     1 <1>   0.0800 
 31 H        4.8060    -0.2150     0.6050 H     1 <1>   0.4500 
 32 H        3.9840     0.5210    -0.6120 H     1 <1>   0.4500 
 33 H       -5.3230    -0.5140    -1.1070 H     1 <1>   0.0800 
 34 H       -5.8400    -1.4530     0.2670 H     1 <1>   0.0800 
 35 H       -5.2550    -2.2610    -1.1690 H     1 <1>   0.0800 
 36 H        5.8520    -1.6960    -1.0680 H     1 <1>   0.0800 
 37 H        6.3660     1.2910    -1.2000 H     1 <1>   0.0800 
 38 H        7.4710     0.0360    -1.6440 H     1 <1>   0.0800 
 39 H        4.6470     0.4310    -2.8830 H     1 <1>   0.0800 
 40 H        4.2480    -1.2800    -2.9000 H     1 <1>   0.0800 
 41 H        5.8310    -0.7510    -3.3600 H     1 <1>   0.0800 
 42 H        6.4990     0.5860     1.1820 H     1 <1>   0.0800 
 43 H        8.0940     0.8250     0.5400 H     1 <1>   0.0800 
 44 H        7.4830    -0.7940     0.7250 H     1 <1>   0.0800 
@<TRIPOS>BOND
  1   1   2  1   
  2   1   3  1   
  3   2   4  ar  
  4   2   5  ar  
  5   3   6  1   
  6   3  19  1   
  7   3  20  1   
  8   4   7  1   
  9   4   8  ar  
 10   5   9  ar  
 11   5  21  1   
 12   6  10  1   
 13   6  22  1   
 14   6  23  1   
 15   7  11  1   
 16   8  12  ar  
 17   8  24  1   
 18   9  12  ar  
 19   9  25  1   
 20  10  13  1   
 21  10  26  1   
 22  10  27  1   
 23  11  28  1   
 24  11  29  1   
 25  11  30  1   
 26  12  14  1   
 27  13  15  1   
 28  13  31  1   
 29  13  32  1   
 30  14  33  1   
 31  14  34  1   
 32  14  35  1   
 33  15  16  1   
 34  15  17  1   
 35  15  36  1   
 36  16  18  1   
 37  16  37  1   
 38  16  38  1   
 39  17  39  1   
 40  17  40  1   
 41  17  41  1   
 42  18  42  1   
 43  18  43  1   
 44  18  44  1   
@<TRIPOS>SUBSTRUCTURE
  1 ****   3 GROUP 4 **** **** 0

# MOE 2024.06 (io_trps.svl 2023.06)
