@<TRIPOS>MOLECULE
NONAME
41 42 1 0 0 
SMALL
USER_CHARGES


@<TRIPOS>ATOM
  1 S       -0.1640    -0.3980    -0.4940 S.o2  1 <1>   1.4470 
  2 O       -0.3850    -1.6300     0.2280 O.2   1 <1>  -0.6500 
  3 O        0.3200    -0.4230    -1.8540 O.2   1 <1>  -0.6500 
  4 N        0.9010     0.4600     0.4820 N.am  1 <1>  -0.9140 
  5 C       -1.6650     0.6190    -0.4250 C.ar  1 <1>  -0.0090 
  6 C        2.3230     0.3150     0.3050 C.3   1 <1>   0.3560 
  7 C       -2.8850     0.0900    -0.0480 C.ar  1 <1>  -0.1500 
  8 C       -1.6260     1.9670    -0.7620 C.ar  1 <1>  -0.1500 
  9 C        2.9380     0.8960     1.5770 C.3   1 <1>  -0.2400 
 10 C        2.7510    -1.1490     0.1800 C.3   1 <1>  -0.2400 
 11 C        2.7980     1.1500    -0.8850 C.3   1 <1>  -0.2400 
 12 C       -4.0600     0.8500     0.0100 C.ar  1 <1>   0.0280 
 13 C       -2.7600     2.7460    -0.7180 C.ar  1 <1>  -0.1500 
 14 C       -3.9980     2.2180    -0.3340 C.ar  1 <1>   0.1170 
 15 C       -5.3250     0.2890     0.4050 C.2   1 <1>  -0.1670 
 16 N       -5.1630     3.0110    -0.2870 N.am  1 <1>  -0.4770 
 17 C       -6.4200     1.0830     0.4380 C.2   1 <1>  -0.1360 
 18 C       -5.4380    -1.1820     0.7840 C.3   1 <1>  -0.1020 
 19 C       -6.3770     2.4620     0.0940 C.2   1 <1>   0.6160 
 20 C       -5.1060     4.4600    -0.6510 C.3   1 <1>   0.0600 
 21 O       -7.3950     3.1360     0.1400 O.2   1 <1>  -0.5700 
 22 H        0.7110     0.0750     1.4020 H     1 <1>   0.4200 
 23 H       -2.9180    -0.9540     0.2090 H     1 <1>   0.1500 
 24 H       -0.6850     2.4000    -1.0630 H     1 <1>   0.1500 
 25 H        2.6320     0.3350     2.4420 H     1 <1>   0.0800 
 26 H        2.6440     1.9230     1.7020 H     1 <1>   0.0800 
 27 H        4.0110     0.8610     1.5210 H     1 <1>   0.0800 
 28 H        2.3620    -1.7350     0.9930 H     1 <1>   0.0800 
 29 H        3.8230    -1.2190     0.1990 H     1 <1>   0.0800 
 30 H        2.4220    -1.5750    -0.7510 H     1 <1>   0.0800 
 31 H        2.4290     2.1570    -0.8080 H     1 <1>   0.0800 
 32 H        2.4770     0.7290    -1.8180 H     1 <1>   0.0800 
 33 H        3.8720     1.1840    -0.9040 H     1 <1>   0.0800 
 34 H       -2.6690     3.7800    -0.9890 H     1 <1>   0.1500 
 35 H       -7.3880     0.7190     0.7240 H     1 <1>   0.1500 
 36 H       -4.8050    -1.3990     1.6260 H     1 <1>   0.0800 
 37 H       -5.1480    -1.8030    -0.0450 H     1 <1>   0.0800 
 38 H       -6.4480    -1.4340     1.0520 H     1 <1>   0.0800 
 39 H       -4.7750     4.5620    -1.6690 H     1 <1>   0.0800 
 40 H       -4.4230     4.9690     0.0050 H     1 <1>   0.0800 
 41 H       -6.0700     4.9300    -0.5620 H     1 <1>   0.0800 
@<TRIPOS>BOND
  1   1   2  2   
  2   1   3  2   
  3   1   4  am  
  4   1   5  1   
  5   4   6  1   
  6   4  22  1   
  7   5   7  ar  
  8   5   8  ar  
  9   6   9  1   
 10   6  10  1   
 11   6  11  1   
 12   7  12  ar  
 13   7  23  1   
 14   8  13  ar  
 15   8  24  1   
 16   9  25  1   
 17   9  26  1   
 18   9  27  1   
 19  10  28  1   
 20  10  29  1   
 21  10  30  1   
 22  11  31  1   
 23  11  32  1   
 24  11  33  1   
 25  12  14  ar  
 26  12  15  1   
 27  13  14  ar  
 28  13  34  1   
 29  14  16  1   
 30  15  17  2   
 31  15  18  1   
 32  16  19  am  
 33  16  20  1   
 34  17  19  1   
 35  17  35  1   
 36  18  36  1   
 37  18  37  1   
 38  18  38  1   
 39  19  21  2   
 40  20  39  1   
 41  20  40  1   
 42  20  41  1   
@<TRIPOS>SUBSTRUCTURE
  1 ****   5 GROUP 4 **** **** 0

# MOE 2024.06 (io_trps.svl 2023.06)
