@<TRIPOS>MOLECULE
NONAME
53 57 1 0 0 
SMALL
USER_CHARGES


@<TRIPOS>ATOM
  1 S       -0.4100     0.0010     0.6450 S.3   1 <1>  -0.0800 
  2 C        1.1400     0.7990     0.3460 C.ar  1 <1>   0.2970 
  3 C       -1.2380     1.5580     0.8100 C.2   1 <1>  -0.0450 
  4 N        2.2500     0.1150     0.1330 N.ar  1 <1>  -0.5670 
  5 C        0.9800     2.1790     0.3780 C.ar  1 <1>   0.0000 
  6 C       -2.6020     1.7750     1.0820 C.2   1 <1>   0.7150 
  7 C       -0.3730     2.5810     0.6430 C.2   1 <1>   0.1250 
  8 C        3.3090     0.8830    -0.0710 C.ar  1 <1>   0.1660 
  9 C        2.1090     2.9500     0.1600 C.ar  1 <1>  -0.1500 
 10 O       -3.4070     0.8640     1.2400 O.2   1 <1>  -0.5700 
 11 N       -2.9960     3.0960     1.1740 N.am  1 <1>  -0.4200 
 12 N       -0.8040     3.8780     0.7330 N.2   1 <1>  -0.5750 
 13 C        3.2950     2.2800    -0.0670 C.ar  1 <1>  -0.1430 
 14 C        4.6120     0.1580    -0.3370 C.3   1 <1>  -0.0170 
 15 C       -2.0540     4.1040     0.9770 C.2   1 <1>   0.4490 
 16 C       -4.4490     3.3600     1.4390 C.3   1 <1>   0.1400 
 17 C        4.5740     3.0750    -0.2920 C.3   1 <1>   0.2640 
 18 C        5.8380     1.0510    -0.0930 C.3   1 <1>   0.2800 
 19 C       -2.5120     5.5660     1.0720 C.3   1 <1>  -0.0990 
 20 C       -5.3000     3.1890     0.1700 C.3   1 <1>   0.2000 
 21 O        5.6330     2.2720    -0.7330 O.3   1 <1>  -0.5600 
 22 C        7.0800     0.4470    -0.7500 C.3   1 <1>  -0.2400 
 23 C        6.1190     1.2800     1.4010 C.3   1 <1>  -0.2400 
 24 C       -1.4360     6.6260     0.7730 C.3   1 <1>  -0.2400 
 25 O       -4.9110     4.1010    -0.8020 O.3   1 <1>  -0.5600 
 26 C       -6.7820     3.4740     0.3710 C.3   1 <1>  -0.1600 
 27 C       -5.9270     4.2550    -1.7390 C.3   1 <1>   0.1200 
 28 C       -7.2300     3.9410    -1.0060 C.3   1 <1>  -0.1600 
 29 H        2.0370     4.0240     0.1750 H     1 <1>   0.1500 
 30 H        4.6030    -0.1750    -1.3590 H     1 <1>   0.0800 
 31 H        4.6740    -0.7140     0.2880 H     1 <1>   0.0800 
 32 H       -4.6030     4.3430     1.8410 H     1 <1>   0.0800 
 33 H       -4.7990     2.6650     2.1830 H     1 <1>   0.0800 
 34 H        4.8770     3.5630     0.6180 H     1 <1>   0.0800 
 35 H        4.4120     3.8280    -1.0440 H     1 <1>   0.0800 
 36 H       -2.8830     5.7420     2.0650 H     1 <1>   0.0800 
 37 H       -3.3190     5.7180     0.3790 H     1 <1>   0.0800 
 38 H       -5.1720     2.1990    -0.2380 H     1 <1>   0.0800 
 39 H        6.9240     0.3320    -1.8080 H     1 <1>   0.0800 
 40 H        7.2940    -0.5190    -0.3290 H     1 <1>   0.0800 
 41 H        7.9310     1.0840    -0.5920 H     1 <1>   0.0800 
 42 H        5.2440     1.6220     1.9220 H     1 <1>   0.0800 
 43 H        6.9130     1.9940     1.5260 H     1 <1>   0.0800 
 44 H        6.4230     0.3560     1.8590 H     1 <1>   0.0800 
 45 H       -0.6200     6.5390     1.4690 H     1 <1>   0.0800 
 46 H       -1.8550     7.6130     0.8550 H     1 <1>   0.0800 
 47 H       -1.0540     6.4970    -0.2250 H     1 <1>   0.0800 
 48 H       -6.9130     4.2650     1.0880 H     1 <1>   0.0800 
 49 H       -7.3130     2.6000     0.7030 H     1 <1>   0.0800 
 50 H       -5.7510     3.5570    -2.5410 H     1 <1>   0.0800 
 51 H       -5.9000     5.2630    -2.1140 H     1 <1>   0.0800 
 52 H       -7.8570     4.8130    -0.9430 H     1 <1>   0.0800 
 53 H       -7.7610     3.1650    -1.5280 H     1 <1>   0.0800 
@<TRIPOS>BOND
  1   1   2  1   
  2   1   3  1   
  3   2   4  ar  
  4   2   5  ar  
  5   3   6  1   
  6   3   7  2   
  7   4   8  ar  
  8   5   7  1   
  9   5   9  ar  
 10   6  10  2   
 11   6  11  am  
 12   7  12  1   
 13   8  13  ar  
 14   8  14  1   
 15   9  13  ar  
 16   9  29  1   
 17  11  15  1   
 18  11  16  1   
 19  12  15  2   
 20  13  17  1   
 21  14  18  1   
 22  14  30  1   
 23  14  31  1   
 24  15  19  1   
 25  16  20  1   
 26  16  32  1   
 27  16  33  1   
 28  17  21  1   
 29  17  34  1   
 30  17  35  1   
 31  18  21  1   
 32  18  22  1   
 33  18  23  1   
 34  19  24  1   
 35  19  36  1   
 36  19  37  1   
 37  20  25  1   
 38  20  26  1   
 39  20  38  1   
 40  22  39  1   
 41  22  40  1   
 42  22  41  1   
 43  23  42  1   
 44  23  43  1   
 45  23  44  1   
 46  24  45  1   
 47  24  46  1   
 48  24  47  1   
 49  25  27  1   
 50  26  28  1   
 51  26  48  1   
 52  26  49  1   
 53  27  28  1   
 54  27  50  1   
 55  27  51  1   
 56  28  52  1   
 57  28  53  1   
@<TRIPOS>SUBSTRUCTURE
  1 ****   7 GROUP 4 **** **** 0

# MOE 2024.06 (io_trps.svl 2023.06)
