@<TRIPOS>MOLECULE
NONAME
39 41 1 0 0 
SMALL
USER_CHARGES


@<TRIPOS>ATOM
  1 S       -0.1360    -0.7090     0.1700 S.3   1 <1>  -0.0800 
  2 C        1.2030     0.4260    -0.0060 C.ar  1 <1>   0.2970 
  3 C       -1.3040     0.6070     0.1260 C.2   1 <1>  -0.1400 
  4 N        2.4570     0.0350    -0.0580 N.ar  1 <1>  -0.5670 
  5 C        0.7420     1.7220    -0.0810 C.ar  1 <1>   0.0000 
  6 C       -0.7000     1.7990     0.0070 C.2   1 <1>  -0.1810 
  7 C       -2.7850     0.3090     0.2150 C.3   1 <1>   0.0200 
  8 C        3.2770     1.0570    -0.2020 C.ar  1 <1>   0.7220 
  9 C        1.7510     2.6780    -0.2350 C.ar  1 <1>   0.4100 
 10 C       -1.5130     3.0840    -0.0390 C.3   1 <1>   0.0210 
 11 C       -3.5760     1.5600    -0.2170 C.3   1 <1>  -0.0800 
 12 S        5.0140     0.6470    -0.2810 S.3   1 <1>  -0.3320 
 13 N        3.0200     2.3530    -0.2930 N.ar  1 <1>  -0.6200 
 14 N        1.5220     4.0110    -0.3320 N.pl3 1 <1>  -0.9000 
 15 C       -2.9740     2.8430     0.3970 C.3   1 <1>  -0.1600 
 16 C       -5.0570     1.4220     0.1550 C.3   1 <1>  -0.2400 
 17 C        5.0680    -1.2010    -0.1450 C.3   1 <1>   0.0700 
 18 C        6.5270    -1.6700    -0.1140 C.3   1 <1>   0.2000 
 19 O        6.5410    -3.0500    -0.1460 O.3   1 <1>  -0.6800 
 20 C        7.2800    -1.2490     1.1480 C.3   1 <1>  -0.2400 
 21 H       -3.0220     0.0410     1.2300 H     1 <1>   0.0800 
 22 H       -3.0320    -0.5190    -0.4260 H     1 <1>   0.0800 
 23 H       -1.4920     3.4680    -1.0440 H     1 <1>   0.0800 
 24 H       -1.0790     3.8170     0.6170 H     1 <1>   0.0800 
 25 H       -3.5050     1.6430    -1.2890 H     1 <1>   0.0800 
 26 H        2.3480     4.6130    -0.3340 H     1 <1>   0.4000 
 27 H        0.6660     4.4320     0.0200 H     1 <1>   0.4000 
 28 H       -3.5670     3.6970     0.1200 H     1 <1>   0.0800 
 29 H       -3.0030     2.7590     1.4700 H     1 <1>   0.0800 
 30 H       -5.1770     1.3520     1.2230 H     1 <1>   0.0800 
 31 H       -5.4750     0.5390    -0.2960 H     1 <1>   0.0800 
 32 H       -5.6110     2.2740    -0.1970 H     1 <1>   0.0800 
 33 H        4.5560    -1.5890    -1.0070 H     1 <1>   0.0800 
 34 H        4.5460    -1.4680     0.7570 H     1 <1>   0.0800 
 35 H        7.0400    -1.3220    -0.9950 H     1 <1>   0.0800 
 36 H        6.1870    -3.4080     0.6890 H     1 <1>   0.4000 
 37 H        6.7660    -1.5790     2.0320 H     1 <1>   0.0800 
 38 H        7.3630    -0.1780     1.1850 H     1 <1>   0.0800 
 39 H        8.2760    -1.6570     1.1350 H     1 <1>   0.0800 
@<TRIPOS>BOND
  1   1   2  1   
  2   1   3  1   
  3   2   4  ar  
  4   2   5  ar  
  5   3   6  2   
  6   3   7  1   
  7   4   8  ar  
  8   5   6  1   
  9   5   9  ar  
 10   6  10  1   
 11   7  11  1   
 12   7  21  1   
 13   7  22  1   
 14   8  12  1   
 15   8  13  ar  
 16   9  13  ar  
 17   9  14  1   
 18  10  15  1   
 19  10  23  1   
 20  10  24  1   
 21  11  15  1   
 22  11  16  1   
 23  11  25  1   
 24  12  17  1   
 25  14  26  1   
 26  14  27  1   
 27  15  28  1   
 28  15  29  1   
 29  16  30  1   
 30  16  31  1   
 31  16  32  1   
 32  17  18  1   
 33  17  33  1   
 34  17  34  1   
 35  18  19  1   
 36  18  20  1   
 37  18  35  1   
 38  19  36  1   
 39  20  37  1   
 40  20  38  1   
 41  20  39  1   
@<TRIPOS>SUBSTRUCTURE
  1 ****   2 GROUP 4 **** **** 0

# MOE 2024.06 (io_trps.svl 2023.06)
