@<TRIPOS>MOLECULE
NONAME
47 48 1 0 0 
SMALL
USER_CHARGES


@<TRIPOS>ATOM
  1 F       -1.0220     0.7140     1.8020 F     1 <1>  -0.3400 
  2 C       -2.0720     0.9530     1.0330 C.3   1 <1>   1.1640 
  3 F       -3.1170     1.0830     1.8460 F     1 <1>  -0.3400 
  4 F       -2.2990    -0.1530     0.3370 F     1 <1>  -0.3400 
  5 C       -1.9440     2.1860     0.1170 C.ar  1 <1>  -0.1440 
  6 C       -2.9330     2.5240    -0.8180 C.ar  1 <1>  -0.1440 
  7 C       -0.8170     2.9990     0.2170 C.ar  1 <1>  -0.1500 
  8 C       -2.7640     3.6400    -1.6270 C.ar  1 <1>  -0.1500 
  9 C       -4.2140     1.7150    -1.0080 C.3   1 <1>   0.4870 
 10 C       -0.6660     4.1120    -0.5870 C.ar  1 <1>  -0.1500 
 11 C       -1.6380     4.4320    -1.5110 C.ar  1 <1>  -0.1500 
 12 N       -5.1690     2.0160     0.0970 N.4   1 <1>  -0.9590 
 13 C       -6.3830     1.1260     0.0310 C.3   1 <1>   0.3430 
 14 C       -5.5450     3.4790     0.1320 C.3   1 <1>   0.3430 
 15 C       -7.4000     1.4370     1.1490 C.3   1 <1>   0.1400 
 16 C       -6.5470     3.7840     1.2570 C.3   1 <1>   0.1400 
 17 N       -7.7420     2.8910     1.1420 N.am  1 <1>  -0.6600 
 18 C       -8.9910     3.4250     0.9230 C.2   1 <1>   0.5690 
 19 O       -9.1320     4.6100     0.7500 O.2   1 <1>  -0.5700 
 20 C      -10.2390     2.5550     0.8840 C.3   1 <1>  -0.0990 
 21 C      -10.4920     1.8870    -0.4840 C.3   1 <1>  -0.0800 
 22 C      -10.7670     2.9280    -1.5770 C.3   1 <1>  -0.2400 
 23 C      -11.6800     0.9220    -0.3850 C.3   1 <1>  -0.2400 
 24 H       -0.0320     2.7780     0.9240 H     1 <1>   0.1500 
 25 H       -3.5020     3.9120    -2.3630 H     1 <1>   0.1500 
 26 H       -3.9820     0.6620    -1.0250 H     1 <1>   0.0800 
 27 H       -4.6610     1.9680    -1.9560 H     1 <1>   0.0800 
 28 H        0.2140     4.7280    -0.4970 H     1 <1>   0.1500 
 29 H       -1.5130     5.2970    -2.1420 H     1 <1>   0.1500 
 30 H       -4.6870     1.8150     0.9860 H     1 <1>   0.4500 
 31 H       -6.0840     0.0930     0.1070 H     1 <1>   0.0800 
 32 H       -6.8760     1.2580    -0.9190 H     1 <1>   0.0800 
 33 H       -5.9930     3.7650    -0.8050 H     1 <1>   0.0800 
 34 H       -4.6640     4.0830     0.2760 H     1 <1>   0.0800 
 35 H       -6.9810     1.1760     2.1050 H     1 <1>   0.0800 
 36 H       -8.2750     0.8310     1.0060 H     1 <1>   0.0800 
 37 H       -6.8320     4.8210     1.1990 H     1 <1>   0.0800 
 38 H       -6.0810     3.6360     2.2160 H     1 <1>   0.0800 
 39 H      -11.0820     3.1760     1.1300 H     1 <1>   0.0800 
 40 H      -10.1710     1.8130     1.6570 H     1 <1>   0.0800 
 41 H       -9.6260     1.3190    -0.7730 H     1 <1>   0.0800 
 42 H      -11.6260     3.5250    -1.3230 H     1 <1>   0.0800 
 43 H      -10.9580     2.4440    -2.5190 H     1 <1>   0.0800 
 44 H       -9.9260     3.5850    -1.7030 H     1 <1>   0.0800 
 45 H      -12.5760     1.4520    -0.1100 H     1 <1>   0.0800 
 46 H      -11.4930     0.1620     0.3520 H     1 <1>   0.0800 
 47 H      -11.8510     0.4390    -1.3310 H     1 <1>   0.0800 
@<TRIPOS>BOND
  1   1   2  1   
  2   2   3  1   
  3   2   4  1   
  4   2   5  1   
  5   5   6  ar  
  6   5   7  ar  
  7   6   8  ar  
  8   6   9  1   
  9   7  10  ar  
 10   7  24  1   
 11   8  11  ar  
 12   8  25  1   
 13   9  12  1   
 14   9  26  1   
 15   9  27  1   
 16  10  11  ar  
 17  10  28  1   
 18  11  29  1   
 19  12  13  1   
 20  12  14  1   
 21  12  30  1   
 22  13  15  1   
 23  13  31  1   
 24  13  32  1   
 25  14  16  1   
 26  14  33  1   
 27  14  34  1   
 28  15  17  1   
 29  15  35  1   
 30  15  36  1   
 31  16  17  1   
 32  16  37  1   
 33  16  38  1   
 34  17  18  am  
 35  18  19  2   
 36  18  20  1   
 37  20  21  1   
 38  20  39  1   
 39  20  40  1   
 40  21  22  1   
 41  21  23  1   
 42  21  41  1   
 43  22  42  1   
 44  22  43  1   
 45  22  44  1   
 46  23  45  1   
 47  23  46  1   
 48  23  47  1   
@<TRIPOS>SUBSTRUCTURE
  1 ****  12 GROUP 4 **** **** 0

# MOE 2024.06 (io_trps.svl 2023.06)
