@<TRIPOS>MOLECULE
NONAME
49 51 1 0 0 
SMALL
USER_CHARGES


@<TRIPOS>ATOM
  1 O       -1.9920     0.9240    -0.5510 O.co2 1 <1>  -0.9000 
  2 C       -2.3530     1.5790     0.4300 C.2   1 <1>   0.9060 
  3 O       -3.3930     1.2970     1.0410 O.co2 1 <1>  -0.9000 
  4 C       -1.5590     2.7810     0.9320 C.3   1 <1>  -0.1860 
  5 C       -2.1410     4.2000     0.5880 C.3   1 <1>  -0.0190 
  6 C       -0.0390     2.7250     0.6220 C.3   1 <1>  -0.0800 
  7 C       -3.3100     4.2930    -0.4180 C.2   1 <1>   0.5690 
  8 C       -0.9600     5.1550     0.2410 C.3   1 <1>  -0.0800 
  9 C        0.2170     3.1830    -0.8290 C.3   1 <1>  -0.1600 
 10 C        0.6700     3.7230     1.5610 C.3   1 <1>  -0.1600 
 11 O       -3.3020     5.1270    -1.2970 O.2   1 <1>  -0.5700 
 12 N       -4.3890     3.4940    -0.2570 N.am  1 <1>  -0.7300 
 13 C       -0.2310     4.6460    -1.0220 C.3   1 <1>  -0.1600 
 14 C        0.0600     5.1350     1.4010 C.3   1 <1>  -0.1600 
 15 C       -5.4280     3.2830    -1.2680 C.3   1 <1>   0.2840 
 16 C       -6.7010     2.7960    -0.5920 C.ar  1 <1>  -0.1430 
 17 C       -7.8640     3.5490    -0.6390 C.ar  1 <1>  -0.1500 
 18 C       -6.7030     1.5830     0.0770 C.ar  1 <1>  -0.1500 
 19 C       -9.0310     3.0970    -0.0270 C.ar  1 <1>   0.0820 
 20 C       -7.8540     1.1210     0.6890 C.ar  1 <1>  -0.1500 
 21 O      -10.1940     3.8120    -0.0510 O.3   1 <1>  -0.3620 
 22 C       -9.0270     1.8690     0.6420 C.ar  1 <1>   0.0820 
 23 C      -10.2440     5.1230    -0.5660 C.3   1 <1>   0.0400 
 24 O      -10.1850     1.4510     1.2330 O.3   1 <1>  -0.3630 
 25 C      -10.2280     0.2810     2.0170 C.3   1 <1>   0.0400 
 26 H       -1.6380     2.6810     1.9980 H     1 <1>   0.0800 
 27 H       -2.5710     4.5710     1.5010 H     1 <1>   0.0800 
 28 H        0.3360     1.7260     0.7720 H     1 <1>   0.0800 
 29 H       -1.3210     6.1570     0.0860 H     1 <1>   0.0800 
 30 H       -0.3270     2.5490    -1.5080 H     1 <1>   0.0800 
 31 H        1.2610     3.0860    -1.0640 H     1 <1>   0.0800 
 32 H        1.7190     3.7500     1.3240 H     1 <1>   0.0800 
 33 H        0.5730     3.3960     2.5820 H     1 <1>   0.0800 
 34 H       -4.2770     2.6790     0.3800 H     1 <1>   0.3700 
 35 H        0.6270     5.2650    -1.2140 H     1 <1>   0.0800 
 36 H       -0.8720     4.7110    -1.8830 H     1 <1>   0.0800 
 37 H       -0.4310     5.4240     2.3150 H     1 <1>   0.0800 
 38 H        0.8430     5.8470     1.2100 H     1 <1>   0.0800 
 39 H       -5.0830     2.5400    -1.9660 H     1 <1>   0.0800 
 40 H       -5.6050     4.2000    -1.8030 H     1 <1>   0.0800 
 41 H       -7.8400     4.4880    -1.1570 H     1 <1>   0.1500 
 42 H       -5.7970     0.9970     0.1270 H     1 <1>   0.1500 
 43 H       -7.8030     0.1770     1.1950 H     1 <1>   0.1500 
 44 H      -11.2390     5.5010    -0.4140 H     1 <1>   0.0800 
 45 H      -10.0200     5.0930    -1.6170 H     1 <1>   0.0800 
 46 H       -9.5360     5.7330    -0.0340 H     1 <1>   0.0800 
 47 H      -11.2220     0.1830     2.4130 H     1 <1>   0.0800 
 48 H       -9.5200     0.3760     2.8220 H     1 <1>   0.0800 
 49 H       -9.9960    -0.5640     1.3940 H     1 <1>   0.0800 
@<TRIPOS>BOND
  1   1   2  ar  
  2   2   3  ar  
  3   2   4  1   
  4   4   5  1   
  5   4   6  1   
  6   4  26  1   
  7   5   7  1   
  8   5   8  1   
  9   5  27  1   
 10   6   9  1   
 11   6  10  1   
 12   6  28  1   
 13   7  11  2   
 14   7  12  am  
 15   8  13  1   
 16   8  14  1   
 17   8  29  1   
 18   9  13  1   
 19   9  30  1   
 20   9  31  1   
 21  10  14  1   
 22  10  32  1   
 23  10  33  1   
 24  12  15  1   
 25  12  34  1   
 26  13  35  1   
 27  13  36  1   
 28  14  37  1   
 29  14  38  1   
 30  15  16  1   
 31  15  39  1   
 32  15  40  1   
 33  16  17  ar  
 34  16  18  ar  
 35  17  19  ar  
 36  17  41  1   
 37  18  20  ar  
 38  18  42  1   
 39  19  21  1   
 40  19  22  ar  
 41  20  22  ar  
 42  20  43  1   
 43  21  23  1   
 44  22  24  1   
 45  23  44  1   
 46  23  45  1   
 47  23  46  1   
 48  24  25  1   
 49  25  47  1   
 50  25  48  1   
 51  25  49  1   
@<TRIPOS>SUBSTRUCTURE
  1 ****  12 GROUP 4 **** **** 0

# MOE 2024.06 (io_trps.svl 2023.06)
