@<TRIPOS>MOLECULE
NONAME
33 33 1 0 0 
SMALL
USER_CHARGES


@<TRIPOS>ATOM
  1 SI       0.0780    -0.3570    -0.3040 Si    1 <1>   0.3220 
  2 C       -0.9110    -0.9610     1.0870 C.3   1 <1>   0.0150 
  3 C        1.5740     0.4540     0.3230 C.3   1 <1>  -0.2410 
  4 C        0.5620    -1.7130    -1.3950 C.3   1 <1>  -0.3200 
  5 C       -0.8490     0.8500    -1.2740 C.3   1 <1>  -0.3200 
  6 N       -2.1340    -1.6630     0.6690 N.pl3 1 <1>   0.3140 
  7 C        2.4980    -0.4350     1.1660 C.3   1 <1>  -0.2400 
  8 N       -3.2460    -0.9770     0.3510 N.2   1 <1>  -0.7070 
  9 C       -2.3350    -2.9980     0.5620 C.2   1 <1>  -0.3320 
 10 C       -4.1200    -1.8790     0.0390 C.2   1 <1>   0.1080 
 11 C       -3.6100    -3.1650     0.1520 C.2   1 <1>  -0.1500 
 12 C       -1.3050    -4.0750     0.8600 C.3   1 <1>  -0.0600 
 13 C       -5.5240    -1.5280    -0.3900 C.3   1 <1>  -0.0590 
 14 H       -1.2370    -0.1580     1.7200 H     1 <1>   0.0800 
 15 H       -0.3650    -1.6370     1.7150 H     1 <1>   0.0800 
 16 H        1.3200     1.3070     0.9270 H     1 <1>   0.0800 
 17 H        2.1640     0.8390    -0.4890 H     1 <1>   0.0800 
 18 H        1.1440    -1.3700    -2.2310 H     1 <1>   0.0800 
 19 H       -0.2920    -2.2210    -1.8050 H     1 <1>   0.0800 
 20 H        1.1540    -2.4560    -0.8940 H     1 <1>   0.0800 
 21 H       -0.2810     1.2410    -2.0970 H     1 <1>   0.0800 
 22 H       -1.1630     1.6910    -0.6830 H     1 <1>   0.0800 
 23 H       -1.7450     0.4240    -1.6910 H     1 <1>   0.0800 
 24 H        1.9870    -0.7970     2.0410 H     1 <1>   0.0800 
 25 H        3.3570     0.1290     1.4870 H     1 <1>   0.0800 
 26 H        2.8440    -1.2760     0.5910 H     1 <1>   0.0800 
 27 H       -4.1410    -4.0780    -0.0480 H     1 <1>   0.1500 
 28 H       -1.7330    -5.0480     0.6970 H     1 <1>   0.0800 
 29 H       -0.4510    -3.9670     0.2180 H     1 <1>   0.0800 
 30 H       -0.9870    -4.0110     1.8850 H     1 <1>   0.0800 
 31 H       -5.4840    -0.9110    -1.2690 H     1 <1>   0.0800 
 32 H       -6.0120    -0.9840     0.3970 H     1 <1>   0.0800 
 33 H       -6.0850    -2.4180    -0.6070 H     1 <1>   0.0800 
@<TRIPOS>BOND
  1   1   2  1   
  2   1   3  1   
  3   1   4  1   
  4   1   5  1   
  5   2   6  1   
  6   2  14  1   
  7   2  15  1   
  8   3   7  1   
  9   3  16  1   
 10   3  17  1   
 11   4  18  1   
 12   4  19  1   
 13   4  20  1   
 14   5  21  1   
 15   5  22  1   
 16   5  23  1   
 17   6   8  1   
 18   6   9  1   
 19   7  24  1   
 20   7  25  1   
 21   7  26  1   
 22   8  10  2   
 23   9  11  2   
 24   9  12  1   
 25  10  11  1   
 26  10  13  1   
 27  11  27  1   
 28  12  28  1   
 29  12  29  1   
 30  12  30  1   
 31  13  31  1   
 32  13  32  1   
 33  13  33  1   
@<TRIPOS>SUBSTRUCTURE
  1 ****   6 GROUP 4 **** **** 0

# MOE 2024.06 (io_trps.svl 2023.06)
