@<TRIPOS>MOLECULE
NONAME
31 31 1 0 0 
SMALL
USER_CHARGES


@<TRIPOS>ATOM
  1 O       -6.2130     0.4420     0.0840 O.3   1 <1>  -0.5600 
  2 C       -7.3790    -0.1360     0.5870 C.3   1 <1>   0.2640 
  3 C       -5.0410    -0.2330     0.3800 C.3   1 <1>   0.1200 
  4 C       -8.5570     0.7110     0.1410 C.ar  1 <1>  -0.1440 
  5 C       -3.8980     0.5720    -0.2510 C.3   1 <1>   0.3430 
  6 C       -8.8680     1.8840     0.8130 C.ar  1 <1>  -0.1500 
  7 C       -9.3350     0.3220    -0.9410 C.ar  1 <1>  -0.1500 
  8 N       -2.5410    -0.0200     0.0100 N.4   1 <1>  -0.9590 
  9 C       -9.9440     2.6560     0.4130 C.ar  1 <1>  -0.1500 
 10 C      -10.4110     1.0940    -1.3410 C.ar  1 <1>  -0.1500 
 11 C       -1.4790     0.9440    -0.4160 C.3   1 <1>   0.2630 
 12 C       -2.3550    -1.3330    -0.6860 C.3   1 <1>   0.2630 
 13 C      -10.7180     2.2610    -0.6640 C.ar  1 <1>  -0.1500 
 14 H       -7.3240    -0.1600     1.6620 H     1 <1>   0.0800 
 15 H       -7.4680    -1.1380     0.2050 H     1 <1>   0.0800 
 16 H       -5.1040    -1.2200    -0.0430 H     1 <1>   0.0800 
 17 H       -4.9340    -0.2790     1.4500 H     1 <1>   0.0800 
 18 H       -3.9350     1.5700     0.1540 H     1 <1>   0.0800 
 19 H       -4.0670     0.6360    -1.3140 H     1 <1>   0.0800 
 20 H       -8.2700     2.2020     1.6480 H     1 <1>   0.1500 
 21 H       -9.1060    -0.5810    -1.4780 H     1 <1>   0.1500 
 22 H       -2.4450    -0.1650     1.0280 H     1 <1>   0.4500 
 23 H      -10.1790     3.5650     0.9380 H     1 <1>   0.1500 
 24 H      -11.0100     0.7870    -2.1810 H     1 <1>   0.1500 
 25 H       -1.5470     1.1330    -1.4750 H     1 <1>   0.0800 
 26 H       -0.5010     0.5450    -0.1990 H     1 <1>   0.0800 
 27 H       -1.5900     1.8800     0.1080 H     1 <1>   0.0800 
 28 H       -2.4690    -1.2120    -1.7510 H     1 <1>   0.0800 
 29 H       -3.0810    -2.0510    -0.3410 H     1 <1>   0.0800 
 30 H       -1.3690    -1.7250    -0.4880 H     1 <1>   0.0800 
 31 H      -11.5550     2.8610    -0.9760 H     1 <1>   0.1500 
@<TRIPOS>BOND
  1   1   2  1   
  2   1   3  1   
  3   2   4  1   
  4   2  14  1   
  5   2  15  1   
  6   3   5  1   
  7   3  16  1   
  8   3  17  1   
  9   4   6  ar  
 10   4   7  ar  
 11   5   8  1   
 12   5  18  1   
 13   5  19  1   
 14   6   9  ar  
 15   6  20  1   
 16   7  10  ar  
 17   7  21  1   
 18   8  11  1   
 19   8  12  1   
 20   8  22  1   
 21   9  13  ar  
 22   9  23  1   
 23  10  13  ar  
 24  10  24  1   
 25  11  25  1   
 26  11  26  1   
 27  11  27  1   
 28  12  28  1   
 29  12  29  1   
 30  12  30  1   
 31  13  31  1   
@<TRIPOS>SUBSTRUCTURE
  1 ****   1 GROUP 4 **** **** 0

# MOE 2024.06 (io_trps.svl 2023.06)
