@<TRIPOS>MOLECULE
NONAME
43 44 1 0 0 
SMALL
USER_CHARGES


@<TRIPOS>ATOM
  1 CL       1.1340    -1.2300     1.4070 Cl    1 <1>  -0.1770 
  2 C        2.7280    -0.6250     1.0300 C.ar  1 <1>   0.1770 
  3 C        3.8250    -1.4470     1.2070 C.ar  1 <1>  -0.1500 
  4 C        2.8680     0.6680     0.5600 C.ar  1 <1>  -0.1500 
  5 C        5.0870    -0.9630     0.9070 C.ar  1 <1>  -0.1500 
  6 C        4.1320     1.1510     0.2600 C.ar  1 <1>  -0.1500 
  7 C        5.2490     0.3320     0.4340 C.ar  1 <1>   0.0830 
  8 O        6.5200     0.7230     0.1650 O.3   1 <1>  -0.3630 
  9 C        6.8000     2.0160    -0.3180 C.3   1 <1>   0.3200 
 10 C        8.2770     2.1130    -0.5040 C.1   1 <1>  -0.2000 
 11 C        9.4590     2.1310    -0.6330 C.1   1 <1>  -0.2000 
 12 C       10.9320     2.0530    -0.7580 C.3   1 <1>   0.5430 
 13 N       11.2880     0.7220    -0.2460 N.4   1 <1>  -0.9060 
 14 C       12.7140     0.3640    -0.3480 C.3   1 <1>   0.4230 
 15 C       12.8780    -1.1490    -0.0930 C.3   1 <1>  -0.0800 
 16 C       13.5320     1.1940     0.6530 C.3   1 <1>  -0.1600 
 17 C       14.3670    -1.5350    -0.1370 C.3   1 <1>  -0.1600 
 18 C       12.1000    -2.0110    -1.1060 C.3   1 <1>  -0.2400 
 19 C       15.0150     0.7980     0.6150 C.3   1 <1>  -0.1600 
 20 C       15.1940    -0.7060     0.8540 C.3   1 <1>  -0.1600 
 21 H        3.6900    -2.4490     1.5740 H     1 <1>   0.1500 
 22 H        1.9960     1.2830     0.4330 H     1 <1>   0.1500 
 23 H        5.9510    -1.5880     1.0380 H     1 <1>   0.1500 
 24 H        4.2170     2.1570    -0.1030 H     1 <1>   0.1500 
 25 H        6.4590     2.7360     0.4070 H     1 <1>   0.0800 
 26 H        6.2890     2.1510    -1.2550 H     1 <1>   0.0800 
 27 H       11.3980     2.8300    -0.1730 H     1 <1>   0.0800 
 28 H       11.2230     2.1570    -1.7920 H     1 <1>   0.0800 
 29 H       10.7300     0.0380    -0.7670 H     1 <1>   0.4500 
 30 H       10.9720     0.6550     0.7270 H     1 <1>   0.4500 
 31 H       13.0690     0.5740    -1.3450 H     1 <1>   0.0800 
 32 H       12.5170    -1.3760     0.8970 H     1 <1>   0.0800 
 33 H       13.1620     1.0330     1.6510 H     1 <1>   0.0800 
 34 H       13.4620     2.2420     0.4240 H     1 <1>   0.0800 
 35 H       14.7570    -1.3890    -1.1310 H     1 <1>   0.0800 
 36 H       14.4810    -2.5790     0.1050 H     1 <1>   0.0800 
 37 H       12.3960    -1.7800    -2.1150 H     1 <1>   0.0800 
 38 H       11.0370    -1.8770    -1.0130 H     1 <1>   0.0800 
 39 H       12.3040    -3.0540    -0.9320 H     1 <1>   0.0800 
 40 H       15.5560     1.3450     1.3690 H     1 <1>   0.0800 
 41 H       15.4390     1.0580    -0.3410 H     1 <1>   0.0800 
 42 H       16.2350    -0.9630     0.7550 H     1 <1>   0.0800 
 43 H       14.8970    -0.9480     1.8610 H     1 <1>   0.0800 
@<TRIPOS>BOND
  1   1   2  1   
  2   2   3  ar  
  3   2   4  ar  
  4   3   5  ar  
  5   3  21  1   
  6   4   6  ar  
  7   4  22  1   
  8   5   7  ar  
  9   5  23  1   
 10   6   7  ar  
 11   6  24  1   
 12   7   8  1   
 13   8   9  1   
 14   9  10  1   
 15   9  25  1   
 16   9  26  1   
 17  10  11  3   
 18  11  12  1   
 19  12  13  1   
 20  12  27  1   
 21  12  28  1   
 22  13  14  1   
 23  13  29  1   
 24  13  30  1   
 25  14  15  1   
 26  14  16  1   
 27  14  31  1   
 28  15  17  1   
 29  15  18  1   
 30  15  32  1   
 31  16  19  1   
 32  16  33  1   
 33  16  34  1   
 34  17  20  1   
 35  17  35  1   
 36  17  36  1   
 37  18  37  1   
 38  18  38  1   
 39  18  39  1   
 40  19  20  1   
 41  19  40  1   
 42  19  41  1   
 43  20  42  1   
 44  20  43  1   
@<TRIPOS>SUBSTRUCTURE
  1 ****  10 GROUP 4 **** **** 0

# MOE 2024.06 (io_trps.svl 2023.06)
