@<TRIPOS>MOLECULE
NONAME
47 49 1 0 0 
SMALL
USER_CHARGES


@<TRIPOS>ATOM
  1 O       -2.3280     2.5000     2.1250 O.2   1 <1>  -0.5700 
  2 C       -1.5280     2.5650     1.2090 C.2   1 <1>   0.5440 
  3 N       -1.7120     1.7590     0.1030 N.am  1 <1>  -0.6600 
  4 C       -0.4190     3.4970     1.3140 C.ar  1 <1>   0.0860 
  5 C       -1.0850     2.0040    -1.2280 C.3   1 <1>   0.1400 
  6 C       -2.6530     0.6050     0.1240 C.3   1 <1>   0.1400 
  7 C        0.8870     3.1130     1.0240 C.ar  1 <1>  -0.1500 
  8 C       -0.6250     4.8150     1.7210 C.ar  1 <1>  -0.1500 
  9 C       -0.3330     0.7500    -1.6870 C.3   1 <1>  -0.1600 
 10 C       -1.9190    -0.6640    -0.3240 C.3   1 <1>  -0.1600 
 11 C        1.9520     4.0000     1.0820 C.ar  1 <1>   0.1170 
 12 C        0.4250     5.7120     1.8080 C.ar  1 <1>  -0.1500 
 13 C       -1.2480    -0.4830    -1.6940 C.3   1 <1>  -0.1600 
 14 N        3.2570     3.6120     0.7560 N.am  1 <1>  -0.5470 
 15 C        1.7070     5.3060     1.4860 C.ar  1 <1>  -0.1500 
 16 C        3.6920     2.7000    -0.1800 C.2   1 <1>   0.5440 
 17 O        2.8990     2.2130    -0.9620 O.2   1 <1>  -0.5700 
 18 C        5.1000     2.3580    -0.2480 C.ar  1 <1>   0.0860 
 19 C        5.6980     2.0200    -1.4640 C.ar  1 <1>  -0.1500 
 20 C        5.9160     2.3520     0.8880 C.ar  1 <1>  -0.1500 
 21 C        7.0420     1.7090    -1.5540 C.ar  1 <1>  -0.1500 
 22 C        7.2600     2.0440     0.8050 C.ar  1 <1>  -0.1500 
 23 C        7.8370     1.7230    -0.4120 C.ar  1 <1>   0.0820 
 24 O        9.1580     1.4360    -0.4090 O.3   1 <1>  -0.3620 
 25 C        9.8440     1.0780    -1.5880 C.3   1 <1>   0.0400 
 26 H       -0.4130     2.8430    -1.1990 H     1 <1>   0.0800 
 27 H       -1.8620     2.2350    -1.9370 H     1 <1>   0.0800 
 28 H       -3.4750     0.8110    -0.5390 H     1 <1>   0.0800 
 29 H       -3.0500     0.4570     1.1140 H     1 <1>   0.0800 
 30 H        1.0690     2.0920     0.7430 H     1 <1>   0.1500 
 31 H       -1.6240     5.1270     1.9710 H     1 <1>   0.1500 
 32 H        0.5020     0.5820    -1.0300 H     1 <1>   0.0800 
 33 H        0.0630     0.9160    -2.6730 H     1 <1>   0.0800 
 34 H       -2.6170    -1.4810    -0.3680 H     1 <1>   0.0800 
 35 H       -1.1740    -0.9080     0.4140 H     1 <1>   0.0800 
 36 H        0.2400     6.7240     2.1240 H     1 <1>   0.1500 
 37 H       -0.6730    -1.3600    -1.9380 H     1 <1>   0.0800 
 38 H       -2.0060    -0.3600    -2.4490 H     1 <1>   0.0800 
 39 H        3.9960     4.1530     1.2010 H     1 <1>   0.3700 
 40 H        2.5170     6.0100     1.5450 H     1 <1>   0.1500 
 41 H        5.0880     2.0040    -2.3520 H     1 <1>   0.1500 
 42 H        5.4950     2.5800     1.8510 H     1 <1>   0.1500 
 43 H        7.4520     1.4580    -2.5140 H     1 <1>   0.1500 
 44 H        7.8780     2.0440     1.6860 H     1 <1>   0.1500 
 45 H       10.8720     0.8930    -1.3330 H     1 <1>   0.0800 
 46 H        9.7810     1.8900    -2.2890 H     1 <1>   0.0800 
 47 H        9.4010     0.1840    -1.9910 H     1 <1>   0.0800 
@<TRIPOS>BOND
  1   1   2  2   
  2   2   3  am  
  3   2   4  1   
  4   3   5  1   
  5   3   6  1   
  6   4   7  ar  
  7   4   8  ar  
  8   5   9  1   
  9   5  26  1   
 10   5  27  1   
 11   6  10  1   
 12   6  28  1   
 13   6  29  1   
 14   7  11  ar  
 15   7  30  1   
 16   8  12  ar  
 17   8  31  1   
 18   9  13  1   
 19   9  32  1   
 20   9  33  1   
 21  10  13  1   
 22  10  34  1   
 23  10  35  1   
 24  11  14  1   
 25  11  15  ar  
 26  12  15  ar  
 27  12  36  1   
 28  13  37  1   
 29  13  38  1   
 30  14  16  am  
 31  14  39  1   
 32  15  40  1   
 33  16  17  2   
 34  16  18  1   
 35  18  19  ar  
 36  18  20  ar  
 37  19  21  ar  
 38  19  41  1   
 39  20  22  ar  
 40  20  42  1   
 41  21  23  ar  
 42  21  43  1   
 43  22  23  ar  
 44  22  44  1   
 45  23  24  1   
 46  24  25  1   
 47  25  45  1   
 48  25  46  1   
 49  25  47  1   
@<TRIPOS>SUBSTRUCTURE
  1 ****  17 GROUP 4 **** **** 0

# MOE 2024.06 (io_trps.svl 2023.06)
