@<TRIPOS>MOLECULE
NONAME
48 51 1 0 0 
SMALL
USER_CHARGES


@<TRIPOS>ATOM
  1 N        0.1670    -1.7460     0.2200 N.4   1 <1>  -0.9590 
  2 C       -0.6550    -1.3530     1.4010 C.3   1 <1>   0.3430 
  3 C       -0.6400    -2.3640    -0.8760 C.3   1 <1>   0.3430 
  4 C        1.2710    -2.6530     0.6570 C.3   1 <1>   0.3430 
  5 C       -1.7660    -0.3870     0.9780 C.3   1 <1>  -0.1600 
  6 C       -1.7430    -1.4020    -1.3190 C.3   1 <1>  -0.1600 
  7 C        2.3540    -2.7030    -0.4140 C.3   1 <1>  -0.2400 
  8 C       -2.6220    -0.9950    -0.1370 C.3   1 <1>   0.4230 
  9 N       -3.6370    -0.0300    -0.6130 N.4   1 <1>  -0.9060 
 10 C       -4.7510     0.3020     0.2960 C.3   1 <1>   0.7100 
 11 C       -5.5630    -0.9540     0.5770 C.ar  1 <1>  -0.1430 
 12 C       -5.7110     1.1080    -0.5520 C.ar  1 <1>  -0.1430 
 13 C       -6.7460    -0.9030    -0.1410 C.ar  1 <1>   0.0000 
 14 C       -5.2800    -2.0300     1.4040 C.ar  1 <1>  -0.1500 
 15 C       -6.8380     0.3540    -0.8240 C.ar  1 <1>   0.0000 
 16 C       -5.5690     2.3930    -1.0520 C.ar  1 <1>  -0.1500 
 17 C       -7.6350    -1.9670    -0.0860 C.ar  1 <1>  -0.1500 
 18 C       -6.1740    -3.0870     1.4610 C.ar  1 <1>  -0.1500 
 19 C       -7.8390     0.8760    -1.6310 C.ar  1 <1>  -0.1500 
 20 C       -6.5740     2.9110    -1.8540 C.ar  1 <1>  -0.1500 
 21 C       -7.3410    -3.0580     0.7120 C.ar  1 <1>  -0.1500 
 22 C       -7.6990     2.1540    -2.1450 C.ar  1 <1>  -0.1500 
 23 H        0.6370    -0.9050    -0.1510 H     1 <1>   0.4500 
 24 H       -0.0280    -0.8790     2.1420 H     1 <1>   0.0800 
 25 H       -1.0880    -2.2340     1.8490 H     1 <1>   0.0800 
 26 H       -1.0760    -3.2880    -0.5300 H     1 <1>   0.0800 
 27 H       -0.0060    -2.5920    -1.7190 H     1 <1>   0.0800 
 28 H        0.8930    -3.6460     0.8480 H     1 <1>   0.0800 
 29 H        1.7100    -2.2810     1.5700 H     1 <1>   0.0800 
 30 H       -1.3180     0.5370     0.6550 H     1 <1>   0.0800 
 31 H       -2.3730    -0.1840     1.8420 H     1 <1>   0.0800 
 32 H       -2.3410    -1.9010    -2.0620 H     1 <1>   0.0800 
 33 H       -1.2890    -0.5400    -1.7770 H     1 <1>   0.0800 
 34 H        2.0010    -3.1630    -1.3190 H     1 <1>   0.0800 
 35 H        3.1750    -3.2960    -0.0520 H     1 <1>   0.0800 
 36 H        2.7330    -1.7190    -0.6280 H     1 <1>   0.0800 
 37 H       -3.1150    -1.8800     0.2340 H     1 <1>   0.0800 
 38 H       -4.1290    -0.4230    -1.4260 H     1 <1>   0.4500 
 39 H       -3.2320     0.8520    -0.9370 H     1 <1>   0.4500 
 40 H       -4.4440     0.8210     1.1900 H     1 <1>   0.0800 
 41 H       -4.3940    -2.0690     2.0110 H     1 <1>   0.1500 
 42 H       -4.7080     3.0020    -0.8340 H     1 <1>   0.1500 
 43 H       -8.5500    -1.9380    -0.6510 H     1 <1>   0.1500 
 44 H       -5.9750    -3.9370     2.0940 H     1 <1>   0.1500 
 45 H       -8.7190     0.2960    -1.8480 H     1 <1>   0.1500 
 46 H       -6.4880     3.9080    -2.2540 H     1 <1>   0.1500 
 47 H       -8.0290    -3.8860     0.7610 H     1 <1>   0.1500 
 48 H       -8.4740     2.5670    -2.7700 H     1 <1>   0.1500 
@<TRIPOS>BOND
  1   1   2  1   
  2   1   3  1   
  3   1   4  1   
  4   1  23  1   
  5   2   5  1   
  6   2  24  1   
  7   2  25  1   
  8   3   6  1   
  9   3  26  1   
 10   3  27  1   
 11   4   7  1   
 12   4  28  1   
 13   4  29  1   
 14   5   8  1   
 15   5  30  1   
 16   5  31  1   
 17   6   8  1   
 18   6  32  1   
 19   6  33  1   
 20   7  34  1   
 21   7  35  1   
 22   7  36  1   
 23   8   9  1   
 24   8  37  1   
 25   9  10  1   
 26   9  38  1   
 27   9  39  1   
 28  10  11  1   
 29  10  12  1   
 30  10  40  1   
 31  11  13  ar  
 32  11  14  ar  
 33  12  15  ar  
 34  12  16  ar  
 35  13  15  1   
 36  13  17  ar  
 37  14  18  ar  
 38  14  41  1   
 39  15  19  ar  
 40  16  20  ar  
 41  16  42  1   
 42  17  21  ar  
 43  17  43  1   
 44  18  21  ar  
 45  18  44  1   
 46  19  22  ar  
 47  19  45  1   
 48  20  22  ar  
 49  20  46  1   
 50  21  47  1   
 51  22  48  1   
@<TRIPOS>SUBSTRUCTURE
  1 ****   9 GROUP 4 **** **** 0

# MOE 2024.06 (io_trps.svl 2023.06)
