@<TRIPOS>MOLECULE
NONAME
47 49 1 0 0 
SMALL
USER_CHARGES


@<TRIPOS>ATOM
  1 O       -5.4670     4.0160     1.6350 O.3   1 <1>  -0.3630 
  2 C       -6.0250     3.4050     0.5850 C.ar  1 <1>   0.0830 
  3 C       -4.8630     5.2100     1.1370 C.3   1 <1>   0.4000 
  4 C       -5.7520     4.0940    -0.5600 C.ar  1 <1>   0.0830 
  5 C       -6.7790     2.2480     0.5670 C.ar  1 <1>  -0.1500 
  6 O       -5.0140     5.1730    -0.2810 O.3   1 <1>  -0.3630 
  7 C       -6.2140     3.6640    -1.7870 C.ar  1 <1>  -0.1500 
  8 C       -7.2550     1.7900    -0.6580 C.ar  1 <1>  -0.1440 
  9 C       -6.9710     2.4990    -1.8250 C.ar  1 <1>  -0.1500 
 10 C       -8.0590     0.5030    -0.7150 C.3   1 <1>   0.2640 
 11 O       -7.1440    -0.5250    -0.5320 O.3   1 <1>  -0.5600 
 12 C       -7.6380    -1.8230    -0.5850 C.3   1 <1>   0.1200 
 13 C       -6.4600    -2.8100    -0.4690 C.3   1 <1>   0.2000 
 14 O       -6.9870    -4.0960    -0.3950 O.3   1 <1>  -0.6800 
 15 C       -5.5380    -2.5690     0.7530 C.3   1 <1>   0.1100 
 16 N       -4.2010    -2.0190     0.4030 N.3   1 <1>  -0.8100 
 17 C       -4.2880    -0.6250    -0.1170 C.3   1 <1>   0.1100 
 18 C       -3.2870    -2.0710     1.5670 C.3   1 <1>   0.1100 
 19 C       -2.9150     0.0610    -0.2870 C.3   1 <1>   0.3430 
 20 C       -1.8610    -1.5750     1.2180 C.3   1 <1>   0.3430 
 21 N       -1.8120    -0.9420    -0.1420 N.4   1 <1>  -0.9590 
 22 C       -0.4690    -0.4110    -0.5090 C.3   1 <1>   0.2630 
 23 H       -3.8190     5.2250     1.3920 H     1 <1>   0.0800 
 24 H       -5.3830     6.0660     1.5300 H     1 <1>   0.0800 
 25 H       -6.9810     1.7230     1.4830 H     1 <1>   0.1500 
 26 H       -5.9900     4.2230    -2.6780 H     1 <1>   0.1500 
 27 H       -7.3370     2.1440    -2.7740 H     1 <1>   0.1500 
 28 H       -8.5380     0.3810    -1.6710 H     1 <1>   0.0800 
 29 H       -8.7900     0.4680     0.0750 H     1 <1>   0.0800 
 30 H       -8.1410    -1.9640    -1.5260 H     1 <1>   0.0800 
 31 H       -8.3260    -1.9530     0.2320 H     1 <1>   0.0800 
 32 H       -5.8760    -2.7770    -1.3720 H     1 <1>   0.0800 
 33 H       -7.4900    -4.2240     0.4310 H     1 <1>   0.4000 
 34 H       -5.3880    -3.5140     1.2480 H     1 <1>   0.0800 
 35 H       -6.0260    -1.9070     1.4490 H     1 <1>   0.0800 
 36 H       -4.8950    -0.0200     0.5360 H     1 <1>   0.0800 
 37 H       -4.7680    -0.6400    -1.0810 H     1 <1>   0.0800 
 38 H       -3.2210    -3.0830     1.9290 H     1 <1>   0.0800 
 39 H       -3.6850    -1.4670     2.3650 H     1 <1>   0.0800 
 40 H       -2.8110     0.8330     0.4570 H     1 <1>   0.0800 
 41 H       -2.8760     0.5300    -1.2560 H     1 <1>   0.0800 
 42 H       -1.1870    -2.4150     1.2490 H     1 <1>   0.0800 
 43 H       -1.5410    -0.8710     1.9680 H     1 <1>   0.0800 
 44 H       -2.0980    -1.7070    -0.7780 H     1 <1>   0.4500 
 45 H       -0.1880     0.3860     0.1590 H     1 <1>   0.0800 
 46 H       -0.4830    -0.0300    -1.5170 H     1 <1>   0.0800 
 47 H        0.2700    -1.1930    -0.4480 H     1 <1>   0.0800 
@<TRIPOS>BOND
  1   1   2  1   
  2   1   3  1   
  3   2   4  ar  
  4   2   5  ar  
  5   3   6  1   
  6   3  23  1   
  7   3  24  1   
  8   4   6  1   
  9   4   7  ar  
 10   5   8  ar  
 11   5  25  1   
 12   7   9  ar  
 13   7  26  1   
 14   8   9  ar  
 15   8  10  1   
 16   9  27  1   
 17  10  11  1   
 18  10  28  1   
 19  10  29  1   
 20  11  12  1   
 21  12  13  1   
 22  12  30  1   
 23  12  31  1   
 24  13  14  1   
 25  13  15  1   
 26  13  32  1   
 27  14  33  1   
 28  15  16  1   
 29  15  34  1   
 30  15  35  1   
 31  16  17  1   
 32  16  18  1   
 33  17  19  1   
 34  17  36  1   
 35  17  37  1   
 36  18  20  1   
 37  18  38  1   
 38  18  39  1   
 39  19  21  1   
 40  19  40  1   
 41  19  41  1   
 42  20  21  1   
 43  20  42  1   
 44  20  43  1   
 45  21  22  1   
 46  21  44  1   
 47  22  45  1   
 48  22  46  1   
 49  22  47  1   
@<TRIPOS>SUBSTRUCTURE
  1 ****  17 GROUP 4 **** **** 0

# MOE 2024.06 (io_trps.svl 2023.06)
