@<TRIPOS>MOLECULE
NONAME
33 35 1 0 0 
SMALL
USER_CHARGES


@<TRIPOS>ATOM
  1 CL       0.3540     0.2340    -1.5870 Cl    1 <1>  -0.1770 
  2 C        1.6700     0.9300    -0.6780 C.ar  1 <1>   0.1770 
  3 C        2.9140     0.3340    -0.7220 C.ar  1 <1>  -0.1500 
  4 C        1.4420     2.0680     0.0710 C.ar  1 <1>  -0.1500 
  5 C        3.9850     0.8720    -0.0090 C.ar  1 <1>   0.0860 
  6 C        2.4880     2.6140     0.7930 C.ar  1 <1>  -0.1500 
  7 C        5.2980     0.2520    -0.0650 C.2   1 <1>   0.5440 
  8 C        3.7390     2.0190     0.7530 C.ar  1 <1>  -0.1500 
  9 O        5.4090    -0.9410    -0.2680 O.2   1 <1>  -0.5700 
 10 N        6.4280     1.0020     0.0940 N.am  1 <1>  -0.7300 
 11 C        7.8110     0.4850     0.0740 C.3   1 <1>   0.2200 
 12 C        8.5840     1.0100     1.2980 C.3   1 <1>  -0.0800 
 13 C        8.5870     1.0980    -1.1050 C.3   1 <1>  -0.1600 
 14 C        9.0320     2.3900     0.8350 C.3   1 <1>  -0.1600 
 15 C        9.9290     0.2660     1.3620 C.3   1 <1>  -0.1600 
 16 C        9.7230     1.8780    -0.4180 C.3   1 <1>  -0.0800 
 17 C       10.7110     0.8620     0.1770 C.3   1 <1>  -0.1600 
 18 H        3.0570    -0.5540    -1.3120 H     1 <1>   0.1500 
 19 H        0.4630     2.5120     0.0880 H     1 <1>   0.1500 
 20 H        2.3270     3.4980     1.3880 H     1 <1>   0.1500 
 21 H        4.5360     2.4500     1.3320 H     1 <1>   0.1500 
 22 H        6.3580     2.0150     0.1600 H     1 <1>   0.3700 
 23 H        7.8160    -0.5920     0.0380 H     1 <1>   0.0800 
 24 H        8.0270     0.9730     2.2180 H     1 <1>   0.0800 
 25 H        7.9660     1.7620    -1.6800 H     1 <1>   0.0800 
 26 H        8.9730     0.3310    -1.7520 H     1 <1>   0.0800 
 27 H        9.7150     2.8590     1.5240 H     1 <1>   0.0800 
 28 H        8.2140     3.0550     0.6170 H     1 <1>   0.0800 
 29 H        9.8040    -0.7990     1.2700 H     1 <1>   0.0800 
 30 H       10.4330     0.4840     2.2880 H     1 <1>   0.0800 
 31 H       10.1820     2.6310    -1.0370 H     1 <1>   0.0800 
 32 H       10.9960     0.1090    -0.5380 H     1 <1>   0.0800 
 33 H       11.5960     1.3640     0.5310 H     1 <1>   0.0800 
@<TRIPOS>BOND
  1   1   2  1   
  2   2   3  ar  
  3   2   4  ar  
  4   3   5  ar  
  5   3  18  1   
  6   4   6  ar  
  7   4  19  1   
  8   5   7  1   
  9   5   8  ar  
 10   6   8  ar  
 11   6  20  1   
 12   7   9  2   
 13   7  10  am  
 14   8  21  1   
 15  10  11  1   
 16  10  22  1   
 17  11  12  1   
 18  11  13  1   
 19  11  23  1   
 20  12  14  1   
 21  12  15  1   
 22  12  24  1   
 23  13  16  1   
 24  13  25  1   
 25  13  26  1   
 26  14  16  1   
 27  14  27  1   
 28  14  28  1   
 29  15  17  1   
 30  15  29  1   
 31  15  30  1   
 32  16  17  1   
 33  16  31  1   
 34  17  32  1   
 35  17  33  1   
@<TRIPOS>SUBSTRUCTURE
  1 ****  10 GROUP 4 **** **** 0

# MOE 2024.06 (io_trps.svl 2023.06)
