@<TRIPOS>MOLECULE
NONAME
37 37 1 0 0 
SMALL
USER_CHARGES


@<TRIPOS>ATOM
  1 S        0.1080     0.3570     0.5550 S.o2  1 <1>   1.4470 
  2 O        0.5710    -0.1300     1.8350 O.2   1 <1>  -0.6500 
  3 O        0.5560     1.6370     0.0610 O.2   1 <1>  -0.6500 
  4 N        0.6150    -0.7140    -0.6290 N.am  1 <1>  -0.9140 
  5 C       -1.7000     0.2370     0.4640 C.ar  1 <1>  -0.0090 
  6 C        1.9750    -1.1530    -0.4690 C.3   1 <1>   0.2760 
  7 C       -2.4210     0.9400    -0.4890 C.ar  1 <1>  -0.1500 
  8 C       -2.4100    -0.5840     1.3280 C.ar  1 <1>  -0.1500 
  9 C        2.5890    -1.2390    -1.8620 C.3   1 <1>  -0.2400 
 10 C        1.9680    -2.5260     0.1960 C.3   1 <1>  -0.2400 
 11 C       -3.8110     0.8630    -0.6190 C.ar  1 <1>   0.0860 
 12 C       -3.7840    -0.6900     1.2420 C.ar  1 <1>  -0.1500 
 13 C       -4.4950     0.0240     0.2800 C.ar  1 <1>   0.0830 
 14 C       -4.4560     1.6430    -1.6670 C.2   1 <1>   0.5440 
 15 O       -5.8450    -0.0810     0.1870 O.3   1 <1>  -0.3630 
 16 O       -3.8230     2.0870    -2.6020 O.2   1 <1>  -0.5700 
 17 N       -5.7750     1.9320    -1.6730 N.am  1 <1>  -0.8000 
 18 C       -6.6170    -0.9390     0.9980 C.3   1 <1>   0.1200 
 19 C       -8.0770    -0.7950     0.5770 C.3   1 <1>  -0.2400 
 20 H        0.6130    -0.1340    -1.4640 H     1 <1>   0.4200 
 21 H        2.5440    -0.4510     0.1240 H     1 <1>   0.0800 
 22 H       -1.8800     1.5810    -1.1660 H     1 <1>   0.1500 
 23 H       -1.8760    -1.1480     2.0760 H     1 <1>   0.1500 
 24 H        2.0320    -1.9210    -2.4810 H     1 <1>   0.0800 
 25 H        3.6010    -1.5940    -1.7910 H     1 <1>   0.0800 
 26 H        2.6090    -0.2680    -2.3230 H     1 <1>   0.0800 
 27 H        1.3950    -3.2250    -0.3870 H     1 <1>   0.0800 
 28 H        1.5480    -2.4630     1.1830 H     1 <1>   0.0800 
 29 H        2.9730    -2.8950     0.2860 H     1 <1>   0.0800 
 30 H       -4.2800    -1.3380     1.9400 H     1 <1>   0.1500 
 31 H       -6.1790     2.4250    -2.4680 H     1 <1>   0.3700 
 32 H       -6.4120     1.4660    -1.0220 H     1 <1>   0.3700 
 33 H       -6.4880    -0.6470     2.0270 H     1 <1>   0.0800 
 34 H       -6.2760    -1.9490     0.8490 H     1 <1>   0.0800 
 35 H       -8.4080     0.2170     0.7220 H     1 <1>   0.0800 
 36 H       -8.6920    -1.4440     1.1750 H     1 <1>   0.0800 
 37 H       -8.1940    -1.0710    -0.4560 H     1 <1>   0.0800 
@<TRIPOS>BOND
  1   1   2  2   
  2   1   3  2   
  3   1   4  am  
  4   1   5  1   
  5   4   6  1   
  6   4  20  1   
  7   5   7  ar  
  8   5   8  ar  
  9   6   9  1   
 10   6  10  1   
 11   6  21  1   
 12   7  11  ar  
 13   7  22  1   
 14   8  12  ar  
 15   8  23  1   
 16   9  24  1   
 17   9  25  1   
 18   9  26  1   
 19  10  27  1   
 20  10  28  1   
 21  10  29  1   
 22  11  13  ar  
 23  11  14  1   
 24  12  13  ar  
 25  12  30  1   
 26  13  15  1   
 27  14  16  2   
 28  14  17  am  
 29  15  18  1   
 30  17  31  1   
 31  17  32  1   
 32  18  19  1   
 33  18  33  1   
 34  18  34  1   
 35  19  35  1   
 36  19  36  1   
 37  19  37  1   
@<TRIPOS>SUBSTRUCTURE
  1 ****   5 GROUP 4 **** **** 0

# MOE 2024.06 (io_trps.svl 2023.06)
