@<TRIPOS>MOLECULE
NONAME
39 42 1 0 0 
SMALL
USER_CHARGES


@<TRIPOS>ATOM
  1 S        0.1300     0.2310    -0.5460 S.3   1 <1>  -0.3710 
  2 C       -1.4420    -0.5460    -0.4080 C.2   1 <1>   0.6510 
  3 C        1.0410    -1.2980    -0.9940 C.3   1 <1>   0.0700 
  4 N       -2.5040     0.1090    -0.1390 N.2   1 <1>  -0.6210 
  5 N       -1.3390    -1.8740    -0.6170 N.am  1 <1>  -0.4200 
  6 C        0.0190    -2.4390    -0.8450 C.3   1 <1>   0.1400 
  7 C       -3.6770    -0.6060    -0.0640 C.2   1 <1>   0.1430 
  8 C       -2.4690    -2.6350    -0.5320 C.2   1 <1>   0.6160 
  9 C       -4.8650     0.1480     0.2940 C.ar  1 <1>   0.0280 
 10 C       -3.7090    -1.9620    -0.2970 C.2   1 <1>  -0.1240 
 11 O       -2.3300    -3.8450    -0.6430 O.2   1 <1>  -0.5700 
 12 C       -6.1220    -0.3940     0.0370 C.ar  1 <1>  -0.1430 
 13 C       -4.8160     1.3980     0.9130 C.ar  1 <1>  -0.1500 
 14 C       -5.0660    -2.7170    -0.2460 C.3   1 <1>   0.1380 
 15 C       -7.2790     0.2780     0.3910 C.ar  1 <1>  -0.1500 
 16 C       -6.1920    -1.7370    -0.6640 C.3   1 <1>  -0.0160 
 17 C       -5.9690     2.0750     1.2670 C.ar  1 <1>  -0.1500 
 18 C       -5.1880    -3.9290    -1.2300 C.3   1 <1>  -0.1600 
 19 C       -5.3050    -3.1340     1.2200 C.3   1 <1>  -0.2400 
 20 C       -7.2050     1.5140     1.0080 C.ar  1 <1>  -0.1500 
 21 C       -5.0260    -5.3490    -0.6500 C.3   1 <1>  -0.2400 
 22 H        1.8770    -1.4040    -0.3260 H     1 <1>   0.0800 
 23 H        1.3760    -1.1900    -2.0100 H     1 <1>   0.0800 
 24 H        0.2820    -3.0580    -0.0040 H     1 <1>   0.0800 
 25 H        0.0120    -3.0520    -1.7290 H     1 <1>   0.0800 
 26 H       -3.8610     1.8460     1.1230 H     1 <1>   0.1500 
 27 H       -8.2440    -0.1510     0.1860 H     1 <1>   0.1500 
 28 H       -6.1180    -1.5450    -1.7210 H     1 <1>   0.0800 
 29 H       -7.1520    -2.1880    -0.4820 H     1 <1>   0.0800 
 30 H       -5.9020     3.0370     1.7440 H     1 <1>   0.1500 
 31 H       -4.4860    -3.8000    -2.0360 H     1 <1>   0.0800 
 32 H       -6.1580    -3.9250    -1.6940 H     1 <1>   0.0800 
 33 H       -6.2530    -3.6290     1.3290 H     1 <1>   0.0800 
 34 H       -4.5260    -3.7950     1.5560 H     1 <1>   0.0800 
 35 H       -5.3010    -2.2740     1.8660 H     1 <1>   0.0800 
 36 H       -8.1040     2.0370     1.2830 H     1 <1>   0.1500 
 37 H       -4.1030    -5.4610    -0.1130 H     1 <1>   0.0800 
 38 H       -5.0320    -6.0670    -1.4500 H     1 <1>   0.0800 
 39 H       -5.8390    -5.5860     0.0130 H     1 <1>   0.0800 
@<TRIPOS>BOND
  1   1   2  1   
  2   1   3  1   
  3   2   4  2   
  4   2   5  1   
  5   3   6  1   
  6   3  22  1   
  7   3  23  1   
  8   4   7  1   
  9   5   6  1   
 10   5   8  am  
 11   6  24  1   
 12   6  25  1   
 13   7   9  1   
 14   7  10  2   
 15   8  10  1   
 16   8  11  2   
 17   9  12  ar  
 18   9  13  ar  
 19  10  14  1   
 20  12  15  ar  
 21  12  16  1   
 22  13  17  ar  
 23  13  26  1   
 24  14  16  1   
 25  14  18  1   
 26  14  19  1   
 27  15  20  ar  
 28  15  27  1   
 29  16  28  1   
 30  16  29  1   
 31  17  20  ar  
 32  17  30  1   
 33  18  21  1   
 34  18  31  1   
 35  18  32  1   
 36  19  33  1   
 37  19  34  1   
 38  19  35  1   
 39  20  36  1   
 40  21  37  1   
 41  21  38  1   
 42  21  39  1   
@<TRIPOS>SUBSTRUCTURE
  1 ****   7 GROUP 4 **** **** 0

# MOE 2024.06 (io_trps.svl 2023.06)
