@<TRIPOS>MOLECULE
NONAME
27 27 1 0 0 
SMALL
USER_CHARGES


@<TRIPOS>ATOM
  1 BR      -0.1310    -0.8190    -1.0780 Br    1 <1>  -0.1110 
  2 C       -1.9510    -0.3800    -0.6240 C.ar  1 <1>   0.1110 
  3 C       -2.7190    -1.3220     0.0320 C.ar  1 <1>  -0.1500 
  4 C       -2.4430     0.8660    -0.9640 C.ar  1 <1>  -0.1500 
  5 C       -4.0200    -0.9820     0.3450 C.ar  1 <1>   0.1770 
  6 C       -3.7520     1.1810    -0.6380 C.ar  1 <1>  -0.1500 
  7 CL      -5.0060    -2.1610     1.1890 Cl    1 <1>  -0.1770 
  8 C       -4.5700     0.2600     0.0180 C.ar  1 <1>   0.1170 
  9 N       -5.9040     0.5390     0.3720 N.am  1 <1>  -0.5470 
 10 C       -6.8010     1.4370    -0.1260 C.2   1 <1>   0.6900 
 11 O       -6.5430     2.1220    -1.0950 O.2   1 <1>  -0.5700 
 12 N       -8.0010     1.5180     0.5060 N.am  1 <1>  -0.7300 
 13 C       -9.1590     2.3660     0.1650 C.3   1 <1>   0.2200 
 14 C       -9.6740     2.0300    -1.2330 C.3   1 <1>  -0.2400 
 15 C       -8.7940     3.8420     0.3070 C.3   1 <1>  -0.2400 
 16 H       -2.3170    -2.2840     0.2900 H     1 <1>   0.1500 
 17 H       -1.8150     1.5760    -1.4740 H     1 <1>   0.1500 
 18 H       -4.1350     2.1530    -0.8970 H     1 <1>   0.1500 
 19 H       -6.3220    -0.1510     0.9900 H     1 <1>   0.3700 
 20 H       -8.0950     1.0400     1.3980 H     1 <1>   0.3700 
 21 H       -9.9450     2.1470     0.8690 H     1 <1>   0.0800 
 22 H       -8.9480     2.2900    -1.9820 H     1 <1>   0.0800 
 23 H      -10.5730     2.5830    -1.4330 H     1 <1>   0.0800 
 24 H       -9.8960     0.9810    -1.3050 H     1 <1>   0.0800 
 25 H       -8.0460     4.1210    -0.4140 H     1 <1>   0.0800 
 26 H       -8.4230     4.0410     1.2960 H     1 <1>   0.0800 
 27 H       -9.6630     4.4510     0.1400 H     1 <1>   0.0800 
@<TRIPOS>BOND
  1   1   2  1   
  2   2   3  ar  
  3   2   4  ar  
  4   3   5  ar  
  5   3  16  1   
  6   4   6  ar  
  7   4  17  1   
  8   5   7  1   
  9   5   8  ar  
 10   6   8  ar  
 11   6  18  1   
 12   8   9  1   
 13   9  10  am  
 14   9  19  1   
 15  10  11  2   
 16  10  12  am  
 17  12  13  1   
 18  12  20  1   
 19  13  14  1   
 20  13  15  1   
 21  13  21  1   
 22  14  22  1   
 23  14  23  1   
 24  14  24  1   
 25  15  25  1   
 26  15  26  1   
 27  15  27  1   
@<TRIPOS>SUBSTRUCTURE
  1 ****   9 GROUP 4 **** **** 0

# MOE 2024.06 (io_trps.svl 2023.06)
