@<TRIPOS>MOLECULE
NONAME
41 42 1 0 0 
SMALL
USER_CHARGES


@<TRIPOS>ATOM
  1 CL       0.0760     0.4910     0.5520 Cl    1 <1>  -0.1770 
  2 C        1.7980     0.2190     0.4560 C.ar  1 <1>   0.1770 
  3 C        2.2710    -1.0680     0.2770 C.ar  1 <1>  -0.1500 
  4 C        2.6610     1.2940     0.5600 C.ar  1 <1>  -0.1500 
  5 C        3.6370    -1.2870     0.2000 C.ar  1 <1>  -0.1500 
  6 C        4.0250     1.0720     0.4830 C.ar  1 <1>  -0.1500 
  7 C        4.5210    -0.2120     0.3030 C.ar  1 <1>   0.0830 
  8 O        5.8700    -0.3360     0.2390 O.3   1 <1>  -0.3630 
  9 C        6.4870    -1.5840     0.0440 C.3   1 <1>   0.1200 
 10 C        8.0000    -1.3420     0.0280 C.3   1 <1>   0.3430 
 11 N        8.8000    -2.6070    -0.1180 N.4   1 <1>  -0.9590 
 12 C       10.2350    -2.3490     0.2180 C.3   1 <1>   0.4230 
 13 C        8.6000    -3.2450    -1.4640 C.3   1 <1>   0.2630 
 14 C       10.9590    -1.5070    -0.8480 C.3   1 <1>  -0.1600 
 15 C       10.9660    -3.6760     0.4610 C.3   1 <1>  -0.1600 
 16 C       12.4150    -1.2490    -0.4320 C.3   1 <1>  -0.1600 
 17 C       12.4230    -3.4240     0.8780 C.3   1 <1>  -0.1600 
 18 C       13.1570    -2.5650    -0.1600 C.3   1 <1>  -0.1600 
 19 H        1.5730    -1.8820     0.2000 H     1 <1>   0.1500 
 20 H        2.2670     2.2840     0.6990 H     1 <1>   0.1500 
 21 H        3.9820    -2.2940     0.0620 H     1 <1>   0.1500 
 22 H        4.7100     1.8980     0.5620 H     1 <1>   0.1500 
 23 H        6.1430    -1.9800    -0.8950 H     1 <1>   0.0800 
 24 H        6.2080    -2.2250     0.8620 H     1 <1>   0.0800 
 25 H        8.2670    -0.8590     0.9540 H     1 <1>   0.0800 
 26 H        8.2350    -0.6710    -0.7820 H     1 <1>   0.0800 
 27 H        8.4700    -3.2680     0.5990 H     1 <1>   0.4500 
 28 H       10.2720    -1.7960     1.1440 H     1 <1>   0.0800 
 29 H        8.9030    -2.5700    -2.2480 H     1 <1>   0.0800 
 30 H        7.5630    -3.4990    -1.6120 H     1 <1>   0.0800 
 31 H        9.1830    -4.1480    -1.5440 H     1 <1>   0.0800 
 32 H       10.4710    -0.5580    -0.9760 H     1 <1>   0.0800 
 33 H       10.9720    -2.0200    -1.7930 H     1 <1>   0.0800 
 34 H       10.9730    -4.2730    -0.4330 H     1 <1>   0.0800 
 35 H       10.4760    -4.2280     1.2430 H     1 <1>   0.0800 
 36 H       12.4390    -0.6370     0.4540 H     1 <1>   0.0800 
 37 H       12.9250    -0.7080    -1.2130 H     1 <1>   0.0800 
 38 H       12.9360    -4.3650     0.9890 H     1 <1>   0.0800 
 39 H       12.4480    -2.9260     1.8330 H     1 <1>   0.0800 
 40 H       14.1520    -2.3490     0.1930 H     1 <1>   0.0800 
 41 H       13.2550    -3.1180    -1.0790 H     1 <1>   0.0800 
@<TRIPOS>BOND
  1   1   2  1   
  2   2   3  ar  
  3   2   4  ar  
  4   3   5  ar  
  5   3  19  1   
  6   4   6  ar  
  7   4  20  1   
  8   5   7  ar  
  9   5  21  1   
 10   6   7  ar  
 11   6  22  1   
 12   7   8  1   
 13   8   9  1   
 14   9  10  1   
 15   9  23  1   
 16   9  24  1   
 17  10  11  1   
 18  10  25  1   
 19  10  26  1   
 20  11  12  1   
 21  11  13  1   
 22  11  27  1   
 23  12  14  1   
 24  12  15  1   
 25  12  28  1   
 26  13  29  1   
 27  13  30  1   
 28  13  31  1   
 29  14  16  1   
 30  14  32  1   
 31  14  33  1   
 32  15  17  1   
 33  15  34  1   
 34  15  35  1   
 35  16  18  1   
 36  16  36  1   
 37  16  37  1   
 38  17  18  1   
 39  17  38  1   
 40  17  39  1   
 41  18  40  1   
 42  18  41  1   
@<TRIPOS>SUBSTRUCTURE
  1 ****   9 GROUP 4 **** **** 0

# MOE 2024.06 (io_trps.svl 2023.06)
