@<TRIPOS>MOLECULE
NONAME
40 40 1 0 0 
SMALL
USER_CHARGES


@<TRIPOS>ATOM
  1 O        0.9650     0.7330     0.3930 O.2   1 <1>  -0.5700 
  2 C        0.6790     1.9140     0.4230 C.2   1 <1>   0.5690 
  3 N        1.6390     2.8710     0.5560 N.am  1 <1>  -0.4300 
  4 C       -0.8010     2.3620     0.3230 C.3   1 <1>   0.0610 
  5 N        3.0840     2.6460     0.4310 N.am  1 <1>  -0.4300 
  6 C       -1.0000     3.2690    -0.9080 C.3   1 <1>  -0.2400 
  7 C       -1.7580     1.1600     0.1810 C.3   1 <1>  -0.2400 
  8 C       -1.2140     3.1450     1.5850 C.3   1 <1>  -0.2400 
  9 C        3.8120     2.7990    -0.7070 C.2   1 <1>   0.5690 
 10 O        3.3580     3.3260    -1.7020 O.2   1 <1>  -0.5700 
 11 C        5.2530     2.3110    -0.7350 C.3   1 <1>   0.1810 
 12 O        5.6360     1.7770     0.5270 O.3   1 <1>  -0.3630 
 13 C        6.8970     1.2900     0.6150 C.ar  1 <1>   0.0820 
 14 C        8.0180     2.1250     0.5960 C.ar  1 <1>   0.0820 
 15 C        7.0450    -0.0810     0.7470 C.ar  1 <1>  -0.1500 
 16 O        7.8230     3.4720     0.4970 O.3   1 <1>  -0.3620 
 17 C        9.2840     1.5530     0.6880 C.ar  1 <1>  -0.1500 
 18 C        8.3080    -0.6370     0.8410 C.ar  1 <1>  -0.1500 
 19 C        8.8960     4.3810     0.6120 C.3   1 <1>   0.0400 
 20 C        9.4250     0.1800     0.8090 C.ar  1 <1>  -0.1500 
 21 H        1.3480     3.8510     0.5780 H     1 <1>   0.3700 
 22 H        3.5510     2.1880     1.2250 H     1 <1>   0.3700 
 23 H       -0.7070     2.7450    -1.8010 H     1 <1>   0.0800 
 24 H       -0.4050     4.1610    -0.8340 H     1 <1>   0.0800 
 25 H       -2.0310     3.5590    -1.0060 H     1 <1>   0.0800 
 26 H       -1.5150     0.5940    -0.7020 H     1 <1>   0.0800 
 27 H       -2.7810     1.4830     0.1090 H     1 <1>   0.0800 
 28 H       -1.6640     0.5060     1.0300 H     1 <1>   0.0800 
 29 H       -0.6250     4.0370     1.6990 H     1 <1>   0.0800 
 30 H       -1.0740     2.5330     2.4600 H     1 <1>   0.0800 
 31 H       -2.2500     3.4300     1.5330 H     1 <1>   0.0800 
 32 H        5.8990     3.1320    -0.9810 H     1 <1>   0.0800 
 33 H        5.3570     1.5390    -1.4740 H     1 <1>   0.0800 
 34 H        6.1710    -0.7070     0.7750 H     1 <1>   0.1500 
 35 H       10.1720     2.1540     0.6690 H     1 <1>   0.1500 
 36 H        8.4210    -1.7030     0.9410 H     1 <1>   0.1500 
 37 H        8.4950     5.3780     0.5590 H     1 <1>   0.0800 
 38 H        9.5810     4.2200    -0.2010 H     1 <1>   0.0800 
 39 H        9.3790     4.2330     1.5610 H     1 <1>   0.0800 
 40 H       10.4080    -0.2550     0.8800 H     1 <1>   0.1500 
@<TRIPOS>BOND
  1   1   2  2   
  2   2   3  am  
  3   2   4  1   
  4   3   5  1   
  5   3  21  1   
  6   4   6  1   
  7   4   7  1   
  8   4   8  1   
  9   5   9  am  
 10   5  22  1   
 11   6  23  1   
 12   6  24  1   
 13   6  25  1   
 14   7  26  1   
 15   7  27  1   
 16   7  28  1   
 17   8  29  1   
 18   8  30  1   
 19   8  31  1   
 20   9  10  2   
 21   9  11  1   
 22  11  12  1   
 23  11  32  1   
 24  11  33  1   
 25  12  13  1   
 26  13  14  ar  
 27  13  15  ar  
 28  14  16  1   
 29  14  17  ar  
 30  15  18  ar  
 31  15  34  1   
 32  16  19  1   
 33  17  20  ar  
 34  17  35  1   
 35  18  20  ar  
 36  18  36  1   
 37  19  37  1   
 38  19  38  1   
 39  19  39  1   
 40  20  40  1   
@<TRIPOS>SUBSTRUCTURE
  1 ****   9 GROUP 4 **** **** 0

# MOE 2024.06 (io_trps.svl 2023.06)
