@<TRIPOS>MOLECULE
NONAME
54 57 1 0 0 
SMALL
USER_CHARGES


@<TRIPOS>ATOM
  1 S        0.9990     0.9190     0.6880 S.3   1 <1>  -0.2860 
  2 C        2.2790     0.0200    -0.1950 C.2   1 <1>   0.2420 
  3 C        0.5080     2.3200    -0.4340 C.3   1 <1>   0.1310 
  4 N        2.6230     0.2380    -1.4030 N.2   1 <1>  -0.3380 
  5 N        2.9940    -0.9460     0.3470 N.pl3 1 <1>   0.3140 
  6 C        1.3280     3.5640    -0.0980 C.2   1 <1>   0.5690 
  7 N        3.6110    -0.6250    -1.6280 N.2   1 <1>   0.0000 
  8 N        3.8480    -1.3380    -0.5810 N.2   1 <1>  -0.4180 
  9 C        2.9360    -1.5060     1.7060 C.3   1 <1>   0.0160 
 10 O        1.0010     4.1690     0.8940 O.2   1 <1>  -0.5700 
 11 N        2.4020     3.9980    -0.8480 N.am  1 <1>  -0.6600 
 12 C        3.2650     5.1140    -0.3510 C.3   1 <1>   0.1400 
 13 C        2.9940     3.3100    -2.0330 C.3   1 <1>   0.1400 
 14 C        4.6530     4.5640     0.0210 C.3   1 <1>   0.3430 
 15 C        4.3890     2.7530    -1.6700 C.3   1 <1>   0.3430 
 16 N        5.3000     3.8220    -1.1270 N.4   1 <1>  -0.9590 
 17 C        6.6360     3.2590    -0.7610 C.3   1 <1>   0.7100 
 18 C        6.4950     2.2840     0.4160 C.ar  1 <1>  -0.1440 
 19 C        7.6680     4.3770    -0.5270 C.ar  1 <1>  -0.1440 
 20 C        6.4010     0.9210     0.1580 C.ar  1 <1>  -0.1500 
 21 C        6.4750     2.7110     1.7410 C.ar  1 <1>  -0.1500 
 22 C        7.5120     5.6740    -1.0180 C.ar  1 <1>  -0.1500 
 23 C        8.8330     4.0830     0.1780 C.ar  1 <1>  -0.1500 
 24 C        6.2820     0.0120     1.1930 C.ar  1 <1>  -0.1500 
 25 C        6.3470     1.8030     2.7760 C.ar  1 <1>  -0.1500 
 26 C        8.4730     6.6420    -0.7850 C.ar  1 <1>  -0.1500 
 27 C        9.7930     5.0510     0.4100 C.ar  1 <1>  -0.1500 
 28 C        6.2510     0.4510     2.5030 C.ar  1 <1>  -0.1500 
 29 C        9.6130     6.3330    -0.0680 C.ar  1 <1>  -0.1500 
 30 H       -0.5290     2.5160    -0.2320 H     1 <1>   0.0800 
 31 H        0.6110     1.9960    -1.4490 H     1 <1>   0.0800 
 32 H        1.9240    -1.7840     1.9330 H     1 <1>   0.0800 
 33 H        3.2750    -0.7670     2.4080 H     1 <1>   0.0800 
 34 H        3.5680    -2.3740     1.7610 H     1 <1>   0.0800 
 35 H        2.8320     5.5850     0.5150 H     1 <1>   0.0800 
 36 H        3.3550     5.8690    -1.1130 H     1 <1>   0.0800 
 37 H        3.0880     4.0150    -2.8400 H     1 <1>   0.0800 
 38 H        2.3620     2.5200    -2.3870 H     1 <1>   0.0800 
 39 H        4.5200     3.8970     0.8570 H     1 <1>   0.0800 
 40 H        5.2840     5.3750     0.3440 H     1 <1>   0.0800 
 41 H        4.8260     2.2970    -2.5430 H     1 <1>   0.0800 
 42 H        4.2600     1.9820    -0.9280 H     1 <1>   0.0800 
 43 H        5.4810     4.4930    -1.8750 H     1 <1>   0.4500 
 44 H        6.9980     2.6880    -1.6010 H     1 <1>   0.0800 
 45 H        6.4240     0.5380    -0.8500 H     1 <1>   0.1500 
 46 H        6.5700     3.7560     1.9890 H     1 <1>   0.1500 
 47 H        6.6580     5.9750    -1.5940 H     1 <1>   0.1500 
 48 H        9.0170     3.0910     0.5610 H     1 <1>   0.1500 
 49 H        6.2180    -1.0420     0.9770 H     1 <1>   0.1500 
 50 H        6.3320     2.1440     3.7980 H     1 <1>   0.1500 
 51 H        8.3420     7.6420    -1.1640 H     1 <1>   0.1500 
 52 H       10.6850     4.8060     0.9630 H     1 <1>   0.1500 
 53 H        6.1620    -0.2570     3.3100 H     1 <1>   0.1500 
 54 H       10.3600     7.0870     0.1140 H     1 <1>   0.1500 
@<TRIPOS>BOND
  1   1   2  1   
  2   1   3  1   
  3   2   4  2   
  4   2   5  1   
  5   3   6  1   
  6   3  30  1   
  7   3  31  1   
  8   4   7  1   
  9   5   8  1   
 10   5   9  1   
 11   6  10  2   
 12   6  11  am  
 13   7   8  2   
 14   9  32  1   
 15   9  33  1   
 16   9  34  1   
 17  11  12  1   
 18  11  13  1   
 19  12  14  1   
 20  12  35  1   
 21  12  36  1   
 22  13  15  1   
 23  13  37  1   
 24  13  38  1   
 25  14  16  1   
 26  14  39  1   
 27  14  40  1   
 28  15  16  1   
 29  15  41  1   
 30  15  42  1   
 31  16  17  1   
 32  16  43  1   
 33  17  18  1   
 34  17  19  1   
 35  17  44  1   
 36  18  20  ar  
 37  18  21  ar  
 38  19  22  ar  
 39  19  23  ar  
 40  20  24  ar  
 41  20  45  1   
 42  21  25  ar  
 43  21  46  1   
 44  22  26  ar  
 45  22  47  1   
 46  23  27  ar  
 47  23  48  1   
 48  24  28  ar  
 49  24  49  1   
 50  25  28  ar  
 51  25  50  1   
 52  26  29  ar  
 53  26  51  1   
 54  27  29  ar  
 55  27  52  1   
 56  28  53  1   
 57  29  54  1   
@<TRIPOS>SUBSTRUCTURE
  1 ****  18 GROUP 4 **** **** 0

# MOE 2024.06 (io_trps.svl 2023.06)
