@<TRIPOS>MOLECULE
NONAME
53 55 1 0 0 
SMALL
USER_CHARGES


@<TRIPOS>ATOM
  1 O       -0.9210    -0.6050    -0.7160 O.2   1 <1>  -0.5700 
  2 C       -2.0430    -1.0510    -0.7810 C.2   1 <1>   0.6900 
  3 N       -3.1600    -0.2360    -0.8790 N.am  1 <1>  -0.4360 
  4 N       -2.2060    -2.4060    -0.7570 N.am  1 <1>  -0.4900 
  5 C       -4.4020    -0.8520    -0.9440 C.2   1 <1>   0.4260 
  6 C       -3.0400     1.2500    -0.9160 C.3   1 <1>   0.0600 
  7 C       -3.4190    -3.0300    -0.8230 C.2   1 <1>   0.7030 
  8 N       -5.6170    -0.2640    -1.0390 N.pl3 1 <1>  -0.7000 
  9 C       -4.5870    -2.1970    -0.9160 C.2   1 <1>   0.2770 
 10 O       -3.4500    -4.2440    -0.8050 O.2   1 <1>  -0.5700 
 11 C       -6.5440    -1.2140    -1.0660 C.cat 1 <1>   0.6560 
 12 N       -5.9710    -2.4120    -0.9890 N.pl3 1 <1>  -0.7640 
 13 C       -8.0390    -0.8660    -1.1710 C.3   1 <1>   0.2540 
 14 C       -6.6090    -3.7600    -0.9740 C.3   1 <1>   0.3540 
 15 N       -8.2710     0.5650    -0.8540 N.3   1 <1>  -0.8100 
 16 C       -7.1430    -4.1160     0.4290 C.3   1 <1>  -0.0800 
 17 C       -9.4470     1.1430    -1.5470 C.3   1 <1>   0.1100 
 18 C       -8.3710     0.8460     0.5920 C.3   1 <1>   0.1100 
 19 C       -6.0420    -4.1360     1.5040 C.3   1 <1>  -0.2400 
 20 C       -7.8380    -5.4850     0.3960 C.3   1 <1>  -0.2400 
 21 C       -9.8630     2.5440    -1.0140 C.3   1 <1>   0.2000 
 22 C       -8.3920     2.3730     0.8720 C.3   1 <1>   0.2000 
 23 O       -8.8560     3.1130    -0.2250 O.3   1 <1>  -0.5600 
 24 C      -11.1770     2.5380    -0.2220 C.3   1 <1>  -0.2400 
 25 C       -6.9960     2.9120     1.1780 C.3   1 <1>  -0.2400 
 26 H       -1.3660    -2.9770    -0.6900 H     1 <1>   0.3700 
 27 H       -2.0080     1.5540    -0.8690 H     1 <1>   0.0800 
 28 H       -3.5590     1.6800    -0.0780 H     1 <1>   0.0800 
 29 H       -3.4630     1.6280    -1.8310 H     1 <1>   0.0800 
 30 H       -5.8810     0.7280    -1.0760 H     1 <1>   0.4500 
 31 H       -8.6180    -1.4900    -0.5150 H     1 <1>   0.0800 
 32 H       -8.3450    -1.0610    -2.1840 H     1 <1>   0.0800 
 33 H       -5.8990    -4.5070    -1.2900 H     1 <1>   0.0800 
 34 H       -7.4230    -3.7750    -1.6800 H     1 <1>   0.0800 
 35 H       -7.8810    -3.3870     0.7130 H     1 <1>   0.0800 
 36 H      -10.2890     0.4770    -1.4630 H     1 <1>   0.0800 
 37 H       -9.2210     1.2370    -2.5950 H     1 <1>   0.0800 
 38 H       -7.5500     0.3990     1.1250 H     1 <1>   0.0800 
 39 H       -9.2760     0.4120     0.9820 H     1 <1>   0.0800 
 40 H       -5.2680    -4.8380     1.2430 H     1 <1>   0.0800 
 41 H       -6.4550    -4.4300     2.4540 H     1 <1>   0.0800 
 42 H       -5.6020    -3.1640     1.6270 H     1 <1>   0.0800 
 43 H       -7.1400    -6.2630     0.1330 H     1 <1>   0.0800 
 44 H       -8.6420    -5.4900    -0.3190 H     1 <1>   0.0800 
 45 H       -8.2520    -5.7180     1.3620 H     1 <1>   0.0800 
 46 H       -9.9930     3.2010    -1.8570 H     1 <1>   0.0800 
 47 H       -9.0390     2.5780     1.7070 H     1 <1>   0.0800 
 48 H      -11.1370     1.8570     0.6070 H     1 <1>   0.0800 
 49 H      -11.9850     2.2390    -0.8640 H     1 <1>   0.0800 
 50 H      -11.3860     3.5290     0.1390 H     1 <1>   0.0800 
 51 H       -6.3450     2.7510     0.3400 H     1 <1>   0.0800 
 52 H       -6.5880     2.4230     2.0430 H     1 <1>   0.0800 
 53 H       -7.0550     3.9660     1.3820 H     1 <1>   0.0800 
@<TRIPOS>BOND
  1   1   2  2   
  2   2   3  am  
  3   2   4  am  
  4   3   5  1   
  5   3   6  1   
  6   4   7  am  
  7   4  26  1   
  8   5   8  1   
  9   5   9  2   
 10   6  27  1   
 11   6  28  1   
 12   6  29  1   
 13   7   9  1   
 14   7  10  2   
 15   8  11  ar  
 16   8  30  1   
 17   9  12  1   
 18  11  12  ar  
 19  11  13  1   
 20  12  14  1   
 21  13  15  1   
 22  13  31  1   
 23  13  32  1   
 24  14  16  1   
 25  14  33  1   
 26  14  34  1   
 27  15  17  1   
 28  15  18  1   
 29  16  19  1   
 30  16  20  1   
 31  16  35  1   
 32  17  21  1   
 33  17  36  1   
 34  17  37  1   
 35  18  22  1   
 36  18  38  1   
 37  18  39  1   
 38  19  40  1   
 39  19  41  1   
 40  19  42  1   
 41  20  43  1   
 42  20  44  1   
 43  20  45  1   
 44  21  23  1   
 45  21  24  1   
 46  21  46  1   
 47  22  23  1   
 48  22  25  1   
 49  22  47  1   
 50  24  48  1   
 51  24  49  1   
 52  24  50  1   
 53  25  51  1   
 54  25  52  1   
 55  25  53  1   
@<TRIPOS>SUBSTRUCTURE
  1 ****  11 GROUP 4 **** **** 0

# MOE 2024.06 (io_trps.svl 2023.06)
