@<TRIPOS>MOLECULE
NONAME
41 43 1 0 0 
SMALL
USER_CHARGES


@<TRIPOS>ATOM
  1 S       -0.0730     0.0160    -0.0540 S.o2  1 <1>   1.3330 
  2 O        0.1080    -0.4550    -1.4060 O.2   1 <1>  -0.6500 
  3 O       -1.2340     0.7960     0.2960 O.2   1 <1>  -0.6500 
  4 N        1.2870     0.9710     0.2970 N.am  1 <1>  -0.8490 
  5 C        0.0620    -1.3430     1.0890 C.3   1 <1>  -0.1350 
  6 C        1.0220     2.3900    -0.0130 C.3   1 <1>   0.1960 
  7 C        2.5050     0.4970    -0.3900 C.3   1 <1>   0.1960 
  8 C        2.2320     3.2990     0.2950 C.3   1 <1>   0.3430 
  9 C        3.7330     1.3730    -0.0610 C.3   1 <1>   0.3430 
 10 N        3.4970     2.8280    -0.3770 N.4   1 <1>  -0.9590 
 11 C        4.7010     3.6400    -0.0120 C.3   1 <1>   0.3430 
 12 C        4.6490     5.0680    -0.5920 C.3   1 <1>  -0.0800 
 13 C        6.1750     5.7080    -0.6460 C.3   1 <1>   0.0580 
 14 C        3.7020     6.1700     0.3140 C.3   1 <1>  -0.1600 
 15 C        7.0310     6.9370    -0.0460 C.2   1 <1>  -0.2880 
 16 C        5.3210     6.5070    -0.0080 C.3   1 <1>  -0.1600 
 17 C        4.6980     7.4230     0.7310 C.3   1 <1>   0.0580 
 18 C        6.2570     7.8350     0.6760 C.2   1 <1>  -0.2880 
 19 H       -0.7720    -2.0060     0.9650 H     1 <1>   0.0800 
 20 H        0.0620    -0.9790     2.0970 H     1 <1>   0.0800 
 21 H        0.9640    -1.8950     0.9160 H     1 <1>   0.0800 
 22 H        0.1910     2.7380     0.5780 H     1 <1>   0.0800 
 23 H        0.7460     2.4920    -1.0500 H     1 <1>   0.0800 
 24 H        2.3560     0.4980    -1.4580 H     1 <1>   0.0800 
 25 H        2.7120    -0.5170    -0.0930 H     1 <1>   0.0800 
 26 H        2.3750     3.3170     1.3630 H     1 <1>   0.0800 
 27 H        1.9980     4.3000    -0.0240 H     1 <1>   0.0800 
 28 H        4.5810     1.0110    -0.6190 H     1 <1>   0.0800 
 29 H        3.9560     1.2620     0.9880 H     1 <1>   0.0800 
 30 H        3.3550     2.9040    -1.3930 H     1 <1>   0.4500 
 31 H        5.5790     3.1560    -0.4080 H     1 <1>   0.0800 
 32 H        4.8110     3.6900     1.0600 H     1 <1>   0.0800 
 33 H        4.2710     5.0040    -1.6040 H     1 <1>   0.0800 
 34 H        6.3460     5.8200    -1.7090 H     1 <1>   0.0800 
 35 H        3.3100     5.7190     1.2140 H     1 <1>   0.0800 
 36 H        2.8630     6.5280    -0.2660 H     1 <1>   0.0800 
 37 H        8.0910     6.9740    -0.2400 H     1 <1>   0.1500 
 38 H        5.1180     7.1200    -0.9830 H     1 <1>   0.0800 
 39 H        5.6090     5.9250     1.0230 H     1 <1>   0.0800 
 40 H        4.2180     8.2740     0.2660 H     1 <1>   0.0800 
 41 H        6.5680     8.7370     1.1780 H     1 <1>   0.1500 
@<TRIPOS>BOND
  1   1   2  2   
  2   1   3  2   
  3   1   4  am  
  4   1   5  1   
  5   4   6  1   
  6   4   7  1   
  7   5  19  1   
  8   5  20  1   
  9   5  21  1   
 10   6   8  1   
 11   6  22  1   
 12   6  23  1   
 13   7   9  1   
 14   7  24  1   
 15   7  25  1   
 16   8  10  1   
 17   8  26  1   
 18   8  27  1   
 19   9  10  1   
 20   9  28  1   
 21   9  29  1   
 22  10  11  1   
 23  10  30  1   
 24  11  12  1   
 25  11  31  1   
 26  11  32  1   
 27  12  13  1   
 28  12  14  1   
 29  12  33  1   
 30  13  15  1   
 31  13  16  1   
 32  13  34  1   
 33  14  17  1   
 34  14  35  1   
 35  14  36  1   
 36  15  18  2   
 37  15  37  1   
 38  16  17  1   
 39  16  38  1   
 40  16  39  1   
 41  17  18  1   
 42  17  40  1   
 43  18  41  1   
@<TRIPOS>SUBSTRUCTURE
  1 ****  10 GROUP 4 **** **** 0

# MOE 2024.06 (io_trps.svl 2023.06)
