@<TRIPOS>MOLECULE
NONAME
37 39 1 0 0 
SMALL
USER_CHARGES


@<TRIPOS>ATOM
  1 S        0.0050     0.2620     0.1760 S.3   1 <1>  -0.0800 
  2 C       -1.6050    -0.4660     0.1260 C.ar  1 <1>   0.2970 
  3 C        0.7690    -1.3250     0.1490 C.2   1 <1>  -0.1400 
  4 N       -2.7090     0.2400     0.1180 N.ar  1 <1>  -0.5670 
  5 C       -1.5130    -1.8400     0.0950 C.ar  1 <1>   0.0000 
  6 C       -0.1450    -2.3050     0.1190 C.2   1 <1>  -0.1810 
  7 C        2.2740    -1.4480     0.1600 C.3   1 <1>   0.5230 
  8 C       -3.7830    -0.5210     0.0730 C.ar  1 <1>   0.7220 
  9 C       -2.7390    -2.4950     0.0440 C.ar  1 <1>   0.3920 
 10 C        0.2850    -3.7620     0.1110 C.3   1 <1>   0.0210 
 11 N        2.6160    -2.8450    -0.2760 N.4   1 <1>  -0.9590 
 12 S       -5.3310     0.3720     0.0620 S.3   1 <1>  -0.3320 
 13 N       -3.8870    -1.8460     0.0340 N.ar  1 <1>  -0.6200 
 14 O       -2.7420    -3.8390     0.0010 O.3   1 <1>  -0.3630 
 15 C        1.7880    -3.8870     0.4380 C.3   1 <1>   0.3430 
 16 C        4.0790    -3.1130    -0.1420 C.3   1 <1>   0.2630 
 17 C       -6.6450    -0.9270    -0.0040 C.3   1 <1>  -0.0100 
 18 C       -3.9460    -4.5750    -0.0540 C.3   1 <1>   0.1200 
 19 C       -3.5940    -6.0590    -0.0920 C.3   1 <1>  -0.2400 
 20 H        2.6440    -1.2550     1.1530 H     1 <1>   0.0800 
 21 H        2.7040    -0.7300    -0.5200 H     1 <1>   0.0800 
 22 H        0.0770    -4.1950    -0.8510 H     1 <1>   0.0800 
 23 H       -0.2750    -4.3140     0.8470 H     1 <1>   0.0800 
 24 H        2.3540    -2.8930    -1.2720 H     1 <1>   0.4500 
 25 H        2.1230    -4.8760     0.1690 H     1 <1>   0.0800 
 26 H        1.9190    -3.7700     1.5020 H     1 <1>   0.0800 
 27 H        4.3780    -3.0620     0.8930 H     1 <1>   0.0800 
 28 H        4.6480    -2.3880    -0.7030 H     1 <1>   0.0800 
 29 H        4.3150    -4.0960    -0.5190 H     1 <1>   0.0800 
 30 H       -7.5970    -0.4290    -0.0120 H     1 <1>   0.0800 
 31 H       -6.5410    -1.5470     0.8690 H     1 <1>   0.0800 
 32 H       -6.5010    -1.4980    -0.9030 H     1 <1>   0.0800 
 33 H       -4.4830    -4.2840    -0.9420 H     1 <1>   0.0800 
 34 H       -4.5310    -4.3400     0.8190 H     1 <1>   0.0800 
 35 H       -3.0040    -6.2800    -0.9630 H     1 <1>   0.0800 
 36 H       -4.4960    -6.6420    -0.1350 H     1 <1>   0.0800 
 37 H       -3.0520    -6.3350     0.7950 H     1 <1>   0.0800 
@<TRIPOS>BOND
  1   1   2  1   
  2   1   3  1   
  3   2   4  ar  
  4   2   5  ar  
  5   3   6  2   
  6   3   7  1   
  7   4   8  ar  
  8   5   6  1   
  9   5   9  ar  
 10   6  10  1   
 11   7  11  1   
 12   7  20  1   
 13   7  21  1   
 14   8  12  1   
 15   8  13  ar  
 16   9  13  ar  
 17   9  14  1   
 18  10  15  1   
 19  10  22  1   
 20  10  23  1   
 21  11  15  1   
 22  11  16  1   
 23  11  24  1   
 24  12  17  1   
 25  14  18  1   
 26  15  25  1   
 27  15  26  1   
 28  16  27  1   
 29  16  28  1   
 30  16  29  1   
 31  17  30  1   
 32  17  31  1   
 33  17  32  1   
 34  18  19  1   
 35  18  33  1   
 36  18  34  1   
 37  19  35  1   
 38  19  36  1   
 39  19  37  1   
@<TRIPOS>SUBSTRUCTURE
  1 ****   5 GROUP 4 **** **** 0

# MOE 2024.06 (io_trps.svl 2023.06)
