@<TRIPOS>MOLECULE
NONAME
50 51 1 0 0 
SMALL
USER_CHARGES


@<TRIPOS>ATOM
  1 O        0.5550     1.9280    -1.3940 O.3   1 <1>  -0.6800 
  2 C        0.0300     3.2210    -1.3240 C.3   1 <1>   0.2000 
  3 C        1.0230     4.0770    -0.4930 C.3   1 <1>   0.3430 
  4 C       -1.3910     3.1420    -0.7050 C.3   1 <1>   0.3430 
  5 N        2.4390     3.6790    -0.7730 N.4   1 <1>  -0.9060 
  6 N       -2.2700     4.3290    -0.9920 N.4   1 <1>  -0.9060 
  7 C        3.4290     4.0840     0.2450 C.3   1 <1>   0.4230 
  8 C       -3.6430     4.1590    -0.4610 C.3   1 <1>   0.4230 
  9 C        3.6150     5.6070     0.2210 C.3   1 <1>  -0.1600 
 10 C        4.7450     3.3610    -0.0560 C.3   1 <1>  -0.1600 
 11 C       -4.5330     5.2340    -1.0940 C.3   1 <1>  -0.1600 
 12 C       -3.6370     4.2800     1.0710 C.3   1 <1>  -0.1600 
 13 C        4.7170     6.0430     1.1980 C.3   1 <1>  -0.1600 
 14 C        5.8480     3.7900     0.9230 C.3   1 <1>  -0.1600 
 15 C       -5.9620     5.1680    -0.5360 C.3   1 <1>  -0.1600 
 16 C       -5.0640     4.2150     1.6340 C.3   1 <1>  -0.1600 
 17 C        6.0360     5.3120     0.9130 C.3   1 <1>  -0.1600 
 18 C       -5.9650     5.2780     0.9930 C.3   1 <1>  -0.1600 
 19 H        0.1250     1.3680    -2.0820 H     1 <1>   0.4000 
 20 H       -0.0240     3.5930    -2.3330 H     1 <1>   0.0800 
 21 H        0.8190     3.9140     0.5530 H     1 <1>   0.0800 
 22 H        0.8820     5.1250    -0.6980 H     1 <1>   0.0800 
 23 H       -1.3000     3.0070     0.3610 H     1 <1>   0.0800 
 24 H       -1.8750     2.2630    -1.1020 H     1 <1>   0.0800 
 25 H        2.7600     4.0070    -1.6910 H     1 <1>   0.4500 
 26 H        2.4350     2.6460    -0.8380 H     1 <1>   0.4500 
 27 H       -2.3770     4.4700    -2.0060 H     1 <1>   0.4500 
 28 H       -1.9180     5.2080    -0.5970 H     1 <1>   0.4500 
 29 H        3.0930     3.7850     1.2260 H     1 <1>   0.0800 
 30 H       -4.0320     3.1910    -0.7360 H     1 <1>   0.0800 
 31 H        2.7040     6.1040     0.5010 H     1 <1>   0.0800 
 32 H        3.8940     5.9280    -0.7680 H     1 <1>   0.0800 
 33 H        5.0730     3.5880    -1.0560 H     1 <1>   0.0800 
 34 H        4.6100     2.2970     0.0280 H     1 <1>   0.0800 
 35 H       -4.5800     5.0970    -2.1600 H     1 <1>   0.0800 
 36 H       -4.1370     6.2150    -0.8890 H     1 <1>   0.0800 
 37 H       -3.2000     5.2180     1.3670 H     1 <1>   0.0800 
 38 H       -3.0710     3.4790     1.5130 H     1 <1>   0.0800 
 39 H        4.4110     5.8380     2.2110 H     1 <1>   0.0800 
 40 H        4.8760     7.1060     1.1180 H     1 <1>   0.0800 
 41 H        6.7770     3.3150     0.6550 H     1 <1>   0.0800 
 42 H        5.5960     3.4690     1.9210 H     1 <1>   0.0800 
 43 H       -6.4260     4.2390    -0.8270 H     1 <1>   0.0800 
 44 H       -6.5520     5.9680    -0.9520 H     1 <1>   0.0800 
 45 H       -5.0410     4.3660     2.7010 H     1 <1>   0.0800 
 46 H       -5.4840     3.2400     1.4550 H     1 <1>   0.0800 
 47 H        6.7670     5.5880     1.6550 H     1 <1>   0.0800 
 48 H        6.4180     5.6210    -0.0460 H     1 <1>   0.0800 
 49 H       -6.9720     5.1610     1.3590 H     1 <1>   0.0800 
 50 H       -5.6290     6.2590     1.2850 H     1 <1>   0.0800 
@<TRIPOS>BOND
  1   1   2  1   
  2   1  19  1   
  3   2   3  1   
  4   2   4  1   
  5   2  20  1   
  6   3   5  1   
  7   3  21  1   
  8   3  22  1   
  9   4   6  1   
 10   4  23  1   
 11   4  24  1   
 12   5   7  1   
 13   5  25  1   
 14   5  26  1   
 15   6   8  1   
 16   6  27  1   
 17   6  28  1   
 18   7   9  1   
 19   7  10  1   
 20   7  29  1   
 21   8  11  1   
 22   8  12  1   
 23   8  30  1   
 24   9  13  1   
 25   9  31  1   
 26   9  32  1   
 27  10  14  1   
 28  10  33  1   
 29  10  34  1   
 30  11  15  1   
 31  11  35  1   
 32  11  36  1   
 33  12  16  1   
 34  12  37  1   
 35  12  38  1   
 36  13  17  1   
 37  13  39  1   
 38  13  40  1   
 39  14  17  1   
 40  14  41  1   
 41  14  42  1   
 42  15  18  1   
 43  15  43  1   
 44  15  44  1   
 45  16  18  1   
 46  16  45  1   
 47  16  46  1   
 48  17  47  1   
 49  17  48  1   
 50  18  49  1   
 51  18  50  1   
@<TRIPOS>SUBSTRUCTURE
  1 ****   3 GROUP 4 **** **** 0

# MOE 2024.06 (io_trps.svl 2023.06)
