@<TRIPOS>MOLECULE
NONAME
30 30 1 0 0 
SMALL
USER_CHARGES


@<TRIPOS>ATOM
  1 I       -0.3900    -0.5450     1.6170 I     1 <1>  -0.0810 
  2 C        1.5860    -1.0590     1.0080 C.ar  1 <1>   0.0810 
  3 C        1.9460    -2.3890     0.9240 C.ar  1 <1>   0.1600 
  4 C        2.4740    -0.0540     0.7000 C.ar  1 <1>  -0.1500 
  5 N        3.1520    -2.7930     0.5570 N.ar  1 <1>  -0.6200 
  6 C        3.7360    -0.4600     0.3150 C.ar  1 <1>  -0.1430 
  7 C        4.0330    -1.8360     0.2880 C.ar  1 <1>   0.4270 
  8 C        4.7340     0.6230    -0.0800 C.3   1 <1>  -0.0970 
  9 N        5.2580    -2.3590    -0.0660 N.am  1 <1>  -0.5470 
 10 C        6.5040    -2.1000     0.4250 C.2   1 <1>   0.5690 
 11 O        6.7150    -1.2000     1.2030 O.2   1 <1>  -0.5700 
 12 C        7.6900    -2.9930    -0.0250 C.3   1 <1>   0.0610 
 13 C        8.4250    -3.5520     1.2080 C.3   1 <1>  -0.2400 
 14 C        8.6830    -2.1540    -0.8490 C.3   1 <1>  -0.2400 
 15 C        7.2500    -4.1950    -0.8910 C.3   1 <1>  -0.2400 
 16 H        1.2190    -3.1460     1.1640 H     1 <1>   0.1500 
 17 H        2.1900     0.9820     0.7550 H     1 <1>   0.1500 
 18 H        4.2260     1.4830    -0.4760 H     1 <1>   0.0800 
 19 H        5.4130     0.2630    -0.8320 H     1 <1>   0.0800 
 20 H        5.3010     0.9280     0.7820 H     1 <1>   0.0800 
 21 H        5.1540    -3.2670    -0.5060 H     1 <1>   0.3700 
 22 H        8.7990    -2.7470     1.8180 H     1 <1>   0.0800 
 23 H        9.2560    -4.1690     0.9160 H     1 <1>   0.0800 
 24 H        7.7530    -4.1400     1.8090 H     1 <1>   0.0800 
 25 H        9.5250    -2.7470    -1.1570 H     1 <1>   0.0800 
 26 H        9.0460    -1.3270    -0.2620 H     1 <1>   0.0800 
 27 H        8.2010    -1.7570    -1.7240 H     1 <1>   0.0800 
 28 H        8.1030    -4.7890    -1.1680 H     1 <1>   0.0800 
 29 H        6.7730    -3.8620    -1.7960 H     1 <1>   0.0800 
 30 H        6.5690    -4.8270    -0.3470 H     1 <1>   0.0800 
@<TRIPOS>BOND
  1   1   2  1   
  2   2   3  ar  
  3   2   4  ar  
  4   3   5  ar  
  5   3  16  1   
  6   4   6  ar  
  7   4  17  1   
  8   5   7  ar  
  9   6   7  ar  
 10   6   8  1   
 11   7   9  1   
 12   8  18  1   
 13   8  19  1   
 14   8  20  1   
 15   9  10  am  
 16   9  21  1   
 17  10  11  2   
 18  10  12  1   
 19  12  13  1   
 20  12  14  1   
 21  12  15  1   
 22  13  22  1   
 23  13  23  1   
 24  13  24  1   
 25  14  25  1   
 26  14  26  1   
 27  14  27  1   
 28  15  28  1   
 29  15  29  1   
 30  15  30  1   
@<TRIPOS>SUBSTRUCTURE
  1 ****   7 GROUP 4 **** **** 0

# MOE 2024.06 (io_trps.svl 2023.06)
