@<TRIPOS>MOLECULE
NONAME
43 45 1 0 0 
SMALL
USER_CHARGES


@<TRIPOS>ATOM
  1 S       -0.1810     0.3720    -1.0570 S.3   1 <1>  -0.0800 
  2 C       -1.8890     0.3860    -0.6340 C.ar  1 <1>   0.2970 
  3 C        0.0210    -1.3250    -0.5410 C.2   1 <1>  -0.0450 
  4 N       -2.6130     1.4770    -0.8060 N.ar  1 <1>  -0.5670 
  5 C       -2.2720    -0.8480    -0.1200 C.ar  1 <1>   0.0000 
  6 C       -1.1860    -1.8080    -0.1260 C.2   1 <1>   0.0830 
  7 C        1.3000    -1.9580    -0.6720 C.2   1 <1>   0.7150 
  8 C       -3.8620     1.3400    -0.4080 C.ar  1 <1>   0.1670 
  9 C       -3.5930    -0.9490     0.3210 C.ar  1 <1>  -0.1440 
 10 N       -1.3550    -3.1340     0.2260 N.pl3 1 <1>  -0.8830 
 11 O        1.3520    -3.1720    -0.8270 O.2   1 <1>  -0.5700 
 12 N        2.4960    -1.2660    -0.6230 N.am  1 <1>  -0.6600 
 13 C       -4.3820     0.1760     0.1520 C.ar  1 <1>  -0.1500 
 14 C       -4.7500     2.5540    -0.5830 C.3   1 <1>  -0.0970 
 15 C       -4.1200    -2.2250     0.9710 C.3   1 <1>   0.2630 
 16 C        2.7310    -0.1380     0.3210 C.3   1 <1>   0.1400 
 17 C        3.7200    -1.7900    -1.2900 C.3   1 <1>   0.1400 
 18 O       -5.4150    -2.0430     1.4600 O.3   1 <1>  -0.5600 
 19 C        3.7710    -0.5410     1.3730 C.3   1 <1>  -0.1600 
 20 C        4.7510    -2.2100    -0.2380 C.3   1 <1>  -0.1600 
 21 C       -5.9300    -3.1510     2.1250 C.3   1 <1>   0.0400 
 22 C        5.0640    -1.0630     0.7320 C.3   1 <1>  -0.1600 
 23 H       -2.2070    -3.6080    -0.0810 H     1 <1>   0.4000 
 24 H       -0.5230    -3.7280     0.0640 H     1 <1>   0.4000 
 25 H       -5.4110     0.1620     0.4620 H     1 <1>   0.1500 
 26 H       -4.7870     2.8230    -1.6220 H     1 <1>   0.0800 
 27 H       -4.3420     3.3780    -0.0270 H     1 <1>   0.0800 
 28 H       -5.7480     2.3610    -0.2370 H     1 <1>   0.0800 
 29 H       -3.4820    -2.4990     1.7940 H     1 <1>   0.0800 
 30 H       -4.1450    -3.0200     0.2470 H     1 <1>   0.0800 
 31 H        1.8190     0.1330     0.8240 H     1 <1>   0.0800 
 32 H        3.0790     0.7170    -0.2340 H     1 <1>   0.0800 
 33 H        4.1320    -1.0180    -1.9160 H     1 <1>   0.0800 
 34 H        3.4760    -2.6310    -1.9170 H     1 <1>   0.0800 
 35 H        3.3470    -1.3050     2.0010 H     1 <1>   0.0800 
 36 H        3.9930     0.3080     1.9950 H     1 <1>   0.0800 
 37 H        5.6530    -2.5250    -0.7320 H     1 <1>   0.0800 
 38 H        4.3640    -3.0540     0.3060 H     1 <1>   0.0800 
 39 H       -6.9240    -2.9070     2.4580 H     1 <1>   0.0800 
 40 H       -5.3090    -3.3760     2.9750 H     1 <1>   0.0800 
 41 H       -5.9690    -3.9870     1.4490 H     1 <1>   0.0800 
 42 H        5.7370    -1.4070     1.4980 H     1 <1>   0.0800 
 43 H        5.5470    -0.2630     0.1970 H     1 <1>   0.0800 
@<TRIPOS>BOND
  1   1   2  1   
  2   1   3  1   
  3   2   4  ar  
  4   2   5  ar  
  5   3   6  2   
  6   3   7  1   
  7   4   8  ar  
  8   5   6  1   
  9   5   9  ar  
 10   6  10  1   
 11   7  11  2   
 12   7  12  am  
 13   8  13  ar  
 14   8  14  1   
 15   9  13  ar  
 16   9  15  1   
 17  10  23  1   
 18  10  24  1   
 19  12  16  1   
 20  12  17  1   
 21  13  25  1   
 22  14  26  1   
 23  14  27  1   
 24  14  28  1   
 25  15  18  1   
 26  15  29  1   
 27  15  30  1   
 28  16  19  1   
 29  16  31  1   
 30  16  32  1   
 31  17  20  1   
 32  17  33  1   
 33  17  34  1   
 34  18  21  1   
 35  19  22  1   
 36  19  35  1   
 37  19  36  1   
 38  20  22  1   
 39  20  37  1   
 40  20  38  1   
 41  21  39  1   
 42  21  40  1   
 43  21  41  1   
 44  22  42  1   
 45  22  43  1   
@<TRIPOS>SUBSTRUCTURE
  1 ****   6 GROUP 4 **** **** 0

# MOE 2024.06 (io_trps.svl 2023.06)
