@<TRIPOS>MOLECULE
NONAME
53 55 1 0 0 
SMALL
USER_CHARGES


@<TRIPOS>ATOM
  1 S       -0.1670    -0.3000     1.4640 S.o2  1 <1>   1.4470 
  2 O        0.0650    -1.6330     1.9760 O.2   1 <1>  -0.6500 
  3 O       -0.7630     0.6960     2.3290 O.2   1 <1>  -0.6500 
  4 N        1.3320     0.3230     0.9710 N.am  1 <1>  -0.8490 
  5 C       -1.0990    -0.4180    -0.0900 C.ar  1 <1>  -0.0090 
  6 C        2.3640     0.1030     1.9880 C.3   1 <1>   0.1960 
  7 C        1.2410     1.7360     0.5910 C.3   1 <1>   0.1960 
  8 C       -2.4080     0.0540    -0.1810 C.ar  1 <1>  -0.1500 
  9 C       -0.5240    -0.9940    -1.2220 C.ar  1 <1>  -0.1500 
 10 C        3.7340     0.5360     1.4590 C.3   1 <1>  -0.1600 
 11 C        2.5710     2.2130     0.0030 C.3   1 <1>  -0.1600 
 12 C       -3.1240    -0.0350    -1.3640 C.ar  1 <1>  -0.1500 
 13 C       -1.2230    -1.0920    -2.4140 C.ar  1 <1>  -0.1500 
 14 C        3.7250     2.0020     0.9980 C.3   1 <1>  -0.0190 
 15 C       -2.5150    -0.6080    -2.4620 C.ar  1 <1>   0.1900 
 16 C        5.0720     2.4080     0.4020 C.2   1 <1>   0.5690 
 17 F       -3.1810    -0.6950    -3.5800 F     1 <1>  -0.1900 
 18 O        5.4190     1.9200    -0.6460 O.2   1 <1>  -0.5700 
 19 N        5.8320     3.3050     1.0880 N.am  1 <1>  -0.7300 
 20 C        7.1620     3.8380     0.7120 C.3   1 <1>   0.2200 
 21 C        7.0760     4.5630    -0.6400 C.3   1 <1>  -0.1600 
 22 C        8.2010     2.7100     0.7900 C.3   1 <1>  -0.1600 
 23 C        8.2730     5.4970    -0.8810 C.3   1 <1>  -0.1600 
 24 C        9.6380     3.1330     0.4410 C.3   1 <1>  -0.1600 
 25 C        9.5010     4.8250    -1.5160 C.3   1 <1>  -0.1600 
 26 C        9.8200     3.3930    -1.0610 C.3   1 <1>  -0.1600 
 27 H        2.4110    -0.9440     2.2400 H     1 <1>   0.0800 
 28 H        2.1170     0.6520     2.8830 H     1 <1>   0.0800 
 29 H        0.9870     2.3350     1.4520 H     1 <1>   0.0800 
 30 H        0.4680     1.8660    -0.1480 H     1 <1>   0.0800 
 31 H       -2.8710     0.4980     0.6860 H     1 <1>   0.1500 
 32 H        0.4860    -1.3680    -1.1640 H     1 <1>   0.1500 
 33 H        4.0020    -0.1020     0.6340 H     1 <1>   0.0800 
 34 H        4.4730     0.4010     2.2290 H     1 <1>   0.0800 
 35 H        2.4980     3.2550    -0.2520 H     1 <1>   0.0800 
 36 H        2.7640     1.6660    -0.9040 H     1 <1>   0.0800 
 37 H       -4.1330     0.3300    -1.4360 H     1 <1>   0.1500 
 38 H       -0.7790    -1.5350    -3.2880 H     1 <1>   0.1500 
 39 H        3.5370     2.6200     1.8570 H     1 <1>   0.0800 
 40 H        5.4820     3.6640     1.9750 H     1 <1>   0.3700 
 41 H        7.4260     4.5710     1.4550 H     1 <1>   0.0800 
 42 H        6.1870     5.1680    -0.6350 H     1 <1>   0.0800 
 43 H        6.9870     3.8570    -1.4470 H     1 <1>   0.0800 
 44 H        7.9090     1.9060     0.1370 H     1 <1>   0.0800 
 45 H        8.2010     2.3270     1.7940 H     1 <1>   0.0800 
 46 H        8.5600     5.9600     0.0470 H     1 <1>   0.0800 
 47 H        7.9610     6.2920    -1.5380 H     1 <1>   0.0800 
 48 H       10.2880     2.3190     0.7150 H     1 <1>   0.0800 
 49 H        9.9400     3.9910     1.0170 H     1 <1>   0.0800 
 50 H       10.3570     5.4490    -1.3230 H     1 <1>   0.0800 
 51 H        9.3660     4.8050    -2.5840 H     1 <1>   0.0800 
 52 H        9.2150     2.6980    -1.6200 H     1 <1>   0.0800 
 53 H       10.8440     3.1870    -1.3240 H     1 <1>   0.0800 
@<TRIPOS>BOND
  1   1   2  2   
  2   1   3  2   
  3   1   4  am  
  4   1   5  1   
  5   4   6  1   
  6   4   7  1   
  7   5   8  ar  
  8   5   9  ar  
  9   6  10  1   
 10   6  27  1   
 11   6  28  1   
 12   7  11  1   
 13   7  29  1   
 14   7  30  1   
 15   8  12  ar  
 16   8  31  1   
 17   9  13  ar  
 18   9  32  1   
 19  10  14  1   
 20  10  33  1   
 21  10  34  1   
 22  11  14  1   
 23  11  35  1   
 24  11  36  1   
 25  12  15  ar  
 26  12  37  1   
 27  13  15  ar  
 28  13  38  1   
 29  14  16  1   
 30  14  39  1   
 31  15  17  1   
 32  16  18  2   
 33  16  19  am  
 34  19  20  1   
 35  19  40  1   
 36  20  21  1   
 37  20  22  1   
 38  20  41  1   
 39  21  23  1   
 40  21  42  1   
 41  21  43  1   
 42  22  24  1   
 43  22  44  1   
 44  22  45  1   
 45  23  25  1   
 46  23  46  1   
 47  23  47  1   
 48  24  26  1   
 49  24  48  1   
 50  24  49  1   
 51  25  26  1   
 52  25  50  1   
 53  25  51  1   
 54  26  52  1   
 55  26  53  1   
@<TRIPOS>SUBSTRUCTURE
  1 ****  11 GROUP 4 **** **** 0

# MOE 2024.06 (io_trps.svl 2023.06)
