@<TRIPOS>MOLECULE
NONAME
35 35 1 0 0 
SMALL
USER_CHARGES


@<TRIPOS>ATOM
  1 O        0.3170     0.9410     1.9990 O.2   1 <1>  -0.5700 
  2 C        0.7480     1.4370     0.9870 C.2   1 <1>   0.5690 
  3 N        1.8370     0.9460     0.3520 N.am  1 <1>  -0.7300 
  4 C        0.0570     2.6500     0.3990 C.3   1 <1>  -0.0990 
  5 C        2.6560    -0.1640     0.8410 C.3   1 <1>   0.3640 
  6 C       -0.7790     2.2960    -0.8410 C.3   1 <1>  -0.1600 
  7 C        4.0930     0.0720     0.3860 C.ar  1 <1>  -0.1440 
  8 C        2.0890    -1.4760     0.3040 C.3   1 <1>  -0.2400 
  9 C       -1.4700     3.5330    -1.4220 C.3   1 <1>  -0.2400 
 10 C        4.4360     0.0780    -0.9600 C.ar  1 <1>  -0.1500 
 11 C        5.0840     0.2970     1.3320 C.ar  1 <1>  -0.1500 
 12 C        5.7440     0.3010    -1.3500 C.ar  1 <1>  -0.1500 
 13 C        6.3940     0.5210     0.9450 C.ar  1 <1>  -0.1500 
 14 C        6.7320     0.5240    -0.4050 C.ar  1 <1>   0.0820 
 15 O        7.9880     0.7350    -0.8710 O.3   1 <1>  -0.3620 
 16 C        9.0660     0.9650     0.0070 C.3   1 <1>   0.0400 
 17 H        2.2230     1.4210    -0.4610 H     1 <1>   0.3700 
 18 H        0.8000     3.3830     0.1470 H     1 <1>   0.0800 
 19 H       -0.5820     3.0750     1.1530 H     1 <1>   0.0800 
 20 H        2.6150    -0.1840     1.9180 H     1 <1>   0.0800 
 21 H       -1.5230     1.5660    -0.5690 H     1 <1>   0.0800 
 22 H       -0.1450     1.8560    -1.5930 H     1 <1>   0.0800 
 23 H        2.0360    -1.4670    -0.7680 H     1 <1>   0.0800 
 24 H        1.1040    -1.6330     0.7050 H     1 <1>   0.0800 
 25 H        2.7160    -2.2920     0.6130 H     1 <1>   0.0800 
 26 H       -2.1290     3.9720    -0.6930 H     1 <1>   0.0800 
 27 H       -2.0510     3.2590    -2.2840 H     1 <1>   0.0800 
 28 H       -0.7420     4.2680    -1.7190 H     1 <1>   0.0800 
 29 H        3.6890    -0.0930    -1.7150 H     1 <1>   0.1500 
 30 H        4.8380     0.3010     2.3800 H     1 <1>   0.1500 
 31 H        6.0100     0.3040    -2.3910 H     1 <1>   0.1500 
 32 H        7.1330     0.6900     1.7040 H     1 <1>   0.1500 
 33 H        9.9540     1.1040    -0.5830 H     1 <1>   0.0800 
 34 H        9.1830     0.1090     0.6480 H     1 <1>   0.0800 
 35 H        8.8660     1.8530     0.5800 H     1 <1>   0.0800 
@<TRIPOS>BOND
  1   1   2  2   
  2   2   3  am  
  3   2   4  1   
  4   3   5  1   
  5   3  17  1   
  6   4   6  1   
  7   4  18  1   
  8   4  19  1   
  9   5   7  1   
 10   5   8  1   
 11   5  20  1   
 12   6   9  1   
 13   6  21  1   
 14   6  22  1   
 15   7  10  ar  
 16   7  11  ar  
 17   8  23  1   
 18   8  24  1   
 19   8  25  1   
 20   9  26  1   
 21   9  27  1   
 22   9  28  1   
 23  10  12  ar  
 24  10  29  1   
 25  11  13  ar  
 26  11  30  1   
 27  12  14  ar  
 28  12  31  1   
 29  13  14  ar  
 30  13  32  1   
 31  14  15  1   
 32  15  16  1   
 33  16  33  1   
 34  16  34  1   
 35  16  35  1   
@<TRIPOS>SUBSTRUCTURE
  1 ****   7 GROUP 4 **** **** 0

# MOE 2024.06 (io_trps.svl 2023.06)
