@<TRIPOS>MOLECULE
NONAME
27 27 1 0 0 
SMALL
USER_CHARGES


@<TRIPOS>ATOM
  1 O        2.1470     8.4550    -1.3860 O.3   1 <1>  -0.8500 
  2 C        2.0720     7.3270    -0.8220 C.2   1 <1>  -0.2880 
  3 C        2.8140     7.2510     0.5350 C.3   1 <1>   0.1380 
  4 C        1.3540     6.3750    -1.4750 C.2   1 <1>   0.2290 
  5 C        4.1350     8.0370     0.4370 C.3   1 <1>  -0.2400 
  6 C        1.9450     7.9000     1.6170 C.3   1 <1>  -0.2400 
  7 C        3.1960     5.8230     0.9610 C.3   1 <1>  -0.2400 
  8 N        0.9230     5.1180    -1.0160 N.pl3 1 <1>  -0.3220 
  9 N        1.1650     3.9270    -1.6220 N.2   1 <1>  -0.2600 
 10 C        0.1520     4.9400     0.0440 C.cat 1 <1>   0.6500 
 11 C        0.5460     3.0700    -0.8870 C.2   1 <1>   0.5030 
 12 N       -0.1100     3.6420     0.1710 N.pl3 1 <1>  -0.5110 
 13 N       -0.9130     2.9920     1.2010 N.pl3 1 <1>  -0.4590 
 14 H        1.0100     6.6170    -2.4650 H     1 <1>   0.1500 
 15 H        3.9340     9.0700     0.2160 H     1 <1>   0.0800 
 16 H        4.7310     7.6420    -0.3650 H     1 <1>   0.0800 
 17 H        4.6930     7.9920     1.3530 H     1 <1>   0.0800 
 18 H        2.4610     7.9210     2.5590 H     1 <1>   0.0800 
 19 H        1.0210     7.3720     1.7320 H     1 <1>   0.0800 
 20 H        1.7190     8.9100     1.3230 H     1 <1>   0.0800 
 21 H        3.9090     5.8520     1.7660 H     1 <1>   0.0800 
 22 H        3.6460     5.3070     0.1320 H     1 <1>   0.0800 
 23 H        2.3520     5.2710     1.3120 H     1 <1>   0.0800 
 24 H       -0.1980     5.7320     0.6860 H     1 <1>   0.1500 
 25 H        0.5340     2.0100    -1.0770 H     1 <1>   0.1500 
 26 H       -0.3530     2.3190     1.7480 H     1 <1>   0.3600 
 27 H       -1.7170     2.4880     0.7940 H     1 <1>   0.3600 
@<TRIPOS>BOND
  1   1   2  1   
  2   2   3  1   
  3   2   4  2   
  4   3   5  1   
  5   3   6  1   
  6   3   7  1   
  7   4   8  1   
  8   4  14  1   
  9   5  15  1   
 10   5  16  1   
 11   5  17  1   
 12   6  18  1   
 13   6  19  1   
 14   6  20  1   
 15   7  21  1   
 16   7  22  1   
 17   7  23  1   
 18   8   9  1   
 19   8  10  ar  
 20   9  11  2   
 21  10  12  ar  
 22  10  24  1   
 23  11  12  1   
 24  11  25  1   
 25  12  13  1   
 26  13  26  1   
 27  13  27  1   
@<TRIPOS>SUBSTRUCTURE
  1 ****   8 GROUP 4 **** **** 0

# MOE 2024.06 (io_trps.svl 2023.06)
