@<TRIPOS>MOLECULE
NONAME
45 46 1 0 0 
SMALL
USER_CHARGES


@<TRIPOS>ATOM
  1 O        0.7800    -1.1170    -0.7390 O.3   1 <1>  -0.3630 
  2 C       -0.0400    -2.0560    -0.2610 C.ar  1 <1>   0.0830 
  3 C        1.8330    -0.9680     0.2160 C.3   1 <1>   0.4000 
  4 C        0.4100    -2.5040     0.9450 C.ar  1 <1>   0.0830 
  5 C       -1.1910    -2.5540    -0.8350 C.ar  1 <1>  -0.1500 
  6 O        1.5350    -1.8680     1.2820 O.3   1 <1>  -0.3630 
  7 C       -0.2670    -3.4820     1.6460 C.ar  1 <1>  -0.1500 
  8 C       -1.9010    -3.5300    -0.1420 C.ar  1 <1>  -0.1440 
  9 C       -1.4310    -3.9960     1.0890 C.ar  1 <1>  -0.1500 
 10 C       -3.1890    -4.0780    -0.7200 C.3   1 <1>   0.4870 
 11 N       -4.3270    -3.4300     0.0080 N.4   1 <1>  -0.9590 
 12 C       -5.6110    -4.1930    -0.2020 C.3   1 <1>   0.3430 
 13 C       -4.4110    -1.9770    -0.3780 C.3   1 <1>   0.2630 
 14 C       -6.7880    -3.7270     0.7050 C.3   1 <1>   0.3430 
 15 N       -8.0990    -4.4470     0.4840 N.4   1 <1>  -0.9590 
 16 C       -9.1790    -3.7680     1.2630 C.3   1 <1>   0.3430 
 17 C       -8.0610    -5.9010     0.8320 C.3   1 <1>   0.3430 
 18 C      -10.5330    -4.1040     0.6490 C.3   1 <1>  -0.2400 
 19 C       -7.9160    -6.7120    -0.4490 C.3   1 <1>  -0.2400 
 20 H        1.8470     0.0410     0.5870 H     1 <1>   0.0800 
 21 H        2.7710    -1.2410    -0.2350 H     1 <1>   0.0800 
 22 H       -1.4970    -2.1730    -1.7940 H     1 <1>   0.1500 
 23 H        0.1150    -3.8250     2.5920 H     1 <1>   0.1500 
 24 H       -1.9530    -4.7660     1.6310 H     1 <1>   0.1500 
 25 H       -3.2070    -5.1470    -0.5780 H     1 <1>   0.0800 
 26 H       -3.2410    -3.8700    -1.7770 H     1 <1>   0.0800 
 27 H       -4.0290    -3.4640     0.9970 H     1 <1>   0.4500 
 28 H       -5.4270    -5.2360    -0.0040 H     1 <1>   0.0800 
 29 H       -5.9090    -4.0960    -1.2330 H     1 <1>   0.0800 
 30 H       -4.6300    -1.8750    -1.4290 H     1 <1>   0.0800 
 31 H       -3.4720    -1.4820    -0.1790 H     1 <1>   0.0800 
 32 H       -5.1770    -1.4720     0.1870 H     1 <1>   0.0800 
 33 H       -6.9460    -2.6760     0.5310 H     1 <1>   0.0800 
 34 H       -6.4980    -3.8500     1.7360 H     1 <1>   0.0800 
 35 H       -8.3960    -4.3760    -0.5020 H     1 <1>   0.4500 
 36 H       -9.0450    -2.6980     1.2280 H     1 <1>   0.0800 
 37 H       -9.1520    -4.0770     2.2970 H     1 <1>   0.0800 
 38 H       -8.9800    -6.1910     1.3170 H     1 <1>   0.0800 
 39 H       -7.2500    -6.1130     1.5110 H     1 <1>   0.0800 
 40 H      -10.5830    -3.7850    -0.3770 H     1 <1>   0.0800 
 41 H      -11.3030    -3.5810     1.1900 H     1 <1>   0.0800 
 42 H      -10.7540    -5.1540     0.7120 H     1 <1>   0.0800 
 43 H       -8.7510    -6.5380    -1.1050 H     1 <1>   0.0800 
 44 H       -7.9180    -7.7590    -0.1990 H     1 <1>   0.0800 
 45 H       -6.9990    -6.5020    -0.9650 H     1 <1>   0.0800 
@<TRIPOS>BOND
  1   1   2  1   
  2   1   3  1   
  3   2   4  ar  
  4   2   5  ar  
  5   3   6  1   
  6   3  20  1   
  7   3  21  1   
  8   4   6  1   
  9   4   7  ar  
 10   5   8  ar  
 11   5  22  1   
 12   7   9  ar  
 13   7  23  1   
 14   8   9  ar  
 15   8  10  1   
 16   9  24  1   
 17  10  11  1   
 18  10  25  1   
 19  10  26  1   
 20  11  12  1   
 21  11  13  1   
 22  11  27  1   
 23  12  14  1   
 24  12  28  1   
 25  12  29  1   
 26  13  30  1   
 27  13  31  1   
 28  13  32  1   
 29  14  15  1   
 30  14  33  1   
 31  14  34  1   
 32  15  16  1   
 33  15  17  1   
 34  15  35  1   
 35  16  18  1   
 36  16  36  1   
 37  16  37  1   
 38  17  19  1   
 39  17  38  1   
 40  17  39  1   
 41  18  40  1   
 42  18  41  1   
 43  18  42  1   
 44  19  43  1   
 45  19  44  1   
 46  19  45  1   
@<TRIPOS>SUBSTRUCTURE
  1 ****  11 GROUP 4 **** **** 0

# MOE 2024.06 (io_trps.svl 2023.06)
