@<TRIPOS>MOLECULE
NONAME
54 55 1 0 0 
SMALL
USER_CHARGES


@<TRIPOS>ATOM
  1 S        0.0020     0.4830     0.1390 S.o2  1 <1>   1.3330 
  2 O       -0.4070    -0.0850     1.4040 O.2   1 <1>  -0.6500 
  3 O        0.0280    -0.3510    -1.0430 O.2   1 <1>  -0.6500 
  4 N        1.5510     1.1490     0.3270 N.am  1 <1>  -0.8490 
  5 C       -1.0120     1.9360    -0.1730 C.3   1 <1>  -0.0550 
  6 C        2.2310     1.3480    -0.9570 C.3   1 <1>   0.1960 
  7 C        2.3740     0.3700     1.2580 C.3   1 <1>   0.1960 
  8 C       -2.5060     1.6360    -0.3880 C.3   1 <1>  -0.2400 
  9 C        3.5410     2.1110    -0.7530 C.3   1 <1>  -0.1600 
 10 C        3.7010     1.0860     1.5270 C.3   1 <1>  -0.1600 
 11 C        4.4660     1.3700     0.2250 C.3   1 <1>  -0.0190 
 12 C        5.7520     2.1500     0.4900 C.2   1 <1>   0.5690 
 13 O        5.6900     3.2760     0.9210 O.2   1 <1>  -0.5700 
 14 N        6.9450     1.5550     0.2260 N.am  1 <1>  -0.7300 
 15 C        8.2630     2.1880     0.4710 C.3   1 <1>   0.1400 
 16 C        8.7290     2.9310    -0.7810 C.3   1 <1>  -0.0170 
 17 C       10.0760     3.5880    -0.5280 C.ar  1 <1>  -0.1440 
 18 C       11.2510     2.9810    -0.9420 C.ar  1 <1>  -0.1500 
 19 C       10.1330     4.8040     0.1320 C.ar  1 <1>  -0.1500 
 20 C       12.4850     3.5810    -0.7010 C.ar  1 <1>   0.0820 
 21 C       11.3510     5.4120     0.3790 C.ar  1 <1>  -0.1500 
 22 O       13.6640     3.0160    -1.0950 O.3   1 <1>  -0.3620 
 23 C       12.5350     4.8080    -0.0330 C.ar  1 <1>   0.0820 
 24 C       13.7050     1.8240    -1.8450 C.3   1 <1>   0.0400 
 25 O       13.7590     5.3700     0.1900 O.3   1 <1>  -0.3630 
 26 C       13.8990     6.6020     0.8590 C.3   1 <1>   0.0400 
 27 H       -0.6380     2.4430    -1.0410 H     1 <1>   0.0800 
 28 H       -0.9130     2.6060     0.6590 H     1 <1>   0.0800 
 29 H        1.5970     1.9110    -1.6210 H     1 <1>   0.0800 
 30 H        2.4320     0.3930    -1.4170 H     1 <1>   0.0800 
 31 H        2.5500    -0.6130     0.8540 H     1 <1>   0.0800 
 32 H        1.8560     0.2580     2.1970 H     1 <1>   0.0800 
 33 H       -2.6350     0.9840    -1.2340 H     1 <1>   0.0800 
 34 H       -3.0480     2.5480    -0.5660 H     1 <1>   0.0800 
 35 H       -2.9140     1.1540     0.4830 H     1 <1>   0.0800 
 36 H        3.3160     3.0930    -0.3730 H     1 <1>   0.0800 
 37 H        4.0360     2.2320    -1.7000 H     1 <1>   0.0800 
 38 H        4.3050     0.4820     2.1810 H     1 <1>   0.0800 
 39 H        3.4950     2.0120     2.0370 H     1 <1>   0.0800 
 40 H        4.7300     0.4260    -0.2180 H     1 <1>   0.0800 
 41 H        6.9700     0.6090    -0.1560 H     1 <1>   0.3700 
 42 H        8.9820     1.4350     0.7440 H     1 <1>   0.0800 
 43 H        8.1810     2.8850     1.2890 H     1 <1>   0.0800 
 44 H        8.0080     3.6880    -1.0350 H     1 <1>   0.0800 
 45 H        8.8050     2.2450    -1.6050 H     1 <1>   0.0800 
 46 H       11.1910     2.0390    -1.4500 H     1 <1>   0.1500 
 47 H        9.2250     5.2830     0.4580 H     1 <1>   0.1500 
 48 H       11.3520     6.3530     0.8930 H     1 <1>   0.1500 
 49 H       14.7350     1.6050    -2.0610 H     1 <1>   0.0800 
 50 H       13.1620     1.9700    -2.7610 H     1 <1>   0.0800 
 51 H       13.2770     1.0300    -1.2600 H     1 <1>   0.0800 
 52 H       14.9480     6.8330     0.9130 H     1 <1>   0.0800 
 53 H       13.4940     6.5080     1.8510 H     1 <1>   0.0800 
 54 H       13.3850     7.3620     0.2990 H     1 <1>   0.0800 
@<TRIPOS>BOND
  1   1   2  2   
  2   1   3  2   
  3   1   4  am  
  4   1   5  1   
  5   4   6  1   
  6   4   7  1   
  7   5   8  1   
  8   5  27  1   
  9   5  28  1   
 10   6   9  1   
 11   6  29  1   
 12   6  30  1   
 13   7  10  1   
 14   7  31  1   
 15   7  32  1   
 16   8  33  1   
 17   8  34  1   
 18   8  35  1   
 19   9  11  1   
 20   9  36  1   
 21   9  37  1   
 22  10  11  1   
 23  10  38  1   
 24  10  39  1   
 25  11  12  1   
 26  11  40  1   
 27  12  13  2   
 28  12  14  am  
 29  14  15  1   
 30  14  41  1   
 31  15  16  1   
 32  15  42  1   
 33  15  43  1   
 34  16  17  1   
 35  16  44  1   
 36  16  45  1   
 37  17  18  ar  
 38  17  19  ar  
 39  18  20  ar  
 40  18  46  1   
 41  19  21  ar  
 42  19  47  1   
 43  20  22  1   
 44  20  23  ar  
 45  21  23  ar  
 46  21  48  1   
 47  22  24  1   
 48  23  25  1   
 49  24  49  1   
 50  24  50  1   
 51  24  51  1   
 52  25  26  1   
 53  26  52  1   
 54  26  53  1   
 55  26  54  1   
@<TRIPOS>SUBSTRUCTURE
  1 ****  14 GROUP 4 **** **** 0

# MOE 2024.06 (io_trps.svl 2023.06)
