@<TRIPOS>MOLECULE
NONAME
40 41 1 0 0 
SMALL
USER_CHARGES


@<TRIPOS>ATOM
  1 S        0.1740    -0.0600     0.1580 S.o2  1 <1>   1.3330 
  2 O        0.2000    -0.4110     1.5590 O.2   1 <1>  -0.6500 
  3 O       -0.9300     0.7050    -0.3730 O.2   1 <1>  -0.6500 
  4 N        1.6100     0.7670    -0.1970 N.am  1 <1>  -0.8490 
  5 C        0.3150    -1.5410    -0.8200 C.3   1 <1>  -0.1350 
  6 C        2.7670     0.2190     0.5330 C.3   1 <1>   0.1960 
  7 C        1.4690     2.2020     0.0740 C.3   1 <1>   0.1960 
  8 C        4.0690     0.8820     0.0570 C.3   1 <1>  -0.0190 
  9 C        2.7200     2.9610    -0.3850 C.3   1 <1>  -0.1600 
 10 C        5.2800     0.2840     0.7600 C.2   1 <1>   0.5690 
 11 C        3.9940     2.4050     0.2650 C.3   1 <1>  -0.1600 
 12 O        5.1450    -0.3300     1.7910 O.2   1 <1>  -0.5700 
 13 N        6.5010     0.4600     0.2020 N.am  1 <1>  -0.7300 
 14 C        7.7650     0.0120     0.8060 C.3   1 <1>   0.2840 
 15 C        8.8790     0.8690     0.2360 C.ar  1 <1>  -0.1440 
 16 C        9.1860     2.0900     0.8180 C.ar  1 <1>  -0.1500 
 17 C        9.5940     0.4450    -0.8740 C.ar  1 <1>  -0.1500 
 18 C       10.1980     2.8770     0.2970 C.ar  1 <1>  -0.1500 
 19 C       10.6060     1.2320    -1.3960 C.ar  1 <1>  -0.1500 
 20 C       10.9080     2.4480    -0.8110 C.ar  1 <1>  -0.1500 
 21 H       -0.5710    -2.1340    -0.7100 H     1 <1>   0.0800 
 22 H        1.1580    -2.1220    -0.5060 H     1 <1>   0.0800 
 23 H        0.4320    -1.2860    -1.8550 H     1 <1>   0.0800 
 24 H        2.8370    -0.8420     0.3670 H     1 <1>   0.0800 
 25 H        2.6430     0.3780     1.5930 H     1 <1>   0.0800 
 26 H        1.3030     2.3600     1.1280 H     1 <1>   0.0800 
 27 H        0.6190     2.5950    -0.4590 H     1 <1>   0.0800 
 28 H        4.1710     0.6750    -0.9920 H     1 <1>   0.0800 
 29 H        2.6130     4.0020    -0.1380 H     1 <1>   0.0800 
 30 H        2.7920     2.8850    -1.4560 H     1 <1>   0.0800 
 31 H        4.8600     2.8840    -0.1600 H     1 <1>   0.0800 
 32 H        3.9790     2.6190     1.3210 H     1 <1>   0.0800 
 33 H        6.6220     1.0230    -0.6420 H     1 <1>   0.3700 
 34 H        7.9270    -1.0260     0.5710 H     1 <1>   0.0800 
 35 H        7.7180     0.1160     1.8770 H     1 <1>   0.0800 
 36 H        8.6370     2.4310     1.6780 H     1 <1>   0.1500 
 37 H        9.3660    -0.5000    -1.3380 H     1 <1>   0.1500 
 38 H       10.4340     3.8230     0.7530 H     1 <1>   0.1500 
 39 H       11.1590     0.8980    -2.2570 H     1 <1>   0.1500 
 40 H       11.6960     3.0600    -1.2160 H     1 <1>   0.1500 
@<TRIPOS>BOND
  1   1   2  2   
  2   1   3  2   
  3   1   4  am  
  4   1   5  1   
  5   4   6  1   
  6   4   7  1   
  7   5  21  1   
  8   5  22  1   
  9   5  23  1   
 10   6   8  1   
 11   6  24  1   
 12   6  25  1   
 13   7   9  1   
 14   7  26  1   
 15   7  27  1   
 16   8  10  1   
 17   8  11  1   
 18   8  28  1   
 19   9  11  1   
 20   9  29  1   
 21   9  30  1   
 22  10  12  2   
 23  10  13  am  
 24  11  31  1   
 25  11  32  1   
 26  13  14  1   
 27  13  33  1   
 28  14  15  1   
 29  14  34  1   
 30  14  35  1   
 31  15  16  ar  
 32  15  17  ar  
 33  16  18  ar  
 34  16  36  1   
 35  17  19  ar  
 36  17  37  1   
 37  18  20  ar  
 38  18  38  1   
 39  19  20  ar  
 40  19  39  1   
 41  20  40  1   
@<TRIPOS>SUBSTRUCTURE
  1 ****  10 GROUP 4 **** **** 0

# MOE 2024.06 (io_trps.svl 2023.06)
