@<TRIPOS>MOLECULE
NONAME
38 40 1 0 0 
SMALL
USER_CHARGES


@<TRIPOS>ATOM
  1 O       -0.3380     0.1960    -0.6930 O.2   1 <1>  -0.5700 
  2 C       -1.3470     0.8780    -0.5410 C.2   1 <1>   0.7670 
  3 N       -2.5160     0.2110    -0.3710 N.2   1 <1>  -0.6610 
  4 C       -1.2760     2.2990    -0.5430 C.2   1 <1>   0.0790 
  5 C       -3.5890     0.9130    -0.2010 C.2   1 <1>   0.5500 
  6 C       -0.0040     2.9110    -0.7320 C.1   1 <1>   0.4920 
  7 C       -2.4290     3.0080    -0.3700 C.2   1 <1>   0.0720 
  8 N       -3.5710     2.2680    -0.2010 N.pl3 1 <1>  -0.5500 
  9 N       -4.7880     0.3010    -0.0170 N.pl3 1 <1>  -0.7880 
 10 N        0.9900     3.4560    -0.8610 N.1   1 <1>  -0.5570 
 11 C       -2.5570     4.4440    -0.3530 C.ar  1 <1>   0.0280 
 12 C       -6.0660     0.9390     0.3750 C.3   1 <1>   0.2090 
 13 C       -4.9270    -1.1740    -0.0600 C.3   1 <1>   0.2090 
 14 C       -3.3830     5.0930    -1.2690 C.ar  1 <1>  -0.1500 
 15 C       -1.8750     5.2290     0.5760 C.ar  1 <1>  -0.1500 
 16 C       -6.9550    -0.2140     0.8270 C.3   1 <1>  -0.1600 
 17 C       -6.4230    -1.4310     0.0750 C.3   1 <1>  -0.1600 
 18 C       -3.5230     6.4670    -1.2570 C.ar  1 <1>  -0.1500 
 19 C       -2.0090     6.6050     0.5920 C.ar  1 <1>  -0.1500 
 20 C       -2.8390     7.2360    -0.3290 C.ar  1 <1>   0.0830 
 21 O       -3.0280     8.5740    -0.3830 O.3   1 <1>  -0.3630 
 22 C       -2.3430     9.4580     0.4760 C.3   1 <1>   0.0400 
 23 H       -4.4660     2.7310    -0.0650 H     1 <1>   0.4000 
 24 H       -6.4960     1.4240    -0.4850 H     1 <1>   0.0800 
 25 H       -5.9210     1.6500     1.1700 H     1 <1>   0.0800 
 26 H       -4.3910    -1.6030     0.7700 H     1 <1>   0.0800 
 27 H       -4.5360    -1.5710    -0.9830 H     1 <1>   0.0800 
 28 H       -3.9160     4.5150    -2.0040 H     1 <1>   0.1500 
 29 H       -1.2300     4.7570     1.2980 H     1 <1>   0.1500 
 30 H       -7.9930    -0.0260     0.6210 H     1 <1>   0.0800 
 31 H       -6.8270    -0.3570     1.8860 H     1 <1>   0.0800 
 32 H       -6.6240    -2.3540     0.5880 H     1 <1>   0.0800 
 33 H       -6.8580    -1.4740    -0.9090 H     1 <1>   0.0800 
 34 H       -4.1610     6.9600    -1.9690 H     1 <1>   0.1500 
 35 H       -1.4620     7.1700     1.3230 H     1 <1>   0.1500 
 36 H       -2.6410    10.4610     0.2300 H     1 <1>   0.0800 
 37 H       -1.2840     9.3440     0.3240 H     1 <1>   0.0800 
 38 H       -2.6130     9.2370     1.4940 H     1 <1>   0.0800 
@<TRIPOS>BOND
  1   1   2  2   
  2   2   3  1   
  3   2   4  1   
  4   3   5  2   
  5   4   6  1   
  6   4   7  2   
  7   5   8  1   
  8   5   9  1   
  9   6  10  3   
 10   7   8  1   
 11   7  11  1   
 12   8  23  1   
 13   9  12  1   
 14   9  13  1   
 15  11  14  ar  
 16  11  15  ar  
 17  12  16  1   
 18  12  24  1   
 19  12  25  1   
 20  13  17  1   
 21  13  26  1   
 22  13  27  1   
 23  14  18  ar  
 24  14  28  1   
 25  15  19  ar  
 26  15  29  1   
 27  16  17  1   
 28  16  30  1   
 29  16  31  1   
 30  17  32  1   
 31  17  33  1   
 32  18  20  ar  
 33  18  34  1   
 34  19  20  ar  
 35  19  35  1   
 36  20  21  1   
 37  21  22  1   
 38  22  36  1   
 39  22  37  1   
 40  22  38  1   
@<TRIPOS>SUBSTRUCTURE
  1 ****   7 GROUP 4 **** **** 0

# MOE 2024.06 (io_trps.svl 2023.06)
