@<TRIPOS>MOLECULE
NONAME
33 34 1 0 0 
SMALL
USER_CHARGES


@<TRIPOS>ATOM
  1 BR       2.7230    -0.3600     2.6750 Br    1 <1>  -0.1110 
  2 C        2.6850     1.1420     1.4670 C.ar  1 <1>   0.1110 
  3 C        2.8590     0.9640     0.0970 C.ar  1 <1>  -0.0090 
  4 C        2.4770     2.3820     2.0500 C.ar  1 <1>  -0.1500 
  5 S        3.1390    -0.6610    -0.6480 S.o2  1 <1>   1.4470 
  6 C        2.8150     2.1100    -0.6920 C.ar  1 <1>  -0.1500 
  7 C        2.4390     3.5050     1.2440 C.ar  1 <1>  -0.1500 
  8 O        3.4200    -0.4940    -2.0580 O.2   1 <1>  -0.6500 
  9 O        2.0750    -1.5590    -0.2590 O.2   1 <1>  -0.6500 
 10 N        4.5820    -1.1890     0.0700 N.am  1 <1>  -0.8490 
 11 C        2.6090     3.3530    -0.1200 C.ar  1 <1>   0.1770 
 12 C        5.7630    -0.5250    -0.4900 C.3   1 <1>   0.1960 
 13 C        4.7160    -2.6470     0.0170 C.3   1 <1>   0.1960 
 14 CL       2.5640     4.7630    -1.1440 Cl    1 <1>  -0.1770 
 15 C        7.0090    -0.8960     0.3190 C.3   1 <1>  -0.1600 
 16 C        5.9350    -3.0970     0.8280 C.3   1 <1>  -0.1600 
 17 C        7.2200    -2.4150     0.3420 C.3   1 <1>  -0.0800 
 18 C        8.4080    -2.7890     1.2340 C.3   1 <1>  -0.2400 
 19 H        2.3480     2.4620     3.1160 H     1 <1>   0.1500 
 20 H        2.9390     2.0410    -1.7590 H     1 <1>   0.1500 
 21 H        2.2800     4.4840     1.6610 H     1 <1>   0.1500 
 22 H        5.6310     0.5430    -0.4580 H     1 <1>   0.0800 
 23 H        5.8970    -0.8170    -1.5200 H     1 <1>   0.0800 
 24 H        4.8080    -2.9690    -1.0080 H     1 <1>   0.0800 
 25 H        3.8380    -3.1100     0.4380 H     1 <1>   0.0800 
 26 H        6.8930    -0.5230     1.3210 H     1 <1>   0.0800 
 27 H        7.8680    -0.4160    -0.1160 H     1 <1>   0.0800 
 28 H        6.0360    -4.1650     0.7470 H     1 <1>   0.0800 
 29 H        5.7600    -2.8610     1.8630 H     1 <1>   0.0800 
 30 H        7.4270    -2.7490    -0.6620 H     1 <1>   0.0800 
 31 H        8.2370    -2.4700     2.2480 H     1 <1>   0.0800 
 32 H        9.3070    -2.3200     0.8750 H     1 <1>   0.0800 
 33 H        8.5570    -3.8540     1.2300 H     1 <1>   0.0800 
@<TRIPOS>BOND
  1   1   2  1   
  2   2   3  ar  
  3   2   4  ar  
  4   3   5  1   
  5   3   6  ar  
  6   4   7  ar  
  7   4  19  1   
  8   5   8  2   
  9   5   9  2   
 10   5  10  am  
 11   6  11  ar  
 12   6  20  1   
 13   7  11  ar  
 14   7  21  1   
 15  10  12  1   
 16  10  13  1   
 17  11  14  1   
 18  12  15  1   
 19  12  22  1   
 20  12  23  1   
 21  13  16  1   
 22  13  24  1   
 23  13  25  1   
 24  15  17  1   
 25  15  26  1   
 26  15  27  1   
 27  16  17  1   
 28  16  28  1   
 29  16  29  1   
 30  17  18  1   
 31  17  30  1   
 32  18  31  1   
 33  18  32  1   
 34  18  33  1   
@<TRIPOS>SUBSTRUCTURE
  1 ****  10 GROUP 4 **** **** 0

# MOE 2024.06 (io_trps.svl 2023.06)
