@<TRIPOS>MOLECULE
NONAME
33 33 1 0 0 
SMALL
USER_CHARGES


@<TRIPOS>ATOM
  1 CL      -0.1260     0.0390    -0.3420 Cl    1 <1>  -0.1770 
  2 C        1.3300     0.9900    -0.2160 C.ar  1 <1>   0.1770 
  3 C        1.3270     2.2540     0.3580 C.ar  1 <1>  -0.0090 
  4 C        2.4870     0.4290    -0.7200 C.ar  1 <1>  -0.1500 
  5 S       -0.1900     2.9900     1.0140 S.o2  1 <1>   1.4470 
  6 C        2.5360     2.9400     0.4010 C.ar  1 <1>  -0.1500 
  7 C        3.6690     1.1380    -0.6590 C.ar  1 <1>   0.1770 
  8 O       -0.8290     2.0560     1.9130 O.2   1 <1>  -0.6500 
  9 O        0.0950     4.3240     1.4950 O.2   1 <1>  -0.6500 
 10 N       -1.1690     3.1700    -0.3640 N.am  1 <1>  -0.8490 
 11 C        3.7320     2.4140    -0.0960 C.ar  1 <1>   0.0860 
 12 CL       5.0820     0.3640    -1.3360 Cl    1 <1>  -0.1770 
 13 C       -2.5960     3.1900    -0.0340 C.3   1 <1>   0.1160 
 14 C       -0.8180     4.3360    -1.1810 C.3   1 <1>   0.1160 
 15 C        4.9440     3.2050    -0.0160 C.2   1 <1>   0.5440 
 16 O        4.8870     4.4040    -0.2040 O.2   1 <1>  -0.5700 
 17 N        6.1490     2.6470     0.3050 N.am  1 <1>  -0.7300 
 18 C        7.4360     3.3640     0.3810 C.3   1 <1>   0.1400 
 19 C        8.4580     2.6070    -0.4560 C.3   1 <1>  -0.2400 
 20 H        2.4620    -0.5520    -1.1610 H     1 <1>   0.1500 
 21 H        2.5600     3.9280     0.8370 H     1 <1>   0.1500 
 22 H       -2.8730     2.2700     0.4550 H     1 <1>   0.0800 
 23 H       -3.1850     3.2820    -0.9310 H     1 <1>   0.0800 
 24 H       -2.8180     4.0140     0.6240 H     1 <1>   0.0800 
 25 H        0.2240     4.3020    -1.4500 H     1 <1>   0.0800 
 26 H       -1.0050     5.2490    -0.6380 H     1 <1>   0.0800 
 27 H       -1.4020     4.3420    -2.0860 H     1 <1>   0.0800 
 28 H        6.2210     1.6300     0.3780 H     1 <1>   0.3700 
 29 H        7.7570     3.4140     1.4080 H     1 <1>   0.0800 
 30 H        7.3270     4.3700     0.0090 H     1 <1>   0.0800 
 31 H        8.5990     1.6110    -0.0750 H     1 <1>   0.0800 
 32 H        9.4020     3.1210    -0.4230 H     1 <1>   0.0800 
 33 H        8.1350     2.5590    -1.4810 H     1 <1>   0.0800 
@<TRIPOS>BOND
  1   1   2  1   
  2   2   3  ar  
  3   2   4  ar  
  4   3   5  1   
  5   3   6  ar  
  6   4   7  ar  
  7   4  20  1   
  8   5   8  2   
  9   5   9  2   
 10   5  10  am  
 11   6  11  ar  
 12   6  21  1   
 13   7  11  ar  
 14   7  12  1   
 15  10  13  1   
 16  10  14  1   
 17  11  15  1   
 18  13  22  1   
 19  13  23  1   
 20  13  24  1   
 21  14  25  1   
 22  14  26  1   
 23  14  27  1   
 24  15  16  2   
 25  15  17  am  
 26  17  18  1   
 27  17  28  1   
 28  18  19  1   
 29  18  29  1   
 30  18  30  1   
 31  19  31  1   
 32  19  32  1   
 33  19  33  1   
@<TRIPOS>SUBSTRUCTURE
  1 ****   6 GROUP 4 **** **** 0

# MOE 2024.06 (io_trps.svl 2023.06)
