@<TRIPOS>MOLECULE
NONAME
39 41 1 0 0 
SMALL
USER_CHARGES


@<TRIPOS>ATOM
  1 O        1.8940    -2.8230     2.8550 O.2   1 <1>  -0.5700 
  2 C        1.5120    -2.9630     1.7230 C.2   1 <1>   0.6590 
  3 O        2.3440    -2.8220     0.6930 O.3   1 <1>  -0.4300 
  4 C        0.0630    -3.2730     1.3870 C.3   1 <1>   0.1810 
  5 C        3.6730    -2.3840     0.8580 C.3   1 <1>   0.2000 
  6 O       -0.4090    -2.3730     0.3950 O.3   1 <1>  -0.3630 
  7 C        3.6430    -0.8140     1.1230 C.3   1 <1>  -0.0800 
  8 C        4.4360    -2.7230    -0.4900 C.3   1 <1>   0.3430 
  9 C       -1.6710    -2.4660    -0.0920 C.ar  1 <1>   0.0820 
 10 C        2.9160    -0.1700    -0.1430 C.3   1 <1>  -0.1600 
 11 C        5.1500    -0.3290     0.9920 C.3   1 <1>  -0.1600 
 12 N        4.7350    -1.3970    -1.1080 N.4   1 <1>  -0.9590 
 13 C       -2.0330    -1.5460    -1.0630 C.ar  1 <1>  -0.1500 
 14 C       -2.5960    -3.4200     0.3270 C.ar  1 <1>  -0.1500 
 15 C        3.5510    -0.6150    -1.5270 C.3   1 <1>   0.3430 
 16 C        5.8020    -0.6490    -0.4140 C.3   1 <1>   0.3430 
 17 C       -3.3000    -1.5730    -1.6180 C.ar  1 <1>  -0.1500 
 18 C       -3.8630    -3.4450    -0.2290 C.ar  1 <1>  -0.1500 
 19 C       -4.2150    -2.5240    -1.2010 C.ar  1 <1>  -0.1500 
 20 H       -0.5460    -3.1620     2.2660 H     1 <1>   0.0800 
 21 H       -0.0130    -4.2740     1.0030 H     1 <1>   0.0800 
 22 H        4.1100    -2.9260     1.6810 H     1 <1>   0.0800 
 23 H        3.1970    -0.5470     2.0690 H     1 <1>   0.0800 
 24 H        3.8170    -3.3230    -1.1390 H     1 <1>   0.0800 
 25 H        5.3540    -3.2480    -0.2840 H     1 <1>   0.0800 
 26 H        2.9560     0.9040    -0.0730 H     1 <1>   0.0800 
 27 H        1.8690    -0.4260    -0.1440 H     1 <1>   0.0800 
 28 H        5.7460    -0.7860     1.7650 H     1 <1>   0.0800 
 29 H        5.2040     0.7340     1.1620 H     1 <1>   0.0800 
 30 H        4.3190    -1.1360    -0.2970 H     1 <1>   0.4500 
 31 H       -1.3220    -0.8080    -1.3840 H     1 <1>   0.1500 
 32 H       -2.3580    -4.1470     1.0790 H     1 <1>   0.1500 
 33 H        3.8390     0.2370    -2.1230 H     1 <1>   0.0800 
 34 H        2.8670    -1.2340    -2.0870 H     1 <1>   0.0800 
 35 H        6.6920    -1.2520    -0.3120 H     1 <1>   0.0800 
 36 H        6.0410     0.2560    -0.9510 H     1 <1>   0.0800 
 37 H       -3.5750    -0.8560    -2.3720 H     1 <1>   0.1500 
 38 H       -4.5790    -4.1810     0.0930 H     1 <1>   0.1500 
 39 H       -5.2020    -2.5460    -1.6320 H     1 <1>   0.1500 
@<TRIPOS>BOND
  1   1   2  2   
  2   2   3  1   
  3   2   4  1   
  4   3   5  1   
  5   4   6  1   
  6   4  20  1   
  7   4  21  1   
  8   5   7  1   
  9   5   8  1   
 10   5  22  1   
 11   6   9  1   
 12   7  10  1   
 13   7  11  1   
 14   7  23  1   
 15   8  12  1   
 16   8  24  1   
 17   8  25  1   
 18   9  13  ar  
 19   9  14  ar  
 20  10  15  1   
 21  10  26  1   
 22  10  27  1   
 23  11  16  1   
 24  11  28  1   
 25  11  29  1   
 26  12  15  1   
 27  12  16  1   
 28  12  30  1   
 29  13  17  ar  
 30  13  31  1   
 31  14  18  ar  
 32  14  32  1   
 33  15  33  1   
 34  15  34  1   
 35  16  35  1   
 36  16  36  1   
 37  17  19  ar  
 38  17  37  1   
 39  18  19  ar  
 40  18  38  1   
 41  19  39  1   
@<TRIPOS>SUBSTRUCTURE
  1 ****   3 GROUP 4 **** **** 0

# MOE 2024.06 (io_trps.svl 2023.06)
