@<TRIPOS>MOLECULE
NONAME
62 65 1 0 0 
SMALL
USER_CHARGES


@<TRIPOS>ATOM
  1 O       -5.6200    10.7690    -1.6730 O.2   1 <1>  -0.5700 
  2 C       -6.1380    10.1270    -0.7900 C.2   1 <1>   0.5690 
  3 N       -5.9300    10.3740     0.5330 N.am  1 <1>  -0.7300 
  4 C       -7.0670     8.9890    -1.1920 C.3   1 <1>   0.1810 
  5 C       -5.0980    11.3930     1.1750 C.3   1 <1>   0.3000 
  6 O       -7.6320     8.3420    -0.0550 O.3   1 <1>  -0.3620 
  7 C       -3.6370    11.1910     0.7740 C.3   1 <1>  -0.2400 
  8 C       -5.5970    12.7850     0.7850 C.3   1 <1>  -0.2400 
  9 C       -5.2500    11.1960     2.6820 C.3   1 <1>  -0.2400 
 10 C       -8.4890     7.3020    -0.1880 C.ar  1 <1>   0.0820 
 11 C       -8.9530     6.7260     0.9830 C.ar  1 <1>  -0.1500 
 12 C       -8.9140     6.7970    -1.4130 C.ar  1 <1>  -0.1500 
 13 C       -9.8340     5.6620     0.9420 C.ar  1 <1>  -0.1500 
 14 C       -9.7980     5.7320    -1.4550 C.ar  1 <1>  -0.1500 
 15 C      -10.2660     5.1620    -0.2790 C.ar  1 <1>  -0.1430 
 16 C      -11.2480     4.0160    -0.3240 C.3   1 <1>   0.4860 
 17 N      -12.5900     4.6220    -0.2430 N.4   1 <1>  -0.9060 
 18 C      -13.7190     3.6670    -0.2870 C.3   1 <1>   0.4230 
 19 C      -15.0420     4.4560    -0.4040 C.3   1 <1>  -0.0800 
 20 C      -13.7580     2.7860     0.9850 C.3   1 <1>  -0.0800 
 21 C      -16.2020     3.4470    -0.5370 C.3   1 <1>  -0.1600 
 22 C      -15.2860     5.3190     0.8570 C.3   1 <1>  -0.1600 
 23 C      -14.9220     1.7830     0.8480 C.3   1 <1>  -0.1600 
 24 C      -13.9990     3.6490     2.2470 C.3   1 <1>  -0.1600 
 25 C      -16.2570     2.5390     0.7050 C.3   1 <1>  -0.0800 
 26 C      -15.3250     4.4220     2.1090 C.3   1 <1>  -0.0800 
 27 C      -16.4760     3.4100     1.9560 C.3   1 <1>  -0.1600 
 28 H       -6.4230     9.7680     1.1900 H     1 <1>   0.3700 
 29 H       -6.5090     8.2630    -1.7540 H     1 <1>   0.0800 
 30 H       -7.8650     9.3860    -1.7910 H     1 <1>   0.0800 
 31 H       -3.5080    11.3550    -0.2810 H     1 <1>   0.0800 
 32 H       -3.3150    10.1950     1.0150 H     1 <1>   0.0800 
 33 H       -3.0090    11.8900     1.2960 H     1 <1>   0.0800 
 34 H       -6.6360    12.8950     1.0330 H     1 <1>   0.0800 
 35 H       -5.4700    12.9500    -0.2700 H     1 <1>   0.0800 
 36 H       -5.0370    13.5390     1.3070 H     1 <1>   0.0800 
 37 H       -6.2760    11.3230     2.9780 H     1 <1>   0.0800 
 38 H       -4.6570    11.9200     3.2100 H     1 <1>   0.0800 
 39 H       -4.9160    10.2150     2.9700 H     1 <1>   0.0800 
 40 H       -8.6150     7.1180     1.9260 H     1 <1>   0.1500 
 41 H       -8.5690     7.2170    -2.3400 H     1 <1>   0.1500 
 42 H      -10.1700     5.2340     1.8720 H     1 <1>   0.1500 
 43 H      -10.1080     5.3570    -2.4160 H     1 <1>   0.1500 
 44 H      -11.0770     3.3530     0.5080 H     1 <1>   0.0800 
 45 H      -11.1340     3.4650    -1.2430 H     1 <1>   0.0800 
 46 H      -12.6800     5.3090    -0.9970 H     1 <1>   0.4500 
 47 H      -12.6580     5.1540     0.6300 H     1 <1>   0.4500 
 48 H      -13.6200     3.0320    -1.1530 H     1 <1>   0.0800 
 49 H      -15.0270     5.0770    -1.2820 H     1 <1>   0.0800 
 50 H      -12.8470     2.2250     1.0890 H     1 <1>   0.0800 
 51 H      -16.0760     2.8470    -1.4220 H     1 <1>   0.0800 
 52 H      -17.1360     3.9740    -0.6390 H     1 <1>   0.0800 
 53 H      -16.2270     5.8360     0.7620 H     1 <1>   0.0800 
 54 H      -14.5280     6.0740     0.9680 H     1 <1>   0.0800 
 55 H      -14.9620     1.1460     1.7150 H     1 <1>   0.0800 
 56 H      -14.7710     1.1490    -0.0090 H     1 <1>   0.0800 
 57 H      -13.1880     4.3350     2.4130 H     1 <1>   0.0800 
 58 H      -14.0500     3.0110     3.1140 H     1 <1>   0.0800 
 59 H      -17.0680     1.8350     0.6090 H     1 <1>   0.0800 
 60 H      -15.4930     5.0240     2.9870 H     1 <1>   0.0800 
 61 H      -16.5320     2.7840     2.8310 H     1 <1>   0.0800 
 62 H      -17.4150     3.9320     1.8770 H     1 <1>   0.0800 
@<TRIPOS>BOND
  1   1   2  2   
  2   2   3  am  
  3   2   4  1   
  4   3   5  1   
  5   3  28  1   
  6   4   6  1   
  7   4  29  1   
  8   4  30  1   
  9   5   7  1   
 10   5   8  1   
 11   5   9  1   
 12   6  10  1   
 13   7  31  1   
 14   7  32  1   
 15   7  33  1   
 16   8  34  1   
 17   8  35  1   
 18   8  36  1   
 19   9  37  1   
 20   9  38  1   
 21   9  39  1   
 22  10  11  ar  
 23  10  12  ar  
 24  11  13  ar  
 25  11  40  1   
 26  12  14  ar  
 27  12  41  1   
 28  13  15  ar  
 29  13  42  1   
 30  14  15  ar  
 31  14  43  1   
 32  15  16  1   
 33  16  17  1   
 34  16  44  1   
 35  16  45  1   
 36  17  18  1   
 37  17  46  1   
 38  17  47  1   
 39  18  19  1   
 40  18  20  1   
 41  18  48  1   
 42  19  21  1   
 43  19  22  1   
 44  19  49  1   
 45  20  23  1   
 46  20  24  1   
 47  20  50  1   
 48  21  25  1   
 49  21  51  1   
 50  21  52  1   
 51  22  26  1   
 52  22  53  1   
 53  22  54  1   
 54  23  25  1   
 55  23  55  1   
 56  23  56  1   
 57  24  26  1   
 58  24  57  1   
 59  24  58  1   
 60  25  27  1   
 61  25  59  1   
 62  26  27  1   
 63  26  60  1   
 64  27  61  1   
 65  27  62  1   
@<TRIPOS>SUBSTRUCTURE
  1 ****  13 GROUP 4 **** **** 0

# MOE 2024.06 (io_trps.svl 2023.06)
