@<TRIPOS>MOLECULE
NONAME
48 49 1 0 0 
SMALL
USER_CHARGES


@<TRIPOS>ATOM
  1 O        1.9930     9.4550    -0.3240 O.3   1 <1>  -0.3630 
  2 C        3.2340     8.9070    -0.2900 C.ar  1 <1>   0.0830 
  3 C        0.8460     8.6670    -0.1230 C.3   1 <1>   0.1200 
  4 C        3.4780     7.5570    -0.0570 C.ar  1 <1>  -0.1500 
  5 C        4.3010     9.7650    -0.5050 C.ar  1 <1>  -0.1500 
  6 C       -0.3700     9.5890    -0.2290 C.3   1 <1>  -0.1600 
  7 C        4.7750     7.0730    -0.0380 C.ar  1 <1>   0.0830 
  8 C        5.5990     9.2870    -0.4870 C.ar  1 <1>  -0.1500 
  9 C       -1.6860     8.8240    -0.0300 C.3   1 <1>  -0.1600 
 10 O        4.9220     5.7450     0.1970 O.3   1 <1>  -0.3630 
 11 C        5.8410     7.9440    -0.2550 C.ar  1 <1>  -0.1500 
 12 C       -2.8780     9.7780    -0.1380 C.3   1 <1>   0.3430 
 13 C        6.1960     5.1450     0.2380 C.3   1 <1>   0.1200 
 14 N       -4.1520     9.0670     0.1560 N.4   1 <1>  -0.9590 
 15 C        6.0080     3.6580     0.5200 C.3   1 <1>  -0.2400 
 16 C       -4.5450     8.1260    -0.9380 C.3   1 <1>   0.3430 
 17 C       -5.2400    10.0490     0.4390 C.3   1 <1>   0.3430 
 18 C       -5.7930     7.3430    -0.5230 C.3   1 <1>  -0.1600 
 19 C       -6.5020     9.3090     0.8860 C.3   1 <1>  -0.1600 
 20 C       -6.9530     8.2760    -0.1550 C.3   1 <1>  -0.1600 
 21 H        0.9110     8.2210     0.8550 H     1 <1>   0.0800 
 22 H        0.8230     7.9050    -0.8830 H     1 <1>   0.0800 
 23 H        2.6850     6.8570     0.1140 H     1 <1>   0.1500 
 24 H        4.1060    10.8070    -0.6850 H     1 <1>   0.1500 
 25 H       -0.3620    10.0530    -1.2010 H     1 <1>   0.0800 
 26 H       -0.2790    10.3590     0.5190 H     1 <1>   0.0800 
 27 H        6.4200     9.9620    -0.6550 H     1 <1>   0.1500 
 28 H       -1.6780     8.3640     0.9430 H     1 <1>   0.0800 
 29 H       -1.7530     8.0560    -0.7800 H     1 <1>   0.0800 
 30 H        6.8570     7.5990    -0.2460 H     1 <1>   0.1500 
 31 H       -2.9140    10.2120    -1.1250 H     1 <1>   0.0800 
 32 H       -2.7410    10.5780     0.5730 H     1 <1>   0.0800 
 33 H        6.7670     5.6120     1.0210 H     1 <1>   0.0800 
 34 H        6.6740     5.2940    -0.7150 H     1 <1>   0.0800 
 35 H       -4.0220     8.5100     1.0100 H     1 <1>   0.4500 
 36 H        5.5150     3.5210     1.4660 H     1 <1>   0.0800 
 37 H        6.9650     3.1700     0.5570 H     1 <1>   0.0800 
 38 H        5.4210     3.2050    -0.2600 H     1 <1>   0.0800 
 39 H       -3.7450     7.4330    -1.1420 H     1 <1>   0.0800 
 40 H       -4.7520     8.6800    -1.8390 H     1 <1>   0.0800 
 41 H       -5.4560    10.6220    -0.4490 H     1 <1>   0.0800 
 42 H       -4.9320    10.7300     1.2160 H     1 <1>   0.0800 
 43 H       -5.5540     6.7060     0.3110 H     1 <1>   0.0800 
 44 H       -6.0940     6.7060    -1.3370 H     1 <1>   0.0800 
 45 H       -7.2920    10.0230     1.0420 H     1 <1>   0.0800 
 46 H       -6.3180     8.8240     1.8290 H     1 <1>   0.0800 
 47 H       -7.7780     7.7000     0.2330 H     1 <1>   0.0800 
 48 H       -7.2990     8.7850    -1.0390 H     1 <1>   0.0800 
@<TRIPOS>BOND
  1   1   2  1   
  2   1   3  1   
  3   2   4  ar  
  4   2   5  ar  
  5   3   6  1   
  6   3  21  1   
  7   3  22  1   
  8   4   7  ar  
  9   4  23  1   
 10   5   8  ar  
 11   5  24  1   
 12   6   9  1   
 13   6  25  1   
 14   6  26  1   
 15   7  10  1   
 16   7  11  ar  
 17   8  11  ar  
 18   8  27  1   
 19   9  12  1   
 20   9  28  1   
 21   9  29  1   
 22  10  13  1   
 23  11  30  1   
 24  12  14  1   
 25  12  31  1   
 26  12  32  1   
 27  13  15  1   
 28  13  33  1   
 29  13  34  1   
 30  14  16  1   
 31  14  17  1   
 32  14  35  1   
 33  15  36  1   
 34  15  37  1   
 35  15  38  1   
 36  16  18  1   
 37  16  39  1   
 38  16  40  1   
 39  17  19  1   
 40  17  41  1   
 41  17  42  1   
 42  18  20  1   
 43  18  43  1   
 44  18  44  1   
 45  19  20  1   
 46  19  45  1   
 47  19  46  1   
 48  20  47  1   
 49  20  48  1   
@<TRIPOS>SUBSTRUCTURE
  1 ****   3 GROUP 4 **** **** 0

# MOE 2024.06 (io_trps.svl 2023.06)
