@<TRIPOS>MOLECULE
NONAME
31 33 1 0 0 
SMALL
USER_CHARGES


@<TRIPOS>ATOM
  1 O        0.5740     0.7340     0.6970 O.2   1 <1>  -0.5700 
  2 C        1.7370     0.9830     0.4120 C.2   1 <1>   0.5440 
  3 N        2.2330     2.2700     0.5520 N.am  1 <1>  -0.2980 
  4 C        2.6420    -0.0240    -0.0580 C.ar  1 <1>   0.0860 
  5 N        3.4840     2.6560     0.1920 N.2   1 <1>  -0.5120 
  6 C        1.3440     3.3280     1.0890 C.3   1 <1>   0.0600 
  7 C        3.9540     0.3590    -0.3930 C.ar  1 <1>   0.0860 
  8 C        2.2540    -1.3640    -0.1600 C.ar  1 <1>  -0.1500 
  9 C        4.3050     1.7690    -0.3140 C.2   1 <1>   0.3640 
 10 C        4.8410    -0.6700    -0.7580 C.ar  1 <1>  -0.1500 
 11 C        3.1410    -2.3390    -0.5520 C.ar  1 <1>  -0.1500 
 12 C        5.5910     2.2590    -0.7900 C.2   1 <1>   0.6300 
 13 C        4.4460    -1.9870    -0.8440 C.ar  1 <1>  -0.1500 
 14 O        6.2070     1.7300    -1.7030 O.2   1 <1>  -0.5700 
 15 N        6.1340     3.3860    -0.2240 N.am  1 <1>  -0.5790 
 16 C        7.3960     4.0450    -0.5940 C.3   1 <1>   0.0490 
 17 C        8.1450     4.7700     0.4730 C.3   1 <1>  -0.2000 
 18 C        7.4300     5.5370    -0.5980 C.3   1 <1>  -0.2000 
 19 H        0.4950     3.4450     0.4400 H     1 <1>   0.0800 
 20 H        1.8740     4.2620     1.1520 H     1 <1>   0.0800 
 21 H        1.0030     3.0460     2.0690 H     1 <1>   0.0800 
 22 H        1.2380    -1.6340     0.0810 H     1 <1>   0.1500 
 23 H        5.8710    -0.4590    -0.9810 H     1 <1>   0.1500 
 24 H        2.8280    -3.3680    -0.6260 H     1 <1>   0.1500 
 25 H        5.1500    -2.7480    -1.1380 H     1 <1>   0.1500 
 26 H        5.5400     3.8970     0.4330 H     1 <1>   0.3700 
 27 H        7.9530     3.5140    -1.3500 H     1 <1>   0.1000 
 28 H        9.2210     4.7520     0.4520 H     1 <1>   0.1000 
 29 H        7.7510     4.7750     1.4740 H     1 <1>   0.1000 
 30 H        6.5350     6.0790    -0.3470 H     1 <1>   0.1000 
 31 H        8.0210     6.0370    -1.3450 H     1 <1>   0.1000 
@<TRIPOS>BOND
  1   1   2  2   
  2   2   3  am  
  3   2   4  1   
  4   3   5  1   
  5   3   6  1   
  6   4   7  ar  
  7   4   8  ar  
  8   5   9  2   
  9   6  19  1   
 10   6  20  1   
 11   6  21  1   
 12   7   9  1   
 13   7  10  ar  
 14   8  11  ar  
 15   8  22  1   
 16   9  12  1   
 17  10  13  ar  
 18  10  23  1   
 19  11  13  ar  
 20  11  24  1   
 21  12  14  2   
 22  12  15  am  
 23  13  25  1   
 24  15  16  1   
 25  15  26  1   
 26  16  17  1   
 27  16  18  1   
 28  16  27  1   
 29  17  18  1   
 30  17  28  1   
 31  17  29  1   
 32  18  30  1   
 33  18  31  1   
@<TRIPOS>SUBSTRUCTURE
  1 ****   9 GROUP 4 **** **** 0

# MOE 2024.06 (io_trps.svl 2023.06)
