@<TRIPOS>MOLECULE
NONAME
54 56 1 0 0 
SMALL
USER_CHARGES


@<TRIPOS>ATOM
  1 S        2.0570    -3.5970    -0.4760 S.o2  1 <1>   1.3330 
  2 O        2.8450    -4.0200     0.6610 O.2   1 <1>  -0.6500 
  3 O        1.4020    -4.6020    -1.2800 O.2   1 <1>  -0.6500 
  4 N        0.9110    -2.4870     0.1040 N.am  1 <1>  -0.8490 
  5 C        3.0370    -2.5990    -1.5770 C.3   1 <1>  -0.1350 
  6 C       -0.4770    -2.9920     0.0220 C.3   1 <1>   0.2760 
  7 C        1.3280    -1.8210     1.3780 C.3   1 <1>   0.2570 
  8 C       -1.0320    -2.6290    -1.3660 C.3   1 <1>  -0.1600 
  9 C       -1.4390    -2.4530     1.1030 C.3   1 <1>  -0.1600 
 10 C        2.6470    -1.0290     1.3480 C.2   1 <1>   0.5690 
 11 C       -2.4550    -3.1670    -1.5740 C.3   1 <1>  -0.1600 
 12 C       -2.8610    -3.0030     0.9160 C.3   1 <1>  -0.1600 
 13 O        2.6130     0.1200     0.9750 O.2   1 <1>  -0.5700 
 14 N        3.8040    -1.6400     1.7520 N.am  1 <1>  -0.5470 
 15 C       -3.4040    -2.6670    -0.4780 C.3   1 <1>  -0.1600 
 16 C        5.0810    -1.1190     2.0460 C.ar  1 <1>   0.1170 
 17 C        6.1890    -1.9650     2.1080 C.ar  1 <1>   0.1010 
 18 C        5.2980     0.2300     2.3150 C.ar  1 <1>  -0.1500 
 19 S        6.0000    -3.7210     1.7550 S.3   1 <1>  -0.2030 
 20 C        7.4540    -1.5070     2.4260 C.ar  1 <1>  -0.1500 
 21 C        6.5620     0.7040     2.6280 C.ar  1 <1>  -0.1500 
 22 C        6.0860    -3.8690    -0.0380 C.ar  1 <1>   0.1020 
 23 C        7.6420    -0.1610     2.6870 C.ar  1 <1>  -0.1500 
 24 C        6.5280    -2.8200    -0.8310 C.ar  1 <1>  -0.1500 
 25 C        5.7010    -5.0720    -0.6010 C.ar  1 <1>  -0.1500 
 26 C        6.5920    -2.9900    -2.2040 C.ar  1 <1>  -0.1500 
 27 C        5.7650    -5.2350    -1.9750 C.ar  1 <1>  -0.1500 
 28 C        6.2130    -4.1950    -2.7740 C.ar  1 <1>  -0.1500 
 29 H        3.5600    -1.8310    -1.0440 H     1 <1>   0.0800 
 30 H        2.4070    -2.1390    -2.3130 H     1 <1>   0.0800 
 31 H        3.7540    -3.2130    -2.0810 H     1 <1>   0.0800 
 32 H       -0.4720    -4.0660     0.1270 H     1 <1>   0.0800 
 33 H        1.3810    -2.5540     2.1630 H     1 <1>   0.0800 
 34 H        0.5880    -1.0970     1.6600 H     1 <1>   0.0800 
 35 H       -0.4040    -3.0350    -2.1380 H     1 <1>   0.0800 
 36 H       -1.0400    -1.5580    -1.4720 H     1 <1>   0.0800 
 37 H       -1.4850    -1.3800     1.0460 H     1 <1>   0.0800 
 38 H       -1.0980    -2.7460     2.0790 H     1 <1>   0.0800 
 39 H       -2.4320    -4.2430    -1.5640 H     1 <1>   0.0800 
 40 H       -2.8210    -2.8550    -2.5370 H     1 <1>   0.0800 
 41 H       -3.5120    -2.5850     1.6640 H     1 <1>   0.0800 
 42 H       -2.8530    -4.0720     1.0470 H     1 <1>   0.0800 
 43 H        3.7620    -2.6720     1.7530 H     1 <1>   0.3700 
 44 H       -4.3730    -3.1160    -0.6070 H     1 <1>   0.0800 
 45 H       -3.5210    -1.6000    -0.5680 H     1 <1>   0.0800 
 46 H        4.4790     0.9250     2.2870 H     1 <1>   0.1500 
 47 H        8.2800    -2.1950     2.4670 H     1 <1>   0.1500 
 48 H        6.7040     1.7520     2.8290 H     1 <1>   0.1500 
 49 H        8.6210     0.2110     2.9340 H     1 <1>   0.1500 
 50 H        6.8270    -1.8840    -0.3980 H     1 <1>   0.1500 
 51 H        5.3520    -5.8700     0.0300 H     1 <1>   0.1500 
 52 H        6.9390    -2.1850    -2.8290 H     1 <1>   0.1500 
 53 H        5.4670    -6.1690    -2.4190 H     1 <1>   0.1500 
 54 H        6.2670    -4.3250    -3.8410 H     1 <1>   0.1500 
@<TRIPOS>BOND
  1   1   2  2   
  2   1   3  2   
  3   1   4  am  
  4   1   5  1   
  5   4   6  1   
  6   4   7  1   
  7   5  29  1   
  8   5  30  1   
  9   5  31  1   
 10   6   8  1   
 11   6   9  1   
 12   6  32  1   
 13   7  10  1   
 14   7  33  1   
 15   7  34  1   
 16   8  11  1   
 17   8  35  1   
 18   8  36  1   
 19   9  12  1   
 20   9  37  1   
 21   9  38  1   
 22  10  13  2   
 23  10  14  am  
 24  11  15  1   
 25  11  39  1   
 26  11  40  1   
 27  12  15  1   
 28  12  41  1   
 29  12  42  1   
 30  14  16  1   
 31  14  43  1   
 32  15  44  1   
 33  15  45  1   
 34  16  17  ar  
 35  16  18  ar  
 36  17  19  1   
 37  17  20  ar  
 38  18  21  ar  
 39  18  46  1   
 40  19  22  1   
 41  20  23  ar  
 42  20  47  1   
 43  21  23  ar  
 44  21  48  1   
 45  22  24  ar  
 46  22  25  ar  
 47  23  49  1   
 48  24  26  ar  
 49  24  50  1   
 50  25  27  ar  
 51  25  51  1   
 52  26  28  ar  
 53  26  52  1   
 54  27  28  ar  
 55  27  53  1   
 56  28  54  1   
@<TRIPOS>SUBSTRUCTURE
  1 ****   2 GROUP 4 **** **** 0

# MOE 2024.06 (io_trps.svl 2023.06)
