@<TRIPOS>MOLECULE
NONAME
38 41 1 0 0 
SMALL
USER_CHARGES


@<TRIPOS>ATOM
  1 O        2.1540     2.4190    -0.4940 O.3   1 <1>  -0.2800 
  2 C        1.9220     1.3440     0.2120 C.2   1 <1>   0.2980 
  3 C        0.9870     2.9520    -0.7230 C.2   1 <1>  -0.0400 
  4 N        0.6860     1.1310     0.4650 N.2   1 <1>  -0.5650 
  5 C        3.0860     0.4890     0.6470 C.3   1 <1>  -0.0600 
  6 C        0.0550     2.1700    -0.1380 C.2   1 <1>   0.0460 
  7 C        0.9660     4.2320    -1.5360 C.3   1 <1>  -0.0600 
  8 C       -1.4780     2.3160    -0.0850 C.3   1 <1>   0.1810 
  9 C       -1.8670     3.6430     0.6060 C.3   1 <1>  -0.1600 
 10 C       -2.0680     2.2930    -1.5150 C.3   1 <1>  -0.1600 
 11 C       -2.1380     1.1610     0.7120 C.3   1 <1>  -0.1600 
 12 C       -3.3980     3.8190     0.6410 C.3   1 <1>  -0.0800 
 13 C       -3.5980     2.4660    -1.4830 C.3   1 <1>  -0.0800 
 14 C       -3.6700     1.3160     0.7580 C.3   1 <1>  -0.0800 
 15 C       -3.9430     3.8030    -0.8000 C.3   1 <1>  -0.1600 
 16 C       -4.0210     2.6540     1.4320 C.3   1 <1>  -0.1600 
 17 C       -4.2200     1.3100    -0.6790 C.3   1 <1>  -0.1600 
 18 H        3.7510     1.0710     1.2550 H     1 <1>   0.0800 
 19 H        3.6120     0.1320    -0.2180 H     1 <1>   0.0800 
 20 H        2.7280    -0.3500     1.2150 H     1 <1>   0.0800 
 21 H        1.4040     4.0500    -2.5010 H     1 <1>   0.0800 
 22 H        1.5420     4.9850    -1.0320 H     1 <1>   0.0800 
 23 H       -0.0320     4.5980    -1.6750 H     1 <1>   0.0800 
 24 H       -1.4310     4.4760     0.0890 H     1 <1>   0.0800 
 25 H       -1.4770     3.6480     1.6090 H     1 <1>   0.0800 
 26 H       -1.6390     3.0760    -2.1090 H     1 <1>   0.0800 
 27 H       -1.8170     1.3590    -1.9860 H     1 <1>   0.0800 
 28 H       -1.7480     1.1470     1.7150 H     1 <1>   0.0800 
 29 H       -1.8860     0.2190     0.2570 H     1 <1>   0.0800 
 30 H       -3.6460     4.7530     1.1150 H     1 <1>   0.0800 
 31 H       -3.9860     2.4590    -2.4880 H     1 <1>   0.0800 
 32 H       -4.1010     0.5020     1.3170 H     1 <1>   0.0800 
 33 H       -3.5190     4.6190    -1.3590 H     1 <1>   0.0800 
 34 H       -5.0100     3.9380    -0.7850 H     1 <1>   0.0800 
 35 H       -3.6510     2.6610     2.4430 H     1 <1>   0.0800 
 36 H       -5.0900     2.7720     1.4740 H     1 <1>   0.0800 
 37 H       -3.9910     0.3710    -1.1530 H     1 <1>   0.0800 
 38 H       -5.2910     1.4140    -0.6600 H     1 <1>   0.0800 
@<TRIPOS>BOND
  1   1   2  1   
  2   1   3  1   
  3   2   4  2   
  4   2   5  1   
  5   3   6  2   
  6   3   7  1   
  7   4   6  1   
  8   5  18  1   
  9   5  19  1   
 10   5  20  1   
 11   6   8  1   
 12   7  21  1   
 13   7  22  1   
 14   7  23  1   
 15   8   9  1   
 16   8  10  1   
 17   8  11  1   
 18   9  12  1   
 19   9  24  1   
 20   9  25  1   
 21  10  13  1   
 22  10  26  1   
 23  10  27  1   
 24  11  14  1   
 25  11  28  1   
 26  11  29  1   
 27  12  15  1   
 28  12  16  1   
 29  12  30  1   
 30  13  15  1   
 31  13  17  1   
 32  13  31  1   
 33  14  16  1   
 34  14  17  1   
 35  14  32  1   
 36  15  33  1   
 37  15  34  1   
 38  16  35  1   
 39  16  36  1   
 40  17  37  1   
 41  17  38  1   
@<TRIPOS>SUBSTRUCTURE
  1 ****   8 GROUP 4 **** **** 0

# MOE 2024.06 (io_trps.svl 2023.06)
