@<TRIPOS>MOLECULE
NONAME
49 50 1 0 0 
SMALL
USER_CHARGES


@<TRIPOS>ATOM
  1 S        1.0640     0.3240    -1.2760 S.o2  1 <1>   1.3330 
  2 O        1.0840    -0.2320     0.0530 O.2   1 <1>  -0.6500 
  3 O        2.2680     0.3050    -2.0730 O.2   1 <1>  -0.6500 
  4 N        0.6150     1.9890    -1.1540 N.am  1 <1>  -0.6930 
  5 C       -0.2730    -0.3700    -2.2220 C.3   1 <1>  -0.1350 
  6 C       -0.4990     2.3670    -0.4170 C.ar  1 <1>   0.1990 
  7 C        1.7170     2.9940    -1.2850 C.3   1 <1>   0.2570 
  8 C       -1.6460     2.7980    -1.0680 C.ar  1 <1>  -0.1500 
  9 C       -0.4930     2.3290     0.9710 C.ar  1 <1>  -0.1500 
 10 C        2.7830     2.9250    -0.1860 C.2   1 <1>   0.5690 
 11 C       -2.7680     3.1730    -0.3500 C.ar  1 <1>  -0.1500 
 12 C       -1.6120     2.7040     1.6910 C.ar  1 <1>  -0.1500 
 13 O        2.7820     3.7780     0.6700 O.2   1 <1>  -0.5700 
 14 N        3.7070     1.9170    -0.2240 N.am  1 <1>  -0.5470 
 15 C       -2.7580     3.1260     1.0350 C.ar  1 <1>  -0.1430 
 16 C        4.6420     1.5790     0.7590 C.ar  1 <1>   0.1170 
 17 C       -3.9890     3.5370     1.8280 C.3   1 <1>  -0.0170 
 18 C        5.8250     2.2950     0.9610 C.ar  1 <1>  -0.1430 
 19 C        4.3800     0.4640     1.5460 C.ar  1 <1>  -0.1500 
 20 C       -3.9540     5.0350     2.1350 C.3   1 <1>  -0.2400 
 21 C        6.7130     1.8780     1.9420 C.ar  1 <1>  -0.1500 
 22 C        6.1830     3.5220     0.1290 C.3   1 <1>  -0.0170 
 23 C        5.2700     0.0570     2.5210 C.ar  1 <1>  -0.1500 
 24 C        6.4400     0.7660     2.7200 C.ar  1 <1>  -0.1500 
 25 C        6.8190     3.1110    -1.2010 C.3   1 <1>  -0.2400 
 26 H       -0.0970    -1.4130    -2.3970 H     1 <1>   0.0800 
 27 H       -0.3570     0.1300    -3.1670 H     1 <1>   0.0800 
 28 H       -1.1970    -0.2620    -1.6890 H     1 <1>   0.0800 
 29 H        1.2890     3.9800    -1.2660 H     1 <1>   0.0800 
 30 H        2.1970     2.8710    -2.2390 H     1 <1>   0.0800 
 31 H       -1.6570     2.8420    -2.1410 H     1 <1>   0.1500 
 32 H        0.3940     2.0040     1.4880 H     1 <1>   0.1500 
 33 H       -3.6490     3.5060    -0.8710 H     1 <1>   0.1500 
 34 H       -1.5850     2.6680     2.7670 H     1 <1>   0.1500 
 35 H        3.5440     1.1900    -0.9320 H     1 <1>   0.3700 
 36 H       -4.0300     2.9810     2.7480 H     1 <1>   0.0800 
 37 H       -4.8770     3.3030     1.2670 H     1 <1>   0.0800 
 38 H        3.4670    -0.0850     1.3930 H     1 <1>   0.1500 
 39 H       -3.0780     5.2750     2.7120 H     1 <1>   0.0800 
 40 H       -4.8270     5.3190     2.6950 H     1 <1>   0.0800 
 41 H       -3.9290     5.6010     1.2210 H     1 <1>   0.0800 
 42 H        7.6270     2.4190     2.1060 H     1 <1>   0.1500 
 43 H        6.8720     4.1410     0.6750 H     1 <1>   0.0800 
 44 H        5.3070     4.1170    -0.0530 H     1 <1>   0.0800 
 45 H        5.0510    -0.8070     3.1240 H     1 <1>   0.1500 
 46 H        7.1370     0.4550     3.4780 H     1 <1>   0.1500 
 47 H        7.7090     2.5340    -1.0220 H     1 <1>   0.0800 
 48 H        7.0790     3.9840    -1.7730 H     1 <1>   0.0800 
 49 H        6.1320     2.5140    -1.7730 H     1 <1>   0.0800 
@<TRIPOS>BOND
  1   1   2  2   
  2   1   3  2   
  3   1   4  am  
  4   1   5  1   
  5   4   6  1   
  6   4   7  1   
  7   5  26  1   
  8   5  27  1   
  9   5  28  1   
 10   6   8  ar  
 11   6   9  ar  
 12   7  10  1   
 13   7  29  1   
 14   7  30  1   
 15   8  11  ar  
 16   8  31  1   
 17   9  12  ar  
 18   9  32  1   
 19  10  13  2   
 20  10  14  am  
 21  11  15  ar  
 22  11  33  1   
 23  12  15  ar  
 24  12  34  1   
 25  14  16  1   
 26  14  35  1   
 27  15  17  1   
 28  16  18  ar  
 29  16  19  ar  
 30  17  20  1   
 31  17  36  1   
 32  17  37  1   
 33  18  21  ar  
 34  18  22  1   
 35  19  23  ar  
 36  19  38  1   
 37  20  39  1   
 38  20  40  1   
 39  20  41  1   
 40  21  24  ar  
 41  21  42  1   
 42  22  25  1   
 43  22  43  1   
 44  22  44  1   
 45  23  24  ar  
 46  23  45  1   
 47  24  46  1   
 48  25  47  1   
 49  25  48  1   
 50  25  49  1   
@<TRIPOS>SUBSTRUCTURE
  1 ****  10 GROUP 4 **** **** 0

# MOE 2024.06 (io_trps.svl 2023.06)
