@<TRIPOS>MOLECULE
NONAME
31 31 1 0 0 
SMALL
USER_CHARGES


@<TRIPOS>ATOM
  1 I        0.3320    -0.3360     0.0620 I     1 <1>  -0.0810 
  2 C        0.1620     1.7950     0.0110 C.ar  1 <1>   0.0810 
  3 C        1.3050     2.5880    -0.0070 C.ar  1 <1>   0.0820 
  4 C       -1.1140     2.3260    -0.0020 C.ar  1 <1>  -0.1500 
  5 O        2.5260     1.9850     0.0080 O.3   1 <1>  -0.3630 
  6 C        1.1340     3.9700    -0.0380 C.ar  1 <1>  -0.1500 
  7 C       -1.2670     3.7030    -0.0350 C.ar  1 <1>  -0.1430 
  8 C        3.7200     2.7220    -0.0110 C.3   1 <1>   0.1200 
  9 C       -0.1420     4.5140    -0.0520 C.ar  1 <1>  -0.1500 
 10 C       -2.6540     4.3210    -0.0490 C.3   1 <1>  -0.0960 
 11 C        4.8630     1.7040     0.0120 C.3   1 <1>   0.3430 
 12 N        6.2040     2.3650    -0.0060 N.4   1 <1>  -0.9060 
 13 C        7.3050     1.3790     0.0160 C.3   1 <1>   0.3430 
 14 C        8.6220     2.1390    -0.0040 C.3   1 <1>  -0.2400 
 15 H       -1.9710     1.6770     0.0140 H     1 <1>   0.1500 
 16 H        1.9680     4.6440    -0.0530 H     1 <1>   0.1500 
 17 H        3.7390     3.3490     0.8630 H     1 <1>   0.0800 
 18 H        3.7370     3.3070    -0.9140 H     1 <1>   0.0800 
 19 H       -0.2590     5.5840    -0.0750 H     1 <1>   0.1500 
 20 H       -3.3740     3.6290    -0.4490 H     1 <1>   0.0800 
 21 H       -2.6640     5.2070    -0.6580 H     1 <1>   0.0800 
 22 H       -2.9460     4.5830     0.9520 H     1 <1>   0.0800 
 23 H        4.7660     1.0600    -0.8480 H     1 <1>   0.0800 
 24 H        4.7680     1.1010     0.9010 H     1 <1>   0.0800 
 25 H        6.3020     2.9870     0.8070 H     1 <1>   0.4500 
 26 H        6.3000     2.9480    -0.8470 H     1 <1>   0.4500 
 27 H        7.2440     0.7310    -0.8450 H     1 <1>   0.0800 
 28 H        7.2460     0.7720     0.9070 H     1 <1>   0.0800 
 29 H        8.7140     2.7300    -0.8980 H     1 <1>   0.0800 
 30 H        9.4360     1.4360     0.0120 H     1 <1>   0.0800 
 31 H        8.7170     2.7720     0.8620 H     1 <1>   0.0800 
@<TRIPOS>BOND
  1   1   2  1   
  2   2   3  ar  
  3   2   4  ar  
  4   3   5  1   
  5   3   6  ar  
  6   4   7  ar  
  7   4  15  1   
  8   5   8  1   
  9   6   9  ar  
 10   6  16  1   
 11   7   9  ar  
 12   7  10  1   
 13   8  11  1   
 14   8  17  1   
 15   8  18  1   
 16   9  19  1   
 17  10  20  1   
 18  10  21  1   
 19  10  22  1   
 20  11  12  1   
 21  11  23  1   
 22  11  24  1   
 23  12  13  1   
 24  12  25  1   
 25  12  26  1   
 26  13  14  1   
 27  13  27  1   
 28  13  28  1   
 29  14  29  1   
 30  14  30  1   
 31  14  31  1   
@<TRIPOS>SUBSTRUCTURE
  1 ****   5 GROUP 4 **** **** 0

# MOE 2024.06 (io_trps.svl 2023.06)
