@<TRIPOS>MOLECULE
NONAME
37 38 1 0 0 
SMALL
USER_CHARGES


@<TRIPOS>ATOM
  1 S       -1.6730     2.0520    -0.6880 S.3   1 <1>  -0.0800 
  2 C       -0.1410     2.7010    -0.1310 C.2   1 <1>  -0.1400 
  3 C       -2.5540     3.4020    -0.0010 C.2   1 <1>  -0.1400 
  4 C       -0.3360     3.8640     0.5260 C.2   1 <1>  -0.1500 
  5 C        1.0680     1.8640    -0.4790 C.3   1 <1>   0.5230 
  6 C       -1.7090     4.2590     0.5980 C.2   1 <1>  -0.1500 
  7 C       -4.0590     3.4090    -0.1720 C.3   1 <1>  -0.0600 
  8 N        2.2700     2.5230     0.0720 N.4   1 <1>  -0.9060 
  9 C        3.5220     1.7640    -0.2090 C.3   1 <1>   0.3430 
 10 C        4.7550     2.4850     0.3530 C.3   1 <1>   0.1100 
 11 N        5.9710     1.7810    -0.0620 N.3   1 <1>  -0.8100 
 12 C        7.1540     2.6710     0.0060 C.3   1 <1>   0.1100 
 13 C        6.2380     0.5650     0.7460 C.3   1 <1>   0.1100 
 14 C        8.4450     1.9280    -0.3830 C.3   1 <1>   0.1200 
 15 C        7.5570    -0.1100     0.3260 C.3   1 <1>   0.1200 
 16 O        8.6130     0.7980     0.4200 O.3   1 <1>  -0.5600 
 17 H        0.4090     4.4940     0.9800 H     1 <1>   0.1500 
 18 H        1.1460     1.7750    -1.5510 H     1 <1>   0.0800 
 19 H        0.9530     0.8790    -0.0580 H     1 <1>   0.0800 
 20 H       -1.9990     5.1690     1.0960 H     1 <1>   0.1500 
 21 H       -4.4850     2.5340     0.2860 H     1 <1>   0.0800 
 22 H       -4.3110     3.4130    -1.2170 H     1 <1>   0.0800 
 23 H       -4.4830     4.2820     0.2900 H     1 <1>   0.0800 
 24 H        2.1270     2.6370     1.0820 H     1 <1>   0.4500 
 25 H        2.3200     3.4640    -0.3370 H     1 <1>   0.4500 
 26 H        3.6510     1.6560    -1.2740 H     1 <1>   0.0800 
 27 H        3.4620     0.7820     0.2290 H     1 <1>   0.0800 
 28 H        4.7150     2.5440     1.4280 H     1 <1>   0.0800 
 29 H        4.7800     3.4830    -0.0510 H     1 <1>   0.0800 
 30 H        7.2710     3.0590     1.0050 H     1 <1>   0.0800 
 31 H        7.0220     3.5030    -0.6640 H     1 <1>   0.0800 
 32 H        5.4390    -0.1440     0.6220 H     1 <1>   0.0800 
 33 H        6.3060     0.8200     1.7900 H     1 <1>   0.0800 
 34 H        9.3010     2.5630    -0.2390 H     1 <1>   0.0800 
 35 H        8.4110     1.6190    -1.4140 H     1 <1>   0.0800 
 36 H        7.4990    -0.4700    -0.6860 H     1 <1>   0.0800 
 37 H        7.7790    -0.9380     0.9770 H     1 <1>   0.0800 
@<TRIPOS>BOND
  1   1   2  1   
  2   1   3  1   
  3   2   4  2   
  4   2   5  1   
  5   3   6  2   
  6   3   7  1   
  7   4   6  1   
  8   4  17  1   
  9   5   8  1   
 10   5  18  1   
 11   5  19  1   
 12   6  20  1   
 13   7  21  1   
 14   7  22  1   
 15   7  23  1   
 16   8   9  1   
 17   8  24  1   
 18   8  25  1   
 19   9  10  1   
 20   9  26  1   
 21   9  27  1   
 22  10  11  1   
 23  10  28  1   
 24  10  29  1   
 25  11  12  1   
 26  11  13  1   
 27  12  14  1   
 28  12  30  1   
 29  12  31  1   
 30  13  15  1   
 31  13  32  1   
 32  13  33  1   
 33  14  16  1   
 34  14  34  1   
 35  14  35  1   
 36  15  16  1   
 37  15  36  1   
 38  15  37  1   
@<TRIPOS>SUBSTRUCTURE
  1 ****   8 GROUP 4 **** **** 0

# MOE 2024.06 (io_trps.svl 2023.06)
