@<TRIPOS>MOLECULE
NONAME
31 34 1 0 0 
SMALL
USER_CHARGES


@<TRIPOS>ATOM
  1 S        0.8160    -1.8030    -1.3060 S.3   1 <1>  -0.4600 
  2 C       -0.3400    -1.8010     0.0920 C.3   1 <1>   0.5100 
  3 C        1.9920    -0.6610    -0.5780 C.3   1 <1>   0.1310 
  4 O        0.3680    -1.1430     1.1230 O.3   1 <1>  -0.4300 
  5 C       -1.6280    -1.0200    -0.2590 C.3   1 <1>  -0.0800 
  6 C       -0.6960    -3.2430     0.5200 C.3   1 <1>  -0.0800 
  7 C        1.4900    -0.5040     0.8370 C.2   1 <1>   0.6590 
  8 C       -2.4050    -1.7450    -1.3830 C.3   1 <1>  -0.1600 
  9 C       -2.5390    -0.9650     0.9910 C.3   1 <1>  -0.1600 
 10 C       -1.4770    -3.9590    -0.6080 C.3   1 <1>  -0.1600 
 11 C       -1.6080    -3.1870     1.7690 C.3   1 <1>  -0.1600 
 12 O        2.0700     0.1540     1.6580 O.2   1 <1>  -0.5700 
 13 C       -2.7640    -3.1790    -0.9430 C.3   1 <1>  -0.0800 
 14 C       -2.8950    -2.3960     1.4500 C.3   1 <1>  -0.0800 
 15 C       -3.6500    -3.1100     0.3140 C.3   1 <1>  -0.1600 
 16 H        1.9510     0.2640    -1.1200 H     1 <1>   0.0800 
 17 H        2.9690    -1.1050    -0.6110 H     1 <1>   0.0800 
 18 H       -1.3740    -0.0250    -0.5770 H     1 <1>   0.0800 
 19 H        0.2050    -3.7870     0.7400 H     1 <1>   0.0800 
 20 H       -3.3050    -1.2010    -1.6110 H     1 <1>   0.0800 
 21 H       -1.8190    -1.7790    -2.2850 H     1 <1>   0.0800 
 22 H       -3.4390    -0.4220     0.7630 H     1 <1>   0.0800 
 23 H       -2.0420    -0.4420     1.7900 H     1 <1>   0.0800 
 24 H       -1.7300    -4.9580    -0.2960 H     1 <1>   0.0800 
 25 H       -0.8670    -4.0480    -1.4900 H     1 <1>   0.0800 
 26 H       -1.8620    -4.1850     2.0810 H     1 <1>   0.0800 
 27 H       -1.0880    -2.7180     2.5870 H     1 <1>   0.0800 
 28 H       -3.2970    -3.6790    -1.7340 H     1 <1>   0.0800 
 29 H       -3.5190    -2.3510     2.3270 H     1 <1>   0.0800 
 30 H       -3.9210    -4.1040     0.6250 H     1 <1>   0.0800 
 31 H       -4.5600    -2.5800     0.0910 H     1 <1>   0.0800 
@<TRIPOS>BOND
  1   1   2  1   
  2   1   3  1   
  3   2   4  1   
  4   2   5  1   
  5   2   6  1   
  6   3   7  1   
  7   3  16  1   
  8   3  17  1   
  9   4   7  1   
 10   5   8  1   
 11   5   9  1   
 12   5  18  1   
 13   6  10  1   
 14   6  11  1   
 15   6  19  1   
 16   7  12  2   
 17   8  13  1   
 18   8  20  1   
 19   8  21  1   
 20   9  14  1   
 21   9  22  1   
 22   9  23  1   
 23  10  13  1   
 24  10  24  1   
 25  10  25  1   
 26  11  14  1   
 27  11  26  1   
 28  11  27  1   
 29  13  15  1   
 30  13  28  1   
 31  14  15  1   
 32  14  29  1   
 33  15  30  1   
 34  15  31  1   
@<TRIPOS>SUBSTRUCTURE
  1 ****   2 GROUP 4 **** **** 0

# MOE 2024.06 (io_trps.svl 2023.06)
