@<TRIPOS>MOLECULE
NONAME
46 48 1 0 0 
SMALL
USER_CHARGES


@<TRIPOS>ATOM
  1 O       -0.7960    -0.2040    -0.6930 O.2   1 <1>  -0.5700 
  2 C       -1.3670    -1.1720    -0.2290 C.2   1 <1>   0.5440 
  3 N       -0.6150    -2.2330     0.2320 N.am  1 <1>  -0.6600 
  4 C       -2.8180    -1.1870    -0.1890 C.ar  1 <1>   0.0860 
  5 C       -1.1380    -3.6260     0.3790 C.3   1 <1>   0.1400 
  6 C        0.8680    -2.1450     0.3920 C.3   1 <1>   0.1400 
  7 C       -3.5700    -0.8730    -1.3190 C.ar  1 <1>  -0.1500 
  8 C       -3.5150    -1.5110     0.9750 C.ar  1 <1>  -0.1500 
  9 C       -0.3140    -4.6060    -0.4740 C.3   1 <1>   0.1200 
 10 C        1.5700    -3.2100    -0.4660 C.3   1 <1>   0.1200 
 11 C       -4.9530    -0.9030    -1.2950 C.ar  1 <1>  -0.1500 
 12 C       -4.8980    -1.5420     0.9990 C.ar  1 <1>  -0.1500 
 13 O        1.0510    -4.4820    -0.1940 O.3   1 <1>  -0.5600 
 14 C       -5.6360    -1.2430    -0.1360 C.ar  1 <1>   0.0730 
 15 C       -7.0650    -1.2850    -0.1050 C.1   1 <1>  -0.0730 
 16 C       -8.2540    -1.3360    -0.0500 C.1   1 <1>  -0.2000 
 17 C       -9.7390    -1.4100     0.0450 C.3   1 <1>   0.4800 
 18 O      -10.0370    -2.0790     1.2070 O.3   1 <1>  -0.6800 
 19 C      -10.3370    -2.2100    -1.1210 C.3   1 <1>  -0.1600 
 20 C      -10.3660    -0.0110     0.1380 C.3   1 <1>  -0.1600 
 21 C      -11.8770    -2.2440    -1.1060 C.3   1 <1>  -0.1600 
 22 C      -11.9060    -0.0370     0.1580 C.3   1 <1>  -0.1600 
 23 C      -12.4630    -0.8270    -1.0350 C.3   1 <1>  -0.1600 
 24 H       -2.1670    -3.6840     0.0720 H     1 <1>   0.0800 
 25 H       -1.0780    -3.9190     1.4120 H     1 <1>   0.0800 
 26 H        1.1210    -2.3030     1.4260 H     1 <1>   0.0800 
 27 H        1.2270    -1.1700     0.1130 H     1 <1>   0.0800 
 28 H       -3.0540    -0.5990    -2.2240 H     1 <1>   0.1500 
 29 H       -2.9610    -1.7380     1.8690 H     1 <1>   0.1500 
 30 H       -0.4690    -4.4190    -1.5220 H     1 <1>   0.0800 
 31 H       -0.6020    -5.6200    -0.2570 H     1 <1>   0.0800 
 32 H        2.6220    -3.2290    -0.2460 H     1 <1>   0.0800 
 33 H        1.4380    -2.9960    -1.5120 H     1 <1>   0.0800 
 34 H       -5.5110    -0.6580    -2.1820 H     1 <1>   0.1500 
 35 H       -5.4160    -1.7990     1.9070 H     1 <1>   0.1500 
 36 H      -11.0050    -2.1310     1.2740 H     1 <1>   0.4000 
 37 H       -9.9440    -3.2110    -1.1060 H     1 <1>   0.0800 
 38 H      -10.0150    -1.7550    -2.0410 H     1 <1>   0.0800 
 39 H      -10.0450     0.5580    -0.7160 H     1 <1>   0.0800 
 40 H       -9.9910     0.4900     1.0140 H     1 <1>   0.0800 
 41 H      -12.2210    -2.8190    -0.2630 H     1 <1>   0.0800 
 42 H      -12.2320    -2.7340    -1.9970 H     1 <1>   0.0800 
 43 H      -12.2800     0.9720     0.1250 H     1 <1>   0.0800 
 44 H      -12.2510    -0.4790     1.0770 H     1 <1>   0.0800 
 45 H      -13.5360    -0.8840    -0.9590 H     1 <1>   0.0800 
 46 H      -12.2290    -0.3020    -1.9460 H     1 <1>   0.0800 
@<TRIPOS>BOND
  1   1   2  2   
  2   2   3  am  
  3   2   4  1   
  4   3   5  1   
  5   3   6  1   
  6   4   7  ar  
  7   4   8  ar  
  8   5   9  1   
  9   5  24  1   
 10   5  25  1   
 11   6  10  1   
 12   6  26  1   
 13   6  27  1   
 14   7  11  ar  
 15   7  28  1   
 16   8  12  ar  
 17   8  29  1   
 18   9  13  1   
 19   9  30  1   
 20   9  31  1   
 21  10  13  1   
 22  10  32  1   
 23  10  33  1   
 24  11  14  ar  
 25  11  34  1   
 26  12  14  ar  
 27  12  35  1   
 28  14  15  1   
 29  15  16  3   
 30  16  17  1   
 31  17  18  1   
 32  17  19  1   
 33  17  20  1   
 34  18  36  1   
 35  19  21  1   
 36  19  37  1   
 37  19  38  1   
 38  20  22  1   
 39  20  39  1   
 40  20  40  1   
 41  21  23  1   
 42  21  41  1   
 43  21  42  1   
 44  22  23  1   
 45  22  43  1   
 46  22  44  1   
 47  23  45  1   
 48  23  46  1   
@<TRIPOS>SUBSTRUCTURE
  1 ****  14 GROUP 4 **** **** 0

# MOE 2024.06 (io_trps.svl 2023.06)
