@<TRIPOS>MOLECULE
NONAME
46 48 1 0 0 
SMALL
USER_CHARGES


@<TRIPOS>ATOM
  1 CL      -2.2370     0.6920     3.2930 Cl    1 <1>  -0.1770 
  2 C       -2.8480     1.3270     1.7880 C.ar  1 <1>   0.1770 
  3 C       -2.1080     2.2700     1.1040 C.ar  1 <1>  -0.1500 
  4 C       -4.0640     0.8750     1.3100 C.ar  1 <1>  -0.1500 
  5 C       -2.6190     2.7570    -0.0830 C.ar  1 <1>   0.1770 
  6 C       -4.5730     1.3660     0.1120 C.ar  1 <1>   0.1170 
  7 CL      -1.7100     3.9550    -0.9670 Cl    1 <1>  -0.1770 
  8 C       -3.8320     2.3210    -0.5810 C.ar  1 <1>  -0.1500 
  9 N       -5.8170     0.8940    -0.3350 N.am  1 <1>  -0.5470 
 10 C       -6.3640     0.8700    -1.5930 C.2   1 <1>   0.5690 
 11 O       -5.7540     1.2060    -2.5790 O.2   1 <1>  -0.5700 
 12 C       -7.7920     0.3270    -1.7560 C.3   1 <1>   0.1710 
 13 N       -8.9010     1.2530    -1.3830 N.3   1 <1>  -0.8100 
 14 C      -10.2020     0.6980    -1.8200 C.3   1 <1>   0.1100 
 15 C       -8.9330     1.6070     0.0550 C.3   1 <1>   0.1100 
 16 C      -11.3770     1.6430    -1.5100 C.3   1 <1>   0.1400 
 17 C      -10.0830     2.5720     0.3870 C.3   1 <1>   0.1400 
 18 N      -11.3880     2.0070    -0.0620 N.am  1 <1>  -0.6600 
 19 C      -12.4640     1.8830     0.7870 C.2   1 <1>   0.5690 
 20 O      -12.3600     2.2000     1.9540 O.2   1 <1>  -0.5700 
 21 C      -13.8180     1.3110     0.2860 C.3   1 <1>   0.2610 
 22 O      -14.3510     2.0860    -0.7550 O.3   1 <1>  -0.5600 
 23 C      -14.9540     1.2990     1.3110 C.3   1 <1>  -0.1600 
 24 C      -15.0920     3.1400    -0.2280 C.3   1 <1>   0.1200 
 25 C      -15.6040     2.6620     1.1290 C.3   1 <1>  -0.1600 
 26 H       -1.1640     2.6150     1.4820 H     1 <1>   0.1500 
 27 H       -4.6040     0.1380     1.8730 H     1 <1>   0.1500 
 28 H       -4.1920     2.7330    -1.5060 H     1 <1>   0.1500 
 29 H       -6.4140     0.5040     0.3900 H     1 <1>   0.3700 
 30 H       -7.8810    -0.5840    -1.1930 H     1 <1>   0.0800 
 31 H       -7.9020     0.0710    -2.7960 H     1 <1>   0.0800 
 32 H      -10.3790    -0.2460    -1.3330 H     1 <1>   0.0800 
 33 H      -10.1760     0.5270    -2.8820 H     1 <1>   0.0800 
 34 H       -8.0150     2.0960     0.3270 H     1 <1>   0.0800 
 35 H       -9.0420     0.7190     0.6530 H     1 <1>   0.0800 
 36 H      -12.2930     1.1650    -1.8010 H     1 <1>   0.0800 
 37 H      -11.2730     2.5390    -2.0970 H     1 <1>   0.0800 
 38 H       -9.9150     3.5090    -0.1140 H     1 <1>   0.0800 
 39 H      -10.0940     2.7610     1.4460 H     1 <1>   0.0800 
 40 H      -13.6490     0.3190    -0.0890 H     1 <1>   0.0800 
 41 H      -14.6130     1.1290     2.3170 H     1 <1>   0.0800 
 42 H      -15.6500     0.5230     1.0450 H     1 <1>   0.0800 
 43 H      -15.8930     3.3730    -0.9080 H     1 <1>   0.0800 
 44 H      -14.4380     3.9900    -0.1200 H     1 <1>   0.0800 
 45 H      -15.2810     3.3460     1.8960 H     1 <1>   0.0800 
 46 H      -16.6770     2.5970     1.1430 H     1 <1>   0.0800 
@<TRIPOS>BOND
  1   1   2  1   
  2   2   3  ar  
  3   2   4  ar  
  4   3   5  ar  
  5   3  26  1   
  6   4   6  ar  
  7   4  27  1   
  8   5   7  1   
  9   5   8  ar  
 10   6   8  ar  
 11   6   9  1   
 12   8  28  1   
 13   9  10  am  
 14   9  29  1   
 15  10  11  2   
 16  10  12  1   
 17  12  13  1   
 18  12  30  1   
 19  12  31  1   
 20  13  14  1   
 21  13  15  1   
 22  14  16  1   
 23  14  32  1   
 24  14  33  1   
 25  15  17  1   
 26  15  34  1   
 27  15  35  1   
 28  16  18  1   
 29  16  36  1   
 30  16  37  1   
 31  17  18  1   
 32  17  38  1   
 33  17  39  1   
 34  18  19  am  
 35  19  20  2   
 36  19  21  1   
 37  21  22  1   
 38  21  23  1   
 39  21  40  1   
 40  22  24  1   
 41  23  25  1   
 42  23  41  1   
 43  23  42  1   
 44  24  25  1   
 45  24  43  1   
 46  24  44  1   
 47  25  45  1   
 48  25  46  1   
@<TRIPOS>SUBSTRUCTURE
  1 ****  15 GROUP 4 **** **** 0

# MOE 2024.06 (io_trps.svl 2023.06)
