@<TRIPOS>MOLECULE
NONAME
39 40 1 0 0 
SMALL
USER_CHARGES


@<TRIPOS>ATOM
  1 BR      -0.2940    -0.9670     0.1560 Br    1 <1>  -0.1110 
  2 C       -1.6950     0.3450     0.0950 C.ar  1 <1>   0.1110 
  3 C       -1.3650     1.6680    -0.1180 C.ar  1 <1>  -0.1500 
  4 C       -3.0030    -0.0600     0.2650 C.ar  1 <1>  -0.1500 
  5 C       -2.3820     2.6040    -0.1600 C.ar  1 <1>  -0.1500 
  6 C       -4.0060     0.8910     0.2210 C.ar  1 <1>  -0.1500 
  7 C       -3.7280     2.2500     0.0050 C.ar  1 <1>   0.0860 
  8 C       -4.7510     3.2780    -0.0440 C.2   1 <1>   0.4230 
  9 O       -4.4920     4.4550    -0.0860 O.2   1 <1>  -0.5700 
 10 C       -6.2290     2.9210    -0.0110 C.3   1 <1>   0.1310 
 11 S       -6.6960     1.9310    -1.5070 S.3   1 <1>  -0.3710 
 12 C       -7.8960     0.7770    -0.9110 C.2   1 <1>   0.5810 
 13 S       -7.5150    -0.7590    -1.1870 S.2   1 <1>  -0.3800 
 14 N       -8.9970     1.2150    -0.2640 N.am  1 <1>  -0.6600 
 15 C      -10.0320     0.2840     0.2880 C.3   1 <1>   0.1400 
 16 C       -9.4470     2.6480    -0.2550 C.3   1 <1>   0.1400 
 17 C      -11.4040     0.4920    -0.4000 C.3   1 <1>   0.2000 
 18 C      -10.9710     2.8040    -0.0380 C.3   1 <1>   0.2000 
 19 O      -11.6570     1.8260    -0.7550 O.3   1 <1>  -0.5600 
 20 C      -12.5670     0.0230     0.4750 C.3   1 <1>  -0.2400 
 21 C      -11.4880     4.1580    -0.5160 C.3   1 <1>  -0.2400 
 22 H       -0.3370     1.9560    -0.2470 H     1 <1>   0.1500 
 23 H       -3.2280    -1.1000     0.4260 H     1 <1>   0.1500 
 24 H       -2.1320     3.6390    -0.3270 H     1 <1>   0.1500 
 25 H       -5.0180     0.5530     0.3550 H     1 <1>   0.1500 
 26 H       -6.8230     3.8160    -0.0280 H     1 <1>   0.0800 
 27 H       -6.4660     2.3390     0.8600 H     1 <1>   0.0800 
 28 H      -10.1310     0.4710     1.3430 H     1 <1>   0.0800 
 29 H       -9.7420    -0.7450     0.1810 H     1 <1>   0.0800 
 30 H       -9.1900     3.1040    -1.1950 H     1 <1>   0.0800 
 31 H       -8.9400     3.1810     0.5280 H     1 <1>   0.0800 
 32 H      -11.4130    -0.0710    -1.3180 H     1 <1>   0.0800 
 33 H      -11.2100     2.6820     1.0050 H     1 <1>   0.0800 
 34 H      -12.6050     0.5850     1.3900 H     1 <1>   0.0800 
 35 H      -12.4520    -1.0180     0.7130 H     1 <1>   0.0800 
 36 H      -13.4930     0.1490    -0.0570 H     1 <1>   0.0800 
 37 H      -11.3000     4.2780    -1.5680 H     1 <1>   0.0800 
 38 H      -10.9990     4.9520     0.0170 H     1 <1>   0.0800 
 39 H      -12.5460     4.2260    -0.3370 H     1 <1>   0.0800 
@<TRIPOS>BOND
  1   1   2  1   
  2   2   3  ar  
  3   2   4  ar  
  4   3   5  ar  
  5   3  22  1   
  6   4   6  ar  
  7   4  23  1   
  8   5   7  ar  
  9   5  24  1   
 10   6   7  ar  
 11   6  25  1   
 12   7   8  1   
 13   8   9  2   
 14   8  10  1   
 15  10  11  1   
 16  10  26  1   
 17  10  27  1   
 18  11  12  1   
 19  12  13  2   
 20  12  14  am  
 21  14  15  1   
 22  14  16  1   
 23  15  17  1   
 24  15  28  1   
 25  15  29  1   
 26  16  18  1   
 27  16  30  1   
 28  16  31  1   
 29  17  19  1   
 30  17  20  1   
 31  17  32  1   
 32  18  19  1   
 33  18  21  1   
 34  18  33  1   
 35  20  34  1   
 36  20  35  1   
 37  20  36  1   
 38  21  37  1   
 39  21  38  1   
 40  21  39  1   
@<TRIPOS>SUBSTRUCTURE
  1 ****  11 GROUP 4 **** **** 0

# MOE 2024.06 (io_trps.svl 2023.06)
