@<TRIPOS>MOLECULE
NONAME
42 43 1 0 0 
SMALL
USER_CHARGES


@<TRIPOS>ATOM
  1 BR      -0.3370    -1.2440     2.0450 Br    1 <1>  -0.1110 
  2 C       -2.1210    -1.2930     1.3220 C.ar  1 <1>   0.1110 
  3 C       -2.5560    -0.2340     0.5530 C.ar  1 <1>  -0.1500 
  4 C       -2.9180    -2.3860     1.5920 C.ar  1 <1>  -0.1500 
  5 C       -3.8410    -0.2520     0.0230 C.ar  1 <1>  -0.1440 
  6 C       -4.1980    -2.4120     1.0690 C.ar  1 <1>  -0.1500 
  7 C       -4.6660    -1.3520     0.2880 C.ar  1 <1>   0.0830 
  8 C       -4.3080     0.9340    -0.8320 C.3   1 <1>   0.0640 
  9 O       -5.9210    -1.3480    -0.2380 O.3   1 <1>  -0.3620 
 10 C       -3.4330     1.0870    -2.0810 C.3   1 <1>  -0.2400 
 11 C       -4.3110     2.2300    -0.0140 C.3   1 <1>  -0.2400 
 12 C       -6.8550    -2.3620     0.0370 C.3   1 <1>   0.1200 
 13 C       -8.1490    -1.9880    -0.6920 C.3   1 <1>   0.3430 
 14 N       -9.2440    -2.9980    -0.5040 N.4   1 <1>  -0.9590 
 15 C      -10.3930    -2.6940    -1.4300 C.3   1 <1>   0.3430 
 16 C       -9.7370    -3.0580     0.9200 C.3   1 <1>   0.3430 
 17 C      -11.5860    -3.6390    -1.1860 C.3   1 <1>   0.1200 
 18 C      -10.9590    -3.9860     1.0600 C.3   1 <1>   0.1200 
 19 O      -11.9590    -3.6060     0.1600 O.3   1 <1>  -0.5600 
 20 H       -1.8900     0.5900     0.3760 H     1 <1>   0.1500 
 21 H       -2.5400    -3.1920     2.1960 H     1 <1>   0.1500 
 22 H       -4.8040    -3.2690     1.2860 H     1 <1>   0.1500 
 23 H       -5.3150     0.7730    -1.1710 H     1 <1>   0.0800 
 24 H       -2.4200     1.3280    -1.8180 H     1 <1>   0.0800 
 25 H       -3.8170     1.8690    -2.7110 H     1 <1>   0.0800 
 26 H       -3.4320     0.1680    -2.6400 H     1 <1>   0.0800 
 27 H       -3.3160     2.4950     0.2950 H     1 <1>   0.0800 
 28 H       -4.9210     2.1070     0.8640 H     1 <1>   0.0800 
 29 H       -4.7130     3.0380    -0.5980 H     1 <1>   0.0800 
 30 H       -6.9990    -2.3970     1.1020 H     1 <1>   0.0800 
 31 H       -6.4570    -3.2900    -0.3360 H     1 <1>   0.0800 
 32 H       -7.9240    -1.8980    -1.7420 H     1 <1>   0.0800 
 33 H       -8.4820    -1.0260    -0.3360 H     1 <1>   0.0800 
 34 H       -8.8900    -3.9300    -0.7600 H     1 <1>   0.4500 
 35 H      -10.0750    -2.7820    -2.4560 H     1 <1>   0.0800 
 36 H      -10.7300    -1.6820    -1.2740 H     1 <1>   0.0800 
 37 H      -10.0250    -2.0720     1.2480 H     1 <1>   0.0800 
 38 H       -8.9530    -3.4070     1.5720 H     1 <1>   0.0800 
 39 H      -11.3460    -4.6520    -1.4570 H     1 <1>   0.0800 
 40 H      -12.4350    -3.3220    -1.7670 H     1 <1>   0.0800 
 41 H      -11.3700    -3.9110     2.0530 H     1 <1>   0.0800 
 42 H      -10.6960    -5.0130     0.8750 H     1 <1>   0.0800 
@<TRIPOS>BOND
  1   1   2  1   
  2   2   3  ar  
  3   2   4  ar  
  4   3   5  ar  
  5   3  20  1   
  6   4   6  ar  
  7   4  21  1   
  8   5   7  ar  
  9   5   8  1   
 10   6   7  ar  
 11   6  22  1   
 12   7   9  1   
 13   8  10  1   
 14   8  11  1   
 15   8  23  1   
 16   9  12  1   
 17  10  24  1   
 18  10  25  1   
 19  10  26  1   
 20  11  27  1   
 21  11  28  1   
 22  11  29  1   
 23  12  13  1   
 24  12  30  1   
 25  12  31  1   
 26  13  14  1   
 27  13  32  1   
 28  13  33  1   
 29  14  15  1   
 30  14  16  1   
 31  14  34  1   
 32  15  17  1   
 33  15  35  1   
 34  15  36  1   
 35  16  18  1   
 36  16  37  1   
 37  16  38  1   
 38  17  19  1   
 39  17  39  1   
 40  17  40  1   
 41  18  19  1   
 42  18  41  1   
 43  18  42  1   
@<TRIPOS>SUBSTRUCTURE
  1 ****   9 GROUP 4 **** **** 0

# MOE 2024.06 (io_trps.svl 2023.06)
