@<TRIPOS>MOLECULE
NONAME
45 46 1 0 0 
SMALL
USER_CHARGES


@<TRIPOS>ATOM
  1 S       -6.7120    -0.1660     0.5440 S.3   1 <1>  -0.3320 
  2 C       -8.4840    -0.2980     0.2340 C.ar  1 <1>   0.1020 
  3 C       -5.9630    -1.7740     0.0420 C.3   1 <1>   0.0700 
  4 C       -9.2570     0.8090     0.5410 C.ar  1 <1>  -0.1500 
  5 C       -9.0590    -1.4480    -0.2870 C.ar  1 <1>  -0.1500 
  6 C       -4.4570    -1.6790     0.2970 C.3   1 <1>  -0.1600 
  7 C      -10.6230     0.7700     0.3250 C.ar  1 <1>  -0.1500 
  8 C      -10.4270    -1.4860    -0.5030 C.ar  1 <1>  -0.1500 
  9 C       -3.7350    -2.9750    -0.0960 C.3   1 <1>  -0.1600 
 10 C      -11.2020    -0.3760    -0.1950 C.ar  1 <1>   0.0830 
 11 C       -2.2270    -2.8610     0.1660 C.3   1 <1>  -0.1600 
 12 O      -12.5270    -0.4020    -0.4000 O.3   1 <1>  -0.5320 
 13 C       -1.5040    -4.1520    -0.2250 C.3   1 <1>   0.3430 
 14 N       -0.0630    -4.0750     0.1380 N.4   1 <1>  -0.9590 
 15 C        0.6960    -3.1320    -0.7400 C.3   1 <1>   0.3430 
 16 C        0.5490    -5.4360     0.1290 C.3   1 <1>   0.3430 
 17 C        2.1370    -3.0080    -0.2410 C.3   1 <1>  -0.1600 
 18 C        1.9860    -5.3610     0.6490 C.3   1 <1>  -0.1600 
 19 C        2.8330    -4.3730    -0.1630 C.3   1 <1>  -0.1600 
 20 H       -6.1820    -1.9180    -1.0010 H     1 <1>   0.0800 
 21 H       -6.4210    -2.5420     0.6400 H     1 <1>   0.0800 
 22 H       -8.7910     1.6900     0.9430 H     1 <1>   0.1500 
 23 H       -8.4670    -2.3090    -0.5270 H     1 <1>   0.1500 
 24 H       -4.2970    -1.4730     1.3420 H     1 <1>   0.0800 
 25 H       -4.0630    -0.8540    -0.2720 H     1 <1>   0.0800 
 26 H      -11.2420     1.6180     0.5560 H     1 <1>   0.1500 
 27 H      -10.8810    -2.3720    -0.9060 H     1 <1>   0.1500 
 28 H       -3.9100    -3.1730    -1.1410 H     1 <1>   0.0800 
 29 H       -4.1450    -3.7930     0.4740 H     1 <1>   0.0800 
 30 H       -2.0720    -2.6640     1.2130 H     1 <1>   0.0800 
 31 H       -1.8440    -2.0330    -0.4030 H     1 <1>   0.0800 
 32 H      -12.8410    -1.2470    -0.7670 H     1 <1>   0.4500 
 33 H       -1.6120    -4.3290    -1.2830 H     1 <1>   0.0800 
 34 H       -1.9640    -4.9740     0.3010 H     1 <1>   0.0800 
 35 H        0.0070    -3.7200     1.1010 H     1 <1>   0.4500 
 36 H        0.2350    -2.1580    -0.7310 H     1 <1>   0.0800 
 37 H        0.6970    -3.4980    -1.7540 H     1 <1>   0.0800 
 38 H        0.5510    -5.8280    -0.8750 H     1 <1>   0.0800 
 39 H       -0.0220    -6.1040     0.7540 H     1 <1>   0.0800 
 40 H        2.1410    -2.5380     0.7280 H     1 <1>   0.0800 
 41 H        2.6860    -2.3670    -0.9090 H     1 <1>   0.0800 
 42 H        2.4320    -6.3390     0.5930 H     1 <1>   0.0800 
 43 H        1.9770    -5.0720     1.6860 H     1 <1>   0.0800 
 44 H        3.8050    -4.2640     0.2900 H     1 <1>   0.0800 
 45 H        2.9780    -4.7580    -1.1590 H     1 <1>   0.0800 
@<TRIPOS>BOND
  1   1   2  1   
  2   1   3  1   
  3   2   4  ar  
  4   2   5  ar  
  5   3   6  1   
  6   3  20  1   
  7   3  21  1   
  8   4   7  ar  
  9   4  22  1   
 10   5   8  ar  
 11   5  23  1   
 12   6   9  1   
 13   6  24  1   
 14   6  25  1   
 15   7  10  ar  
 16   7  26  1   
 17   8  10  ar  
 18   8  27  1   
 19   9  11  1   
 20   9  28  1   
 21   9  29  1   
 22  10  12  1   
 23  11  13  1   
 24  11  30  1   
 25  11  31  1   
 26  12  32  1   
 27  13  14  1   
 28  13  33  1   
 29  13  34  1   
 30  14  15  1   
 31  14  16  1   
 32  14  35  1   
 33  15  17  1   
 34  15  36  1   
 35  15  37  1   
 36  16  18  1   
 37  16  38  1   
 38  16  39  1   
 39  17  19  1   
 40  17  40  1   
 41  17  41  1   
 42  18  19  1   
 43  18  42  1   
 44  18  43  1   
 45  19  44  1   
 46  19  45  1   
@<TRIPOS>SUBSTRUCTURE
  1 ****   6 GROUP 4 **** **** 0

# MOE 2024.06 (io_trps.svl 2023.06)
