@<TRIPOS>MOLECULE
NONAME
47 49 1 0 0 
SMALL
USER_CHARGES


@<TRIPOS>ATOM
  1 S        0.0690    -0.4650     1.0690 S.3   1 <1>  -0.2860 
  2 C        1.4830    -1.2450     0.2870 C.2   1 <1>   0.2420 
  3 C       -1.3140    -0.7000    -0.1520 C.3   1 <1>   0.1310 
  4 N        1.5390    -1.6610    -0.9290 N.2   1 <1>  -0.3380 
  5 N        2.6060    -1.4380     0.9580 N.pl3 1 <1>   0.0330 
  6 C       -2.5720    -1.2160     0.5420 C.2   1 <1>   0.5690 
  7 N        2.7730    -2.1600    -1.0840 N.2   1 <1>  -0.3380 
  8 C        3.3890    -2.0170     0.0430 C.2   1 <1>   0.0060 
  9 O       -3.1080    -0.4950     1.3510 O.2   1 <1>  -0.5700 
 10 N       -3.0780    -2.4530     0.1950 N.am  1 <1>  -0.4770 
 11 C        4.8170    -2.4440     0.3090 C.3   1 <1>  -0.0600 
 12 C       -2.2300    -3.5730    -0.0160 C.ar  1 <1>   0.1170 
 13 C       -4.5530    -2.6220    -0.0450 C.3   1 <1>   0.4380 
 14 C       -2.5460    -4.5530    -0.9710 C.ar  1 <1>   0.0280 
 15 C       -1.0580    -3.7080     0.7210 C.ar  1 <1>  -0.1500 
 16 C       -4.7800    -3.6490    -1.1490 C.2   1 <1>  -0.2880 
 17 C       -5.2320    -1.3280    -0.5270 C.3   1 <1>  -0.2400 
 18 C       -5.2060    -3.1200     1.2420 C.3   1 <1>  -0.2400 
 19 C       -3.8510    -4.5090    -1.5890 C.2   1 <1>  -0.1670 
 20 C       -1.6060    -5.5490    -1.2420 C.ar  1 <1>  -0.1500 
 21 C       -0.1360    -4.6980     0.4480 C.ar  1 <1>   0.0830 
 22 C       -4.1740    -5.4700    -2.7250 C.3   1 <1>  -0.1020 
 23 C       -0.4110    -5.6200    -0.5540 C.ar  1 <1>  -0.1500 
 24 O        1.0060    -4.7060     1.1760 O.3   1 <1>  -0.3620 
 25 C        2.1740    -5.2820     0.6370 C.3   1 <1>   0.0400 
 26 H       -0.9830    -1.3840    -0.9100 H     1 <1>   0.0800 
 27 H       -1.5030     0.2590    -0.5930 H     1 <1>   0.0800 
 28 H        2.7890    -1.1960     1.9310 H     1 <1>   0.2700 
 29 H        5.4210    -1.5850     0.5390 H     1 <1>   0.0800 
 30 H        5.2220    -2.9240    -0.5640 H     1 <1>   0.0800 
 31 H        4.8520    -3.1350     1.1320 H     1 <1>   0.0800 
 32 H       -0.8410    -3.0310     1.5230 H     1 <1>   0.1500 
 33 H       -5.7760    -3.6230    -1.5530 H     1 <1>   0.1500 
 34 H       -5.2710    -0.5870     0.2480 H     1 <1>   0.0800 
 35 H       -6.2490    -1.5270    -0.8120 H     1 <1>   0.0800 
 36 H       -4.7150    -0.9330    -1.3820 H     1 <1>   0.0800 
 37 H       -4.7670    -4.0560     1.5370 H     1 <1>   0.0800 
 38 H       -6.2590    -3.2690     1.0930 H     1 <1>   0.0800 
 39 H       -5.0680    -2.4020     2.0300 H     1 <1>   0.0800 
 40 H       -1.8040    -6.2900    -1.9920 H     1 <1>   0.1500 
 41 H       -3.4680    -5.3440    -3.5270 H     1 <1>   0.0800 
 42 H       -5.1600    -5.2880    -3.1130 H     1 <1>   0.0800 
 43 H       -4.1340    -6.4860    -2.3740 H     1 <1>   0.0800 
 44 H        0.2860    -6.4000    -0.7950 H     1 <1>   0.1500 
 45 H        2.9990    -5.0260     1.2760 H     1 <1>   0.0800 
 46 H        2.3370    -4.8810    -0.3490 H     1 <1>   0.0800 
 47 H        2.0570    -6.3500     0.6040 H     1 <1>   0.0800 
@<TRIPOS>BOND
  1   1   2  1   
  2   1   3  1   
  3   2   4  2   
  4   2   5  1   
  5   3   6  1   
  6   3  26  1   
  7   3  27  1   
  8   4   7  1   
  9   5   8  1   
 10   5  28  1   
 11   6   9  2   
 12   6  10  am  
 13   7   8  2   
 14   8  11  1   
 15  10  12  1   
 16  10  13  1   
 17  11  29  1   
 18  11  30  1   
 19  11  31  1   
 20  12  14  ar  
 21  12  15  ar  
 22  13  16  1   
 23  13  17  1   
 24  13  18  1   
 25  14  19  1   
 26  14  20  ar  
 27  15  21  ar  
 28  15  32  1   
 29  16  19  2   
 30  16  33  1   
 31  17  34  1   
 32  17  35  1   
 33  17  36  1   
 34  18  37  1   
 35  18  38  1   
 36  18  39  1   
 37  19  22  1   
 38  20  23  ar  
 39  20  40  1   
 40  21  23  ar  
 41  21  24  1   
 42  22  41  1   
 43  22  42  1   
 44  22  43  1   
 45  23  44  1   
 46  24  25  1   
 47  25  45  1   
 48  25  46  1   
 49  25  47  1   
@<TRIPOS>SUBSTRUCTURE
  1 ****  15 GROUP 4 **** **** 0

# MOE 2024.06 (io_trps.svl 2023.06)
