@<TRIPOS>MOLECULE
NONAME
30 30 1 0 0 
SMALL
USER_CHARGES


@<TRIPOS>ATOM
  1 CL      -0.7690     2.2280    -1.5920 Cl    1 <1>  -0.1770 
  2 C       -1.9870     1.9840    -0.3620 C.ar  1 <1>   0.1770 
  3 C       -1.8850     2.6040     0.8720 C.ar  1 <1>   0.1770 
  4 C       -3.0610     1.1600    -0.6460 C.ar  1 <1>  -0.1500 
  5 CL      -0.5340     3.6500     1.2410 Cl    1 <1>  -0.1770 
  6 C       -2.8560     2.4040     1.8360 C.ar  1 <1>  -0.1500 
  7 C       -4.0450     0.9560     0.3150 C.ar  1 <1>  -0.1440 
  8 C       -3.9340     1.5790     1.5530 C.ar  1 <1>  -0.1500 
  9 C       -5.2400     0.0550     0.0260 C.3   1 <1>   0.3390 
 10 N       -6.4840     0.8290     0.0660 N.am  1 <1>  -0.8490 
 11 S       -7.7930    -0.2450     0.0720 S.o2  1 <1>   1.3330 
 12 C       -6.5420     1.7950    -1.0700 C.3   1 <1>   0.2570 
 13 O       -7.5880    -1.1330     1.1920 O.2   1 <1>  -0.6500 
 14 O       -7.8770    -0.7960    -1.2590 O.2   1 <1>  -0.6500 
 15 C       -9.2480     0.7230     0.4230 C.3   1 <1>  -0.1350 
 16 C       -7.4470     3.0020    -0.8010 C.2   1 <1>   0.5690 
 17 O       -8.2580     3.3430    -1.6220 O.2   1 <1>  -0.5700 
 18 N       -7.3460     3.6670     0.3670 N.am  1 <1>  -0.8000 
 19 H       -3.1170     0.6870    -1.6110 H     1 <1>   0.1500 
 20 H       -2.7660     2.8860     2.7930 H     1 <1>   0.1500 
 21 H       -4.6930     1.4170     2.3000 H     1 <1>   0.1500 
 22 H       -5.2550    -0.7130     0.7810 H     1 <1>   0.0800 
 23 H       -5.1360    -0.4300    -0.9320 H     1 <1>   0.0800 
 24 H       -6.8660     1.3060    -1.9730 H     1 <1>   0.0800 
 25 H       -5.5680     2.2010    -1.2660 H     1 <1>   0.0800 
 26 H      -10.0820     0.0710     0.5920 H     1 <1>   0.0800 
 27 H       -9.4900     1.3630    -0.4020 H     1 <1>   0.0800 
 28 H       -9.0960     1.3180     1.3010 H     1 <1>   0.0800 
 29 H       -7.9310     4.4840     0.5480 H     1 <1>   0.3700 
 30 H       -6.7020     3.3780     1.1060 H     1 <1>   0.3700 
@<TRIPOS>BOND
  1   1   2  1   
  2   2   3  ar  
  3   2   4  ar  
  4   3   5  1   
  5   3   6  ar  
  6   4   7  ar  
  7   4  19  1   
  8   6   8  ar  
  9   6  20  1   
 10   7   8  ar  
 11   7   9  1   
 12   8  21  1   
 13   9  10  1   
 14   9  22  1   
 15   9  23  1   
 16  10  11  am  
 17  10  12  1   
 18  11  13  2   
 19  11  14  2   
 20  11  15  1   
 21  12  16  1   
 22  12  24  1   
 23  12  25  1   
 24  15  26  1   
 25  15  27  1   
 26  15  28  1   
 27  16  17  2   
 28  16  18  am  
 29  18  29  1   
 30  18  30  1   
@<TRIPOS>SUBSTRUCTURE
  1 ****   7 GROUP 4 **** **** 0

# MOE 2024.06 (io_trps.svl 2023.06)
