@<TRIPOS>MOLECULE
NONAME
50 52 1 0 0 
SMALL
USER_CHARGES


@<TRIPOS>ATOM
  1 F       -0.6700    -2.1300    -0.0680 F     1 <1>  -0.3400 
  2 C        0.3440    -2.4690    -0.8560 C.3   1 <1>   1.1640 
  3 F        0.0800    -1.9480    -2.0470 F     1 <1>  -0.3400 
  4 F        0.2740    -3.7870    -1.0030 F     1 <1>  -0.3400 
  5 C        1.7030    -1.9990    -0.3140 C.ar  1 <1>  -0.1440 
  6 C        2.8530    -2.7610    -0.4950 C.ar  1 <1>  -0.1500 
  7 C        1.8080    -0.7890     0.3650 C.ar  1 <1>  -0.1500 
  8 C        4.0890    -2.3480    -0.0110 C.ar  1 <1>   0.1170 
  9 C        3.0310    -0.3610     0.8510 C.ar  1 <1>  -0.1500 
 10 N        5.2100    -3.1580    -0.2390 N.am  1 <1>  -0.5470 
 11 C        4.1600    -1.1340     0.6630 C.ar  1 <1>  -0.1500 
 12 C        6.3840    -3.2600     0.4460 C.2   1 <1>   0.6900 
 13 O        6.5770    -2.6890     1.5010 O.2   1 <1>  -0.5700 
 14 N        7.3640    -4.0340    -0.0840 N.am  1 <1>  -0.7300 
 15 C        8.6570    -4.2500     0.5790 C.3   1 <1>   0.2200 
 16 C        9.6380    -3.1670     0.1410 C.3   1 <1>  -0.1600 
 17 C        9.1920    -5.6380     0.2380 C.3   1 <1>  -0.1600 
 18 C       11.0010    -3.3970     0.7850 C.3   1 <1>   0.3430 
 19 C       10.5620    -5.8450     0.8810 C.3   1 <1>   0.3430 
 20 N       11.4970    -4.7670     0.4480 N.4   1 <1>  -0.9590 
 21 C       12.8690    -4.9900     0.9840 C.3   1 <1>   0.4860 
 22 C       13.8160    -4.0380     0.2820 C.ar  1 <1>  -0.1430 
 23 C       14.2980    -2.9180     0.9440 C.ar  1 <1>  -0.1500 
 24 C       14.2020    -4.2760    -1.0300 C.ar  1 <1>  -0.1500 
 25 C       15.1460    -2.0370     0.2950 C.ar  1 <1>  -0.1500 
 26 C       15.0490    -3.3940    -1.6760 C.ar  1 <1>  -0.1500 
 27 C       15.5190    -2.2740    -1.0150 C.ar  1 <1>  -0.1500 
 28 H        2.7940    -3.6980    -1.0200 H     1 <1>   0.1500 
 29 H        0.9390    -0.1700     0.5220 H     1 <1>   0.1500 
 30 H        3.1050     0.5750     1.3770 H     1 <1>   0.1500 
 31 H        5.0870    -3.8650    -0.9550 H     1 <1>   0.3700 
 32 H        5.1030    -0.7840     1.0440 H     1 <1>   0.1500 
 33 H        7.2850    -4.3240    -1.0570 H     1 <1>   0.3700 
 34 H        8.5150    -4.1850     1.6480 H     1 <1>   0.0800 
 35 H        9.2670    -2.2060     0.4550 H     1 <1>   0.0800 
 36 H        9.7410    -3.1540    -0.9300 H     1 <1>   0.0800 
 37 H        9.2720    -5.7630    -0.8270 H     1 <1>   0.0800 
 38 H        8.5140    -6.3820     0.6170 H     1 <1>   0.0800 
 39 H       10.9140    -3.2900     1.8550 H     1 <1>   0.0800 
 40 H       11.6930    -2.6510     0.4260 H     1 <1>   0.0800 
 41 H       10.9500    -6.8110     0.5960 H     1 <1>   0.0800 
 42 H       10.4570    -5.8270     1.9550 H     1 <1>   0.0800 
 43 H       11.5910    -4.8000    -0.5760 H     1 <1>   0.4500 
 44 H       13.1840    -6.0040     0.7950 H     1 <1>   0.0800 
 45 H       12.8900    -4.8180     2.0480 H     1 <1>   0.0800 
 46 H       14.0270    -2.7140     1.9660 H     1 <1>   0.1500 
 47 H       13.8580    -5.1450    -1.5650 H     1 <1>   0.1500 
 48 H       15.5200    -1.1660     0.8080 H     1 <1>   0.1500 
 49 H       15.3500    -3.5770    -2.6950 H     1 <1>   0.1500 
 50 H       16.1800    -1.5880    -1.5190 H     1 <1>   0.1500 
@<TRIPOS>BOND
  1   1   2  1   
  2   2   3  1   
  3   2   4  1   
  4   2   5  1   
  5   5   6  ar  
  6   5   7  ar  
  7   6   8  ar  
  8   6  28  1   
  9   7   9  ar  
 10   7  29  1   
 11   8  10  1   
 12   8  11  ar  
 13   9  11  ar  
 14   9  30  1   
 15  10  12  am  
 16  10  31  1   
 17  11  32  1   
 18  12  13  2   
 19  12  14  am  
 20  14  15  1   
 21  14  33  1   
 22  15  16  1   
 23  15  17  1   
 24  15  34  1   
 25  16  18  1   
 26  16  35  1   
 27  16  36  1   
 28  17  19  1   
 29  17  37  1   
 30  17  38  1   
 31  18  20  1   
 32  18  39  1   
 33  18  40  1   
 34  19  20  1   
 35  19  41  1   
 36  19  42  1   
 37  20  21  1   
 38  20  43  1   
 39  21  22  1   
 40  21  44  1   
 41  21  45  1   
 42  22  23  ar  
 43  22  24  ar  
 44  23  25  ar  
 45  23  46  1   
 46  24  26  ar  
 47  24  47  1   
 48  25  27  ar  
 49  25  48  1   
 50  26  27  ar  
 51  26  49  1   
 52  27  50  1   
@<TRIPOS>SUBSTRUCTURE
  1 ****  14 GROUP 4 **** **** 0

# MOE 2024.06 (io_trps.svl 2023.06)
