@<TRIPOS>MOLECULE
NONAME
27 27 1 0 0 
SMALL
USER_CHARGES


@<TRIPOS>ATOM
  1 S       -0.2500    -0.2110     0.4810 S.3   1 <1>  -0.3710 
  2 C       -1.6010     0.8460     0.0360 C.2   1 <1>   0.6410 
  3 C        1.2510     0.8000     0.0910 C.3   1 <1>   0.0700 
  4 N       -1.3690     2.0170    -0.4290 N.2   1 <1>  -0.6610 
  5 N       -2.8250     0.2930     0.2370 N.pl3 1 <1>  -0.5500 
  6 C        2.5180    -0.0060     0.4190 C.3   1 <1>  -0.0800 
  7 C       -2.4720     2.7570    -0.7430 C.2   1 <1>   0.7670 
  8 C       -3.9590     0.9920    -0.0620 C.2   1 <1>  -0.0380 
  9 C        3.7500     0.9020     0.3280 C.3   1 <1>  -0.2400 
 10 C        2.6930    -1.2030    -0.5270 C.3   1 <1>  -0.2400 
 11 O       -2.3100     3.8810    -1.1900 O.2   1 <1>  -0.5700 
 12 C       -3.7850     2.2380    -0.5580 C.2   1 <1>  -0.1360 
 13 C       -5.2980     0.3260     0.1820 C.3   1 <1>  -0.1020 
 14 H        1.1870     1.6900     0.6920 H     1 <1>   0.0800 
 15 H        1.2040     1.0630    -0.9510 H     1 <1>   0.0800 
 16 H       -2.8420    -0.6560     0.6160 H     1 <1>   0.4000 
 17 H        2.4390    -0.3670     1.4310 H     1 <1>   0.0800 
 18 H        3.8640     1.2900    -0.6690 H     1 <1>   0.0800 
 19 H        4.6390     0.3540     0.5870 H     1 <1>   0.0800 
 20 H        3.6560     1.7300     1.0090 H     1 <1>   0.0800 
 21 H        2.7500    -0.8740    -1.5490 H     1 <1>   0.0800 
 22 H        1.8670    -1.8850    -0.4330 H     1 <1>   0.0800 
 23 H        3.5940    -1.7390    -0.2870 H     1 <1>   0.0800 
 24 H       -4.5970     2.8830    -0.8290 H     1 <1>   0.1500 
 25 H       -5.3760    -0.5720    -0.4040 H     1 <1>   0.0800 
 26 H       -6.1020     0.9850    -0.0950 H     1 <1>   0.0800 
 27 H       -5.4020     0.0770     1.2220 H     1 <1>   0.0800 
@<TRIPOS>BOND
  1   1   2  1   
  2   1   3  1   
  3   2   4  2   
  4   2   5  1   
  5   3   6  1   
  6   3  14  1   
  7   3  15  1   
  8   4   7  1   
  9   5   8  1   
 10   5  16  1   
 11   6   9  1   
 12   6  10  1   
 13   6  17  1   
 14   7  11  2   
 15   7  12  1   
 16   8  12  2   
 17   8  13  1   
 18   9  18  1   
 19   9  19  1   
 20   9  20  1   
 21  10  21  1   
 22  10  22  1   
 23  10  23  1   
 24  12  24  1   
 25  13  25  1   
 26  13  26  1   
 27  13  27  1   
@<TRIPOS>SUBSTRUCTURE
  1 ****   2 GROUP 4 **** **** 0

# MOE 2024.06 (io_trps.svl 2023.06)
