@<TRIPOS>MOLECULE
NONAME
49 52 1 0 0 
SMALL
USER_CHARGES


@<TRIPOS>ATOM
  1 S        0.8430    -0.0210    -0.4940 S.3   1 <1>  -0.0800 
  2 C        1.0360     1.4950     0.3800 C.2   1 <1>   0.1040 
  3 C       -0.8900    -0.0010    -0.2430 C.2   1 <1>  -0.1400 
  4 N        2.3520     1.9350     0.4870 N.am  1 <1>  -0.4940 
  5 C       -0.1750     1.9680     0.7920 C.2   1 <1>   0.0190 
  6 C       -1.2630     1.0960     0.4310 C.2   1 <1>  -0.1810 
  7 C       -1.7580    -1.1250    -0.7620 C.3   1 <1>   0.0200 
  8 C        2.9700     2.7290     1.4080 C.2   1 <1>   0.5690 
  9 C       -0.4280     3.2030     1.4730 C.1   1 <1>   0.5380 
 10 C       -2.7280     1.3520     0.7670 C.3   1 <1>   0.0210 
 11 C       -3.1540    -1.0170    -0.1210 C.3   1 <1>  -0.1600 
 12 O        2.4160     3.1900     2.3740 O.2   1 <1>  -0.5700 
 13 C        4.4580     2.9970     1.1840 C.3   1 <1>   0.1710 
 14 N       -0.7290     4.1850     1.9710 N.1   1 <1>  -0.5570 
 15 C       -3.6540     0.4410    -0.0660 C.3   1 <1>  -0.1600 
 16 N        5.1260     1.9450     0.3610 N.3   1 <1>  -0.8100 
 17 C        6.4230     2.4330    -0.1630 C.3   1 <1>   0.1100 
 18 C        5.3600     0.7150     1.1610 C.3   1 <1>   0.1100 
 19 C        7.1380     1.3790    -1.0290 C.3   1 <1>   0.2090 
 20 C        6.0400    -0.3980     0.3420 C.3   1 <1>   0.2090 
 21 N        7.3080     0.0930    -0.2820 N.pl3 1 <1>  -0.8380 
 22 C        8.4720    -0.6490    -0.3120 C.ar  1 <1>   0.7200 
 23 N        9.5180    -0.1190    -0.9470 N.ar  1 <1>  -0.6200 
 24 N        8.4550    -1.8350     0.2970 N.ar  1 <1>  -0.6200 
 25 C       10.6150    -0.8350    -0.9690 C.ar  1 <1>   0.1600 
 26 C        9.5650    -2.5300     0.2590 C.ar  1 <1>   0.1600 
 27 C       10.6940    -2.0680    -0.3710 C.ar  1 <1>  -0.1500 
 28 H        3.0350     1.5160    -0.1560 H     1 <1>   0.3700 
 29 H       -1.3170    -2.0770    -0.5230 H     1 <1>   0.0800 
 30 H       -1.8350    -1.0410    -1.8320 H     1 <1>   0.0800 
 31 H       -2.9820     2.3800     0.5720 H     1 <1>   0.0800 
 32 H       -2.8800     1.1620     1.8150 H     1 <1>   0.0800 
 33 H       -3.1050    -1.4030     0.8840 H     1 <1>   0.0800 
 34 H       -3.8490    -1.6250    -0.6730 H     1 <1>   0.0800 
 35 H        4.9470     3.0900     2.1380 H     1 <1>   0.0800 
 36 H        4.5330     3.9450     0.6810 H     1 <1>   0.0800 
 37 H       -3.7060     0.8260    -1.0700 H     1 <1>   0.0800 
 38 H       -4.6470     0.4710     0.3480 H     1 <1>   0.0800 
 39 H        7.0720     2.7010     0.6540 H     1 <1>   0.0800 
 40 H        6.2590     3.3110    -0.7620 H     1 <1>   0.0800 
 41 H        4.4240     0.3380     1.5350 H     1 <1>   0.0800 
 42 H        5.9860     0.9420     2.0070 H     1 <1>   0.0800 
 43 H        8.0860     1.7810    -1.3380 H     1 <1>   0.0800 
 44 H        6.5560     1.1940    -1.9150 H     1 <1>   0.0800 
 45 H        5.3720    -0.7280    -0.4340 H     1 <1>   0.0800 
 46 H        6.2230    -1.2330     0.9940 H     1 <1>   0.0800 
 47 H       11.4730    -0.4280    -1.4760 H     1 <1>   0.1500 
 48 H        9.5750    -3.4920     0.7430 H     1 <1>   0.1500 
 49 H       11.5980    -2.6460    -0.3950 H     1 <1>   0.1500 
@<TRIPOS>BOND
  1   1   2  1   
  2   1   3  1   
  3   2   4  1   
  4   2   5  2   
  5   3   6  2   
  6   3   7  1   
  7   4   8  am  
  8   4  28  1   
  9   5   6  1   
 10   5   9  1   
 11   6  10  1   
 12   7  11  1   
 13   7  29  1   
 14   7  30  1   
 15   8  12  2   
 16   8  13  1   
 17   9  14  3   
 18  10  15  1   
 19  10  31  1   
 20  10  32  1   
 21  11  15  1   
 22  11  33  1   
 23  11  34  1   
 24  13  16  1   
 25  13  35  1   
 26  13  36  1   
 27  15  37  1   
 28  15  38  1   
 29  16  17  1   
 30  16  18  1   
 31  17  19  1   
 32  17  39  1   
 33  17  40  1   
 34  18  20  1   
 35  18  41  1   
 36  18  42  1   
 37  19  21  1   
 38  19  43  1   
 39  19  44  1   
 40  20  21  1   
 41  20  45  1   
 42  20  46  1   
 43  21  22  1   
 44  22  23  ar  
 45  22  24  ar  
 46  23  25  ar  
 47  24  26  ar  
 48  25  27  ar  
 49  25  47  1   
 50  26  27  ar  
 51  26  48  1   
 52  27  49  1   
@<TRIPOS>SUBSTRUCTURE
  1 ****   4 GROUP 4 **** **** 0

# MOE 2024.06 (io_trps.svl 2023.06)
