@<TRIPOS>MOLECULE
NONAME
31 30 1 0 0 
SMALL
USER_CHARGES


@<TRIPOS>ATOM
  1 F       -0.1060    -0.0400    -0.0420 F     1 <1>  -0.3400 
  2 C        1.0690     0.3130     0.4600 C.3   1 <1>   1.0200 
  3 F        1.9430    -0.5460    -0.0490 F     1 <1>  -0.3400 
  4 F        1.0210     0.0390     1.7570 F     1 <1>  -0.3400 
  5 C        1.4740     1.7650     0.1620 C.3   1 <1>   0.2200 
  6 N        2.9000     2.1160     0.6040 N.am  1 <1>  -0.7300 
  7 C        0.3970     2.7040     0.7270 C.3   1 <1>   1.0200 
  8 C        3.8820     2.4810    -0.2420 C.2   1 <1>   0.7800 
  9 F        0.6730     3.9730     0.4570 F     1 <1>  -0.3400 
 10 F       -0.8190     2.4960     0.2430 F     1 <1>  -0.3400 
 11 F        0.2900     2.6420     2.0490 F     1 <1>  -0.3400 
 12 O        3.6900     2.5600    -1.4350 O.2   1 <1>  -0.5700 
 13 O        5.0550     2.7400     0.3230 O.3   1 <1>  -0.4300 
 14 C        6.2480     3.1340    -0.3270 C.3   1 <1>   0.2800 
 15 C        7.3080     3.3030     0.7840 C.3   1 <1>  -0.1600 
 16 C        6.6810     2.0550    -1.3310 C.3   1 <1>  -0.2400 
 17 C        6.0370     4.4890    -1.0160 C.3   1 <1>  -0.2400 
 18 C        7.5730     2.0540     1.6440 C.3   1 <1>  -0.2400 
 19 H        1.4230     1.8700    -0.9050 H     1 <1>   0.0800 
 20 H        3.1360     2.0700     1.5990 H     1 <1>   0.3700 
 21 H        6.9970     4.1030     1.4330 H     1 <1>   0.0800 
 22 H        8.2360     3.6090     0.3350 H     1 <1>   0.0800 
 23 H        7.6780     2.2560    -1.6780 H     1 <1>   0.0800 
 24 H        6.0370     2.0460    -2.1910 H     1 <1>   0.0800 
 25 H        6.6660     1.0820    -0.8760 H     1 <1>   0.0800 
 26 H        6.9700     4.8500    -1.4070 H     1 <1>   0.0800 
 27 H        5.6580     5.2110    -0.3160 H     1 <1>   0.0800 
 28 H        5.3530     4.4060    -1.8400 H     1 <1>   0.0800 
 29 H        6.6650     1.7120     2.1090 H     1 <1>   0.0800 
 30 H        8.2800     2.2900     2.4190 H     1 <1>   0.0800 
 31 H        7.9810     1.2560     1.0510 H     1 <1>   0.0800 
@<TRIPOS>BOND
  1   1   2  1   
  2   2   3  1   
  3   2   4  1   
  4   2   5  1   
  5   5   6  1   
  6   5   7  1   
  7   5  19  1   
  8   6   8  am  
  9   6  20  1   
 10   7   9  1   
 11   7  10  1   
 12   7  11  1   
 13   8  12  2   
 14   8  13  1   
 15  13  14  1   
 16  14  15  1   
 17  14  16  1   
 18  14  17  1   
 19  15  18  1   
 20  15  21  1   
 21  15  22  1   
 22  16  23  1   
 23  16  24  1   
 24  16  25  1   
 25  17  26  1   
 26  17  27  1   
 27  17  28  1   
 28  18  29  1   
 29  18  30  1   
 30  18  31  1   
@<TRIPOS>SUBSTRUCTURE
  1 ****   6 GROUP 4 **** **** 0

# MOE 2024.06 (io_trps.svl 2023.06)
