@<TRIPOS>MOLECULE
NONAME
43 44 1 0 0 
SMALL
USER_CHARGES


@<TRIPOS>ATOM
  1 S       -0.3730    -0.6520    -0.6770 S.o2  1 <1>   1.4470 
  2 O        0.9860    -0.2730    -1.0000 O.2   1 <1>  -0.6500 
  3 O       -1.2160    -1.1010    -1.7630 O.2   1 <1>  -0.6500 
  4 N       -0.2920    -1.8760     0.4990 N.am  1 <1>  -0.8490 
  5 C       -1.1700     0.7290     0.1930 C.ar  1 <1>  -0.0090 
  6 C       -1.4040    -2.8000     0.7290 C.3   1 <1>   0.2760 
  7 C        1.0570    -2.4390     0.7550 C.3   1 <1>   0.2570 
  8 C       -2.1670     1.4800    -0.4210 C.ar  1 <1>  -0.1500 
  9 C       -0.8020     1.0770     1.4880 C.ar  1 <1>  -0.1500 
 10 C       -1.4990    -3.8970    -0.3450 C.3   1 <1>  -0.1600 
 11 C       -2.7460    -2.0760     0.9170 C.3   1 <1>  -0.1600 
 12 C        1.9330    -1.5930     1.7000 C.2   1 <1>   0.5690 
 13 C       -2.7780     2.5360     0.2330 C.ar  1 <1>  -0.1500 
 14 C       -1.4080     2.1310     2.1500 C.ar  1 <1>  -0.1500 
 15 C       -2.6210    -4.8920    -0.0110 C.3   1 <1>  -0.1600 
 16 C       -3.8620    -3.0740     1.2550 C.3   1 <1>  -0.1600 
 17 O        1.5650    -1.4420     2.8400 O.2   1 <1>  -0.5700 
 18 N        3.1140    -1.0300     1.3310 N.am  1 <1>  -0.7300 
 19 C       -2.3990     2.8620     1.5220 C.ar  1 <1>  -0.1500 
 20 C       -3.9630    -4.1710     0.1860 C.3   1 <1>  -0.1600 
 21 C        3.7600    -0.9400    -0.0050 C.3   1 <1>   0.0600 
 22 H       -1.2070    -3.2970     1.6660 H     1 <1>   0.0800 
 23 H        1.5580    -2.6070    -0.1790 H     1 <1>   0.0800 
 24 H        0.9580    -3.3980     1.2290 H     1 <1>   0.0800 
 25 H       -2.4690     1.2340    -1.4250 H     1 <1>   0.1500 
 26 H       -0.0320     0.5150     1.9900 H     1 <1>   0.1500 
 27 H       -0.5690    -4.4320    -0.4140 H     1 <1>   0.0800 
 28 H       -1.7100    -3.4630    -1.3050 H     1 <1>   0.0800 
 29 H       -3.0250    -1.5610     0.0160 H     1 <1>   0.0800 
 30 H       -2.6590    -1.3590     1.7150 H     1 <1>   0.0800 
 31 H       -3.5490     3.1030    -0.2610 H     1 <1>   0.1500 
 32 H       -1.1060     2.3790     3.1530 H     1 <1>   0.1500 
 33 H       -2.3700    -5.4280     0.8880 H     1 <1>   0.0800 
 34 H       -2.7140    -5.6100    -0.8080 H     1 <1>   0.0800 
 35 H       -4.8010    -2.5530     1.3260 H     1 <1>   0.0800 
 36 H       -3.6630    -3.5250     2.2130 H     1 <1>   0.0800 
 37 H        3.5620    -0.4800     2.0680 H     1 <1>   0.3700 
 38 H       -2.8720     3.6820     2.0340 H     1 <1>   0.1500 
 39 H       -4.7160    -4.8850     0.4720 H     1 <1>   0.0800 
 40 H       -4.2670    -3.7290    -0.7480 H     1 <1>   0.0800 
 41 H        3.3180    -1.6260    -0.7030 H     1 <1>   0.0800 
 42 H        4.8090    -1.1640     0.0840 H     1 <1>   0.0800 
 43 H        3.6460     0.0590    -0.3910 H     1 <1>   0.0800 
@<TRIPOS>BOND
  1   1   2  2   
  2   1   3  2   
  3   1   4  am  
  4   1   5  1   
  5   4   6  1   
  6   4   7  1   
  7   5   8  ar  
  8   5   9  ar  
  9   6  10  1   
 10   6  11  1   
 11   6  22  1   
 12   7  12  1   
 13   7  23  1   
 14   7  24  1   
 15   8  13  ar  
 16   8  25  1   
 17   9  14  ar  
 18   9  26  1   
 19  10  15  1   
 20  10  27  1   
 21  10  28  1   
 22  11  16  1   
 23  11  29  1   
 24  11  30  1   
 25  12  17  2   
 26  12  18  am  
 27  13  19  ar  
 28  13  31  1   
 29  14  19  ar  
 30  14  32  1   
 31  15  20  1   
 32  15  33  1   
 33  15  34  1   
 34  16  20  1   
 35  16  35  1   
 36  16  36  1   
 37  18  21  1   
 38  18  37  1   
 39  19  38  1   
 40  20  39  1   
 41  20  40  1   
 42  21  41  1   
 43  21  42  1   
 44  21  43  1   
@<TRIPOS>SUBSTRUCTURE
  1 ****   4 GROUP 4 **** **** 0

# MOE 2024.06 (io_trps.svl 2023.06)
