@<TRIPOS>MOLECULE
NONAME
41 43 1 0 0 
SMALL
USER_CHARGES


@<TRIPOS>ATOM
  1 S       -0.0570     0.0170    -0.4570 S.o2  1 <1>   1.4470 
  2 O       -0.4170     0.0330    -1.8590 O.2   1 <1>  -0.6500 
  3 O       -0.5220    -1.0650     0.3830 O.2   1 <1>  -0.6500 
  4 N       -0.6610     1.4460     0.2230 N.am  1 <1>  -0.8490 
  5 C        1.7350     0.2080    -0.2580 C.ar  1 <1>  -0.0090 
  6 C       -0.4320     2.6420    -0.5700 C.3   1 <1>   0.1960 
  7 C       -2.0940     1.4010     0.4500 C.3   1 <1>   0.1960 
  8 C        2.3030     0.3310     1.0040 C.ar  1 <1>  -0.1500 
  9 C        2.5900     0.2490    -1.3540 C.ar  1 <1>  -0.1500 
 10 C       -1.3730     3.6760     0.0340 C.3   1 <1>  -0.1600 
 11 C       -2.4950     2.8550     0.6720 C.3   1 <1>  -0.1600 
 12 C        3.6670     0.4870     1.1680 C.ar  1 <1>  -0.1500 
 13 C        3.9550     0.4070    -1.1950 C.ar  1 <1>  -0.1500 
 14 C        4.5180     0.5250     0.0710 C.ar  1 <1>   0.1170 
 15 N        5.8910     0.6980     0.2880 N.am  1 <1>  -0.5470 
 16 C        6.9840     0.3770    -0.4750 C.2   1 <1>   0.7150 
 17 O        6.8490    -0.2340    -1.5170 O.2   1 <1>  -0.5700 
 18 C        8.2790     0.7640     0.0060 C.2   1 <1>  -0.2370 
 19 N        9.4660     0.3170    -0.4920 N.pl3 1 <1>   0.3140 
 20 C        8.6200     1.6200     1.0130 C.2   1 <1>  -0.1500 
 21 N       10.5170     0.8430     0.1560 N.2   1 <1>  -0.7070 
 22 C        9.6930    -0.6340    -1.5940 C.3   1 <1>   0.0160 
 23 C       10.0000     1.6230     1.0540 C.2   1 <1>   0.1390 
 24 H       -0.7040     2.4700    -1.5990 H     1 <1>   0.0800 
 25 H        0.5980     2.9550    -0.5150 H     1 <1>   0.0800 
 26 H       -2.3300     0.7800     1.2990 H     1 <1>   0.0800 
 27 H       -2.5910     1.0130    -0.4260 H     1 <1>   0.0800 
 28 H        1.6580     0.3020     1.8680 H     1 <1>   0.1500 
 29 H        2.1820     0.1550    -2.3470 H     1 <1>   0.1500 
 30 H       -1.7400     4.3490    -0.7200 H     1 <1>   0.0800 
 31 H       -0.8520     4.2400     0.7870 H     1 <1>   0.0800 
 32 H       -2.5540     3.0580     1.7270 H     1 <1>   0.0800 
 33 H       -3.4500     3.0560     0.2210 H     1 <1>   0.0800 
 34 H        4.0700     0.5740     2.1610 H     1 <1>   0.1500 
 35 H        4.5800     0.4400    -2.0690 H     1 <1>   0.1500 
 36 H        6.1430     1.0610     1.2030 H     1 <1>   0.3700 
 37 H        7.9850     2.1970     1.6610 H     1 <1>   0.1500 
 38 H        9.3150    -0.2140    -2.5070 H     1 <1>   0.0800 
 39 H        9.1840    -1.5550    -1.3800 H     1 <1>   0.0800 
 40 H       10.7470    -0.8190    -1.6930 H     1 <1>   0.0800 
 41 H       10.5960     2.2000     1.7420 H     1 <1>   0.1500 
@<TRIPOS>BOND
  1   1   2  2   
  2   1   3  2   
  3   1   4  am  
  4   1   5  1   
  5   4   6  1   
  6   4   7  1   
  7   5   8  ar  
  8   5   9  ar  
  9   6  10  1   
 10   6  24  1   
 11   6  25  1   
 12   7  11  1   
 13   7  26  1   
 14   7  27  1   
 15   8  12  ar  
 16   8  28  1   
 17   9  13  ar  
 18   9  29  1   
 19  10  11  1   
 20  10  30  1   
 21  10  31  1   
 22  11  32  1   
 23  11  33  1   
 24  12  14  ar  
 25  12  34  1   
 26  13  14  ar  
 27  13  35  1   
 28  14  15  1   
 29  15  16  am  
 30  15  36  1   
 31  16  17  2   
 32  16  18  1   
 33  18  19  1   
 34  18  20  2   
 35  19  21  1   
 36  19  22  1   
 37  20  23  1   
 38  20  37  1   
 39  21  23  2   
 40  22  38  1   
 41  22  39  1   
 42  22  40  1   
 43  23  41  1   
@<TRIPOS>SUBSTRUCTURE
  1 ****  14 GROUP 4 **** **** 0

# MOE 2024.06 (io_trps.svl 2023.06)
