@<TRIPOS>MOLECULE
NONAME
52 55 1 0 0 
SMALL
USER_CHARGES


@<TRIPOS>ATOM
  1 O       -1.8070     1.6210    -0.3160 O.2   1 <1>  -0.5700 
  2 C       -1.4120     2.7430     0.0430 C.2   1 <1>   0.6160 
  3 N       -0.2520     3.3560    -0.3380 N.am  1 <1>  -0.1570 
  4 C       -2.1350     3.6160     0.8670 C.2   1 <1>  -0.1240 
  5 N       -0.2940     4.6610     0.2530 N.pl3 1 <1>  -0.4890 
  6 C        0.9590     2.6480    -0.4460 C.ar  1 <1>   0.1170 
  7 C       -1.4350     4.7750     0.9720 C.2   1 <1>  -0.0380 
  8 C       -3.4580     3.2120     1.4670 C.3   1 <1>   0.4810 
  9 C        0.6930     5.7000    -0.1430 C.3   1 <1>   0.1290 
 10 C        1.8670     2.6020     0.6080 C.ar  1 <1>  -0.1500 
 11 C        1.2660     1.9690    -1.6200 C.ar  1 <1>  -0.1500 
 12 C       -1.7920     6.0420     1.7290 C.3   1 <1>  -0.1020 
 13 N       -4.3130     2.5980     0.4180 N.4   1 <1>  -0.9590 
 14 C        3.0530     1.9010     0.4900 C.ar  1 <1>  -0.1500 
 15 C        2.4520     1.2670    -1.7420 C.ar  1 <1>  -0.1500 
 16 C       -4.6930     3.5920    -0.6590 C.3   1 <1>   0.3430 
 17 C       -5.5120     1.8840     0.9960 C.3   1 <1>   0.3430 
 18 C        3.3470     1.2330    -0.6860 C.ar  1 <1>  -0.1500 
 19 C       -5.6080     2.9690    -1.7310 C.3   1 <1>   0.2090 
 20 C       -6.4380     1.2940    -0.0900 C.3   1 <1>   0.2090 
 21 N       -6.7990     2.3570    -1.0710 N.pl3 1 <1>  -0.8380 
 22 C       -7.9340     3.1040    -0.8510 C.ar  1 <1>   0.7200 
 23 N       -7.8120     4.4270    -0.9450 N.ar  1 <1>  -0.6200 
 24 N       -9.0320     2.4320    -0.5250 N.ar  1 <1>  -0.6200 
 25 C       -8.9090     5.1190    -0.7460 C.ar  1 <1>   0.1600 
 26 C      -10.1120     3.1500    -0.3320 C.ar  1 <1>   0.1600 
 27 C      -10.1050     4.5190    -0.4350 C.ar  1 <1>  -0.1500 
 28 H       -3.9500     4.0690     1.8950 H     1 <1>   0.0800 
 29 H       -3.2750     2.4940     2.2500 H     1 <1>   0.0800 
 30 H        0.7690     5.7320    -1.2150 H     1 <1>   0.0800 
 31 H        1.6570     5.4580     0.2690 H     1 <1>   0.0800 
 32 H        0.3900     6.6660     0.2170 H     1 <1>   0.0800 
 33 H        1.6390     3.1180     1.5230 H     1 <1>   0.1500 
 34 H        0.5710     1.9910    -2.4400 H     1 <1>   0.1500 
 35 H       -1.0010     6.2900     2.4150 H     1 <1>   0.0800 
 36 H       -2.7010     5.9210     2.2870 H     1 <1>   0.0800 
 37 H       -1.9180     6.8580     1.0400 H     1 <1>   0.0800 
 38 H       -3.7080     1.8850    -0.0390 H     1 <1>   0.4500 
 39 H        3.7480     1.8720     1.3110 H     1 <1>   0.1500 
 40 H        2.6790     0.7450    -2.6550 H     1 <1>   0.1500 
 41 H       -3.8070     3.9760    -1.1360 H     1 <1>   0.0800 
 42 H       -5.2210     4.4220    -0.2180 H     1 <1>   0.0800 
 43 H       -6.0950     2.5770     1.5810 H     1 <1>   0.0800 
 44 H       -5.1870     1.0900     1.6470 H     1 <1>   0.0800 
 45 H        4.2690     0.6860    -0.7800 H     1 <1>   0.1500 
 46 H       -5.0730     2.2130    -2.2790 H     1 <1>   0.0800 
 47 H       -5.9150     3.7220    -2.4370 H     1 <1>   0.0800 
 48 H       -7.3190     0.8840     0.3740 H     1 <1>   0.0800 
 49 H       -5.9410     0.4890    -0.6030 H     1 <1>   0.0800 
 50 H       -8.8570     6.1920    -0.8340 H     1 <1>   0.1500 
 51 H      -11.0260     2.6340    -0.0850 H     1 <1>   0.1500 
 52 H      -10.9970     5.0960    -0.2780 H     1 <1>   0.1500 
@<TRIPOS>BOND
  1   1   2  2   
  2   2   3  am  
  3   2   4  1   
  4   3   5  1   
  5   3   6  1   
  6   4   7  2   
  7   4   8  1   
  8   5   7  1   
  9   5   9  1   
 10   6  10  ar  
 11   6  11  ar  
 12   7  12  1   
 13   8  13  1   
 14   8  28  1   
 15   8  29  1   
 16   9  30  1   
 17   9  31  1   
 18   9  32  1   
 19  10  14  ar  
 20  10  33  1   
 21  11  15  ar  
 22  11  34  1   
 23  12  35  1   
 24  12  36  1   
 25  12  37  1   
 26  13  16  1   
 27  13  17  1   
 28  13  38  1   
 29  14  18  ar  
 30  14  39  1   
 31  15  18  ar  
 32  15  40  1   
 33  16  19  1   
 34  16  41  1   
 35  16  42  1   
 36  17  20  1   
 37  17  43  1   
 38  17  44  1   
 39  18  45  1   
 40  19  21  1   
 41  19  46  1   
 42  19  47  1   
 43  20  21  1   
 44  20  48  1   
 45  20  49  1   
 46  21  22  1   
 47  22  23  ar  
 48  22  24  ar  
 49  23  25  ar  
 50  24  26  ar  
 51  25  27  ar  
 52  25  50  1   
 53  26  27  ar  
 54  26  51  1   
 55  27  52  1   
@<TRIPOS>SUBSTRUCTURE
  1 ****  13 GROUP 4 **** **** 0

# MOE 2024.06 (io_trps.svl 2023.06)
