@<TRIPOS>MOLECULE
NONAME
35 36 1 0 0 
SMALL
USER_CHARGES


@<TRIPOS>ATOM
  1 CL       0.0080    -0.6600    -1.0050 Cl    1 <1>  -0.1770 
  2 C       -1.1710     0.5470    -0.5180 C.ar  1 <1>   0.1770 
  3 C       -0.8390     1.8080     0.0020 C.ar  1 <1>   0.0830 
  4 C       -2.4940     0.1740    -0.6780 C.ar  1 <1>  -0.1500 
  5 O        0.4060     2.3230     0.2160 O.3   1 <1>  -0.3630 
  6 C       -1.8760     2.6620     0.3530 C.ar  1 <1>  -0.1500 
  7 C       -3.5100     1.0420    -0.3230 C.ar  1 <1>  -0.1500 
  8 C        1.5970     1.6690    -0.1350 C.3   1 <1>   0.1200 
  9 C       -3.1990     2.2870     0.1940 C.ar  1 <1>  -0.1500 
 10 C        2.7620     2.6020     0.2080 C.3   1 <1>   0.3430 
 11 N        4.0910     2.0440    -0.2090 N.4   1 <1>  -0.9590 
 12 C        4.4520     0.8040     0.5460 C.3   1 <1>   0.3430 
 13 C        5.1490     3.0880    -0.0740 C.3   1 <1>   0.3430 
 14 C        5.7580     0.2270    -0.0020 C.3   1 <1>  -0.1600 
 15 C        6.4700     2.5600    -0.6380 C.3   1 <1>  -0.1600 
 16 C        6.8970     1.2540     0.0440 C.3   1 <1>  -0.1600 
 17 H       -2.7290    -0.7970    -1.0780 H     1 <1>   0.1500 
 18 H       -1.6450     3.6320     0.7560 H     1 <1>   0.1500 
 19 H       -4.5400     0.7510    -0.4470 H     1 <1>   0.1500 
 20 H        1.5700     1.4710    -1.1920 H     1 <1>   0.0800 
 21 H        1.6550     0.7610     0.4380 H     1 <1>   0.0800 
 22 H       -3.9880     2.9660     0.4720 H     1 <1>   0.1500 
 23 H        2.7620     2.7850     1.2700 H     1 <1>   0.0800 
 24 H        2.5960     3.5390    -0.2980 H     1 <1>   0.0800 
 25 H        4.0470     1.7940    -1.2060 H     1 <1>   0.4500 
 26 H        3.6720     0.0650     0.4500 H     1 <1>   0.0800 
 27 H        4.5730     1.0350     1.5930 H     1 <1>   0.0800 
 28 H        5.2790     3.3440     0.9650 H     1 <1>   0.0800 
 29 H        4.8630     3.9780    -0.6100 H     1 <1>   0.0800 
 30 H        5.6050    -0.1070    -1.0140 H     1 <1>   0.0800 
 31 H        6.0340    -0.6350     0.5810 H     1 <1>   0.0800 
 32 H        7.2360     3.3030    -0.4910 H     1 <1>   0.0800 
 33 H        6.3720     2.4070    -1.6980 H     1 <1>   0.0800 
 34 H        7.7710     0.8540    -0.4450 H     1 <1>   0.0800 
 35 H        7.1600     1.4530     1.0700 H     1 <1>   0.0800 
@<TRIPOS>BOND
  1   1   2  1   
  2   2   3  ar  
  3   2   4  ar  
  4   3   5  1   
  5   3   6  ar  
  6   4   7  ar  
  7   4  17  1   
  8   5   8  1   
  9   6   9  ar  
 10   6  18  1   
 11   7   9  ar  
 12   7  19  1   
 13   8  10  1   
 14   8  20  1   
 15   8  21  1   
 16   9  22  1   
 17  10  11  1   
 18  10  23  1   
 19  10  24  1   
 20  11  12  1   
 21  11  13  1   
 22  11  25  1   
 23  12  14  1   
 24  12  26  1   
 25  12  27  1   
 26  13  15  1   
 27  13  28  1   
 28  13  29  1   
 29  14  16  1   
 30  14  30  1   
 31  14  31  1   
 32  15  16  1   
 33  15  32  1   
 34  15  33  1   
 35  16  34  1   
 36  16  35  1   
@<TRIPOS>SUBSTRUCTURE
  1 ****   8 GROUP 4 **** **** 0

# MOE 2024.06 (io_trps.svl 2023.06)
