@<TRIPOS>MOLECULE
NONAME
52 55 1 0 0 
SMALL
USER_CHARGES


@<TRIPOS>ATOM
  1 F       -1.8080     0.4570    -1.7880 F     1 <1>  -0.1900 
  2 C       -2.6700    -0.4730    -1.4690 C.ar  1 <1>   0.1900 
  3 C       -2.2580    -1.7910    -1.4620 C.ar  1 <1>  -0.1500 
  4 C       -3.9630    -0.1050    -1.1510 C.ar  1 <1>  -0.1500 
  5 C       -3.1770    -2.7700    -1.1220 C.ar  1 <1>  -0.1500 
  6 C       -4.8700    -1.0950    -0.8140 C.ar  1 <1>  -0.1500 
  7 C       -4.4920    -2.4380    -0.7940 C.ar  1 <1>   0.1170 
  8 N       -5.4250    -3.4440    -0.4460 N.am  1 <1>  -0.2370 
  9 C       -6.2580    -3.4080     0.6380 C.2   1 <1>   0.5690 
 10 C       -5.6000    -4.6240    -1.1160 C.2   1 <1>   0.5690 
 11 O       -6.2950    -2.5350     1.4730 O.2   1 <1>  -0.5700 
 12 C       -7.1460    -4.6630     0.7120 C.3   1 <1>   0.2510 
 13 O       -5.0240    -4.9760    -2.1110 O.2   1 <1>  -0.5700 
 14 C       -6.6320    -5.5060    -0.4620 C.3   1 <1>  -0.0990 
 15 N       -8.6290    -4.4570     0.5760 N.3   1 <1>  -0.8100 
 16 C       -9.3910    -5.6940     0.8970 C.3   1 <1>   0.1100 
 17 C       -9.1260    -3.3340     1.4250 C.3   1 <1>   0.1100 
 18 C      -10.9140    -5.5300     0.6610 C.3   1 <1>   0.3430 
 19 C      -10.6690    -3.2210     1.4610 C.3   1 <1>   0.3430 
 20 N      -11.2880    -4.0970     0.4120 N.4   1 <1>  -0.9590 
 21 C      -12.7600    -3.9190     0.2310 C.3   1 <1>   0.3430 
 22 C      -13.1070    -2.5440    -0.3440 C.3   1 <1>  -0.0170 
 23 C      -14.6010    -2.4800    -0.6030 C.ar  1 <1>  -0.1430 
 24 C      -15.1470    -2.8490    -1.8170 C.ar  1 <1>  -0.1500 
 25 C      -15.4920    -2.0550     0.3630 C.ar  1 <1>  -0.1500 
 26 C      -16.5190    -2.7860    -1.9970 C.ar  1 <1>   0.1600 
 27 C      -16.8470    -2.0290     0.0800 C.ar  1 <1>   0.1600 
 28 N      -17.3790    -2.3910    -1.0750 N.ar  1 <1>  -0.6200 
 29 H       -1.2450    -2.0410    -1.7180 H     1 <1>   0.1500 
 30 H       -4.2470     0.9320    -1.1660 H     1 <1>   0.1500 
 31 H       -2.8670    -3.8010    -1.1180 H     1 <1>   0.1500 
 32 H       -5.8780    -0.8190    -0.5600 H     1 <1>   0.1500 
 33 H       -6.9330    -5.1570     1.6460 H     1 <1>   0.0800 
 34 H       -6.1580    -6.4070    -0.1170 H     1 <1>   0.0800 
 35 H       -7.3970    -5.7380    -1.1790 H     1 <1>   0.0800 
 36 H       -9.2250    -5.9630     1.9270 H     1 <1>   0.0800 
 37 H       -9.0420    -6.5160     0.2940 H     1 <1>   0.0800 
 38 H       -8.7420    -2.4040     1.0400 H     1 <1>   0.0800 
 39 H       -8.7580    -3.4360     2.4330 H     1 <1>   0.0800 
 40 H      -11.4450    -5.9110     1.5180 H     1 <1>   0.0800 
 41 H      -11.1990    -6.1280    -0.1890 H     1 <1>   0.0800 
 42 H      -10.9450    -2.1910     1.3080 H     1 <1>   0.0800 
 43 H      -11.0230    -3.5130     2.4370 H     1 <1>   0.0800 
 44 H      -10.7870    -3.8540    -0.4570 H     1 <1>   0.4500 
 45 H      -13.2670    -4.0510     1.1740 H     1 <1>   0.0800 
 46 H      -13.1310    -4.6710    -0.4480 H     1 <1>   0.0800 
 47 H      -12.5810    -2.3860    -1.2690 H     1 <1>   0.0800 
 48 H      -12.8390    -1.7630     0.3440 H     1 <1>   0.0800 
 49 H      -14.5300    -3.1820    -2.6310 H     1 <1>   0.1500 
 50 H      -15.1570    -1.7380     1.3340 H     1 <1>   0.1500 
 51 H      -16.9310    -3.0760    -2.9500 H     1 <1>   0.1500 
 52 H      -17.5320    -1.6950     0.8420 H     1 <1>   0.1500 
@<TRIPOS>BOND
  1   1   2  1   
  2   2   3  ar  
  3   2   4  ar  
  4   3   5  ar  
  5   3  29  1   
  6   4   6  ar  
  7   4  30  1   
  8   5   7  ar  
  9   5  31  1   
 10   6   7  ar  
 11   6  32  1   
 12   7   8  1   
 13   8   9  am  
 14   8  10  am  
 15   9  11  2   
 16   9  12  1   
 17  10  13  2   
 18  10  14  1   
 19  12  14  1   
 20  12  15  1   
 21  12  33  1   
 22  14  34  1   
 23  14  35  1   
 24  15  16  1   
 25  15  17  1   
 26  16  18  1   
 27  16  36  1   
 28  16  37  1   
 29  17  19  1   
 30  17  38  1   
 31  17  39  1   
 32  18  20  1   
 33  18  40  1   
 34  18  41  1   
 35  19  20  1   
 36  19  42  1   
 37  19  43  1   
 38  20  21  1   
 39  20  44  1   
 40  21  22  1   
 41  21  45  1   
 42  21  46  1   
 43  22  23  1   
 44  22  47  1   
 45  22  48  1   
 46  23  24  ar  
 47  23  25  ar  
 48  24  26  ar  
 49  24  49  1   
 50  25  27  ar  
 51  25  50  1   
 52  26  28  ar  
 53  26  51  1   
 54  27  28  ar  
 55  27  52  1   
@<TRIPOS>SUBSTRUCTURE
  1 ****  15 GROUP 4 **** **** 0

# MOE 2024.06 (io_trps.svl 2023.06)
