@<TRIPOS>MOLECULE
NONAME
45 47 1 0 0 
SMALL
USER_CHARGES


@<TRIPOS>ATOM
  1 BR       0.0260     0.3720    -0.8200 Br    1 <1>  -0.1110 
  2 C       -0.4310    -1.4680    -0.4980 C.ar  1 <1>   0.1110 
  3 C        0.3520    -2.4580    -1.0550 C.ar  1 <1>  -0.1500 
  4 C       -1.5300    -1.7560     0.2840 C.ar  1 <1>  -0.1500 
  5 C        0.0160    -3.7790    -0.8180 C.ar  1 <1>  -0.1500 
  6 C       -1.8560    -3.0830     0.5130 C.ar  1 <1>  -0.1500 
  7 C       -1.0910    -4.1130    -0.0350 C.ar  1 <1>  -0.1430 
  8 C       -1.4160    -5.5960     0.1950 C.3   1 <1>   0.4240 
  9 O       -1.4730    -6.1780    -1.0560 O.3   1 <1>  -0.6800 
 10 C       -0.2910    -6.2910     0.9810 C.3   1 <1>  -0.1600 
 11 C       -2.7670    -5.8870     0.8650 C.3   1 <1>  -0.1600 
 12 C       -0.6930    -7.6330     1.6020 C.3   1 <1>   0.3430 
 13 C       -3.0760    -7.3870     0.9650 C.3   1 <1>   0.3430 
 14 N       -1.8370    -8.2070     0.8470 N.4   1 <1>  -0.9590 
 15 C       -2.0620    -9.6550     1.1040 C.3   1 <1>   0.4860 
 16 C       -0.8000   -10.4140     0.7480 C.ar  1 <1>  -0.1430 
 17 C       -0.3910   -10.5140    -0.5740 C.ar  1 <1>  -0.1500 
 18 C       -0.0380   -11.0040     1.7460 C.ar  1 <1>  -0.1500 
 19 C        0.7750   -11.1860    -0.9010 C.ar  1 <1>  -0.1430 
 20 C        1.1250   -11.6790     1.4220 C.ar  1 <1>  -0.1500 
 21 C        1.5300   -11.7680     0.1030 C.ar  1 <1>  -0.1500 
 22 C        1.2210   -11.2960    -2.3480 C.3   1 <1>  -0.0970 
 23 H        1.2040    -2.1970    -1.6580 H     1 <1>   0.1500 
 24 H       -2.1160    -0.9570     0.7020 H     1 <1>   0.1500 
 25 H        0.6320    -4.5480    -1.2520 H     1 <1>   0.1500 
 26 H       -2.7160    -3.2780     1.1270 H     1 <1>   0.1500 
 27 H       -1.5670    -5.4540    -1.7110 H     1 <1>   0.4000 
 28 H        0.0250    -5.6470     1.7820 H     1 <1>   0.0800 
 29 H        0.5650    -6.4320     0.3460 H     1 <1>   0.0800 
 30 H       -3.5610    -5.3960     0.3320 H     1 <1>   0.0800 
 31 H       -2.7560    -5.4810     1.8610 H     1 <1>   0.0800 
 32 H       -0.9780    -7.4890     2.6320 H     1 <1>   0.0800 
 33 H        0.1540    -8.3010     1.5760 H     1 <1>   0.0800 
 34 H       -3.7490    -7.6570     0.1650 H     1 <1>   0.0800 
 35 H       -3.5720    -7.5880     1.9010 H     1 <1>   0.0800 
 36 H       -1.5480    -8.1170    -0.1440 H     1 <1>   0.4500 
 37 H       -2.8760   -10.0170     0.4960 H     1 <1>   0.0800 
 38 H       -2.3090    -9.8160     2.1400 H     1 <1>   0.0800 
 39 H       -0.9750   -10.0740    -1.3640 H     1 <1>   0.1500 
 40 H       -0.3360   -10.9510     2.7800 H     1 <1>   0.1500 
 41 H        1.7180   -12.1400     2.1940 H     1 <1>   0.1500 
 42 H        2.4360   -12.2970    -0.1390 H     1 <1>   0.1500 
 43 H        0.8150   -12.1900    -2.7880 H     1 <1>   0.0800 
 44 H        2.2940   -11.3390    -2.4090 H     1 <1>   0.0800 
 45 H        0.8860   -10.4470    -2.9160 H     1 <1>   0.0800 
@<TRIPOS>BOND
  1   1   2  1   
  2   2   3  ar  
  3   2   4  ar  
  4   3   5  ar  
  5   3  23  1   
  6   4   6  ar  
  7   4  24  1   
  8   5   7  ar  
  9   5  25  1   
 10   6   7  ar  
 11   6  26  1   
 12   7   8  1   
 13   8   9  1   
 14   8  10  1   
 15   8  11  1   
 16   9  27  1   
 17  10  12  1   
 18  10  28  1   
 19  10  29  1   
 20  11  13  1   
 21  11  30  1   
 22  11  31  1   
 23  12  14  1   
 24  12  32  1   
 25  12  33  1   
 26  13  14  1   
 27  13  34  1   
 28  13  35  1   
 29  14  15  1   
 30  14  36  1   
 31  15  16  1   
 32  15  37  1   
 33  15  38  1   
 34  16  17  ar  
 35  16  18  ar  
 36  17  19  ar  
 37  17  39  1   
 38  18  20  ar  
 39  18  40  1   
 40  19  21  ar  
 41  19  22  1   
 42  20  21  ar  
 43  20  41  1   
 44  21  42  1   
 45  22  43  1   
 46  22  44  1   
 47  22  45  1   
@<TRIPOS>SUBSTRUCTURE
  1 ****  10 GROUP 4 **** **** 0

# MOE 2024.06 (io_trps.svl 2023.06)
