@<TRIPOS>MOLECULE
NONAME
54 57 1 0 0 
SMALL
USER_CHARGES


@<TRIPOS>ATOM
  1 O        0.5360     0.8520     1.5240 O.2   1 <1>  -0.5700 
  2 C        1.1280     1.7940     1.0390 C.2   1 <1>   0.6900 
  3 N        0.4150     2.8570     0.4950 N.am  1 <1>  -0.4200 
  4 N        2.5150     1.8120     1.0380 N.am  1 <1>  -0.4360 
  5 C        1.0630     3.9810    -0.0010 C.2   1 <1>   0.7030 
  6 C       -1.0810     2.7930     0.4900 C.3   1 <1>   0.0600 
  7 C        3.1500     2.9320     0.5350 C.2   1 <1>   0.4260 
  8 C        3.3010     0.6780     1.6090 C.3   1 <1>   0.0600 
  9 O        0.4260     4.9250    -0.4370 O.2   1 <1>  -0.5700 
 10 C        2.4980     4.0020     0.0210 C.2   1 <1>   0.2770 
 11 N        4.4790     3.1770     0.4650 N.pl3 1 <1>  -0.7000 
 12 N        3.4820     4.9200    -0.3750 N.pl3 1 <1>  -0.7640 
 13 C        4.6580     4.3730    -0.0800 C.cat 1 <1>   0.6560 
 14 C        3.1780     6.2420    -0.9840 C.3   1 <1>   0.3540 
 15 C        6.0670     4.9550    -0.2870 C.3   1 <1>   0.2540 
 16 C        2.8920     7.2530     0.1250 C.3   1 <1>  -0.1600 
 17 N        7.1000     3.8910    -0.1860 N.3   1 <1>  -0.8100 
 18 C        2.5700     8.6250    -0.4640 C.3   1 <1>   0.1200 
 19 C        8.3870     4.4110     0.3230 C.3   1 <1>   0.2530 
 20 C        7.3190     3.1930    -1.4670 C.3   1 <1>   0.1100 
 21 O        2.5080     9.5240     0.5780 O.3   1 <1>  -0.6800 
 22 C        9.4410     3.3130     0.4070 C.ar  1 <1>  -0.1430 
 23 C        8.1210     1.9090    -1.2300 C.3   1 <1>  -0.0170 
 24 C        9.3280     2.1430    -0.3350 C.ar  1 <1>  -0.1430 
 25 C       10.5440     3.4950     1.2280 C.ar  1 <1>  -0.1500 
 26 C       10.3140     1.1720    -0.2480 C.ar  1 <1>  -0.1500 
 27 C       11.5260     2.5230     1.3120 C.ar  1 <1>  -0.1500 
 28 C       11.4110     1.3610     0.5720 C.ar  1 <1>  -0.1500 
 29 H       -1.4090     1.7910     0.2720 H     1 <1>   0.0800 
 30 H       -1.4950     3.4500    -0.2560 H     1 <1>   0.0800 
 31 H       -1.4570     3.0790     1.4560 H     1 <1>   0.0800 
 32 H        2.7090    -0.2220     1.6300 H     1 <1>   0.0800 
 33 H        3.6000     0.9140     2.6160 H     1 <1>   0.0800 
 34 H        4.1740     0.4890     1.0110 H     1 <1>   0.0800 
 35 H        5.2770     2.6000     0.7540 H     1 <1>   0.4500 
 36 H        2.3250     6.1570    -1.6380 H     1 <1>   0.0800 
 37 H        4.0150     6.5760    -1.5740 H     1 <1>   0.0800 
 38 H        6.2270     5.6870     0.4860 H     1 <1>   0.0800 
 39 H        6.1330     5.4490    -1.2400 H     1 <1>   0.0800 
 40 H        3.7580     7.3390     0.7570 H     1 <1>   0.0800 
 41 H        2.0530     6.9200     0.7090 H     1 <1>   0.0800 
 42 H        1.6250     8.6320    -0.9830 H     1 <1>   0.0800 
 43 H        3.3490     8.9580    -1.1290 H     1 <1>   0.0800 
 44 H        8.2410     4.8250     1.3060 H     1 <1>   0.0800 
 45 H        8.7520     5.1900    -0.3250 H     1 <1>   0.0800 
 46 H        7.8620     3.8320    -2.1450 H     1 <1>   0.0800 
 47 H        6.3790     2.9340    -1.9240 H     1 <1>   0.0800 
 48 H        1.6900     9.4090     1.1030 H     1 <1>   0.4000 
 49 H        8.4430     1.5160    -2.1770 H     1 <1>   0.0800 
 50 H        7.4860     1.1760    -0.7680 H     1 <1>   0.0800 
 51 H       10.6480     4.3950     1.8080 H     1 <1>   0.1500 
 52 H       10.2310     0.2640    -0.8180 H     1 <1>   0.1500 
 53 H       12.3780     2.6710     1.9520 H     1 <1>   0.1500 
 54 H       12.1740     0.6050     0.6360 H     1 <1>   0.1500 
@<TRIPOS>BOND
  1   1   2  2   
  2   2   3  am  
  3   2   4  am  
  4   3   5  am  
  5   3   6  1   
  6   4   7  1   
  7   4   8  1   
  8   5   9  2   
  9   5  10  1   
 10   6  29  1   
 11   6  30  1   
 12   6  31  1   
 13   7  10  2   
 14   7  11  1   
 15   8  32  1   
 16   8  33  1   
 17   8  34  1   
 18  10  12  1   
 19  11  13  ar  
 20  11  35  1   
 21  12  13  ar  
 22  12  14  1   
 23  13  15  1   
 24  14  16  1   
 25  14  36  1   
 26  14  37  1   
 27  15  17  1   
 28  15  38  1   
 29  15  39  1   
 30  16  18  1   
 31  16  40  1   
 32  16  41  1   
 33  17  19  1   
 34  17  20  1   
 35  18  21  1   
 36  18  42  1   
 37  18  43  1   
 38  19  22  1   
 39  19  44  1   
 40  19  45  1   
 41  20  23  1   
 42  20  46  1   
 43  20  47  1   
 44  21  48  1   
 45  22  24  ar  
 46  22  25  ar  
 47  23  24  1   
 48  23  49  1   
 49  23  50  1   
 50  24  26  ar  
 51  25  27  ar  
 52  25  51  1   
 53  26  28  ar  
 54  26  52  1   
 55  27  28  ar  
 56  27  53  1   
 57  28  54  1   
@<TRIPOS>SUBSTRUCTURE
  1 ****  11 GROUP 4 **** **** 0

# MOE 2024.06 (io_trps.svl 2023.06)
