@<TRIPOS>MOLECULE
NONAME
36 36 1 0 0 
SMALL
USER_CHARGES


@<TRIPOS>ATOM
  1 S        0.6490     0.4110    -0.9130 S.o2  1 <1>   1.3330 
  2 O        1.9220     0.4060    -1.5960 O.2   1 <1>  -0.6500 
  3 O        0.3350    -0.6330     0.0280 O.2   1 <1>  -0.6500 
  4 N        0.5470     1.9330    -0.0980 N.am  1 <1>  -0.6930 
  5 C       -0.6450     0.5370    -2.1290 C.3   1 <1>  -0.1350 
  6 C       -0.5870     2.2830     0.6280 C.ar  1 <1>   0.1990 
  7 C        1.8410     2.5540     0.3230 C.3   1 <1>   0.2570 
  8 C       -1.4440     3.3040     0.2030 C.ar  1 <1>  -0.1440 
  9 C       -0.8780     1.6070     1.8080 C.ar  1 <1>  -0.1500 
 10 C        2.6620     1.7290     1.3220 C.2   1 <1>   0.5690 
 11 C       -2.5690     3.6080     0.9540 C.ar  1 <1>  -0.1500 
 12 C       -1.1880     4.1150    -1.0660 C.3   1 <1>  -0.0170 
 13 C       -2.0000     1.9180     2.5500 C.ar  1 <1>  -0.1500 
 14 O        2.6990     2.0820     2.4780 O.2   1 <1>  -0.5700 
 15 N        3.3480     0.6360     0.8860 N.am  1 <1>  -0.7300 
 16 C       -2.8510     2.9190     2.1210 C.ar  1 <1>  -0.1500 
 17 C       -0.5350     5.4580    -0.7310 C.3   1 <1>  -0.2400 
 18 C        4.1160    -0.3000     1.7410 C.3   1 <1>   0.0600 
 19 H       -0.6880    -0.3610    -2.7120 H     1 <1>   0.0800 
 20 H       -0.4600     1.3650    -2.7840 H     1 <1>   0.0800 
 21 H       -1.5920     0.6790    -1.6460 H     1 <1>   0.0800 
 22 H        1.6370     3.5070     0.7780 H     1 <1>   0.0800 
 23 H        2.4450     2.7340    -0.5480 H     1 <1>   0.0800 
 24 H       -0.2140     0.8300     2.1470 H     1 <1>   0.1500 
 25 H       -3.2360     4.3900     0.6350 H     1 <1>   0.1500 
 26 H       -2.1240     4.2910    -1.5680 H     1 <1>   0.0800 
 27 H       -0.5590     3.5750    -1.7490 H     1 <1>   0.0800 
 28 H       -2.2090     1.3820     3.4600 H     1 <1>   0.1500 
 29 H        3.2090     0.3360    -0.0920 H     1 <1>   0.3700 
 30 H       -3.7270     3.1650     2.6950 H     1 <1>   0.1500 
 31 H       -1.1710     6.0300    -0.0790 H     1 <1>   0.0800 
 32 H       -0.3660     6.0220    -1.6310 H     1 <1>   0.0800 
 33 H        0.4080     5.3020    -0.2390 H     1 <1>   0.0800 
 34 H        4.1750     0.0750     2.7480 H     1 <1>   0.0800 
 35 H        5.1130    -0.4140     1.3510 H     1 <1>   0.0800 
 36 H        3.6270    -1.2590     1.7540 H     1 <1>   0.0800 
@<TRIPOS>BOND
  1   1   2  2   
  2   1   3  2   
  3   1   4  am  
  4   1   5  1   
  5   4   6  1   
  6   4   7  1   
  7   5  19  1   
  8   5  20  1   
  9   5  21  1   
 10   6   8  ar  
 11   6   9  ar  
 12   7  10  1   
 13   7  22  1   
 14   7  23  1   
 15   8  11  ar  
 16   8  12  1   
 17   9  13  ar  
 18   9  24  1   
 19  10  14  2   
 20  10  15  am  
 21  11  16  ar  
 22  11  25  1   
 23  12  17  1   
 24  12  26  1   
 25  12  27  1   
 26  13  16  ar  
 27  13  28  1   
 28  15  18  1   
 29  15  29  1   
 30  16  30  1   
 31  17  31  1   
 32  17  32  1   
 33  17  33  1   
 34  18  34  1   
 35  18  35  1   
 36  18  36  1   
@<TRIPOS>SUBSTRUCTURE
  1 ****   4 GROUP 4 **** **** 0

# MOE 2024.06 (io_trps.svl 2023.06)
