@<TRIPOS>MOLECULE
NONAME
28 29 1 0 0 
SMALL
USER_CHARGES


@<TRIPOS>ATOM
  1 S        0.5500    -0.0680    -1.6250 S.3   1 <1>  -0.4600 
  2 C        0.6880     1.6480    -1.0770 C.3   1 <1>   0.5940 
  3 C        1.4640    -0.8240    -0.2610 C.3   1 <1>   0.1310 
  4 N        1.4930     1.5760     0.1620 N.am  1 <1>  -0.6600 
  5 C       -0.7100     2.2120    -0.8400 C.ar  1 <1>  -0.1440 
  6 C        1.8870     0.3470     0.5960 C.2   1 <1>   0.5690 
  7 C        1.7900     2.8460     0.8770 C.3   1 <1>   0.0600 
  8 C       -1.5210     1.7250     0.1780 C.ar  1 <1>  -0.1500 
  9 C       -1.1870     3.2350    -1.6480 C.ar  1 <1>  -0.1500 
 10 O        2.5340     0.1650     1.5990 O.2   1 <1>  -0.5700 
 11 C       -2.7840     2.2510     0.3900 C.ar  1 <1>  -0.1500 
 12 C       -2.4490     3.7620    -1.4380 C.ar  1 <1>  -0.1500 
 13 C       -3.2550     3.2780    -0.4220 C.ar  1 <1>   0.0830 
 14 O       -4.4760     3.8510    -0.2840 O.3   1 <1>  -0.3630 
 15 C       -5.3870     3.4080     0.6970 C.3   1 <1>   0.0400 
 16 H        1.2140     2.1880    -1.8450 H     1 <1>   0.0800 
 17 H        2.3100    -1.3470    -0.6640 H     1 <1>   0.0800 
 18 H        0.8030    -1.4830     0.2680 H     1 <1>   0.0800 
 19 H        0.8730     3.3090     1.1990 H     1 <1>   0.0800 
 20 H        2.3180     3.5200     0.2250 H     1 <1>   0.0800 
 21 H        2.4000     2.6530     1.7430 H     1 <1>   0.0800 
 22 H       -1.1670     0.9310     0.8120 H     1 <1>   0.1500 
 23 H       -0.5830     3.6280    -2.4470 H     1 <1>   0.1500 
 24 H       -3.3810     1.8500     1.1860 H     1 <1>   0.1500 
 25 H       -2.8200     4.5540    -2.0640 H     1 <1>   0.1500 
 26 H       -6.2840     3.9930     0.6090 H     1 <1>   0.0800 
 27 H       -4.9490     3.5520     1.6690 H     1 <1>   0.0800 
 28 H       -5.6080     2.3700     0.5230 H     1 <1>   0.0800 
@<TRIPOS>BOND
  1   1   2  1   
  2   1   3  1   
  3   2   4  1   
  4   2   5  1   
  5   2  16  1   
  6   3   6  1   
  7   3  17  1   
  8   3  18  1   
  9   4   6  am  
 10   4   7  1   
 11   5   8  ar  
 12   5   9  ar  
 13   6  10  2   
 14   7  19  1   
 15   7  20  1   
 16   7  21  1   
 17   8  11  ar  
 18   8  22  1   
 19   9  12  ar  
 20   9  23  1   
 21  11  13  ar  
 22  11  24  1   
 23  12  13  ar  
 24  12  25  1   
 25  13  14  1   
 26  14  15  1   
 27  15  26  1   
 28  15  27  1   
 29  15  28  1   
@<TRIPOS>SUBSTRUCTURE
  1 ****   5 GROUP 4 **** **** 0

# MOE 2024.06 (io_trps.svl 2023.06)
