@<TRIPOS>MOLECULE
NONAME
42 43 1 0 0 
SMALL
USER_CHARGES


@<TRIPOS>ATOM
  1 O       -0.7670    -2.2550     2.6610 O.2   1 <1>  -0.5700 
  2 C       -0.2530    -2.5180     1.6000 C.2   1 <1>   0.5690 
  3 N       -0.9780    -2.4170     0.4300 N.am  1 <1>  -0.6600 
  4 C        1.2010    -2.9890     1.6320 C.3   1 <1>   0.1810 
  5 C       -0.4830    -2.8540    -0.9150 C.3   1 <1>   0.1400 
  6 C       -2.3080    -1.7280     0.4230 C.3   1 <1>   0.1400 
  7 O        1.9830    -2.3300     0.6470 O.3   1 <1>  -0.3620 
  8 C       -1.5700    -3.6130    -1.7040 C.3   1 <1>   0.3430 
  9 C       -3.3550    -2.5300    -0.3680 C.3   1 <1>   0.3430 
 10 C        3.2710    -2.6880     0.4190 C.ar  1 <1>   0.0820 
 11 N       -2.8750    -2.8630    -1.7570 N.4   1 <1>  -0.9590 
 12 C        3.9500    -3.6540     1.1580 C.ar  1 <1>  -0.1500 
 13 C        3.9210    -2.0410    -0.6200 C.ar  1 <1>  -0.1500 
 14 C       -3.9110    -3.6300    -2.5130 C.3   1 <1>   0.2630 
 15 C        5.2620    -3.9720     0.8480 C.ar  1 <1>  -0.1440 
 16 C        5.2320    -2.3530    -0.9350 C.ar  1 <1>  -0.1440 
 17 C        5.8960    -3.3200    -0.1970 C.ar  1 <1>  -0.1500 
 18 C        6.0110    -5.0220     1.6480 C.3   1 <1>  -0.0970 
 19 C        5.9460    -1.6430    -2.0710 C.3   1 <1>  -0.0970 
 20 H        1.2360    -4.0460     1.4500 H     1 <1>   0.0800 
 21 H        1.6280    -2.7710     2.5940 H     1 <1>   0.0800 
 22 H        0.3670    -3.5050    -0.8120 H     1 <1>   0.0800 
 23 H       -0.1640    -1.9890    -1.4710 H     1 <1>   0.0800 
 24 H       -2.1940    -0.7500    -0.0110 H     1 <1>   0.0800 
 25 H       -2.6700    -1.5910     1.4280 H     1 <1>   0.0800 
 26 H       -1.7250    -4.5690    -1.2300 H     1 <1>   0.0800 
 27 H       -1.2120    -3.7970    -2.7030 H     1 <1>   0.0800 
 28 H       -4.2670    -1.9580    -0.4210 H     1 <1>   0.0800 
 29 H       -3.5660    -3.4390     0.1720 H     1 <1>   0.0800 
 30 H       -2.7000    -1.9710    -2.2430 H     1 <1>   0.4500 
 31 H        3.4800    -4.1610     1.9770 H     1 <1>   0.1500 
 32 H        3.3930    -1.2890    -1.1750 H     1 <1>   0.1500 
 33 H       -4.1150    -4.5690    -2.0230 H     1 <1>   0.0800 
 34 H       -3.5700    -3.8330    -3.5160 H     1 <1>   0.0800 
 35 H       -4.8280    -3.0660    -2.5720 H     1 <1>   0.0800 
 36 H        6.9170    -3.5630    -0.4360 H     1 <1>   0.1500 
 37 H        5.3260    -5.6930     2.1350 H     1 <1>   0.0800 
 38 H        6.6180    -4.5440     2.3950 H     1 <1>   0.0800 
 39 H        6.6470    -5.5990     1.0010 H     1 <1>   0.0800 
 40 H        5.2400    -1.1710    -2.7290 H     1 <1>   0.0800 
 41 H        6.5270    -2.3450    -2.6410 H     1 <1>   0.0800 
 42 H        6.6030    -0.8910    -1.6720 H     1 <1>   0.0800 
@<TRIPOS>BOND
  1   1   2  2   
  2   2   3  am  
  3   2   4  1   
  4   3   5  1   
  5   3   6  1   
  6   4   7  1   
  7   4  20  1   
  8   4  21  1   
  9   5   8  1   
 10   5  22  1   
 11   5  23  1   
 12   6   9  1   
 13   6  24  1   
 14   6  25  1   
 15   7  10  1   
 16   8  11  1   
 17   8  26  1   
 18   8  27  1   
 19   9  11  1   
 20   9  28  1   
 21   9  29  1   
 22  10  12  ar  
 23  10  13  ar  
 24  11  14  1   
 25  11  30  1   
 26  12  15  ar  
 27  12  31  1   
 28  13  16  ar  
 29  13  32  1   
 30  14  33  1   
 31  14  34  1   
 32  14  35  1   
 33  15  17  ar  
 34  15  18  1   
 35  16  17  ar  
 36  16  19  1   
 37  17  36  1   
 38  18  37  1   
 39  18  38  1   
 40  18  39  1   
 41  19  40  1   
 42  19  41  1   
 43  19  42  1   
@<TRIPOS>SUBSTRUCTURE
  1 ****   7 GROUP 4 **** **** 0

# MOE 2024.06 (io_trps.svl 2023.06)
