@<TRIPOS>MOLECULE
NONAME
39 40 1 0 0 
SMALL
USER_CHARGES


@<TRIPOS>ATOM
  1 BR       1.2330     1.2210     2.4270 Br    1 <1>  -0.1110 
  2 C        2.3530     1.7680     0.9540 C.ar  1 <1>   0.1110 
  3 C        2.1210     2.9810     0.3200 C.ar  1 <1>   0.0820 
  4 C        3.3670     0.9090     0.5740 C.ar  1 <1>  -0.1500 
  5 O        1.0900     3.7580     0.7330 O.3   1 <1>  -0.3630 
  6 C        2.9710     3.3470    -0.7310 C.ar  1 <1>   0.0820 
  7 C        4.1930     1.2690    -0.4810 C.ar  1 <1>  -0.1440 
  8 C       -0.1330     3.5550     0.0640 C.3   1 <1>   0.1200 
  9 O        2.9020     4.5130    -1.4280 O.3   1 <1>  -0.3630 
 10 C        3.9820     2.4810    -1.1260 C.ar  1 <1>  -0.1500 
 11 C        5.3210     0.3630    -0.9220 C.3   1 <1>   0.4860 
 12 C       -1.1640     4.5060     0.6630 C.3   1 <1>  -0.2400 
 13 C        2.5280     5.7140    -0.7840 C.3   1 <1>   0.0400 
 14 N        6.5310     0.8280    -0.2180 N.4   1 <1>  -0.9060 
 15 C        7.7520     0.0660    -0.5420 C.3   1 <1>   0.5230 
 16 C        8.9060     0.6410     0.2460 C.2   1 <1>  -0.1400 
 17 S       10.4460    -0.1640    -0.0040 S.3   1 <1>  -0.0800 
 18 C        9.0460     1.6560     1.1250 C.2   1 <1>  -0.1500 
 19 C       11.2520     0.9200     1.1120 C.2   1 <1>  -0.1100 
 20 C       10.3810     1.8120     1.6160 C.2   1 <1>  -0.1500 
 21 H        3.4850    -0.0200     1.1060 H     1 <1>   0.1500 
 22 H       -0.4330     2.5300     0.2020 H     1 <1>   0.0800 
 23 H        0.0130     3.7550    -0.9840 H     1 <1>   0.0800 
 24 H        4.5980     2.7880    -1.9530 H     1 <1>   0.1500 
 25 H        5.4510     0.4330    -1.9900 H     1 <1>   0.0800 
 26 H        5.0980    -0.6590    -0.6610 H     1 <1>   0.0800 
 27 H       -1.2890     4.3000     1.7120 H     1 <1>   0.0800 
 28 H       -2.1110     4.3710     0.1730 H     1 <1>   0.0800 
 29 H       -0.8500     5.5260     0.5320 H     1 <1>   0.0800 
 30 H        2.9050     6.5370    -1.3640 H     1 <1>   0.0800 
 31 H        2.9520     5.7360     0.2040 H     1 <1>   0.0800 
 32 H        1.4560     5.7690    -0.7380 H     1 <1>   0.0800 
 33 H        6.3710     0.7870     0.7940 H     1 <1>   0.4500 
 34 H        6.6870     1.8180    -0.4400 H     1 <1>   0.4500 
 35 H        7.9710     0.1350    -1.5960 H     1 <1>   0.0800 
 36 H        7.6270    -0.9740    -0.2830 H     1 <1>   0.0800 
 37 H        8.2810     2.3290     1.4750 H     1 <1>   0.1500 
 38 H       12.3060     0.7740     1.2760 H     1 <1>   0.1500 
 39 H       10.6280     2.5860     2.3240 H     1 <1>   0.1500 
@<TRIPOS>BOND
  1   1   2  1   
  2   2   3  ar  
  3   2   4  ar  
  4   3   5  1   
  5   3   6  ar  
  6   4   7  ar  
  7   4  21  1   
  8   5   8  1   
  9   6   9  1   
 10   6  10  ar  
 11   7  10  ar  
 12   7  11  1   
 13   8  12  1   
 14   8  22  1   
 15   8  23  1   
 16   9  13  1   
 17  10  24  1   
 18  11  14  1   
 19  11  25  1   
 20  11  26  1   
 21  12  27  1   
 22  12  28  1   
 23  12  29  1   
 24  13  30  1   
 25  13  31  1   
 26  13  32  1   
 27  14  15  1   
 28  14  33  1   
 29  14  34  1   
 30  15  16  1   
 31  15  35  1   
 32  15  36  1   
 33  16  17  1   
 34  16  18  2   
 35  17  19  1   
 36  18  20  1   
 37  18  37  1   
 38  19  20  2   
 39  19  38  1   
 40  20  39  1   
@<TRIPOS>SUBSTRUCTURE
  1 ****   7 GROUP 4 **** **** 0

# MOE 2024.06 (io_trps.svl 2023.06)
