@<TRIPOS>MOLECULE
NONAME
46 47 1 0 0 
SMALL
USER_CHARGES


@<TRIPOS>ATOM
  1 CL       0.2530     0.3760    -0.1410 Cl    1 <1>  -0.1770 
  2 C       -1.3840     0.9830     0.0110 C.ar  1 <1>   0.1770 
  3 C       -2.3920     0.1700     0.5170 C.ar  1 <1>   0.0830 
  4 C       -1.6320     2.2820    -0.3840 C.ar  1 <1>  -0.1500 
  5 O       -2.0660    -1.1000     0.8870 O.3   1 <1>  -0.3630 
  6 C       -3.6790     0.6900     0.6210 C.ar  1 <1>  -0.1500 
  7 C       -2.9200     2.7930    -0.2770 C.ar  1 <1>   0.0830 
  8 C       -3.0300    -1.9870     1.4130 C.3   1 <1>   0.0400 
  9 C       -3.9560     1.9960     0.2250 C.ar  1 <1>   0.1170 
 10 O       -3.2440     4.0730    -0.6450 O.3   1 <1>  -0.3630 
 11 N       -5.2340     2.5830     0.3010 N.am  1 <1>  -0.5470 
 12 C       -2.2570     4.9530    -1.1460 C.3   1 <1>   0.0400 
 13 C       -6.4710     2.0850     0.6140 C.2   1 <1>   0.5690 
 14 O       -6.6780     0.9340     0.9190 O.2   1 <1>  -0.5700 
 15 C       -7.6950     3.0160     0.5600 C.3   1 <1>   0.4040 
 16 N       -8.9950     2.2780     0.3330 N.4   1 <1>  -0.9590 
 17 C       -9.0620     1.7180    -1.0490 C.3   1 <1>   0.3430 
 18 C      -10.1690     3.0950     0.7400 C.3   1 <1>   0.3430 
 19 C       -9.8780     0.4260    -1.0420 C.3   1 <1>  -0.1600 
 20 C      -11.4600     2.2750     0.7870 C.3   1 <1>  -0.1600 
 21 C      -11.3990     0.6080    -1.1810 C.3   1 <1>  -0.1600 
 22 C      -11.9910     1.9010    -0.6040 C.3   1 <1>  -0.1600 
 23 H       -0.8110     2.8570    -0.7650 H     1 <1>   0.1500 
 24 H       -4.4660     0.0820     1.0140 H     1 <1>   0.1500 
 25 H       -2.5410    -2.9200     1.6280 H     1 <1>   0.0800 
 26 H       -3.8020    -2.1410     0.6810 H     1 <1>   0.0800 
 27 H       -3.4320    -1.5710     2.3200 H     1 <1>   0.0800 
 28 H       -5.1670     3.5690     0.0310 H     1 <1>   0.3700 
 29 H       -2.7240     5.8960    -1.3620 H     1 <1>   0.0800 
 30 H       -1.8400     4.5390    -2.0470 H     1 <1>   0.0800 
 31 H       -1.4950     5.0890    -0.3980 H     1 <1>   0.0800 
 32 H       -7.5500     3.7440    -0.2200 H     1 <1>   0.0800 
 33 H       -7.7410     3.5370     1.5010 H     1 <1>   0.0800 
 34 H       -8.9390     1.4530     0.9540 H     1 <1>   0.4500 
 35 H       -8.0660     1.4730    -1.3820 H     1 <1>   0.0800 
 36 H       -9.4840     2.4310    -1.7380 H     1 <1>   0.0800 
 37 H      -10.2960     3.9220     0.0590 H     1 <1>   0.0800 
 38 H       -9.9930     3.5010     1.7240 H     1 <1>   0.0800 
 39 H       -9.6530    -0.1370    -0.1520 H     1 <1>   0.0800 
 40 H       -9.5490    -0.1780    -1.8710 H     1 <1>   0.0800 
 41 H      -12.2040     2.8930     1.2600 H     1 <1>   0.0800 
 42 H      -11.3420     1.4030     1.4070 H     1 <1>   0.0800 
 43 H      -11.8810    -0.2360    -0.7150 H     1 <1>   0.0800 
 44 H      -11.6590     0.5670    -2.2260 H     1 <1>   0.0800 
 45 H      -11.8300     2.7160    -1.2890 H     1 <1>   0.0800 
 46 H      -13.0590     1.7640    -0.5370 H     1 <1>   0.0800 
@<TRIPOS>BOND
  1   1   2  1   
  2   2   3  ar  
  3   2   4  ar  
  4   3   5  1   
  5   3   6  ar  
  6   4   7  ar  
  7   4  23  1   
  8   5   8  1   
  9   6   9  ar  
 10   6  24  1   
 11   7   9  ar  
 12   7  10  1   
 13   8  25  1   
 14   8  26  1   
 15   8  27  1   
 16   9  11  1   
 17  10  12  1   
 18  11  13  am  
 19  11  28  1   
 20  12  29  1   
 21  12  30  1   
 22  12  31  1   
 23  13  14  2   
 24  13  15  1   
 25  15  16  1   
 26  15  32  1   
 27  15  33  1   
 28  16  17  1   
 29  16  18  1   
 30  16  34  1   
 31  17  19  1   
 32  17  35  1   
 33  17  36  1   
 34  18  20  1   
 35  18  37  1   
 36  18  38  1   
 37  19  21  1   
 38  19  39  1   
 39  19  40  1   
 40  20  22  1   
 41  20  41  1   
 42  20  42  1   
 43  21  22  1   
 44  21  43  1   
 45  21  44  1   
 46  22  45  1   
 47  22  46  1   
@<TRIPOS>SUBSTRUCTURE
  1 ****  13 GROUP 4 **** **** 0

# MOE 2024.06 (io_trps.svl 2023.06)
