@<TRIPOS>MOLECULE
NONAME
36 36 1 0 0 
SMALL
USER_CHARGES


@<TRIPOS>ATOM
  1 F       -0.9320     0.1690    -0.6850 F     1 <1>  -0.3400 
  2 C       -2.0320    -0.5500    -0.4930 C.3   1 <1>   1.1640 
  3 F       -2.7470    -0.4190    -1.6080 F     1 <1>  -0.3400 
  4 F       -2.7160     0.0740     0.4560 F     1 <1>  -0.3400 
  5 C       -1.7510    -2.0160    -0.1470 C.ar  1 <1>  -0.1440 
  6 C       -2.7950    -2.9490    -0.1130 C.ar  1 <1>   0.1170 
  7 C       -0.4550    -2.4310     0.1520 C.ar  1 <1>  -0.1500 
  8 N       -4.1170    -2.5870    -0.4260 N.am  1 <1>  -0.5470 
  9 C       -2.5020    -4.2690     0.2190 C.ar  1 <1>  -0.1500 
 10 C       -0.1850    -3.7470     0.4780 C.ar  1 <1>  -0.1500 
 11 C       -5.2920    -3.0080     0.1220 C.2   1 <1>   0.6900 
 12 C       -1.2130    -4.6690     0.5120 C.ar  1 <1>  -0.1500 
 13 O       -5.3220    -3.7690     1.0670 O.2   1 <1>  -0.5700 
 14 N       -6.4380    -2.5340    -0.4240 N.am  1 <1>  -0.7300 
 15 C       -7.7980    -2.8730     0.0310 C.3   1 <1>   0.2200 
 16 C       -8.5100    -3.6260    -1.1090 C.3   1 <1>  -0.1600 
 17 C       -8.4800    -1.5570     0.4400 C.3   1 <1>  -0.1600 
 18 C       -9.4430    -4.7340    -0.5990 C.3   1 <1>  -0.2400 
 19 C       -9.8940    -1.7280     1.0120 C.3   1 <1>  -0.2400 
 20 H        0.3670    -1.7340     0.1380 H     1 <1>   0.1500 
 21 H       -4.2320    -1.8600    -1.1270 H     1 <1>   0.3700 
 22 H       -3.2940    -4.9960     0.2480 H     1 <1>   0.1500 
 23 H        0.8210    -4.0550     0.7080 H     1 <1>   0.1500 
 24 H       -1.0140    -5.6950     0.7690 H     1 <1>   0.1500 
 25 H       -6.4010    -1.9350    -1.2430 H     1 <1>   0.3700 
 26 H       -7.7280    -3.5160     0.8940 H     1 <1>   0.0800 
 27 H       -7.7740    -4.1010    -1.7360 H     1 <1>   0.0800 
 28 H       -9.0650    -2.9360    -1.7190 H     1 <1>   0.0800 
 29 H       -8.5260    -0.8940    -0.4060 H     1 <1>   0.0800 
 30 H       -7.8730    -1.0900     1.1960 H     1 <1>   0.0800 
 31 H       -8.8840    -5.4550    -0.0280 H     1 <1>   0.0800 
 32 H       -9.8970    -5.2420    -1.4320 H     1 <1>   0.0800 
 33 H      -10.2240    -4.3370     0.0220 H     1 <1>   0.0800 
 34 H      -10.5770    -2.0590     0.2500 H     1 <1>   0.0800 
 35 H      -10.2500    -0.7860     1.3910 H     1 <1>   0.0800 
 36 H       -9.8900    -2.4400     1.8180 H     1 <1>   0.0800 
@<TRIPOS>BOND
  1   1   2  1   
  2   2   3  1   
  3   2   4  1   
  4   2   5  1   
  5   5   6  ar  
  6   5   7  ar  
  7   6   8  1   
  8   6   9  ar  
  9   7  10  ar  
 10   7  20  1   
 11   8  11  am  
 12   8  21  1   
 13   9  12  ar  
 14   9  22  1   
 15  10  12  ar  
 16  10  23  1   
 17  11  13  2   
 18  11  14  am  
 19  12  24  1   
 20  14  15  1   
 21  14  25  1   
 22  15  16  1   
 23  15  17  1   
 24  15  26  1   
 25  16  18  1   
 26  16  27  1   
 27  16  28  1   
 28  17  19  1   
 29  17  29  1   
 30  17  30  1   
 31  18  31  1   
 32  18  32  1   
 33  18  33  1   
 34  19  34  1   
 35  19  35  1   
 36  19  36  1   
@<TRIPOS>SUBSTRUCTURE
  1 ****   8 GROUP 4 **** **** 0

# MOE 2024.06 (io_trps.svl 2023.06)
