@<TRIPOS>MOLECULE
NONAME
37 39 1 0 0 
SMALL
USER_CHARGES


@<TRIPOS>ATOM
  1 BR      -1.8660    -0.1320    -3.8120 Br    1 <1>  -0.0580 
  2 C       -2.5530    -0.0380    -2.0210 C.2   1 <1>   0.0980 
  3 S       -4.0310    -0.9220    -1.7210 S.3   1 <1>  -0.0800 
  4 C       -2.0920     0.6000    -0.9330 C.2   1 <1>  -0.1500 
  5 C       -4.0100    -0.3880    -0.0380 C.2   1 <1>  -0.1400 
  6 C       -2.9360     0.3940     0.2070 C.2   1 <1>  -0.1500 
  7 C       -5.1490    -0.8630     0.8390 C.3   1 <1>   0.5230 
  8 N       -6.4260    -0.3860     0.2490 N.4   1 <1>  -0.9590 
  9 C       -6.5100     1.1250     0.2490 C.3   1 <1>   0.3430 
 10 C       -7.6270    -1.0020     0.9250 C.3   1 <1>   0.3430 
 11 C       -7.8390     1.6450    -0.3370 C.3   1 <1>   0.2090 
 12 C       -8.9620    -0.4930     0.3410 C.3   1 <1>   0.2090 
 13 N       -8.9980     0.9970     0.3400 N.pl3 1 <1>  -0.8380 
 14 C      -10.2410     1.5780     0.1200 C.ar  1 <1>   0.1000 
 15 C      -10.8910     2.2220     1.1630 C.ar  1 <1>  -0.1500 
 16 C      -10.8560     1.5310    -1.1270 C.ar  1 <1>  -0.1500 
 17 C      -12.1290     2.8070     0.9710 C.ar  1 <1>  -0.1500 
 18 C      -12.0940     2.1150    -1.3240 C.ar  1 <1>  -0.1500 
 19 C      -12.7330     2.7540    -0.2750 C.ar  1 <1>  -0.1500 
 20 H       -1.1990     1.2000    -0.8880 H     1 <1>   0.1500 
 21 H       -2.6800     0.8480     1.1510 H     1 <1>   0.1500 
 22 H       -5.0310    -0.4780     1.8390 H     1 <1>   0.0800 
 23 H       -5.1380    -1.9400     0.8800 H     1 <1>   0.0800 
 24 H       -6.4190    -0.6840    -0.7350 H     1 <1>   0.4500 
 25 H       -5.6930     1.5400    -0.3190 H     1 <1>   0.0800 
 26 H       -6.4290     1.4910     1.2590 H     1 <1>   0.0800 
 27 H       -7.6140    -0.7590     1.9740 H     1 <1>   0.0800 
 28 H       -7.5930    -2.0750     0.8320 H     1 <1>   0.0800 
 29 H       -7.8770     1.4470    -1.3940 H     1 <1>   0.0800 
 30 H       -7.8990     2.7110    -0.1980 H     1 <1>   0.0800 
 31 H       -9.7790    -0.8650     0.9360 H     1 <1>   0.0800 
 32 H       -9.0900    -0.8600    -0.6630 H     1 <1>   0.0800 
 33 H      -10.4210     2.2610     2.1280 H     1 <1>   0.1500 
 34 H      -10.3670     1.0380    -1.9450 H     1 <1>   0.1500 
 35 H      -12.6250     3.3030     1.7870 H     1 <1>   0.1500 
 36 H      -12.5640     2.0750    -2.2910 H     1 <1>   0.1500 
 37 H      -13.6960     3.2090    -0.4260 H     1 <1>   0.1500 
@<TRIPOS>BOND
  1   1   2  1   
  2   2   3  1   
  3   2   4  2   
  4   3   5  1   
  5   4   6  1   
  6   4  20  1   
  7   5   6  2   
  8   5   7  1   
  9   6  21  1   
 10   7   8  1   
 11   7  22  1   
 12   7  23  1   
 13   8   9  1   
 14   8  10  1   
 15   8  24  1   
 16   9  11  1   
 17   9  25  1   
 18   9  26  1   
 19  10  12  1   
 20  10  27  1   
 21  10  28  1   
 22  11  13  1   
 23  11  29  1   
 24  11  30  1   
 25  12  13  1   
 26  12  31  1   
 27  12  32  1   
 28  13  14  1   
 29  14  15  ar  
 30  14  16  ar  
 31  15  17  ar  
 32  15  33  1   
 33  16  18  ar  
 34  16  34  1   
 35  17  19  ar  
 36  17  35  1   
 37  18  19  ar  
 38  18  36  1   
 39  19  37  1   
@<TRIPOS>SUBSTRUCTURE
  1 ****   9 GROUP 4 **** **** 0

# MOE 2024.06 (io_trps.svl 2023.06)
