@<TRIPOS>MOLECULE
NONAME
53 55 1 0 0 
SMALL
USER_CHARGES


@<TRIPOS>ATOM
  1 O        1.3910    -0.7550     0.4620 O.2   1 <1>  -0.5700 
  2 C        1.1310    -1.6320     1.2640 C.2   1 <1>   0.6900 
  3 N        2.0940    -2.0150     2.1490 N.am  1 <1>  -0.6600 
  4 N       -0.0620    -2.2790     1.2950 N.am  1 <1>  -0.5470 
  5 C        2.8940    -3.2120     1.7750 C.3   1 <1>   0.1400 
  6 C        2.9160    -0.9340     2.7670 C.3   1 <1>   0.1400 
  7 C       -1.2010    -2.0470     0.5150 C.ar  1 <1>   0.1170 
  8 C        4.0460    -2.8040     0.8300 C.3   1 <1>   0.3430 
  9 C        4.0730    -0.5300     1.8290 C.3   1 <1>   0.3430 
 10 C       -1.2270    -2.2290    -0.8710 C.ar  1 <1>  -0.1440 
 11 C       -2.3620    -1.6390     1.1600 C.ar  1 <1>  -0.1500 
 12 N        4.9150    -1.7140     1.4150 N.4   1 <1>  -0.9590 
 13 C       -2.3980    -1.9850    -1.5710 C.ar  1 <1>  -0.1500 
 14 C       -0.0050    -2.6970    -1.6500 C.3   1 <1>  -0.0970 
 15 C       -3.5260    -1.4030     0.4530 C.ar  1 <1>  -0.1500 
 16 C        5.9680    -1.2570     0.4540 C.3   1 <1>   0.3430 
 17 C       -3.5500    -1.5750    -0.9200 C.ar  1 <1>  -0.1430 
 18 C        7.0170    -2.3380     0.1840 C.3   1 <1>  -0.0170 
 19 C       -4.8200    -1.3120    -1.7080 C.3   1 <1>  -0.0970 
 20 C        8.1040    -1.7460    -0.6910 C.ar  1 <1>  -0.1430 
 21 C        9.2490    -1.2100    -0.1210 C.ar  1 <1>  -0.1500 
 22 C        7.9550    -1.7250    -2.0700 C.ar  1 <1>  -0.1500 
 23 C       10.2330    -0.6550    -0.9220 C.ar  1 <1>  -0.1500 
 24 C        8.9390    -1.1700    -2.8700 C.ar  1 <1>  -0.1500 
 25 C       10.0770    -0.6330    -2.2960 C.ar  1 <1>  -0.1500 
 26 H       -0.2220    -2.7930     2.1570 H     1 <1>   0.3700 
 27 H        2.2620    -3.9280     1.2750 H     1 <1>   0.0800 
 28 H        3.2860    -3.6790     2.6620 H     1 <1>   0.0800 
 29 H        3.3000    -1.2660     3.7150 H     1 <1>   0.0800 
 30 H        2.2930    -0.0730     2.9470 H     1 <1>   0.0800 
 31 H        3.6120    -2.4570    -0.0950 H     1 <1>   0.0800 
 32 H        4.6420    -3.6730     0.6100 H     1 <1>   0.0800 
 33 H        4.6870     0.2050     2.3230 H     1 <1>   0.0800 
 34 H        3.6450    -0.0670     0.9540 H     1 <1>   0.0800 
 35 H       -2.3560    -1.4960     2.2240 H     1 <1>   0.1500 
 36 H        5.3740    -2.0800     2.2590 H     1 <1>   0.4500 
 37 H       -2.4180    -2.1140    -2.6380 H     1 <1>   0.1500 
 38 H        0.5220    -3.4550    -1.1020 H     1 <1>   0.0800 
 39 H        0.6510    -1.8640    -1.8250 H     1 <1>   0.0800 
 40 H       -0.2940    -3.1100    -2.5990 H     1 <1>   0.0800 
 41 H       -4.4110    -1.0830     0.9740 H     1 <1>   0.1500 
 42 H        6.4720    -0.3940     0.8570 H     1 <1>   0.0800 
 43 H        5.5130    -0.9620    -0.4780 H     1 <1>   0.0800 
 44 H        6.5820    -3.1790    -0.3230 H     1 <1>   0.0800 
 45 H        7.4510    -2.6770     1.1090 H     1 <1>   0.0800 
 46 H       -5.6850    -1.4170    -1.0780 H     1 <1>   0.0800 
 47 H       -4.9050    -2.0090    -2.5210 H     1 <1>   0.0800 
 48 H       -4.7990    -0.3130    -2.1050 H     1 <1>   0.0800 
 49 H        9.3940    -1.2190     0.9450 H     1 <1>   0.1500 
 50 H        7.0810    -2.1410    -2.5390 H     1 <1>   0.1500 
 51 H       11.1220    -0.2410    -0.4780 H     1 <1>   0.1500 
 52 H        8.8220    -1.1550    -3.9400 H     1 <1>   0.1500 
 53 H       10.8430    -0.2020    -2.9180 H     1 <1>   0.1500 
@<TRIPOS>BOND
  1   1   2  2   
  2   2   3  am  
  3   2   4  am  
  4   3   5  1   
  5   3   6  1   
  6   4   7  1   
  7   4  26  1   
  8   5   8  1   
  9   5  27  1   
 10   5  28  1   
 11   6   9  1   
 12   6  29  1   
 13   6  30  1   
 14   7  10  ar  
 15   7  11  ar  
 16   8  12  1   
 17   8  31  1   
 18   8  32  1   
 19   9  12  1   
 20   9  33  1   
 21   9  34  1   
 22  10  13  ar  
 23  10  14  1   
 24  11  15  ar  
 25  11  35  1   
 26  12  16  1   
 27  12  36  1   
 28  13  17  ar  
 29  13  37  1   
 30  14  38  1   
 31  14  39  1   
 32  14  40  1   
 33  15  17  ar  
 34  15  41  1   
 35  16  18  1   
 36  16  42  1   
 37  16  43  1   
 38  17  19  1   
 39  18  20  1   
 40  18  44  1   
 41  18  45  1   
 42  19  46  1   
 43  19  47  1   
 44  19  48  1   
 45  20  21  ar  
 46  20  22  ar  
 47  21  23  ar  
 48  21  49  1   
 49  22  24  ar  
 50  22  50  1   
 51  23  25  ar  
 52  23  51  1   
 53  24  25  ar  
 54  24  52  1   
 55  25  53  1   
@<TRIPOS>SUBSTRUCTURE
  1 ****   1 GROUP 4 **** **** 0

# MOE 2024.06 (io_trps.svl 2023.06)
