@<TRIPOS>MOLECULE
NONAME
47 48 1 0 0 
SMALL
USER_CHARGES


@<TRIPOS>ATOM
  1 CL       0.0550    -0.2680    -0.1190 Cl    1 <1>  -0.1770 
  2 C       -1.5790    -0.8940    -0.0930 C.ar  1 <1>   0.1770 
  3 C       -1.8130    -2.2300     0.2000 C.ar  1 <1>  -0.1440 
  4 C       -2.6160    -0.0230    -0.3700 C.ar  1 <1>  -0.1500 
  5 C       -3.1230    -2.6830     0.2100 C.ar  1 <1>  -0.1500 
  6 C       -0.6660    -3.1830     0.5030 C.3   1 <1>  -0.0960 
  7 C       -3.9210    -0.4840    -0.3570 C.ar  1 <1>  -0.1500 
  8 C       -4.1780    -1.8230    -0.0650 C.ar  1 <1>   0.0830 
  9 O       -5.4220    -2.3620    -0.0280 O.3   1 <1>  -0.3630 
 10 C       -6.5690    -1.5800    -0.2500 C.3   1 <1>   0.1200 
 11 C       -7.7800    -2.5130    -0.1270 C.3   1 <1>   0.3430 
 12 N       -9.0880    -1.8120    -0.3560 N.4   1 <1>  -0.9590 
 13 C       -9.4090    -0.8400     0.7320 C.3   1 <1>   0.3430 
 14 C      -10.1800    -2.8140    -0.5230 C.3   1 <1>   0.3430 
 15 C      -10.6810    -0.0750     0.3730 C.3   1 <1>  -0.1600 
 16 C      -11.4730    -2.1020    -0.9150 C.3   1 <1>  -0.1600 
 17 C      -11.8690    -1.0190     0.1060 C.3   1 <1>  -0.0190 
 18 C      -13.0910    -0.2410    -0.3760 C.2   1 <1>   0.6590 
 19 O      -13.0370     0.4540    -1.3560 O.2   1 <1>  -0.5700 
 20 O      -14.1930    -0.3860     0.3430 O.3   1 <1>  -0.4300 
 21 C      -15.3870     0.2780    -0.0030 C.3   1 <1>   0.1200 
 22 C      -16.4530    -0.1020     1.0190 C.3   1 <1>  -0.2400 
 23 H       -2.3960     1.0060    -0.5930 H     1 <1>   0.1500 
 24 H       -3.3390    -3.7120     0.4330 H     1 <1>   0.1500 
 25 H       -0.1190    -2.8380     1.3630 H     1 <1>   0.0800 
 26 H        0.0040    -3.2300    -0.3370 H     1 <1>   0.0800 
 27 H       -1.0290    -4.1740     0.7060 H     1 <1>   0.0800 
 28 H       -4.7080     0.2110    -0.5770 H     1 <1>   0.1500 
 29 H       -6.5030    -1.1650    -1.2400 H     1 <1>   0.0800 
 30 H       -6.5900    -0.8060     0.4960 H     1 <1>   0.0800 
 31 H       -7.7760    -2.9590     0.8540 H     1 <1>   0.0800 
 32 H       -7.6650    -3.2990    -0.8550 H     1 <1>   0.0800 
 33 H       -9.0300    -1.2870    -1.2410 H     1 <1>   0.4500 
 34 H       -8.5990    -0.1390     0.8600 H     1 <1>   0.0800 
 35 H       -9.5520    -1.3650     1.6630 H     1 <1>   0.0800 
 36 H      -10.3280    -3.3530     0.4000 H     1 <1>   0.0800 
 37 H       -9.9170    -3.5250    -1.2910 H     1 <1>   0.0800 
 38 H      -10.4930     0.5370    -0.4930 H     1 <1>   0.0800 
 39 H      -10.9310     0.5900     1.1820 H     1 <1>   0.0800 
 40 H      -12.2650    -2.8270    -0.9880 H     1 <1>   0.0800 
 41 H      -11.3530    -1.6620    -1.8910 H     1 <1>   0.0800 
 42 H      -12.1340    -1.5020     1.0310 H     1 <1>   0.0800 
 43 H      -15.6750    -0.0280    -0.9940 H     1 <1>   0.0800 
 44 H      -15.2040     1.3400     0.0070 H     1 <1>   0.0800 
 45 H      -16.6210    -1.1650     1.0050 H     1 <1>   0.0800 
 46 H      -17.3770     0.3920     0.7790 H     1 <1>   0.0800 
 47 H      -16.1490     0.2020     2.0050 H     1 <1>   0.0800 
@<TRIPOS>BOND
  1   1   2  1   
  2   2   3  ar  
  3   2   4  ar  
  4   3   5  ar  
  5   3   6  1   
  6   4   7  ar  
  7   4  23  1   
  8   5   8  ar  
  9   5  24  1   
 10   6  25  1   
 11   6  26  1   
 12   6  27  1   
 13   7   8  ar  
 14   7  28  1   
 15   8   9  1   
 16   9  10  1   
 17  10  11  1   
 18  10  29  1   
 19  10  30  1   
 20  11  12  1   
 21  11  31  1   
 22  11  32  1   
 23  12  13  1   
 24  12  14  1   
 25  12  33  1   
 26  13  15  1   
 27  13  34  1   
 28  13  35  1   
 29  14  16  1   
 30  14  36  1   
 31  14  37  1   
 32  15  17  1   
 33  15  38  1   
 34  15  39  1   
 35  16  17  1   
 36  16  40  1   
 37  16  41  1   
 38  17  18  1   
 39  17  42  1   
 40  18  19  2   
 41  18  20  1   
 42  20  21  1   
 43  21  22  1   
 44  21  43  1   
 45  21  44  1   
 46  22  45  1   
 47  22  46  1   
 48  22  47  1   
@<TRIPOS>SUBSTRUCTURE
  1 ****  11 GROUP 4 **** **** 0

# MOE 2024.06 (io_trps.svl 2023.06)
