@<TRIPOS>MOLECULE
NONAME
38 39 1 0 0 
SMALL
USER_CHARGES


@<TRIPOS>ATOM
  1 O        0.4100    -1.7680    -0.6720 O.3   1 <1>  -0.3630 
  2 C       -0.8960    -1.5750    -0.3430 C.ar  1 <1>   0.0830 
  3 C        1.4410    -1.0190    -0.0760 C.3   1 <1>   0.1200 
  4 C       -1.8440    -2.3700    -0.9790 C.ar  1 <1>  -0.1440 
  5 C       -1.3080    -0.6260     0.5920 C.ar  1 <1>  -0.1500 
  6 C        2.7690    -1.4920    -0.6670 C.3   1 <1>  -0.1600 
  7 C       -3.1860    -2.2090    -0.6750 C.ar  1 <1>  -0.1500 
  8 C       -1.4210    -3.4130    -2.0040 C.3   1 <1>  -0.0970 
  9 C       -2.6510    -0.4680     0.8910 C.ar  1 <1>  -0.1430 
 10 C        3.9510    -0.7190    -0.0670 C.3   1 <1>  -0.1600 
 11 C       -3.5870    -1.2650     0.2540 C.ar  1 <1>  -0.1500 
 12 C       -3.0970     0.5640     1.9100 C.3   1 <1>  -0.0970 
 13 C        5.2820    -1.1930    -0.6620 C.3   1 <1>   0.0960 
 14 N        6.4030    -0.4360    -0.0740 N.pl3 1 <1>   0.0480 
 15 C        6.9750     0.6960    -0.5430 C.2   1 <1>   0.0360 
 16 C        7.0760    -0.7150     1.0560 C.2   1 <1>  -0.3020 
 17 N        7.9400     1.1430     0.1940 N.2   1 <1>  -0.5650 
 18 C        8.0060     0.2540     1.2030 C.2   1 <1>   0.0770 
 19 H        1.4120    -1.1890     0.9870 H     1 <1>   0.0800 
 20 H        1.2720     0.0220    -0.2940 H     1 <1>   0.0800 
 21 H       -0.5970    -0.0030     1.0970 H     1 <1>   0.1500 
 22 H        2.7440    -1.3450    -1.7340 H     1 <1>   0.0800 
 23 H        2.8830    -2.5430    -0.4650 H     1 <1>   0.0800 
 24 H       -3.9280    -2.8180    -1.1590 H     1 <1>   0.1500 
 25 H       -0.7570    -4.1230    -1.5450 H     1 <1>   0.0800 
 26 H       -0.9080    -2.9340    -2.8170 H     1 <1>   0.0800 
 27 H       -2.2710    -3.9410    -2.3960 H     1 <1>   0.0800 
 28 H        3.9680    -0.8660     1.0000 H     1 <1>   0.0800 
 29 H        3.8280     0.3330    -0.2660 H     1 <1>   0.0800 
 30 H       -4.6330    -1.1550     0.4790 H     1 <1>   0.1500 
 31 H       -2.4060     1.3870     1.9420 H     1 <1>   0.0800 
 32 H       -3.1470     0.1140     2.8850 H     1 <1>   0.0800 
 33 H       -4.0680     0.9480     1.6540 H     1 <1>   0.0800 
 34 H        5.2870    -1.0470    -1.7280 H     1 <1>   0.0800 
 35 H        5.4300    -2.2390    -0.4590 H     1 <1>   0.0800 
 36 H        6.6440     1.1700    -1.4500 H     1 <1>   0.1500 
 37 H        6.8660    -1.5630     1.6810 H     1 <1>   0.1500 
 38 H        8.7300     0.3620     1.9940 H     1 <1>   0.1500 
@<TRIPOS>BOND
  1   1   2  1   
  2   1   3  1   
  3   2   4  ar  
  4   2   5  ar  
  5   3   6  1   
  6   3  19  1   
  7   3  20  1   
  8   4   7  ar  
  9   4   8  1   
 10   5   9  ar  
 11   5  21  1   
 12   6  10  1   
 13   6  22  1   
 14   6  23  1   
 15   7  11  ar  
 16   7  24  1   
 17   8  25  1   
 18   8  26  1   
 19   8  27  1   
 20   9  11  ar  
 21   9  12  1   
 22  10  13  1   
 23  10  28  1   
 24  10  29  1   
 25  11  30  1   
 26  12  31  1   
 27  12  32  1   
 28  12  33  1   
 29  13  14  1   
 30  13  34  1   
 31  13  35  1   
 32  14  15  1   
 33  14  16  1   
 34  15  17  2   
 35  15  36  1   
 36  16  18  2   
 37  16  37  1   
 38  17  18  1   
 39  18  38  1   
@<TRIPOS>SUBSTRUCTURE
  1 ****   3 GROUP 4 **** **** 0

# MOE 2024.06 (io_trps.svl 2023.06)
