@<TRIPOS>MOLECULE
NONAME
46 47 1 0 0 
SMALL
USER_CHARGES


@<TRIPOS>ATOM
  1 O       -0.4830     0.0230    -1.4490 O.2   1 <1>  -0.5700 
  2 C       -1.3520    -0.5110    -0.7870 C.2   1 <1>   0.7800 
  3 O       -1.3390    -1.8350    -0.5920 O.3   1 <1>  -0.4300 
  4 N       -2.3840     0.1870    -0.2330 N.am  1 <1>  -0.6600 
  5 C       -0.3730    -2.7590    -1.0400 C.3   1 <1>   0.2800 
  6 C       -2.4000     1.6990    -0.1700 C.3   1 <1>   0.1140 
  7 C       -3.4860    -0.4550     0.5250 C.3   1 <1>   0.2840 
  8 C       -0.8460    -4.1140    -0.5130 C.3   1 <1>  -0.2400 
  9 C        0.9960    -2.4320    -0.4310 C.3   1 <1>  -0.2400 
 10 C       -0.3430    -2.7960    -2.5720 C.3   1 <1>  -0.2400 
 11 C       -2.2360     2.3520     1.2250 C.2   1 <1>   0.9060 
 12 C       -3.6850     2.1810    -0.8610 C.3   1 <1>  -0.0170 
 13 C       -4.8380     0.1760     0.1910 C.ar  1 <1>  -0.1440 
 14 O       -2.1880     1.6690     2.2610 O.co2 1 <1>  -0.9000 
 15 O       -2.1410     3.5880     1.2740 O.co2 1 <1>  -0.9000 
 16 C       -4.9340     1.4110    -0.4390 C.ar  1 <1>  -0.1440 
 17 C       -5.9960    -0.5030     0.5420 C.ar  1 <1>  -0.1500 
 18 C       -6.1810     1.9530    -0.7070 C.ar  1 <1>  -0.1500 
 19 C       -7.2520     0.0340     0.2740 C.ar  1 <1>   0.0820 
 20 C       -7.3450     1.2770    -0.3550 C.ar  1 <1>   0.0820 
 21 O       -8.4100    -0.6080     0.6090 O.3   1 <1>  -0.3630 
 22 O       -8.5880     1.7870    -0.5990 O.3   1 <1>  -0.3630 
 23 C       -8.4040    -1.7650     1.4140 C.3   1 <1>   0.0400 
 24 C       -8.7620     3.1340    -0.9740 C.3   1 <1>   0.0400 
 25 H       -1.5720     2.0760    -0.7400 H     1 <1>   0.0800 
 26 H       -3.2970    -0.3550     1.5790 H     1 <1>   0.0800 
 27 H       -3.5300    -1.5040     0.2970 H     1 <1>   0.0800 
 28 H       -0.8990    -4.0960     0.5610 H     1 <1>   0.0800 
 29 H       -0.1630    -4.8900    -0.8070 H     1 <1>   0.0800 
 30 H       -1.8180    -4.3480    -0.9080 H     1 <1>   0.0800 
 31 H        1.3910    -1.5190    -0.8370 H     1 <1>   0.0800 
 32 H        1.6950    -3.2160    -0.6530 H     1 <1>   0.0800 
 33 H        0.9150    -2.3350     0.6360 H     1 <1>   0.0800 
 34 H        0.0560    -1.8830    -2.9730 H     1 <1>   0.0800 
 35 H       -1.3330    -2.9490    -2.9610 H     1 <1>   0.0800 
 36 H        0.2860    -3.6000    -2.9080 H     1 <1>   0.0800 
 37 H       -3.5560     2.0640    -1.9210 H     1 <1>   0.0800 
 38 H       -3.8170     3.2310    -0.6660 H     1 <1>   0.0800 
 39 H       -5.8970    -1.4520     1.0290 H     1 <1>   0.1500 
 40 H       -6.2210     2.9060    -1.1950 H     1 <1>   0.1500 
 41 H       -9.4250    -2.0410     1.6060 H     1 <1>   0.0800 
 42 H       -7.9030    -1.5410     2.3390 H     1 <1>   0.0800 
 43 H       -7.9040    -2.5550     0.8830 H     1 <1>   0.0800 
 44 H       -9.8170     3.3400    -0.9960 H     1 <1>   0.0800 
 45 H       -8.3400     3.2800    -1.9520 H     1 <1>   0.0800 
 46 H       -8.2800     3.7630    -0.2460 H     1 <1>   0.0800 
@<TRIPOS>BOND
  1   1   2  2   
  2   2   3  1   
  3   2   4  am  
  4   3   5  1   
  5   4   6  1   
  6   4   7  1   
  7   5   8  1   
  8   5   9  1   
  9   5  10  1   
 10   6  11  1   
 11   6  12  1   
 12   6  25  1   
 13   7  13  1   
 14   7  26  1   
 15   7  27  1   
 16   8  28  1   
 17   8  29  1   
 18   8  30  1   
 19   9  31  1   
 20   9  32  1   
 21   9  33  1   
 22  10  34  1   
 23  10  35  1   
 24  10  36  1   
 25  11  14  ar  
 26  11  15  ar  
 27  12  16  1   
 28  12  37  1   
 29  12  38  1   
 30  13  16  ar  
 31  13  17  ar  
 32  16  18  ar  
 33  17  19  ar  
 34  17  39  1   
 35  18  20  ar  
 36  18  40  1   
 37  19  20  ar  
 38  19  21  1   
 39  20  22  1   
 40  21  23  1   
 41  22  24  1   
 42  23  41  1   
 43  23  42  1   
 44  23  43  1   
 45  24  44  1   
 46  24  45  1   
 47  24  46  1   
@<TRIPOS>SUBSTRUCTURE
  1 ****   7 GROUP 4 **** **** 0

# MOE 2024.06 (io_trps.svl 2023.06)
