@<TRIPOS>MOLECULE
NONAME
48 50 1 0 0 
SMALL
USER_CHARGES


@<TRIPOS>ATOM
  1 O       -0.7540    -2.6090    -2.0080 O.2   1 <1>  -0.5700 
  2 C       -0.8240    -3.7700    -1.6840 C.2   1 <1>   0.5690 
  3 N        0.2520    -4.4650    -1.2400 N.am  1 <1>  -0.7300 
  4 C       -2.1650    -4.5050    -1.7750 C.3   1 <1>   0.1710 
  5 C        1.6310    -3.9400    -1.0550 C.3   1 <1>   0.1400 
  6 N       -2.3410    -5.5910    -0.7670 N.3   1 <1>  -0.8100 
  7 C        2.3160    -4.4300     0.2510 C.3   1 <1>   0.1430 
  8 C       -3.4370    -6.5140    -1.1400 C.3   1 <1>   0.1100 
  9 C       -2.5400    -5.0590     0.5940 C.3   1 <1>   0.1100 
 10 C        3.7670    -3.8990     0.3760 C.ar  1 <1>  -0.1430 
 11 C        1.4850    -3.9910     1.4830 C.3   1 <1>  -0.1600 
 12 C        2.3120    -5.9790     0.2930 C.3   1 <1>  -0.1600 
 13 C       -4.0820    -7.2380     0.0640 C.3   1 <1>   0.1200 
 14 C       -2.6790    -6.1910     1.6400 C.3   1 <1>   0.1200 
 15 C        4.3800    -3.1130    -0.5990 C.ar  1 <1>  -0.1500 
 16 C        4.5110    -4.2060     1.5130 C.ar  1 <1>  -0.1500 
 17 C        1.1660    -5.2540     2.2870 C.3   1 <1>  -0.1600 
 18 C        1.2140    -6.3900     1.2740 C.3   1 <1>  -0.1600 
 19 O       -3.1700    -7.3940     1.1080 O.3   1 <1>  -0.5600 
 20 C        5.6790    -2.6590    -0.4420 C.ar  1 <1>  -0.1500 
 21 C        5.8090    -3.7540     1.6740 C.ar  1 <1>  -0.1500 
 22 C        6.3960    -2.9780     0.6940 C.ar  1 <1>  -0.1500 
 23 H        0.0670    -5.4160    -0.9020 H     1 <1>   0.3700 
 24 H       -2.2180    -4.9290    -2.7610 H     1 <1>   0.0800 
 25 H       -2.9590    -3.7860    -1.6820 H     1 <1>   0.0800 
 26 H        1.5980    -2.8630    -1.0550 H     1 <1>   0.0800 
 27 H        2.2180    -4.2560    -1.8990 H     1 <1>   0.0800 
 28 H       -3.0410    -7.2540    -1.8150 H     1 <1>   0.0800 
 29 H       -4.2120    -5.9820    -1.6640 H     1 <1>   0.0800 
 30 H       -3.4320    -4.4560     0.6150 H     1 <1>   0.0800 
 31 H       -1.7150    -4.4270     0.8710 H     1 <1>   0.0800 
 32 H        0.5630    -3.5310     1.1770 H     1 <1>   0.0800 
 33 H        2.0090    -3.2730     2.0890 H     1 <1>   0.0800 
 34 H        3.2520    -6.3490     0.6620 H     1 <1>   0.0800 
 35 H        2.1560    -6.4170    -0.6770 H     1 <1>   0.0800 
 36 H       -4.4260    -8.2150    -0.2280 H     1 <1>   0.0800 
 37 H       -4.9230    -6.6780     0.4330 H     1 <1>   0.0800 
 38 H       -3.3360    -5.8810     2.4320 H     1 <1>   0.0800 
 39 H       -1.7190    -6.4100     2.0700 H     1 <1>   0.0800 
 40 H        3.8730    -2.8290    -1.5010 H     1 <1>   0.1500 
 41 H        4.0810    -4.8070     2.2930 H     1 <1>   0.1500 
 42 H        0.2110    -5.1880     2.7780 H     1 <1>   0.0800 
 43 H        1.9270    -5.4090     3.0320 H     1 <1>   0.0800 
 44 H        1.4240    -7.3380     1.7400 H     1 <1>   0.0800 
 45 H        0.2720    -6.4590     0.7590 H     1 <1>   0.0800 
 46 H        6.1310    -2.0530    -1.2080 H     1 <1>   0.1500 
 47 H        6.3610    -4.0070     2.5630 H     1 <1>   0.1500 
 48 H        7.4050    -2.6250     0.8150 H     1 <1>   0.1500 
@<TRIPOS>BOND
  1   1   2  2   
  2   2   3  am  
  3   2   4  1   
  4   3   5  1   
  5   3  23  1   
  6   4   6  1   
  7   4  24  1   
  8   4  25  1   
  9   5   7  1   
 10   5  26  1   
 11   5  27  1   
 12   6   8  1   
 13   6   9  1   
 14   7  10  1   
 15   7  11  1   
 16   7  12  1   
 17   8  13  1   
 18   8  28  1   
 19   8  29  1   
 20   9  14  1   
 21   9  30  1   
 22   9  31  1   
 23  10  15  ar  
 24  10  16  ar  
 25  11  17  1   
 26  11  32  1   
 27  11  33  1   
 28  12  18  1   
 29  12  34  1   
 30  12  35  1   
 31  13  19  1   
 32  13  36  1   
 33  13  37  1   
 34  14  19  1   
 35  14  38  1   
 36  14  39  1   
 37  15  20  ar  
 38  15  40  1   
 39  16  21  ar  
 40  16  41  1   
 41  17  18  1   
 42  17  42  1   
 43  17  43  1   
 44  18  44  1   
 45  18  45  1   
 46  20  22  ar  
 47  20  46  1   
 48  21  22  ar  
 49  21  47  1   
 50  22  48  1   
@<TRIPOS>SUBSTRUCTURE
  1 ****   7 GROUP 4 **** **** 0

# MOE 2024.06 (io_trps.svl 2023.06)
