@<TRIPOS>MOLECULE
NONAME
47 49 1 0 0 
SMALL
USER_CHARGES


@<TRIPOS>ATOM
  1 S       -0.0980     0.9760     0.1430 S.o2  1 <1>   1.4470 
  2 O       -0.5730     0.1110     1.2000 O.2   1 <1>  -0.6500 
  3 O       -0.6780     0.8690    -1.1750 O.2   1 <1>  -0.6500 
  4 N       -0.3900     2.5530     0.6400 N.am  1 <1>  -0.9140 
  5 C        1.7100     0.8870     0.0390 C.ar  1 <1>  -0.0090 
  6 C       -1.7310     2.7740     1.1750 C.3   1 <1>   0.1960 
  7 C        2.3470     0.4030    -1.0990 C.ar  1 <1>  -0.1500 
  8 C        2.5120     1.2880     1.1000 C.ar  1 <1>  -0.1500 
  9 C       -2.7610     2.8930     0.0380 C.3   1 <1>   0.2000 
 10 C        3.7270     0.3280    -1.1750 C.ar  1 <1>  -0.1500 
 11 C        3.8920     1.2150     1.0290 C.ar  1 <1>  -0.1500 
 12 O       -2.2820     3.7690    -0.9330 O.3   1 <1>  -0.5600 
 13 C       -4.1020     3.4890     0.4460 C.3   1 <1>  -0.1600 
 14 C        4.5240     0.7360    -0.1130 C.ar  1 <1>   0.1170 
 15 C       -3.3380     4.2040    -1.7250 C.3   1 <1>   0.1200 
 16 C       -4.5780     4.1650    -0.8320 C.3   1 <1>  -0.1600 
 17 N        5.9160     0.6310    -0.2280 N.am  1 <1>  -0.5470 
 18 C        6.9260     1.3100     0.3930 C.2   1 <1>   0.6900 
 19 O        6.6960     2.2410     1.1410 O.2   1 <1>  -0.5700 
 20 N        8.2180     0.9360     0.1400 N.am  1 <1>  -0.6600 
 21 C        9.3650     1.6020     0.7960 C.3   1 <1>   0.1400 
 22 C        8.6570    -0.2690    -0.5990 C.3   1 <1>   0.1400 
 23 C       10.5150     0.6090     0.6700 C.3   1 <1>  -0.1600 
 24 C       10.1800    -0.2130    -0.5700 C.3   1 <1>  -0.1600 
 25 H       -0.4040     3.0870    -0.2370 H     1 <1>   0.4200 
 26 H       -1.7240     3.6990     1.7240 H     1 <1>   0.0800 
 27 H       -2.0110     1.9920     1.8620 H     1 <1>   0.0800 
 28 H        1.7520     0.0830    -1.9390 H     1 <1>   0.1500 
 29 H        2.0480     1.6650     1.9960 H     1 <1>   0.1500 
 30 H       -2.9170     1.9360    -0.4320 H     1 <1>   0.0800 
 31 H        4.1860    -0.0460    -2.0710 H     1 <1>   0.1500 
 32 H        4.4790     1.5310     1.8720 H     1 <1>   0.1500 
 33 H       -3.9610     4.2230     1.2200 H     1 <1>   0.0800 
 34 H       -4.7830     2.7320     0.7920 H     1 <1>   0.0800 
 35 H       -3.4330     3.5260    -2.5560 H     1 <1>   0.0800 
 36 H       -3.1180     5.1960    -2.0800 H     1 <1>   0.0800 
 37 H       -4.9430     5.1590    -0.6380 H     1 <1>   0.0800 
 38 H       -5.3540     3.5950    -1.3130 H     1 <1>   0.0800 
 39 H        6.2540     0.0120    -0.9530 H     1 <1>   0.3700 
 40 H        9.1460     1.8280     1.8260 H     1 <1>   0.0800 
 41 H        9.5880     2.5130     0.2670 H     1 <1>   0.0800 
 42 H        8.2890    -0.2590    -1.6110 H     1 <1>   0.0800 
 43 H        8.3050    -1.1470    -0.0830 H     1 <1>   0.0800 
 44 H       10.5230    -0.0240     1.5400 H     1 <1>   0.0800 
 45 H       11.4650     1.1080     0.5910 H     1 <1>   0.0800 
 46 H       10.5280     0.2990    -1.4510 H     1 <1>   0.0800 
 47 H       10.6170    -1.1960    -0.5410 H     1 <1>   0.0800 
@<TRIPOS>BOND
  1   1   2  2   
  2   1   3  2   
  3   1   4  am  
  4   1   5  1   
  5   4   6  1   
  6   4  25  1   
  7   5   7  ar  
  8   5   8  ar  
  9   6   9  1   
 10   6  26  1   
 11   6  27  1   
 12   7  10  ar  
 13   7  28  1   
 14   8  11  ar  
 15   8  29  1   
 16   9  12  1   
 17   9  13  1   
 18   9  30  1   
 19  10  14  ar  
 20  10  31  1   
 21  11  14  ar  
 22  11  32  1   
 23  12  15  1   
 24  13  16  1   
 25  13  33  1   
 26  13  34  1   
 27  14  17  1   
 28  15  16  1   
 29  15  35  1   
 30  15  36  1   
 31  16  37  1   
 32  16  38  1   
 33  17  18  am  
 34  17  39  1   
 35  18  19  2   
 36  18  20  am  
 37  20  21  1   
 38  20  22  1   
 39  21  23  1   
 40  21  40  1   
 41  21  41  1   
 42  22  24  1   
 43  22  42  1   
 44  22  43  1   
 45  23  24  1   
 46  23  44  1   
 47  23  45  1   
 48  24  46  1   
 49  24  47  1   
@<TRIPOS>SUBSTRUCTURE
  1 ****   8 GROUP 4 **** **** 0

# MOE 2024.06 (io_trps.svl 2023.06)
