@<TRIPOS>MOLECULE
NONAME
33 33 1 0 0 
SMALL
USER_CHARGES


@<TRIPOS>ATOM
  1 O        0.2860     0.8900    -1.3660 O.2   1 <1>  -0.5700 
  2 C        0.2770     1.7270    -0.4860 C.2   1 <1>   0.5440 
  3 N       -0.8700     1.9170     0.2340 N.am  1 <1>  -0.7300 
  4 C        1.4660     2.5070    -0.1890 C.ar  1 <1>   0.0860 
  5 C       -2.1380     1.2080     0.0310 C.3   1 <1>   0.2200 
  6 C        2.7390     1.9640    -0.3540 C.ar  1 <1>  -0.1500 
  7 C        1.3860     3.8230     0.2720 C.ar  1 <1>  -0.1500 
  8 C       -3.2350     2.2460    -0.1750 C.3   1 <1>  -0.2400 
  9 C       -2.4070     0.3510     1.2630 C.3   1 <1>  -0.2400 
 10 C        3.8850     2.6840    -0.0640 C.ar  1 <1>   0.0830 
 11 C        2.5230     4.5550     0.5660 C.ar  1 <1>  -0.1500 
 12 O        5.0680     2.0510    -0.2600 O.3   1 <1>  -0.3630 
 13 C        3.7740     3.9900     0.4020 C.ar  1 <1>  -0.1500 
 14 C        6.2970     2.7110    -0.0620 C.3   1 <1>   0.2580 
 15 C        7.4120     1.7420    -0.4010 C.2   1 <1>  -0.2880 
 16 C        8.4090     1.3860     0.4160 C.2   1 <1>  -0.3000 
 17 H       -0.8480     2.5280     1.0480 H     1 <1>   0.3700 
 18 H       -2.0730     0.5760    -0.8410 H     1 <1>   0.0800 
 19 H        2.8360     0.9560    -0.7170 H     1 <1>   0.1500 
 20 H        0.4220     4.2830     0.3930 H     1 <1>   0.1500 
 21 H       -3.3250     2.8860     0.6840 H     1 <1>   0.0800 
 22 H       -4.1770     1.7530    -0.3350 H     1 <1>   0.0800 
 23 H       -3.0160     2.8400    -1.0440 H     1 <1>   0.0800 
 24 H       -2.4800     0.9590     2.1460 H     1 <1>   0.0800 
 25 H       -1.6140    -0.3660     1.3860 H     1 <1>   0.0800 
 26 H       -3.3290    -0.1870     1.1380 H     1 <1>   0.0800 
 27 H        2.4330     5.5680     0.9200 H     1 <1>   0.1500 
 28 H        4.6400     4.5790     0.6390 H     1 <1>   0.1500 
 29 H        6.3580     3.0210     0.9660 H     1 <1>   0.0800 
 30 H        6.3310     3.5660    -0.7140 H     1 <1>   0.0800 
 31 H        7.3140     1.3530    -1.4010 H     1 <1>   0.1500 
 32 H        9.1850     0.6910     0.1450 H     1 <1>   0.1500 
 33 H        8.5330     1.7520     1.4210 H     1 <1>   0.1500 
@<TRIPOS>BOND
  1   1   2  2   
  2   2   3  am  
  3   2   4  1   
  4   3   5  1   
  5   3  17  1   
  6   4   6  ar  
  7   4   7  ar  
  8   5   8  1   
  9   5   9  1   
 10   5  18  1   
 11   6  10  ar  
 12   6  19  1   
 13   7  11  ar  
 14   7  20  1   
 15   8  21  1   
 16   8  22  1   
 17   8  23  1   
 18   9  24  1   
 19   9  25  1   
 20   9  26  1   
 21  10  12  1   
 22  10  13  ar  
 23  11  13  ar  
 24  11  27  1   
 25  12  14  1   
 26  13  28  1   
 27  14  15  1   
 28  14  29  1   
 29  14  30  1   
 30  15  16  2   
 31  15  31  1   
 32  16  32  1   
 33  16  33  1   
@<TRIPOS>SUBSTRUCTURE
  1 ****   6 GROUP 4 **** **** 0

# MOE 2024.06 (io_trps.svl 2023.06)
