@<TRIPOS>MOLECULE
NONAME
37 38 1 0 0 
SMALL
USER_CHARGES


@<TRIPOS>ATOM
  1 S       -0.0670    -0.4530     0.3680 S.o2  1 <1>   1.5010 
  2 O       -0.3010    -1.1040    -0.9000 O.2   1 <1>  -0.6500 
  3 O       -0.0410    -1.2230     1.5900 O.2   1 <1>  -0.6500 
  4 N       -1.3470     0.6110     0.4970 N.am  1 <1>  -0.9140 
  5 C        1.3610     0.6310     0.2760 C.2   1 <1>  -0.0630 
  6 C       -2.5440    -0.0550     0.9570 C.3   1 <1>   0.3390 
  7 C        2.2260     0.8660     1.3360 C.2   1 <1>   0.1390 
  8 C        1.8570     1.4050    -0.7220 C.2   1 <1>  -0.3020 
  9 C       -3.7320     0.8200     0.6000 C.ar  1 <1>  -0.1430 
 10 N        3.1750     1.7000     1.0360 N.2   1 <1>  -0.7070 
 11 N        2.9460     2.0360    -0.2440 N.pl3 1 <1>   0.3140 
 12 C       -4.6010     0.4490    -0.4160 C.ar  1 <1>  -0.1500 
 13 C       -3.9560     2.0050     1.2860 C.ar  1 <1>  -0.1500 
 14 C        3.8170     2.9810    -0.9730 C.3   1 <1>   0.0960 
 15 C       -5.6840     1.2490    -0.7400 C.ar  1 <1>  -0.1500 
 16 C       -5.0370     2.8040     0.9640 C.ar  1 <1>  -0.1500 
 17 C        3.1770     4.3720    -1.0580 C.3   1 <1>  -0.2400 
 18 C       -5.9090     2.4350    -0.0480 C.ar  1 <1>   0.0830 
 19 O       -6.9440     3.2740    -0.3000 O.3   1 <1>  -0.3630 
 20 C       -7.8970     2.9850    -1.2990 C.3   1 <1>   0.0400 
 21 H       -1.5440     0.8870    -0.4610 H     1 <1>   0.4200 
 22 H       -2.4940    -0.2030     2.0230 H     1 <1>   0.0800 
 23 H       -2.6490    -1.0180     0.4820 H     1 <1>   0.0800 
 24 H        2.1260     0.4080     2.3080 H     1 <1>   0.1500 
 25 H        1.4960     1.5350    -1.7250 H     1 <1>   0.1500 
 26 H       -4.4410    -0.4650    -0.9610 H     1 <1>   0.1500 
 27 H       -3.2840     2.3080     2.0710 H     1 <1>   0.1500 
 28 H        3.9960     2.5900    -1.9580 H     1 <1>   0.0800 
 29 H        4.7560     3.0400    -0.4530 H     1 <1>   0.0800 
 30 H       -6.3390     0.9340    -1.5300 H     1 <1>   0.1500 
 31 H       -5.2120     3.7230     1.4940 H     1 <1>   0.1500 
 32 H        2.2440     4.3270    -1.5910 H     1 <1>   0.0800 
 33 H        3.8370     5.0450    -1.5760 H     1 <1>   0.0800 
 34 H        3.0040     4.7580    -0.0680 H     1 <1>   0.0800 
 35 H       -8.6190     3.7820    -1.3110 H     1 <1>   0.0800 
 36 H       -8.3830     2.0560    -1.0590 H     1 <1>   0.0800 
 37 H       -7.4000     2.9290    -2.2510 H     1 <1>   0.0800 
@<TRIPOS>BOND
  1   1   2  2   
  2   1   3  2   
  3   1   4  am  
  4   1   5  1   
  5   4   6  1   
  6   4  21  1   
  7   5   7  1   
  8   5   8  2   
  9   6   9  1   
 10   6  22  1   
 11   6  23  1   
 12   7  10  2   
 13   7  24  1   
 14   8  11  1   
 15   8  25  1   
 16   9  12  ar  
 17   9  13  ar  
 18  10  11  1   
 19  11  14  1   
 20  12  15  ar  
 21  12  26  1   
 22  13  16  ar  
 23  13  27  1   
 24  14  17  1   
 25  14  28  1   
 26  14  29  1   
 27  15  18  ar  
 28  15  30  1   
 29  16  18  ar  
 30  16  31  1   
 31  17  32  1   
 32  17  33  1   
 33  17  34  1   
 34  18  19  1   
 35  19  20  1   
 36  20  35  1   
 37  20  36  1   
 38  20  37  1   
@<TRIPOS>SUBSTRUCTURE
  1 ****   4 GROUP 4 **** **** 0

# MOE 2024.06 (io_trps.svl 2023.06)
