@<TRIPOS>MOLECULE
NONAME
35 37 1 0 0 
SMALL
USER_CHARGES


@<TRIPOS>ATOM
  1 S       -0.0160    -0.4030    -0.8910 S.3   1 <1>  -0.0800 
  2 C       -1.6940    -0.9310    -1.0170 C.ar  1 <1>   0.2970 
  3 C       -0.4650     0.9580     0.1420 C.2   1 <1>  -0.1400 
  4 N       -2.0660    -1.9980    -1.6900 N.ar  1 <1>  -0.5670 
  5 C       -2.5160    -0.0820    -0.3180 C.ar  1 <1>   0.0000 
  6 C       -1.7950     0.9750     0.3430 C.2   1 <1>  -0.1500 
  7 C        0.6590     1.8490     0.6270 C.3   1 <1>  -0.0600 
  8 C       -3.3680    -2.1980    -1.6280 C.ar  1 <1>   0.4700 
  9 C       -3.8750    -0.4020    -0.3620 C.ar  1 <1>   0.4100 
 10 N       -4.2930    -1.4790    -1.0060 N.ar  1 <1>  -0.6200 
 11 N       -4.8320     0.3860     0.2450 N.pl3 1 <1>  -0.8380 
 12 C       -4.9710     1.8150    -0.1370 C.3   1 <1>   0.2090 
 13 C       -6.0140    -0.2320     0.9050 C.3   1 <1>   0.2090 
 14 C       -6.2280     2.0120    -0.9880 C.3   1 <1>  -0.1600 
 15 C       -7.2660    -0.0270     0.0490 C.3   1 <1>  -0.1600 
 16 C       -7.4830     1.4580    -0.2890 C.3   1 <1>  -0.0190 
 17 C       -8.7410     1.6560    -1.1310 C.2   1 <1>   0.5690 
 18 O       -8.7580     1.3640    -2.2990 O.2   1 <1>  -0.5700 
 19 N       -9.8490     2.1640    -0.5590 N.am  1 <1>  -0.8000 
 20 H       -2.3260     1.6900     0.9450 H     1 <1>   0.1500 
 21 H        1.3630     1.2720     1.1990 H     1 <1>   0.0800 
 22 H        0.2680     2.6360     1.2470 H     1 <1>   0.0800 
 23 H        1.1670     2.2880    -0.2130 H     1 <1>   0.0800 
 24 H       -3.7340    -3.0630    -2.1550 H     1 <1>   0.1500 
 25 H       -4.1120     2.1340    -0.7010 H     1 <1>   0.0800 
 26 H       -5.0320     2.4130     0.7560 H     1 <1>   0.0800 
 27 H       -6.1500     0.2220     1.8710 H     1 <1>   0.0800 
 28 H       -5.8440    -1.2850     1.0560 H     1 <1>   0.0800 
 29 H       -6.0850     1.5080    -1.9290 H     1 <1>   0.0800 
 30 H       -6.3580     3.0580    -1.1950 H     1 <1>   0.0800 
 31 H       -8.1210    -0.4130     0.5740 H     1 <1>   0.0800 
 32 H       -7.1580    -0.5940    -0.8600 H     1 <1>   0.0800 
 33 H       -7.6130     1.9960     0.6320 H     1 <1>   0.0800 
 34 H      -10.6850     2.2870    -1.1330 H     1 <1>   0.3700 
 35 H       -9.9260     2.4280     0.4210 H     1 <1>   0.3700 
@<TRIPOS>BOND
  1   1   2  1   
  2   1   3  1   
  3   2   4  ar  
  4   2   5  ar  
  5   3   6  2   
  6   3   7  1   
  7   4   8  ar  
  8   5   6  1   
  9   5   9  ar  
 10   6  20  1   
 11   7  21  1   
 12   7  22  1   
 13   7  23  1   
 14   8  10  ar  
 15   8  24  1   
 16   9  10  ar  
 17   9  11  1   
 18  11  12  1   
 19  11  13  1   
 20  12  14  1   
 21  12  25  1   
 22  12  26  1   
 23  13  15  1   
 24  13  27  1   
 25  13  28  1   
 26  14  16  1   
 27  14  29  1   
 28  14  30  1   
 29  15  16  1   
 30  15  31  1   
 31  15  32  1   
 32  16  17  1   
 33  16  33  1   
 34  17  18  2   
 35  17  19  am  
 36  19  34  1   
 37  19  35  1   
@<TRIPOS>SUBSTRUCTURE
  1 ****  11 GROUP 4 **** **** 0

# MOE 2024.06 (io_trps.svl 2023.06)
