@<TRIPOS>MOLECULE
NONAME
42 45 1 0 0 
SMALL
USER_CHARGES


@<TRIPOS>ATOM
  1 S       -0.0650     1.0100     0.0570 S.3   1 <1>  -0.2860 
  2 C        1.6540     0.5830     0.2760 C.2   1 <1>   0.5340 
  3 C       -0.2810     2.4430     1.2240 C.3   1 <1>   0.1310 
  4 O        2.1480    -0.3890    -0.4010 O.3   1 <1>  -0.2800 
  5 N        2.4820     1.1540     1.0590 N.2   1 <1>  -0.3380 
  6 C       -1.7020     2.9870     1.2090 C.2   1 <1>   0.5690 
  7 C        3.3910    -0.4280    -0.0070 C.2   1 <1>   0.4250 
  8 N        3.6240     0.4930     0.8760 N.2   1 <1>  -0.3380 
  9 O       -1.9430     3.9570     1.8840 O.2   1 <1>  -0.5700 
 10 N       -2.6560     2.3860     0.4510 N.am  1 <1>  -0.7300 
 11 C        4.3120    -1.4070    -0.5440 C.ar  1 <1>   0.0530 
 12 C       -4.0700     2.8120     0.3460 C.3   1 <1>   0.2200 
 13 C        5.6420    -1.4510    -0.1220 C.ar  1 <1>  -0.1500 
 14 C        3.9140    -2.3440    -1.5010 C.ar  1 <1>  -0.1500 
 15 C       -5.0940     1.6230     0.8190 C.3   1 <1>  -0.0800 
 16 C       -4.4280     3.1810    -1.2410 C.3   1 <1>  -0.1600 
 17 C        6.5310    -2.3820    -0.6270 C.ar  1 <1>  -0.1500 
 18 C        4.7990    -3.2770    -2.0110 C.ar  1 <1>  -0.1500 
 19 C       -5.4500     1.9900    -0.4190 C.3   1 <1>  -0.1600 
 20 C       -6.4500     0.8050     0.4090 C.3   1 <1>  -0.1600 
 21 C       -5.7760     2.3540    -1.6620 C.3   1 <1>  -0.0800 
 22 C        6.1110    -3.2980    -1.5740 C.ar  1 <1>  -0.1500 
 23 C       -6.8110     1.1820    -1.1820 C.3   1 <1>  -0.1600 
 24 H        0.4110     3.2070     0.9230 H     1 <1>   0.0800 
 25 H       -0.0300     2.0940     2.2090 H     1 <1>   0.0800 
 26 H       -2.4000     1.5770    -0.1180 H     1 <1>   0.3700 
 27 H       -4.2280     3.6850     0.9630 H     1 <1>   0.0800 
 28 H        5.9860    -0.7450     0.6150 H     1 <1>   0.1500 
 29 H        2.8980    -2.3450    -1.8550 H     1 <1>   0.1500 
 30 H       -4.4140     0.8020     0.9990 H     1 <1>   0.0800 
 31 H       -3.6090     2.9120    -1.8890 H     1 <1>   0.0800 
 32 H       -4.5870     4.2430    -1.3390 H     1 <1>   0.0800 
 33 H        7.5510    -2.3940    -0.2840 H     1 <1>   0.1500 
 34 H        4.4680    -3.9880    -2.7480 H     1 <1>   0.1500 
 35 H       -4.7460     1.1500    -0.8540 H     1 <1>   0.0800 
 36 H       -6.1410     2.8390     0.0140 H     1 <1>   0.0800 
 37 H       -7.2670     1.0940     1.0550 H     1 <1>   0.0800 
 38 H       -6.3110    -0.2590     0.5220 H     1 <1>   0.0800 
 39 H       -6.4650     3.1680    -1.8520 H     1 <1>   0.0800 
 40 H        6.8010    -4.0230    -1.9690 H     1 <1>   0.1500 
 41 H       -7.8350     1.5090    -1.2680 H     1 <1>   0.0800 
 42 H       -6.6970     0.3080    -1.8060 H     1 <1>   0.0800 
@<TRIPOS>BOND
  1   1   2  1   
  2   1   3  1   
  3   2   4  1   
  4   2   5  2   
  5   3   6  1   
  6   3  24  1   
  7   3  25  1   
  8   4   7  1   
  9   5   8  1   
 10   6   9  2   
 11   6  10  am  
 12   7   8  2   
 13   7  11  1   
 14  10  12  1   
 15  10  26  1   
 16  11  13  ar  
 17  11  14  ar  
 18  12  15  1   
 19  12  16  1   
 20  12  27  1   
 21  13  17  ar  
 22  13  28  1   
 23  14  18  ar  
 24  14  29  1   
 25  15  19  1   
 26  15  20  1   
 27  15  30  1   
 28  16  21  1   
 29  16  31  1   
 30  16  32  1   
 31  17  22  ar  
 32  17  33  1   
 33  18  22  ar  
 34  18  34  1   
 35  19  21  1   
 36  19  35  1   
 37  19  36  1   
 38  20  23  1   
 39  20  37  1   
 40  20  38  1   
 41  21  23  1   
 42  21  39  1   
 43  22  40  1   
 44  23  41  1   
 45  23  42  1   
@<TRIPOS>SUBSTRUCTURE
  1 ****   1 GROUP 4 **** **** 0

# MOE 2024.06 (io_trps.svl 2023.06)
