@<TRIPOS>MOLECULE
NONAME
26 26 1 0 0 
SMALL
USER_CHARGES


@<TRIPOS>ATOM
  1 O        1.2070     2.4210     0.1220 O.co2 1 <1>  -0.9000 
  2 C        1.7380     1.9030     1.1050 C.2   1 <1>   0.9060 
  3 O        1.0660     1.4650     2.0390 O.co2 1 <1>  -0.9000 
  4 C        3.1000     1.2850     0.9190 C.3   1 <1>  -0.1860 
  5 C        2.8140    -0.2010     0.6240 C.3   1 <1>   0.4230 
  6 C        3.9770     2.0390    -0.1130 C.3   1 <1>  -0.1600 
  7 N        1.5200    -0.3460    -0.0700 N.4   1 <1>  -0.8530 
  8 C        3.8650    -0.9630    -0.1920 C.3   1 <1>  -0.1600 
  9 C        5.4810     1.8030     0.0890 C.3   1 <1>  -0.1600 
 10 C        5.3110    -0.7670     0.2890 C.3   1 <1>  -0.1600 
 11 C        5.9920     0.4350    -0.3780 C.3   1 <1>  -0.1600 
 12 H        3.5860     1.3470     1.8740 H     1 <1>   0.0800 
 13 H        2.7240    -0.6890     1.5830 H     1 <1>   0.0800 
 14 H        3.6780     1.8060    -1.1200 H     1 <1>   0.0800 
 15 H        3.8020     3.0940     0.0220 H     1 <1>   0.0800 
 16 H        1.4470     0.3990    -0.7820 H     1 <1>   0.4500 
 17 H        0.8160    -0.0150     0.6240 H     1 <1>   0.4500 
 18 H        1.2880    -1.2720    -0.4170 H     1 <1>   0.4500 
 19 H        3.6370    -2.0120    -0.1150 H     1 <1>   0.0800 
 20 H        3.7990    -0.6910    -1.2310 H     1 <1>   0.0800 
 21 H        6.0130     2.5580    -0.4640 H     1 <1>   0.0800 
 22 H        5.7320     1.9460     1.1270 H     1 <1>   0.0800 
 23 H        5.3540    -0.6780     1.3620 H     1 <1>   0.0800 
 24 H        5.8750    -1.6440     0.0200 H     1 <1>   0.0800 
 25 H        7.0470     0.3880    -0.1630 H     1 <1>   0.0800 
 26 H        5.8900     0.3640    -1.4480 H     1 <1>   0.0800 
@<TRIPOS>BOND
  1   1   2  ar  
  2   2   3  ar  
  3   2   4  1   
  4   4   5  1   
  5   4   6  1   
  6   4  12  1   
  7   5   7  1   
  8   5   8  1   
  9   5  13  1   
 10   6   9  1   
 11   6  14  1   
 12   6  15  1   
 13   7  16  1   
 14   7  17  1   
 15   7  18  1   
 16   8  10  1   
 17   8  19  1   
 18   8  20  1   
 19   9  11  1   
 20   9  21  1   
 21   9  22  1   
 22  10  11  1   
 23  10  23  1   
 24  10  24  1   
 25  11  25  1   
 26  11  26  1   
@<TRIPOS>SUBSTRUCTURE
  1 ****   4 GROUP 4 **** **** 0

# MOE 2024.06 (io_trps.svl 2023.06)
