@<TRIPOS>MOLECULE
NONAME
43 45 1 0 0 
SMALL
USER_CHARGES


@<TRIPOS>ATOM
  1 BR      -0.6020    -0.6770    -3.0420 Br    1 <1>  -0.1110 
  2 C       -0.4280    -2.2300    -1.9220 C.ar  1 <1>   0.1110 
  3 C       -0.3730    -2.0610    -0.5530 C.ar  1 <1>  -0.1500 
  4 C       -0.3610    -3.4760    -2.5150 C.ar  1 <1>  -0.1500 
  5 C       -0.2490    -3.1830     0.2500 C.ar  1 <1>  -0.1500 
  6 C       -0.2370    -4.5910    -1.7040 C.ar  1 <1>  -0.1500 
  7 C       -0.1860    -4.4500    -0.3200 C.ar  1 <1>  -0.1430 
  8 C       -0.0630    -5.6740     0.5680 C.3   1 <1>   0.4870 
  9 N       -1.3630    -6.3990     0.5750 N.4   1 <1>  -0.9590 
 10 C       -2.5240    -5.5620     1.0420 C.3   1 <1>   0.3430 
 11 C       -1.3130    -7.7150     1.3030 C.3   1 <1>   0.3430 
 12 C       -3.8680    -6.3210     0.9050 C.3   1 <1>   0.1960 
 13 C       -2.7030    -8.3970     1.3840 C.3   1 <1>   0.1960 
 14 N       -3.6990    -7.7390     0.5130 N.am  1 <1>  -0.8490 
 15 S       -5.2000    -8.5380     0.5210 S.o2  1 <1>   1.4470 
 16 O       -5.4620    -8.8050     1.9180 O.2   1 <1>  -0.6500 
 17 O       -6.0900    -7.6850    -0.2330 O.2   1 <1>  -0.6500 
 18 C       -4.8550   -10.0670    -0.3910 C.ar  1 <1>  -0.0090 
 19 C       -4.8070   -11.2980     0.2550 C.ar  1 <1>  -0.1500 
 20 C       -4.6030   -10.0390    -1.7580 C.ar  1 <1>  -0.1500 
 21 C       -4.5090   -12.4590    -0.4360 C.ar  1 <1>  -0.1500 
 22 C       -4.3050   -11.1960    -2.4570 C.ar  1 <1>  -0.1500 
 23 C       -4.2550   -12.4080    -1.7940 C.ar  1 <1>  -0.1500 
 24 H       -0.4220    -1.0720    -0.1310 H     1 <1>   0.1500 
 25 H       -0.4010    -3.5630    -3.5870 H     1 <1>   0.1500 
 26 H       -0.1980    -3.0490     1.3180 H     1 <1>   0.1500 
 27 H       -0.1760    -5.5610    -2.1680 H     1 <1>   0.1500 
 28 H        0.2020    -5.3750     1.5690 H     1 <1>   0.0800 
 29 H        0.7160    -6.3130     0.1860 H     1 <1>   0.0800 
 30 H       -1.6020    -6.6290    -0.4010 H     1 <1>   0.4500 
 31 H       -2.5820    -4.6520     0.4660 H     1 <1>   0.0800 
 32 H       -2.3830    -5.2840     2.0730 H     1 <1>   0.0800 
 33 H       -0.9400    -7.5720     2.3040 H     1 <1>   0.0800 
 34 H       -0.6330    -8.3810     0.7970 H     1 <1>   0.0800 
 35 H       -4.4670    -5.8170     0.1630 H     1 <1>   0.0800 
 36 H       -4.4030    -6.2560     1.8380 H     1 <1>   0.0800 
 37 H       -3.0410    -8.3770     2.4080 H     1 <1>   0.0800 
 38 H       -2.5960    -9.4330     1.1050 H     1 <1>   0.0800 
 39 H       -5.0100   -11.3540     1.3120 H     1 <1>   0.1500 
 40 H       -4.6460    -9.1000    -2.2840 H     1 <1>   0.1500 
 41 H       -4.4780   -13.4040     0.0800 H     1 <1>   0.1500 
 42 H       -4.1150   -11.1550    -3.5160 H     1 <1>   0.1500 
 43 H       -4.0260   -13.3110    -2.3350 H     1 <1>   0.1500 
@<TRIPOS>BOND
  1   1   2  1   
  2   2   3  ar  
  3   2   4  ar  
  4   3   5  ar  
  5   3  24  1   
  6   4   6  ar  
  7   4  25  1   
  8   5   7  ar  
  9   5  26  1   
 10   6   7  ar  
 11   6  27  1   
 12   7   8  1   
 13   8   9  1   
 14   8  28  1   
 15   8  29  1   
 16   9  10  1   
 17   9  11  1   
 18   9  30  1   
 19  10  12  1   
 20  10  31  1   
 21  10  32  1   
 22  11  13  1   
 23  11  33  1   
 24  11  34  1   
 25  12  14  1   
 26  12  35  1   
 27  12  36  1   
 28  13  14  1   
 29  13  37  1   
 30  13  38  1   
 31  14  15  am  
 32  15  16  2   
 33  15  17  2   
 34  15  18  1   
 35  18  19  ar  
 36  18  20  ar  
 37  19  21  ar  
 38  19  39  1   
 39  20  22  ar  
 40  20  40  1   
 41  21  23  ar  
 42  21  41  1   
 43  22  23  ar  
 44  22  42  1   
 45  23  43  1   
@<TRIPOS>SUBSTRUCTURE
  1 ****  14 GROUP 4 **** **** 0

# MOE 2024.06 (io_trps.svl 2023.06)
