@<TRIPOS>MOLECULE
NONAME
37 38 1 0 0 
SMALL
USER_CHARGES


@<TRIPOS>ATOM
  1 S       -0.6430    -0.3880     0.4240 S.3   1 <1>  -0.0800 
  2 C       -1.7110     0.8880    -0.0630 C.2   1 <1>   0.4420 
  3 C        0.5820     0.8160     0.6360 C.2   1 <1>   0.1980 
  4 N       -1.1380     2.0360    -0.0330 N.2   1 <1>  -0.3380 
  5 N       -2.9980     0.5160    -0.3930 N.am  1 <1>  -0.4940 
  6 N        0.1700     1.9870     0.3670 N.2   1 <1>  -0.3380 
  7 C        1.9560     0.3770     1.1060 C.3   1 <1>   0.0200 
  8 C       -4.0240     1.2610    -0.9210 C.2   1 <1>   0.5440 
  9 C        2.7160    -0.3910     0.0170 C.3   1 <1>  -0.2400 
 10 O       -3.8090     2.3740    -1.3510 O.2   1 <1>  -0.5700 
 11 C       -5.3520     0.6860    -0.9970 C.ar  1 <1>   0.0860 
 12 C       -6.1980     0.9840    -2.0660 C.ar  1 <1>  -0.1500 
 13 C       -5.8410    -0.1860    -0.0190 C.ar  1 <1>  -0.1500 
 14 C       -7.4590     0.4260    -2.1660 C.ar  1 <1>  -0.1500 
 15 C       -7.1010    -0.7480    -0.1130 C.ar  1 <1>  -0.1500 
 16 C       -7.9230    -0.4470    -1.1960 C.ar  1 <1>   0.0820 
 17 O       -9.1650    -0.9510    -1.3740 O.3   1 <1>  -0.3630 
 18 C       -9.8090    -1.7970    -0.4450 C.3   1 <1>   0.1200 
 19 C      -10.3940    -0.9580     0.6970 C.3   1 <1>  -0.1600 
 20 C      -11.1210    -1.8390     1.7180 C.3   1 <1>  -0.2400 
 21 H       -3.2040    -0.4690    -0.2590 H     1 <1>   0.3700 
 22 H        1.8510    -0.2370     1.9830 H     1 <1>   0.0800 
 23 H        2.5190     1.2520     1.3800 H     1 <1>   0.0800 
 24 H        2.1910    -1.2910    -0.2480 H     1 <1>   0.0800 
 25 H        3.6980    -0.6550     0.3680 H     1 <1>   0.0800 
 26 H        2.8180     0.2220    -0.8620 H     1 <1>   0.0800 
 27 H       -5.8560     1.6650    -2.8270 H     1 <1>   0.1500 
 28 H       -5.2340    -0.4200     0.8370 H     1 <1>   0.1500 
 29 H       -8.0960     0.6660    -2.9990 H     1 <1>   0.1500 
 30 H       -7.4320    -1.4110     0.6630 H     1 <1>   0.1500 
 31 H       -9.1130    -2.5390    -0.0970 H     1 <1>   0.0800 
 32 H      -10.6020    -2.2980    -0.9730 H     1 <1>   0.0800 
 33 H      -11.0890    -0.2460     0.2860 H     1 <1>   0.0800 
 34 H       -9.6090    -0.4160     1.1950 H     1 <1>   0.0800 
 35 H      -11.9280    -2.3730     1.2480 H     1 <1>   0.0800 
 36 H      -11.5300    -1.2280     2.5040 H     1 <1>   0.0800 
 37 H      -10.4420    -2.5490     2.1560 H     1 <1>   0.0800 
@<TRIPOS>BOND
  1   1   2  1   
  2   1   3  1   
  3   2   4  2   
  4   2   5  1   
  5   3   6  2   
  6   3   7  1   
  7   4   6  1   
  8   5   8  am  
  9   5  21  1   
 10   7   9  1   
 11   7  22  1   
 12   7  23  1   
 13   8  10  2   
 14   8  11  1   
 15   9  24  1   
 16   9  25  1   
 17   9  26  1   
 18  11  12  ar  
 19  11  13  ar  
 20  12  14  ar  
 21  12  27  1   
 22  13  15  ar  
 23  13  28  1   
 24  14  16  ar  
 25  14  29  1   
 26  15  16  ar  
 27  15  30  1   
 28  16  17  1   
 29  17  18  1   
 30  18  19  1   
 31  18  31  1   
 32  18  32  1   
 33  19  20  1   
 34  19  33  1   
 35  19  34  1   
 36  20  35  1   
 37  20  36  1   
 38  20  37  1   
@<TRIPOS>SUBSTRUCTURE
  1 ****  11 GROUP 4 **** **** 0

# MOE 2024.06 (io_trps.svl 2023.06)
