@<TRIPOS>MOLECULE
NONAME
39 40 1 0 0 
SMALL
USER_CHARGES


@<TRIPOS>ATOM
  1 O        0.2790    -3.6910    -1.5060 O.2   1 <1>  -0.5700 
  2 C        1.3050    -3.9580    -0.9050 C.2   1 <1>   0.5440 
  3 N        1.2290    -4.9840    -0.0070 N.am  1 <1>  -0.7300 
  4 C        2.5300    -3.2030    -1.1350 C.ar  1 <1>   0.0860 
  5 C        0.1810    -6.0420     0.0830 C.3   1 <1>   0.1400 
  6 C        3.6340    -3.1970    -0.2590 C.ar  1 <1>   0.0830 
  7 C        2.6320    -2.4290    -2.2960 C.ar  1 <1>  -0.1500 
  8 C       -1.0290    -5.5860     0.9200 C.3   1 <1>   0.3430 
  9 O        3.5730    -3.9280     0.8870 O.3   1 <1>  -0.3630 
 10 C        4.7700    -2.4470    -0.5660 C.ar  1 <1>  -0.1500 
 11 C        3.7580    -1.6870    -2.5910 C.ar  1 <1>  -0.1500 
 12 N       -1.6730    -4.3900     0.3100 N.4   1 <1>  -0.9590 
 13 C        4.6110    -3.9420     1.8460 C.3   1 <1>   0.0400 
 14 C        4.8320    -1.6960    -1.7230 C.ar  1 <1>  -0.1500 
 15 C       -2.3100    -3.4520     1.2570 C.3   1 <1>   0.3430 
 16 C       -2.6550    -4.6770    -0.7540 C.3   1 <1>   0.3430 
 17 C       -3.2480    -2.6140     0.3960 C.3   1 <1>  -0.1600 
 18 C       -3.3840    -3.3560    -0.9380 C.3   1 <1>  -0.1600 
 19 H        2.0910    -5.1440     0.5360 H     1 <1>   0.3700 
 20 H        0.6130    -6.9200     0.5320 H     1 <1>   0.0800 
 21 H       -0.1440    -6.3080    -0.9090 H     1 <1>   0.0800 
 22 H        1.8080    -2.4080    -2.9890 H     1 <1>   0.1500 
 23 H       -0.6800    -5.3450     1.9110 H     1 <1>   0.0800 
 24 H       -1.7450    -6.3870     1.0030 H     1 <1>   0.0800 
 25 H        5.6250    -2.4280     0.0830 H     1 <1>   0.1500 
 26 H        3.8010    -1.1030    -3.4950 H     1 <1>   0.1500 
 27 H       -0.9050    -3.8800    -0.1810 H     1 <1>   0.4500 
 28 H        4.3080    -4.5740     2.6620 H     1 <1>   0.0800 
 29 H        4.7720    -2.9400     2.2040 H     1 <1>   0.0800 
 30 H        5.5030    -4.3370     1.3930 H     1 <1>   0.0800 
 31 H        5.7120    -1.1200    -1.9510 H     1 <1>   0.1500 
 32 H       -1.5760    -2.8400     1.7580 H     1 <1>   0.0800 
 33 H       -2.8830    -4.0010     1.9870 H     1 <1>   0.0800 
 34 H       -3.3480    -5.4350    -0.4240 H     1 <1>   0.0800 
 35 H       -2.1700    -4.9920    -1.6650 H     1 <1>   0.0800 
 36 H       -2.8290    -1.6350     0.2410 H     1 <1>   0.0800 
 37 H       -4.1990    -2.5050     0.8870 H     1 <1>   0.0800 
 38 H       -4.4120    -3.5170    -1.2120 H     1 <1>   0.0800 
 39 H       -2.9020    -2.7960    -1.7230 H     1 <1>   0.0800 
@<TRIPOS>BOND
  1   1   2  2   
  2   2   3  am  
  3   2   4  1   
  4   3   5  1   
  5   3  19  1   
  6   4   6  ar  
  7   4   7  ar  
  8   5   8  1   
  9   5  20  1   
 10   5  21  1   
 11   6   9  1   
 12   6  10  ar  
 13   7  11  ar  
 14   7  22  1   
 15   8  12  1   
 16   8  23  1   
 17   8  24  1   
 18   9  13  1   
 19  10  14  ar  
 20  10  25  1   
 21  11  14  ar  
 22  11  26  1   
 23  12  15  1   
 24  12  16  1   
 25  12  27  1   
 26  13  28  1   
 27  13  29  1   
 28  13  30  1   
 29  14  31  1   
 30  15  17  1   
 31  15  32  1   
 32  15  33  1   
 33  16  18  1   
 34  16  34  1   
 35  16  35  1   
 36  17  18  1   
 37  17  36  1   
 38  17  37  1   
 39  18  38  1   
 40  18  39  1   
@<TRIPOS>SUBSTRUCTURE
  1 ****   2 GROUP 4 **** **** 0

# MOE 2024.06 (io_trps.svl 2023.06)
