@<TRIPOS>MOLECULE
NONAME
41 42 1 0 0 
SMALL
USER_CHARGES


@<TRIPOS>ATOM
  1 O       -7.3110    -2.2140    -0.3670 O.3   1 <1>  -0.3630 
  2 C       -6.8300    -1.0170    -0.8040 C.ar  1 <1>   0.0820 
  3 C       -8.6910    -2.4830    -0.2200 C.3   1 <1>   0.2000 
  4 C       -5.4640    -0.9390    -1.0610 C.ar  1 <1>  -0.1440 
  5 C       -7.6260     0.1110    -0.9910 C.ar  1 <1>  -0.1500 
  6 C       -9.1340    -2.0290     1.1730 C.3   1 <1>  -0.2400 
  7 C       -8.8750    -3.9880    -0.3900 C.3   1 <1>  -0.2400 
  8 C       -4.9060     0.2540    -1.4950 C.ar  1 <1>  -0.1500 
  9 C       -4.5890    -2.1560    -0.8670 C.3   1 <1>   0.4860 
 10 C       -7.0620     1.2960    -1.4250 C.ar  1 <1>  -0.1500 
 11 C       -5.7040     1.3690    -1.6770 C.ar  1 <1>  -0.1500 
 12 N       -4.6670    -2.5150     0.5620 N.4   1 <1>  -0.9060 
 13 C       -3.9580    -3.7650     0.9080 C.3   1 <1>   0.4860 
 14 C       -2.4970    -3.6030     0.5410 C.ar  1 <1>  -0.1430 
 15 C       -1.9850    -4.2420    -0.5800 C.ar  1 <1>  -0.1500 
 16 C       -1.6620    -2.8080     1.3140 C.ar  1 <1>  -0.1500 
 17 C       -0.6570    -4.0770    -0.9300 C.ar  1 <1>  -0.1500 
 18 C       -0.3340    -2.6440     0.9610 C.ar  1 <1>  -0.1500 
 19 C        0.1680    -3.2760    -0.1620 C.ar  1 <1>  -0.1500 
 20 H       -9.2370    -1.9730    -0.9960 H     1 <1>   0.0800 
 21 H       -8.6840     0.0960    -0.8040 H     1 <1>   0.1500 
 22 H       -8.5970    -2.5630     1.9360 H     1 <1>   0.0800 
 23 H      -10.1840    -2.2260     1.3000 H     1 <1>   0.0800 
 24 H       -8.9780    -0.9740     1.3010 H     1 <1>   0.0800 
 25 H       -8.3280    -4.5300     0.3600 H     1 <1>   0.0800 
 26 H       -8.5460    -4.2920    -1.3680 H     1 <1>   0.0800 
 27 H       -9.9170    -4.2400    -0.2980 H     1 <1>   0.0800 
 28 H       -3.8510     0.3320    -1.7020 H     1 <1>   0.1500 
 29 H       -3.5710    -1.9370    -1.1490 H     1 <1>   0.0800 
 30 H       -4.9590    -2.9630    -1.4790 H     1 <1>   0.0800 
 31 H       -7.6800     2.1670    -1.5690 H     1 <1>   0.1500 
 32 H       -5.2710     2.2950    -2.0160 H     1 <1>   0.1500 
 33 H       -5.6770    -2.5770     0.7660 H     1 <1>   0.4500 
 34 H       -4.2940    -1.7290     1.1000 H     1 <1>   0.4500 
 35 H       -4.3820    -4.5960     0.3680 H     1 <1>   0.0800 
 36 H       -4.0460    -3.9630     1.9640 H     1 <1>   0.0800 
 37 H       -2.6040    -4.8770    -1.1920 H     1 <1>   0.1500 
 38 H       -2.0250    -2.3110     2.1980 H     1 <1>   0.1500 
 39 H       -0.2590    -4.5730    -1.8000 H     1 <1>   0.1500 
 40 H        0.3150    -2.0270     1.5610 H     1 <1>   0.1500 
 41 H        1.2020    -3.1490    -0.4340 H     1 <1>   0.1500 
@<TRIPOS>BOND
  1   1   2  1   
  2   1   3  1   
  3   2   4  ar  
  4   2   5  ar  
  5   3   6  1   
  6   3   7  1   
  7   3  20  1   
  8   4   8  ar  
  9   4   9  1   
 10   5  10  ar  
 11   5  21  1   
 12   6  22  1   
 13   6  23  1   
 14   6  24  1   
 15   7  25  1   
 16   7  26  1   
 17   7  27  1   
 18   8  11  ar  
 19   8  28  1   
 20   9  12  1   
 21   9  29  1   
 22   9  30  1   
 23  10  11  ar  
 24  10  31  1   
 25  11  32  1   
 26  12  13  1   
 27  12  33  1   
 28  12  34  1   
 29  13  14  1   
 30  13  35  1   
 31  13  36  1   
 32  14  15  ar  
 33  14  16  ar  
 34  15  17  ar  
 35  15  37  1   
 36  16  18  ar  
 37  16  38  1   
 38  17  19  ar  
 39  17  39  1   
 40  18  19  ar  
 41  18  40  1   
 42  19  41  1   
@<TRIPOS>SUBSTRUCTURE
  1 ****   9 GROUP 4 **** **** 0

# MOE 2024.06 (io_trps.svl 2023.06)
