@<TRIPOS>MOLECULE
NONAME
26 26 1 0 0 
SMALL
USER_CHARGES


@<TRIPOS>ATOM
  1 BR      -0.0100     2.4540    -3.5470 Br    1 <1>  -0.1110 
  2 C       -0.3080     2.8740    -1.6920 C.ar  1 <1>   0.1110 
  3 C       -1.2870     3.7910    -1.3680 C.ar  1 <1>  -0.1500 
  4 C        0.4680     2.2460    -0.7370 C.ar  1 <1>  -0.1500 
  5 C       -1.5140     4.1060    -0.0330 C.ar  1 <1>   0.1170 
  6 C        0.2460     2.5560     0.5930 C.ar  1 <1>  -0.1500 
  7 N       -2.5160     5.0410     0.2660 N.am  1 <1>  -0.5470 
  8 C       -0.7340     3.4740     0.9370 C.ar  1 <1>  -0.1500 
  9 C       -2.9940     5.5700     1.4340 C.2   1 <1>   0.5690 
 10 O       -2.5830     5.2840     2.5320 O.2   1 <1>  -0.5700 
 11 C       -4.1240     6.5890     1.3220 C.3   1 <1>   0.1810 
 12 O       -4.4880     6.8110    -0.0220 O.3   1 <1>  -0.5600 
 13 C       -5.5140     7.7320    -0.1810 C.3   1 <1>   0.1200 
 14 C       -5.7870     7.8600    -1.6750 C.3   1 <1>  -0.2400 
 15 H       -1.8630     4.2530    -2.1470 H     1 <1>   0.1500 
 16 H        1.2220     1.5370    -1.0270 H     1 <1>   0.1500 
 17 H        0.8320     2.0840     1.3630 H     1 <1>   0.1500 
 18 H       -3.0160     5.4310    -0.5390 H     1 <1>   0.3700 
 19 H       -0.8860     3.6960     1.9770 H     1 <1>   0.1500 
 20 H       -3.8010     7.5200     1.7520 H     1 <1>   0.0800 
 21 H       -4.9820     6.2220     1.8570 H     1 <1>   0.0800 
 22 H       -5.2030     8.6780     0.2300 H     1 <1>   0.0800 
 23 H       -6.3890     7.3740     0.3350 H     1 <1>   0.0800 
 24 H       -4.9050     8.2070    -2.1840 H     1 <1>   0.0800 
 25 H       -6.5790     8.5670    -1.8410 H     1 <1>   0.0800 
 26 H       -6.0850     6.9090    -2.0790 H     1 <1>   0.0800 
@<TRIPOS>BOND
  1   1   2  1   
  2   2   3  ar  
  3   2   4  ar  
  4   3   5  ar  
  5   3  15  1   
  6   4   6  ar  
  7   4  16  1   
  8   5   7  1   
  9   5   8  ar  
 10   6   8  ar  
 11   6  17  1   
 12   7   9  am  
 13   7  18  1   
 14   8  19  1   
 15   9  10  2   
 16   9  11  1   
 17  11  12  1   
 18  11  20  1   
 19  11  21  1   
 20  12  13  1   
 21  13  14  1   
 22  13  22  1   
 23  13  23  1   
 24  14  24  1   
 25  14  25  1   
 26  14  26  1   
@<TRIPOS>SUBSTRUCTURE
  1 ****   7 GROUP 4 **** **** 0

# MOE 2024.06 (io_trps.svl 2023.06)
