@<TRIPOS>MOLECULE
NONAME
47 49 1 0 0 
SMALL
USER_CHARGES


@<TRIPOS>ATOM
  1 CL       0.6080     0.5050    -1.4160 Cl    1 <1>  -0.1770 
  2 C        0.2110     2.0050    -0.6170 C.ar  1 <1>   0.1770 
  3 C       -0.8520     2.0430     0.2670 C.ar  1 <1>  -0.1500 
  4 C        0.9660     3.1340    -0.8780 C.ar  1 <1>  -0.1500 
  5 C       -1.1630     3.2350     0.8980 C.ar  1 <1>  -0.1500 
  6 C        0.6450     4.3220    -0.2450 C.ar  1 <1>  -0.1500 
  7 C       -0.4240     4.3880     0.6420 C.ar  1 <1>   0.1170 
  8 N       -0.7240     5.6030     1.2660 N.am  1 <1>  -0.5470 
  9 C       -1.8980     6.2770     1.3870 C.2   1 <1>   0.5690 
 10 O       -1.9190     7.3180     1.9940 O.2   1 <1>  -0.5700 
 11 C       -3.1750     5.7470     0.7530 C.3   1 <1>  -0.0990 
 12 C       -4.2130     6.8490     0.4550 C.3   1 <1>  -0.0990 
 13 C       -5.4780     6.3390    -0.2210 C.2   1 <1>   0.5690 
 14 O       -5.6010     5.1470    -0.3840 O.2   1 <1>  -0.5700 
 15 N       -6.4440     7.2210    -0.6300 N.am  1 <1>  -0.6600 
 16 C       -6.4260     8.7060    -0.4120 C.3   1 <1>   0.1400 
 17 C       -7.6880     6.7500    -1.3210 C.3   1 <1>   0.1400 
 18 C       -7.7080     9.1910     0.2890 C.3   1 <1>   0.2090 
 19 C       -8.9550     7.2480    -0.6050 C.3   1 <1>   0.2090 
 20 N       -8.9310     8.7300    -0.4360 N.pl3 1 <1>  -0.8380 
 21 C      -10.1330     9.3370    -0.1310 C.ar  1 <1>   0.4100 
 22 N      -10.2980     9.7790     1.1110 N.ar  1 <1>  -0.6200 
 23 C      -11.1110     9.4530    -1.1170 C.ar  1 <1>  -0.1500 
 24 C      -11.4650    10.3420     1.3740 C.ar  1 <1>   0.1600 
 25 C      -12.3200    10.0410    -0.8300 C.ar  1 <1>  -0.1500 
 26 C      -12.4930    10.4970     0.4610 C.ar  1 <1>  -0.1500 
 27 H       -1.4220     1.1510     0.4560 H     1 <1>   0.1500 
 28 H        1.7890     3.0770    -1.5680 H     1 <1>   0.1500 
 29 H       -1.9800     3.2660     1.5960 H     1 <1>   0.1500 
 30 H        1.2240     5.2060    -0.4450 H     1 <1>   0.1500 
 31 H        0.0630     6.1170     1.6630 H     1 <1>   0.3700 
 32 H       -3.6110     5.0270     1.4190 H     1 <1>   0.0800 
 33 H       -2.9300     5.2490    -0.1680 H     1 <1>   0.0800 
 34 H       -3.7590     7.5860    -0.1820 H     1 <1>   0.0800 
 35 H       -4.4930     7.3230     1.3790 H     1 <1>   0.0800 
 36 H       -6.3500     9.1970    -1.3660 H     1 <1>   0.0800 
 37 H       -5.5800     9.0040     0.1790 H     1 <1>   0.0800 
 38 H       -7.7140     5.6750    -1.3660 H     1 <1>   0.0800 
 39 H       -7.6900     7.1200    -2.3300 H     1 <1>   0.0800 
 40 H       -7.7070    10.2670     0.3340 H     1 <1>   0.0800 
 41 H       -7.7290     8.8170     1.2980 H     1 <1>   0.0800 
 42 H       -9.0230     6.7810     0.3630 H     1 <1>   0.0800 
 43 H       -9.8220     6.9600    -1.1730 H     1 <1>   0.0800 
 44 H      -10.8970     9.0800    -2.1000 H     1 <1>   0.1500 
 45 H      -11.6110    10.7030     2.3770 H     1 <1>   0.1500 
 46 H      -13.0920    10.1430    -1.5730 H     1 <1>   0.1500 
 47 H      -13.4140    10.9670     0.7550 H     1 <1>   0.1500 
@<TRIPOS>BOND
  1   1   2  1   
  2   2   3  ar  
  3   2   4  ar  
  4   3   5  ar  
  5   3  27  1   
  6   4   6  ar  
  7   4  28  1   
  8   5   7  ar  
  9   5  29  1   
 10   6   7  ar  
 11   6  30  1   
 12   7   8  1   
 13   8   9  am  
 14   8  31  1   
 15   9  10  2   
 16   9  11  1   
 17  11  12  1   
 18  11  32  1   
 19  11  33  1   
 20  12  13  1   
 21  12  34  1   
 22  12  35  1   
 23  13  14  2   
 24  13  15  am  
 25  15  16  1   
 26  15  17  1   
 27  16  18  1   
 28  16  36  1   
 29  16  37  1   
 30  17  19  1   
 31  17  38  1   
 32  17  39  1   
 33  18  20  1   
 34  18  40  1   
 35  18  41  1   
 36  19  20  1   
 37  19  42  1   
 38  19  43  1   
 39  20  21  1   
 40  21  22  ar  
 41  21  23  ar  
 42  22  24  ar  
 43  23  25  ar  
 44  23  44  1   
 45  24  26  ar  
 46  24  45  1   
 47  25  26  ar  
 48  25  46  1   
 49  26  47  1   
@<TRIPOS>SUBSTRUCTURE
  1 ****  13 GROUP 4 **** **** 0

# MOE 2024.06 (io_trps.svl 2023.06)
