@<TRIPOS>MOLECULE
NONAME
53 55 1 0 0 
SMALL
USER_CHARGES


@<TRIPOS>ATOM
  1 O        0.6480    -1.4170     0.3080 O.2   1 <1>  -0.5700 
  2 C        0.2400    -2.5190     0.6230 C.2   1 <1>   0.5440 
  3 N        1.1870    -3.4260     1.0380 N.am  1 <1>  -0.6600 
  4 C       -1.1660    -2.8710     0.5010 C.ar  1 <1>   0.0860 
  5 C        1.5080    -4.5770     0.1500 C.3   1 <1>   0.1400 
  6 C        2.3630    -2.9250     1.8060 C.3   1 <1>   0.1400 
  7 C       -2.0470    -2.0790    -0.2350 C.ar  1 <1>  -0.1500 
  8 C       -1.6900    -4.0120     1.1080 C.ar  1 <1>  -0.1500 
  9 C        2.6490    -4.1910    -0.8180 C.3   1 <1>   0.3430 
 10 C        3.4880    -2.5210     0.8370 C.3   1 <1>   0.3430 
 11 C       -3.3930    -2.4050    -0.3670 C.ar  1 <1>   0.0830 
 12 C       -3.0170    -4.3740     0.9800 C.ar  1 <1>   0.0830 
 13 N        3.8610    -3.6470    -0.1030 N.4   1 <1>  -0.9590 
 14 O       -4.2610    -1.6360    -1.0880 O.3   1 <1>  -0.3630 
 15 C       -3.8890    -3.5550     0.2520 C.ar  1 <1>   0.0830 
 16 O       -3.3610    -5.5330     1.6070 O.3   1 <1>  -0.3630 
 17 C        4.9080    -3.2120    -1.0710 C.3   1 <1>   0.4860 
 18 C       -3.8480    -0.4590    -1.7490 C.3   1 <1>   0.0400 
 19 O       -5.2090    -3.8580     0.1450 O.3   1 <1>  -0.3630 
 20 C       -4.3330    -6.3910     1.0490 C.3   1 <1>   0.0400 
 21 C        6.1580    -2.8220    -0.3120 C.ar  1 <1>  -0.1430 
 22 C       -6.0810    -3.1200     0.9700 C.3   1 <1>   0.0400 
 23 C        7.0030    -3.8020     0.1860 C.ar  1 <1>   0.1600 
 24 C        6.4770    -1.4940    -0.0980 C.ar  1 <1>  -0.1500 
 25 N        8.0960    -3.5670     0.8870 N.ar  1 <1>  -0.6200 
 26 C        7.6240    -1.2350     0.6220 C.ar  1 <1>  -0.1500 
 27 C        8.3870    -2.2920     1.0880 C.ar  1 <1>   0.1600 
 28 H        0.6370    -4.8550    -0.4190 H     1 <1>   0.0800 
 29 H        1.7950    -5.4250     0.7480 H     1 <1>   0.0800 
 30 H        2.7070    -3.6850     2.4860 H     1 <1>   0.0800 
 31 H        2.0730    -2.0670     2.3900 H     1 <1>   0.0800 
 32 H       -1.6510    -1.1970    -0.7000 H     1 <1>   0.1500 
 33 H       -1.0540    -4.6430     1.7020 H     1 <1>   0.1500 
 34 H        2.2680    -3.4440    -1.4950 H     1 <1>   0.0800 
 35 H        2.9220    -5.0560    -1.4010 H     1 <1>   0.0800 
 36 H        4.3500    -2.2140     1.4080 H     1 <1>   0.0800 
 37 H        3.1470    -1.6690     0.2690 H     1 <1>   0.0800 
 38 H        4.2630    -4.3930     0.4770 H     1 <1>   0.4500 
 39 H        4.5540    -2.3710    -1.6470 H     1 <1>   0.0800 
 40 H        5.1410    -4.0150    -1.7520 H     1 <1>   0.0800 
 41 H       -4.7060    -0.0340    -2.2380 H     1 <1>   0.0800 
 42 H       -3.1020    -0.7120    -2.4810 H     1 <1>   0.0800 
 43 H       -3.4610     0.2340    -1.0240 H     1 <1>   0.0800 
 44 H       -4.1820    -7.3770     1.4510 H     1 <1>   0.0800 
 45 H       -4.2210    -6.4060    -0.0210 H     1 <1>   0.0800 
 46 H       -5.3100    -6.0360     1.3230 H     1 <1>   0.0800 
 47 H       -7.0790    -3.4900     0.8190 H     1 <1>   0.0800 
 48 H       -6.0300    -2.0810     0.6980 H     1 <1>   0.0800 
 49 H       -5.7860    -3.2550     1.9950 H     1 <1>   0.0800 
 50 H        6.7790    -4.8410     0.0080 H     1 <1>   0.1500 
 51 H        5.8740    -0.6820    -0.4710 H     1 <1>   0.1500 
 52 H        7.9320    -0.2240     0.8230 H     1 <1>   0.1500 
 53 H        9.2800    -2.0790     1.6510 H     1 <1>   0.1500 
@<TRIPOS>BOND
  1   1   2  2   
  2   2   3  am  
  3   2   4  1   
  4   3   5  1   
  5   3   6  1   
  6   4   7  ar  
  7   4   8  ar  
  8   5   9  1   
  9   5  28  1   
 10   5  29  1   
 11   6  10  1   
 12   6  30  1   
 13   6  31  1   
 14   7  11  ar  
 15   7  32  1   
 16   8  12  ar  
 17   8  33  1   
 18   9  13  1   
 19   9  34  1   
 20   9  35  1   
 21  10  13  1   
 22  10  36  1   
 23  10  37  1   
 24  11  14  1   
 25  11  15  ar  
 26  12  15  ar  
 27  12  16  1   
 28  13  17  1   
 29  13  38  1   
 30  14  18  1   
 31  15  19  1   
 32  16  20  1   
 33  17  21  1   
 34  17  39  1   
 35  17  40  1   
 36  18  41  1   
 37  18  42  1   
 38  18  43  1   
 39  19  22  1   
 40  20  44  1   
 41  20  45  1   
 42  20  46  1   
 43  21  23  ar  
 44  21  24  ar  
 45  22  47  1   
 46  22  48  1   
 47  22  49  1   
 48  23  25  ar  
 49  23  50  1   
 50  24  26  ar  
 51  24  51  1   
 52  25  27  ar  
 53  26  27  ar  
 54  26  52  1   
 55  27  53  1   
@<TRIPOS>SUBSTRUCTURE
  1 ****   3 GROUP 4 **** **** 0

# MOE 2024.06 (io_trps.svl 2023.06)
