@<TRIPOS>MOLECULE
NONAME
43 45 1 0 0 
SMALL
USER_CHARGES


@<TRIPOS>ATOM
  1 S       -0.6180    -0.3520     0.9360 S.3   1 <1>  -0.0800 
  2 C        0.4740     1.0190     1.0830 C.2   1 <1>   0.1040 
  3 C       -1.9160     0.6820     0.3850 C.2   1 <1>  -0.1400 
  4 N        1.7600     0.8420     1.5760 N.am  1 <1>  -0.4940 
  5 C       -0.1440     2.1800     0.7030 C.2   1 <1>  -0.0860 
  6 C       -1.5210     1.9620     0.3050 C.2   1 <1>  -0.1810 
  7 C       -3.2770     0.0880     0.0950 C.3   1 <1>   0.0200 
  8 C        2.6140    -0.2170     1.7100 C.2   1 <1>   0.5690 
  9 C        0.5340     3.4500     0.7270 C.2   1 <1>   0.7160 
 10 C       -2.5130     3.0410    -0.1240 C.3   1 <1>   0.0210 
 11 C       -4.3140     1.2210     0.0330 C.3   1 <1>  -0.1600 
 12 O        3.6220    -0.0540     2.3530 O.2   1 <1>  -0.5700 
 13 C        2.3160    -1.5700     1.0300 C.3   1 <1>   0.1710 
 14 O        1.3700     3.7100     1.5690 O.2   1 <1>  -0.5700 
 15 N        0.3350     4.3980    -0.2130 N.am  1 <1>  -0.8000 
 16 C       -3.7830     2.4340    -0.7550 C.3   1 <1>  -0.1600 
 17 N        3.4770    -2.4430     0.6940 N.3   1 <1>  -0.8100 
 18 C        4.4300    -1.7720    -0.2140 C.3   1 <1>   0.1100 
 19 C        3.0300    -3.7150     0.0980 C.3   1 <1>   0.1100 
 20 C        5.5830    -2.7150    -0.6010 C.3   1 <1>   0.1200 
 21 C        4.2310    -4.5940    -0.2940 C.3   1 <1>   0.1200 
 22 O        5.0850    -3.8990    -1.1590 O.3   1 <1>  -0.5600 
 23 H        2.1830     1.7010     1.9480 H     1 <1>   0.3700 
 24 H       -3.5480    -0.6120     0.8660 H     1 <1>   0.0800 
 25 H       -3.2380    -0.4350    -0.8440 H     1 <1>   0.0800 
 26 H       -2.0730     3.7020    -0.8450 H     1 <1>   0.0800 
 27 H       -2.7820     3.6190     0.7430 H     1 <1>   0.0800 
 28 H       -4.5470     1.5350     1.0360 H     1 <1>   0.0800 
 29 H       -5.2200     0.8550    -0.4180 H     1 <1>   0.0800 
 30 H        1.7810    -1.3710     0.1200 H     1 <1>   0.0800 
 31 H        1.6640    -2.1150     1.6870 H     1 <1>   0.0800 
 32 H        0.9210     5.2320    -0.1850 H     1 <1>   0.3700 
 33 H       -0.1470     4.1980    -1.0860 H     1 <1>   0.3700 
 34 H       -3.5540     2.1180    -1.7590 H     1 <1>   0.0800 
 35 H       -4.5460     3.1900    -0.8160 H     1 <1>   0.0800 
 36 H        4.8460    -0.9070     0.2720 H     1 <1>   0.0800 
 37 H        3.9260    -1.4490    -1.1090 H     1 <1>   0.0800 
 38 H        2.4370    -3.5250    -0.7800 H     1 <1>   0.0800 
 39 H        2.4230    -4.2470     0.8090 H     1 <1>   0.0800 
 40 H        6.1710    -2.9610     0.2660 H     1 <1>   0.0800 
 41 H        6.2170    -2.2480    -1.3320 H     1 <1>   0.0800 
 42 H        3.8970    -5.4790    -0.8040 H     1 <1>   0.0800 
 43 H        4.7870    -4.8830     0.5810 H     1 <1>   0.0800 
@<TRIPOS>BOND
  1   1   2  1   
  2   1   3  1   
  3   2   4  1   
  4   2   5  2   
  5   3   6  2   
  6   3   7  1   
  7   4   8  am  
  8   4  23  1   
  9   5   6  1   
 10   5   9  1   
 11   6  10  1   
 12   7  11  1   
 13   7  24  1   
 14   7  25  1   
 15   8  12  2   
 16   8  13  1   
 17   9  14  2   
 18   9  15  am  
 19  10  16  1   
 20  10  26  1   
 21  10  27  1   
 22  11  16  1   
 23  11  28  1   
 24  11  29  1   
 25  13  17  1   
 26  13  30  1   
 27  13  31  1   
 28  15  32  1   
 29  15  33  1   
 30  16  34  1   
 31  16  35  1   
 32  17  18  1   
 33  17  19  1   
 34  18  20  1   
 35  18  36  1   
 36  18  37  1   
 37  19  21  1   
 38  19  38  1   
 39  19  39  1   
 40  20  22  1   
 41  20  40  1   
 42  20  41  1   
 43  21  22  1   
 44  21  42  1   
 45  21  43  1   
@<TRIPOS>SUBSTRUCTURE
  1 ****   2 GROUP 4 **** **** 0

# MOE 2024.06 (io_trps.svl 2023.06)
