@<TRIPOS>MOLECULE
NONAME
40 42 1 0 0 
SMALL
USER_CHARGES


@<TRIPOS>ATOM
  1 CL      -1.6940     0.2940     0.8400 Cl    1 <1>  -0.1770 
  2 C       -0.9220     1.7960     0.3930 C.ar  1 <1>   0.1770 
  3 C       -1.5430     2.6310    -0.5190 C.ar  1 <1>  -0.1440 
  4 C        0.2910     2.1250     0.9730 C.ar  1 <1>  -0.1500 
  5 C       -0.9150     3.8260    -0.8310 C.ar  1 <1>   0.1770 
  6 C       -2.8590     2.2420    -1.1580 C.3   1 <1>   0.4870 
  7 C        0.9050     3.3220     0.6400 C.ar  1 <1>  -0.1500 
  8 CL      -1.6750     4.9290    -1.9500 Cl    1 <1>  -0.1770 
  9 C        0.2980     4.1780    -0.2650 C.ar  1 <1>  -0.1500 
 10 N       -3.9600     2.4140    -0.1720 N.4   1 <1>  -0.9590 
 11 C       -5.2480     1.8130    -0.6780 C.3   1 <1>   0.3430 
 12 C       -4.1590     3.8630     0.2110 C.3   1 <1>   0.3430 
 13 C       -6.4040     1.9510     0.3350 C.3   1 <1>   0.2090 
 14 C       -5.3020     4.0630     1.2290 C.3   1 <1>   0.2090 
 15 N       -6.5510     3.3610     0.8010 N.pl3 1 <1>  -0.8380 
 16 C       -7.6610     4.0860     0.3730 C.ar  1 <1>   0.1000 
 17 C       -8.9230     3.7430     0.8510 C.ar  1 <1>  -0.1500 
 18 C       -7.5420     5.1430    -0.5300 C.ar  1 <1>  -0.1500 
 19 C      -10.0510     4.4310     0.4400 C.ar  1 <1>  -0.1500 
 20 C       -8.6600     5.8420    -0.9500 C.ar  1 <1>  -0.1500 
 21 C       -9.8960     5.4710    -0.4560 C.ar  1 <1>   0.1900 
 22 F      -10.9570     6.1270    -0.8520 F     1 <1>  -0.1900 
 23 H        0.7520     1.4520     1.6770 H     1 <1>   0.1500 
 24 H       -2.8030     1.2110    -1.4680 H     1 <1>   0.0800 
 25 H       -3.0450     2.8440    -2.0320 H     1 <1>   0.0800 
 26 H        1.8510     3.5870     1.0840 H     1 <1>   0.1500 
 27 H        0.7650     5.1120    -0.5310 H     1 <1>   0.1500 
 28 H       -3.6910     1.9000     0.6790 H     1 <1>   0.4500 
 29 H       -5.1040     0.7690    -0.9010 H     1 <1>   0.0800 
 30 H       -5.5440     2.3090    -1.5880 H     1 <1>   0.0800 
 31 H       -4.3910     4.4380    -0.6700 H     1 <1>   0.0800 
 32 H       -3.2500     4.2620     0.6300 H     1 <1>   0.0800 
 33 H       -6.2250     1.3140     1.1850 H     1 <1>   0.0800 
 34 H       -7.3200     1.6250    -0.1290 H     1 <1>   0.0800 
 35 H       -5.5000     5.1150     1.3490 H     1 <1>   0.0800 
 36 H       -5.0010     3.6830     2.1900 H     1 <1>   0.0800 
 37 H       -9.0150     2.9360     1.5550 H     1 <1>   0.1500 
 38 H       -6.5790     5.4210    -0.9120 H     1 <1>   0.1500 
 39 H      -11.0290     4.1740     0.8050 H     1 <1>   0.1500 
 40 H       -8.5860     6.6590    -1.6460 H     1 <1>   0.1500 
@<TRIPOS>BOND
  1   1   2  1   
  2   2   3  ar  
  3   2   4  ar  
  4   3   5  ar  
  5   3   6  1   
  6   4   7  ar  
  7   4  23  1   
  8   5   8  1   
  9   5   9  ar  
 10   6  10  1   
 11   6  24  1   
 12   6  25  1   
 13   7   9  ar  
 14   7  26  1   
 15   9  27  1   
 16  10  11  1   
 17  10  12  1   
 18  10  28  1   
 19  11  13  1   
 20  11  29  1   
 21  11  30  1   
 22  12  14  1   
 23  12  31  1   
 24  12  32  1   
 25  13  15  1   
 26  13  33  1   
 27  13  34  1   
 28  14  15  1   
 29  14  35  1   
 30  14  36  1   
 31  15  16  1   
 32  16  17  ar  
 33  16  18  ar  
 34  17  19  ar  
 35  17  37  1   
 36  18  20  ar  
 37  18  38  1   
 38  19  21  ar  
 39  19  39  1   
 40  20  21  ar  
 41  20  40  1   
 42  21  22  1   
@<TRIPOS>SUBSTRUCTURE
  1 ****  12 GROUP 4 **** **** 0

# MOE 2024.06 (io_trps.svl 2023.06)
