@<TRIPOS>MOLECULE
NONAME
53 55 1 0 0 
SMALL
USER_CHARGES


@<TRIPOS>ATOM
  1 O        0.6970    -0.3490    -1.1780 O.3   1 <1>  -0.3630 
  2 C        1.7170    -0.6870    -0.3490 C.ar  1 <1>   0.0830 
  3 C        0.8330     0.6820    -2.1310 C.3   1 <1>   0.0400 
  4 C        2.9620    -0.0670    -0.3560 C.ar  1 <1>  -0.1500 
  5 C        1.4710    -1.7150     0.5470 C.ar  1 <1>  -0.1500 
  6 C        3.9560    -0.4720     0.5270 C.ar  1 <1>   0.1000 
  7 C        2.4550    -2.1240     1.4300 C.ar  1 <1>  -0.1500 
  8 N        5.2100     0.1310     0.5400 N.pl3 1 <1>  -0.8380 
  9 C        3.6900    -1.5040     1.4170 C.ar  1 <1>  -0.1500 
 10 C        5.2730     1.5250     1.0550 C.3   1 <1>   0.2090 
 11 C        6.0900    -0.1350    -0.6290 C.3   1 <1>   0.2090 
 12 C        6.7340     1.9310     1.3430 C.3   1 <1>   0.3430 
 13 C        7.5420     0.2890    -0.3240 C.3   1 <1>   0.3430 
 14 N        7.6620     1.7220     0.1600 N.4   1 <1>  -0.9590 
 15 C        9.0770     2.1120     0.4610 C.3   1 <1>   0.4230 
 16 C        9.1400     3.5830     0.9130 C.3   1 <1>  -0.1600 
 17 C        9.9620     1.9100    -0.7830 C.3   1 <1>  -0.1600 
 18 C       10.5840     4.0550     1.1400 C.3   1 <1>  -0.1600 
 19 C       11.4030     2.3910    -0.5590 C.3   1 <1>  -0.1600 
 20 C       11.4540     3.8610    -0.1110 C.3   1 <1>  -0.0800 
 21 C       12.8920     4.3290     0.1840 C.3   1 <1>  -0.1600 
 22 C       13.7980     4.3300    -1.0540 C.3   1 <1>  -0.2400 
 23 H       -0.0970     0.7650    -2.6650 H     1 <1>   0.0800 
 24 H        1.6230     0.4250    -2.8130 H     1 <1>   0.0800 
 25 H        1.0440     1.6040    -1.6200 H     1 <1>   0.0800 
 26 H        3.1760     0.7290    -1.0380 H     1 <1>   0.1500 
 27 H        0.5060    -2.1890     0.5480 H     1 <1>   0.1500 
 28 H        2.2570    -2.9230     2.1230 H     1 <1>   0.1500 
 29 H        4.4580    -1.8170     2.0990 H     1 <1>   0.1500 
 30 H        4.6980     1.5910     1.9640 H     1 <1>   0.0800 
 31 H        4.8370     2.1980     0.3380 H     1 <1>   0.0800 
 32 H        5.7230     0.3970    -1.4900 H     1 <1>   0.0800 
 33 H        6.0650    -1.1880    -0.8560 H     1 <1>   0.0800 
 34 H        7.0830     1.3470     2.1780 H     1 <1>   0.0800 
 35 H        6.7400     2.9660     1.6400 H     1 <1>   0.0800 
 36 H        8.1250     0.1490    -1.2170 H     1 <1>   0.0800 
 37 H        7.9300    -0.3760     0.4300 H     1 <1>   0.0800 
 38 H        7.3370     2.3320    -0.5990 H     1 <1>   0.4500 
 39 H        9.4590     1.4920     1.2580 H     1 <1>   0.0800 
 40 H        8.6190     3.7190     1.8420 H     1 <1>   0.0800 
 41 H        8.6890     4.2130     0.1670 H     1 <1>   0.0800 
 42 H        9.5490     2.4530    -1.6150 H     1 <1>   0.0800 
 43 H       10.0200     0.8690    -1.0440 H     1 <1>   0.0800 
 44 H       11.0140     3.5110     1.9640 H     1 <1>   0.0800 
 45 H       10.5750     5.0980     1.4100 H     1 <1>   0.0800 
 46 H       11.9500     2.2720    -1.4780 H     1 <1>   0.0800 
 47 H       11.8800     1.7740     0.1850 H     1 <1>   0.0800 
 48 H       11.0560     4.4780    -0.9000 H     1 <1>   0.0800 
 49 H       13.3340     3.7070     0.9440 H     1 <1>   0.0800 
 50 H       12.8590     5.3340     0.5690 H     1 <1>   0.0800 
 51 H       13.9790     3.3310    -1.4060 H     1 <1>   0.0800 
 52 H       14.7490     4.7700    -0.8060 H     1 <1>   0.0800 
 53 H       13.3570     4.9070    -1.8470 H     1 <1>   0.0800 
@<TRIPOS>BOND
  1   1   2  1   
  2   1   3  1   
  3   2   4  ar  
  4   2   5  ar  
  5   3  23  1   
  6   3  24  1   
  7   3  25  1   
  8   4   6  ar  
  9   4  26  1   
 10   5   7  ar  
 11   5  27  1   
 12   6   8  1   
 13   6   9  ar  
 14   7   9  ar  
 15   7  28  1   
 16   8  10  1   
 17   8  11  1   
 18   9  29  1   
 19  10  12  1   
 20  10  30  1   
 21  10  31  1   
 22  11  13  1   
 23  11  32  1   
 24  11  33  1   
 25  12  14  1   
 26  12  34  1   
 27  12  35  1   
 28  13  14  1   
 29  13  36  1   
 30  13  37  1   
 31  14  15  1   
 32  14  38  1   
 33  15  16  1   
 34  15  17  1   
 35  15  39  1   
 36  16  18  1   
 37  16  40  1   
 38  16  41  1   
 39  17  19  1   
 40  17  42  1   
 41  17  43  1   
 42  18  20  1   
 43  18  44  1   
 44  18  45  1   
 45  19  20  1   
 46  19  46  1   
 47  19  47  1   
 48  20  21  1   
 49  20  48  1   
 50  21  22  1   
 51  21  49  1   
 52  21  50  1   
 53  22  51  1   
 54  22  52  1   
 55  22  53  1   
@<TRIPOS>SUBSTRUCTURE
  1 ****  14 GROUP 4 **** **** 0

# MOE 2024.06 (io_trps.svl 2023.06)
