@<TRIPOS>MOLECULE
NONAME
31 32 1 0 0 
SMALL
USER_CHARGES


@<TRIPOS>ATOM
  1 CL       0.8170     0.8950     1.5780 Cl    1 <1>  -0.1770 
  2 C        0.2170     2.2110     0.5940 C.ar  1 <1>   0.1770 
  3 C        1.0880     3.0180    -0.1190 C.ar  1 <1>   0.1900 
  4 C       -1.1430     2.4420     0.5270 C.ar  1 <1>  -0.1500 
  5 F        2.3790     2.8040    -0.0620 F     1 <1>  -0.1900 
  6 C        0.6240     4.0560    -0.9040 C.ar  1 <1>  -0.1500 
  7 C       -1.6390     3.4850    -0.2550 C.ar  1 <1>   0.1170 
  8 C       -0.7420     4.2820    -0.9660 C.ar  1 <1>  -0.1500 
  9 N       -3.0100     3.7520    -0.3660 N.am  1 <1>  -0.5470 
 10 C       -4.0270     3.5220     0.5130 C.2   1 <1>   0.6900 
 11 O       -3.8230     3.1130     1.6380 O.2   1 <1>  -0.5700 
 12 N       -5.2860     3.7800     0.0900 N.am  1 <1>  -0.7300 
 13 C       -6.5020     3.5910     0.8990 C.3   1 <1>   0.2200 
 14 C       -7.3280     2.4670     0.2880 C.3   1 <1>  -0.1600 
 15 C       -7.3960     4.8130     0.7310 C.3   1 <1>  -0.1600 
 16 C       -8.1000     3.0990    -0.8760 C.3   1 <1>  -0.1600 
 17 C       -8.1470     4.6060    -0.5900 C.3   1 <1>  -0.1600 
 18 H       -1.8100     1.8080     1.0810 H     1 <1>   0.1500 
 19 H        1.3190     4.6700    -1.4500 H     1 <1>   0.1500 
 20 H       -1.1130     5.0890    -1.5710 H     1 <1>   0.1500 
 21 H       -3.2890     4.3050    -1.1690 H     1 <1>   0.3700 
 22 H       -5.4710     3.9600    -0.8920 H     1 <1>   0.3700 
 23 H       -6.2540     3.4040     1.9320 H     1 <1>   0.0800 
 24 H       -8.0310     2.1240     1.0270 H     1 <1>   0.0800 
 25 H       -6.7200     1.6330    -0.0160 H     1 <1>   0.0800 
 26 H       -6.8380     5.7330     0.7560 H     1 <1>   0.0800 
 27 H       -8.1080     4.8240     1.5380 H     1 <1>   0.0800 
 28 H       -9.0900     2.6820    -0.9500 H     1 <1>   0.0800 
 29 H       -7.5800     2.9200    -1.8020 H     1 <1>   0.0800 
 30 H       -7.6530     5.1420    -1.3820 H     1 <1>   0.0800 
 31 H       -9.1610     4.9600    -0.5120 H     1 <1>   0.0800 
@<TRIPOS>BOND
  1   1   2  1   
  2   2   3  ar  
  3   2   4  ar  
  4   3   5  1   
  5   3   6  ar  
  6   4   7  ar  
  7   4  18  1   
  8   6   8  ar  
  9   6  19  1   
 10   7   8  ar  
 11   7   9  1   
 12   8  20  1   
 13   9  10  am  
 14   9  21  1   
 15  10  11  2   
 16  10  12  am  
 17  12  13  1   
 18  12  22  1   
 19  13  14  1   
 20  13  15  1   
 21  13  23  1   
 22  14  16  1   
 23  14  24  1   
 24  14  25  1   
 25  15  17  1   
 26  15  26  1   
 27  15  27  1   
 28  16  17  1   
 29  16  28  1   
 30  16  29  1   
 31  17  30  1   
 32  17  31  1   
@<TRIPOS>SUBSTRUCTURE
  1 ****   9 GROUP 4 **** **** 0

# MOE 2024.06 (io_trps.svl 2023.06)
