@<TRIPOS>MOLECULE
NONAME
40 42 1 0 0 
SMALL
USER_CHARGES


@<TRIPOS>ATOM
  1 O        0.5210     2.3750    -2.2160 O.2   1 <1>  -0.5700 
  2 C        0.1080     2.4360    -1.0790 C.2   1 <1>   0.5690 
  3 N        0.9420     2.2950    -0.0110 N.am  1 <1>  -0.7300 
  4 C       -1.3970     2.6730    -0.8400 C.3   1 <1>   0.4050 
  5 C        2.3840     2.0040    -0.0650 C.3   1 <1>   0.2200 
  6 O       -1.6660     4.0050    -0.4530 O.3   1 <1>  -0.5600 
  7 C       -1.9340     1.7120     0.2290 C.ar  1 <1>  -0.1430 
  8 C        2.6700     0.6610     0.6300 C.3   1 <1>  -0.0800 
  9 C        3.1570     3.0090     0.8050 C.3   1 <1>  -0.1600 
 10 C       -1.4270     4.9610    -1.4390 C.3   1 <1>   0.0400 
 11 C       -2.1270     0.3780    -0.1060 C.ar  1 <1>  -0.1500 
 12 C       -2.2140     2.1240     1.5260 C.ar  1 <1>  -0.1500 
 13 C        2.7410     1.0620     2.0970 C.3   1 <1>  -0.1600 
 14 C        4.1360     0.2860     0.3520 C.3   1 <1>  -0.1600 
 15 C        3.8090     2.1210     1.8810 C.3   1 <1>  -0.0800 
 16 C       -2.5890    -0.5260     0.8350 C.ar  1 <1>  -0.1500 
 17 C       -2.6770     1.2210     2.4680 C.ar  1 <1>  -0.1500 
 18 C        4.9200     1.2950     1.2110 C.3   1 <1>  -0.1600 
 19 C       -2.8640    -0.1050     2.1230 C.ar  1 <1>  -0.1500 
 20 H        0.5340     2.3030     0.9260 H     1 <1>   0.3700 
 21 H       -1.9240     2.4900    -1.7590 H     1 <1>   0.0800 
 22 H        2.7320     2.0050    -1.0860 H     1 <1>   0.0800 
 23 H        1.9690    -0.1180     0.3840 H     1 <1>   0.0800 
 24 H        2.4940     3.7250     1.2590 H     1 <1>   0.0800 
 25 H        3.8970     3.5330     0.2280 H     1 <1>   0.0800 
 26 H       -2.0130     4.7300    -2.3120 H     1 <1>   0.0800 
 27 H       -0.3780     4.9770    -1.6830 H     1 <1>   0.0800 
 28 H       -1.7190     5.9210    -1.0520 H     1 <1>   0.0800 
 29 H       -1.9130     0.0330    -1.1030 H     1 <1>   0.1500 
 30 H       -2.0770     3.1530     1.8120 H     1 <1>   0.1500 
 31 H        3.0730     0.2580     2.7330 H     1 <1>   0.0800 
 32 H        1.8180     1.4700     2.4720 H     1 <1>   0.0800 
 33 H        4.3800     0.3680    -0.6930 H     1 <1>   0.0800 
 34 H        4.3340    -0.7190     0.6830 H     1 <1>   0.0800 
 35 H        4.1240     2.6510     2.7640 H     1 <1>   0.0800 
 36 H       -2.7340    -1.5570     0.5640 H     1 <1>   0.1500 
 37 H       -2.8930     1.5530     3.4690 H     1 <1>   0.1500 
 38 H        5.5770     1.9070     0.6180 H     1 <1>   0.0800 
 39 H        5.5000     0.7760     1.9560 H     1 <1>   0.0800 
 40 H       -3.2240    -0.8070     2.8550 H     1 <1>   0.1500 
@<TRIPOS>BOND
  1   1   2  2   
  2   2   3  am  
  3   2   4  1   
  4   3   5  1   
  5   3  20  1   
  6   4   6  1   
  7   4   7  1   
  8   4  21  1   
  9   5   8  1   
 10   5   9  1   
 11   5  22  1   
 12   6  10  1   
 13   7  11  ar  
 14   7  12  ar  
 15   8  13  1   
 16   8  14  1   
 17   8  23  1   
 18   9  15  1   
 19   9  24  1   
 20   9  25  1   
 21  10  26  1   
 22  10  27  1   
 23  10  28  1   
 24  11  16  ar  
 25  11  29  1   
 26  12  17  ar  
 27  12  30  1   
 28  13  15  1   
 29  13  31  1   
 30  13  32  1   
 31  14  18  1   
 32  14  33  1   
 33  14  34  1   
 34  15  18  1   
 35  15  35  1   
 36  16  19  ar  
 37  16  36  1   
 38  17  19  ar  
 39  17  37  1   
 40  18  38  1   
 41  18  39  1   
 42  19  40  1   
@<TRIPOS>SUBSTRUCTURE
  1 ****   3 GROUP 4 **** **** 0

# MOE 2024.06 (io_trps.svl 2023.06)
