@<TRIPOS>MOLECULE
Structure1883
41 42 1 0 0 
SMALL
USER_CHARGES


@<TRIPOS>ATOM
  1 F        1.1450     1.1800     0.9080 F     1 <1>  -0.1900 
  2 C        2.2560     0.5120     0.7370 C.ar  1 <1>   0.1900 
  3 C        2.2850    -0.8260     1.0470 C.ar  1 <1>  -0.1500 
  4 C        3.3660     1.2030     0.2420 C.ar  1 <1>  -0.1500 
  5 C        3.4910    -1.5060     0.8510 C.ar  1 <1>  -0.1520 
  6 C        4.5480     0.5230     0.0520 C.ar  1 <1>  -0.1500 
  7 N        3.8250    -2.8190     1.0610 N.pl3 1 <1>   0.0330 
  8 C        4.6160    -0.8440     0.3580 C.ar  1 <1>   0.0000 
  9 C        5.1320    -2.9840     0.7140 C.2   1 <1>  -0.3020 
 10 C        5.6470    -1.8090     0.2800 C.2   1 <1>  -0.1810 
 11 C        7.0520    -1.4970    -0.2200 C.3   1 <1>   0.0210 
 12 C        8.0650    -2.6460    -0.0880 C.3   1 <1>   0.1140 
 13 N        9.4400    -2.0730    -0.2720 N.am  1 <1>  -0.7300 
 14 C        7.8180    -3.7600    -1.1240 C.2   1 <1>   0.9060 
 15 C       10.3530    -1.8590     0.6950 C.2   1 <1>   0.7800 
 16 O        7.2850    -4.8260    -0.7890 O.co2 1 <1>  -0.9000 
 17 O        8.2500    -3.5780    -2.2750 O.co2 1 <1>  -0.9000 
 18 O       10.0860    -1.7390     1.8710 O.2   1 <1>  -0.5700 
 19 O       11.6070    -1.7690     0.3050 O.3   1 <1>  -0.4300 
 20 C       12.8990    -1.6870    -0.1930 C.3   1 <1>   0.2800 
 21 C       13.0330    -0.3400    -0.8990 C.3   1 <1>  -0.2400 
 22 C       13.8530    -1.7950     0.9940 C.3   1 <1>  -0.2400 
 23 C       13.0840    -2.8490    -1.1670 C.3   1 <1>  -0.2400 
 24 H        1.4170    -1.3300     1.4250 H     1 <1>   0.1500 
 25 H        3.2770     2.2500     0.0180 H     1 <1>   0.1500 
 26 H        5.4250     1.0150    -0.3280 H     1 <1>   0.1500 
 27 H        3.2000    -3.5570     1.3940 H     1 <1>   0.2700 
 28 H        5.6190    -3.9440     0.7860 H     1 <1>   0.1500 
 29 H        7.4170    -0.6630     0.3510 H     1 <1>   0.0800 
 30 H        6.9950    -1.2030    -1.2530 H     1 <1>   0.0800 
 31 H        7.9910    -3.0780     0.8930 H     1 <1>   0.0800 
 32 H        9.7840    -2.3020    -1.2110 H     1 <1>   0.3700 
 33 H       14.0220    -0.2300    -1.3030 H     1 <1>   0.0800 
 34 H       12.8550     0.4610    -0.2050 H     1 <1>   0.0800 
 35 H       12.3240    -0.2710    -1.7040 H     1 <1>   0.0800 
 36 H       13.6720    -0.9930     1.6880 H     1 <1>   0.0800 
 37 H       14.8720    -1.7370     0.6590 H     1 <1>   0.0800 
 38 H       13.7100    -2.7330     1.5000 H     1 <1>   0.0800 
 39 H       12.3740    -2.7770    -1.9720 H     1 <1>   0.0800 
 40 H       12.9410    -3.7860    -0.6600 H     1 <1>   0.0800 
 41 H       14.0750    -2.8320    -1.5830 H     1 <1>   0.0800 
@<TRIPOS>BOND
  1   1   2  1   
  2   2   3  ar  
  3   2   4  ar  
  4   3   5  ar  
  5   3  24  1   
  6   4   6  ar  
  7   4  25  1   
  8   5   7  1   
  9   5   8  ar  
 10   6   8  ar  
 11   6  26  1   
 12   7   9  1   
 13   7  27  1   
 14   8  10  1   
 15   9  10  2   
 16   9  28  1   
 17  10  11  1   
 18  11  12  1   
 19  11  29  1   
 20  11  30  1   
 21  12  13  1   
 22  12  14  1   
 23  12  31  1   
 24  13  15  am  
 25  13  32  1   
 26  14  16  ar  
 27  14  17  ar  
 28  15  18  2   
 29  15  19  1   
 30  19  20  1   
 31  20  21  1   
 32  20  22  1   
 33  20  23  1   
 34  21  33  1   
 35  21  34  1   
 36  21  35  1   
 37  22  36  1   
 38  22  37  1   
 39  22  38  1   
 40  23  39  1   
 41  23  40  1   
 42  23  41  1   
@<TRIPOS>SUBSTRUCTURE
  1 ****  11 GROUP 4 **** **** 0

# MOE 2024.06 (io_trps.svl 2023.06)
