@<TRIPOS>MOLECULE
NONAME
41 43 1 0 0 
SMALL
USER_CHARGES


@<TRIPOS>ATOM
  1 O       -0.0740    -0.3940    -1.0760 O.2   1 <1>  -0.5700 
  2 C       -0.1650    -1.5860    -0.8100 C.2   1 <1>   0.5650 
  3 N       -1.4120    -2.2490    -0.6470 N.pl3 1 <1>   0.5610 
  4 C        1.0100    -2.3790    -0.6540 C.2   1 <1>  -0.1360 
  5 N       -2.6980    -1.7700    -0.7370 N.2   1 <1>  -0.7070 
  6 C       -1.4440    -3.5890    -0.3710 C.2   1 <1>  -0.0680 
  7 C        0.9650    -3.7110    -0.3700 C.2   1 <1>  -0.0380 
  8 C       -3.4630    -2.7920    -0.5040 C.2   1 <1>   0.1080 
  9 N       -0.2590    -4.3200    -0.2300 N.pl3 1 <1>  -0.5840 
 10 C       -2.7450    -3.9740    -0.2770 C.2   1 <1>  -0.0540 
 11 C        2.1720    -4.6250    -0.1830 C.3   1 <1>  -0.0220 
 12 C       -4.9850    -2.7020    -0.5150 C.3   1 <1>   0.3010 
 13 C       -3.2510    -5.2990    -0.0280 C.ar  1 <1>   0.0540 
 14 C        3.5330    -3.9320    -0.3450 C.3   1 <1>  -0.1600 
 15 O       -5.4880    -2.7940     0.7880 O.3   1 <1>  -0.5600 
 16 C       -2.9710    -6.3400    -0.9100 C.ar  1 <1>  -0.1500 
 17 C       -4.0200    -5.5860     1.0960 C.ar  1 <1>  -0.1500 
 18 C        4.6890    -4.9170    -0.1420 C.3   1 <1>  -0.2400 
 19 C       -6.8720    -2.6940     0.8670 C.3   1 <1>   0.0400 
 20 C       -3.4430    -7.6190    -0.6810 C.ar  1 <1>  -0.1500 
 21 C       -4.4960    -6.8630     1.3310 C.ar  1 <1>  -0.1500 
 22 C       -4.2090    -7.8830     0.4410 C.ar  1 <1>  -0.1500 
 23 H        1.9310    -1.8450    -0.7760 H     1 <1>   0.1500 
 24 H       -0.3340    -5.3170     0.0190 H     1 <1>   0.4000 
 25 H        2.1040    -5.4260    -0.8990 H     1 <1>   0.0800 
 26 H        2.1190    -5.0590     0.8000 H     1 <1>   0.0800 
 27 H       -5.3940    -3.5060    -1.1000 H     1 <1>   0.0800 
 28 H       -5.2850    -1.7570    -0.9330 H     1 <1>   0.0800 
 29 H        3.6210    -3.1380     0.3770 H     1 <1>   0.0800 
 30 H        3.6060    -3.5050    -1.3310 H     1 <1>   0.0800 
 31 H       -2.3780    -6.1360    -1.7840 H     1 <1>   0.1500 
 32 H       -4.2420    -4.7950     1.7920 H     1 <1>   0.1500 
 33 H        4.6540    -5.3440     0.8450 H     1 <1>   0.0800 
 34 H        5.6300    -4.4080    -0.2600 H     1 <1>   0.0800 
 35 H        4.6400    -5.7120    -0.8660 H     1 <1>   0.0800 
 36 H       -7.1530    -2.7730     1.9030 H     1 <1>   0.0800 
 37 H       -7.3200    -3.4970     0.3080 H     1 <1>   0.0800 
 38 H       -7.1820    -1.7380     0.4810 H     1 <1>   0.0800 
 39 H       -3.2180    -8.4100    -1.3760 H     1 <1>   0.1500 
 40 H       -5.0900    -7.0620     2.2060 H     1 <1>   0.1500 
 41 H       -4.5790    -8.8780     0.6220 H     1 <1>   0.1500 
@<TRIPOS>BOND
  1   1   2  2   
  2   2   3  1   
  3   2   4  1   
  4   3   5  1   
  5   3   6  1   
  6   4   7  2   
  7   4  23  1   
  8   5   8  2   
  9   6   9  1   
 10   6  10  2   
 11   7   9  1   
 12   7  11  1   
 13   8  10  1   
 14   8  12  1   
 15   9  24  1   
 16  10  13  1   
 17  11  14  1   
 18  11  25  1   
 19  11  26  1   
 20  12  15  1   
 21  12  27  1   
 22  12  28  1   
 23  13  16  ar  
 24  13  17  ar  
 25  14  18  1   
 26  14  29  1   
 27  14  30  1   
 28  15  19  1   
 29  16  20  ar  
 30  16  31  1   
 31  17  21  ar  
 32  17  32  1   
 33  18  33  1   
 34  18  34  1   
 35  18  35  1   
 36  19  36  1   
 37  19  37  1   
 38  19  38  1   
 39  20  22  ar  
 40  20  39  1   
 41  21  22  ar  
 42  21  40  1   
 43  22  41  1   
@<TRIPOS>SUBSTRUCTURE
  1 ****   6 GROUP 4 **** **** 0

# MOE 2024.06 (io_trps.svl 2023.06)
