@<TRIPOS>MOLECULE
NONAME
29 30 1 0 0 
SMALL
USER_CHARGES


@<TRIPOS>ATOM
  1 F       -0.0940    -0.4410     0.2830 F     1 <1>  -0.1900 
  2 C        0.7050    -1.4660     0.1380 C.ar  1 <1>   0.1900 
  3 C        0.1630    -2.7040    -0.1760 C.ar  1 <1>  -0.1440 
  4 C        2.0590    -1.2650     0.3110 C.ar  1 <1>  -0.1500 
  5 C        1.0380    -3.7700    -0.3170 C.ar  1 <1>  -0.1500 
  6 C       -1.3350    -2.8920    -0.3610 C.3   1 <1>  -0.0960 
  7 C        2.9330    -2.3360     0.1660 C.ar  1 <1>   0.1170 
  8 C        2.4010    -3.5840    -0.1470 C.ar  1 <1>  -0.1500 
  9 N        4.3230    -2.2250     0.3340 N.am  1 <1>  -0.5470 
 10 C        5.1540    -1.1370     0.2930 C.2   1 <1>   0.5770 
 11 O        4.7700    -0.0140     0.0790 O.2   1 <1>  -0.5700 
 12 C        6.6390    -1.3730     0.5440 C.3   1 <1>   0.0530 
 13 C        7.6110    -0.4620    -0.2570 C.3   1 <1>   0.0000 
 14 C        7.2600    -2.5690    -0.2300 C.3   1 <1>   0.0000 
 15 C        8.5340    -1.7000    -0.3920 C.3   1 <1>   0.0000 
 16 H        2.4130    -0.2820     0.5590 H     1 <1>   0.1500 
 17 H        0.6620    -4.7490    -0.5610 H     1 <1>   0.1500 
 18 H       -1.6870    -2.2600    -1.1560 H     1 <1>   0.0800 
 19 H       -1.8510    -2.6260     0.5450 H     1 <1>   0.0800 
 20 H       -1.5710    -3.9120    -0.6030 H     1 <1>   0.0800 
 21 H        3.0580    -4.4260    -0.2650 H     1 <1>   0.1500 
 22 H        4.7990    -3.1130     0.4750 H     1 <1>   0.3700 
 23 H        6.8860    -1.4010     1.5920 H     1 <1>   0.0000 
 24 H        8.0370     0.3380     0.3230 H     1 <1>   0.0000 
 25 H        7.2140    -0.1430    -1.2060 H     1 <1>   0.0000 
 26 H        6.7750    -2.7640    -1.1720 H     1 <1>   0.0000 
 27 H        7.4060    -3.4490     0.3700 H     1 <1>   0.0000 
 28 H        9.2160    -1.8030     0.4360 H     1 <1>   0.0000 
 29 H        9.0050    -1.7910    -1.3540 H     1 <1>   0.0000 
@<TRIPOS>BOND
  1   1   2  1   
  2   2   3  ar  
  3   2   4  ar  
  4   3   5  ar  
  5   3   6  1   
  6   4   7  ar  
  7   4  16  1   
  8   5   8  ar  
  9   5  17  1   
 10   6  18  1   
 11   6  19  1   
 12   6  20  1   
 13   7   8  ar  
 14   7   9  1   
 15   8  21  1   
 16   9  10  am  
 17   9  22  1   
 18  10  11  2   
 19  10  12  1   
 20  12  13  1   
 21  12  14  1   
 22  12  23  1   
 23  13  15  1   
 24  13  24  1   
 25  13  25  1   
 26  14  15  1   
 27  14  26  1   
 28  14  27  1   
 29  15  28  1   
 30  15  29  1   
@<TRIPOS>SUBSTRUCTURE
  1 ****   7 GROUP 4 **** **** 0

# MOE 2024.06 (io_trps.svl 2023.06)
