@<TRIPOS>MOLECULE
NONAME
35 37 1 0 0 
SMALL
USER_CHARGES


@<TRIPOS>ATOM
  1 O        1.3300    -0.6350    -2.0500 O.3   1 <1>  -0.6800 
  2 C        1.0400    -0.7400    -0.7240 C.3   1 <1>   0.6180 
  3 O        2.0230     0.0180    -0.1230 O.3   1 <1>  -0.5600 
  4 C        1.0400    -2.2150    -0.3210 C.2   1 <1>  -0.1240 
  5 C        1.9040     0.1380     1.2610 C.3   1 <1>   0.0400 
  6 C        2.2200    -3.0130    -0.4560 C.2   1 <1>   0.3750 
  7 C       -0.1310    -2.7920     0.1240 C.2   1 <1>   0.0140 
  8 N        2.2180    -4.2990    -0.2780 N.2   1 <1>  -0.5760 
  9 C        3.5880    -2.4150    -0.7990 C.3   1 <1>   0.1810 
 10 N       -0.1010    -4.1690     0.3090 N.pl3 1 <1>   0.6010 
 11 C       -1.3620    -2.1060     0.4130 C.2   1 <1>   0.0950 
 12 C        1.0400    -4.8750     0.0900 C.2   1 <1>   0.3120 
 13 O        4.2230    -1.9680     0.3690 O.3   1 <1>  -0.5600 
 14 N       -1.0630    -5.0300     0.6550 N.2   1 <1>  -0.7070 
 15 O       -1.3430    -0.9550     1.0760 O.3   1 <1>  -0.2800 
 16 C       -2.6590    -2.4240     0.1440 C.2   1 <1>  -0.1500 
 17 N        0.8480    -6.1420     0.2820 N.2   1 <1>  -0.5650 
 18 C        5.4290    -1.3180     0.1390 C.3   1 <1>   0.0400 
 19 C       -0.4360    -6.1640     0.6220 C.2   1 <1>   0.3660 
 20 C       -2.5780    -0.5330     1.2310 C.2   1 <1>  -0.0100 
 21 C       -3.4460    -1.4010     0.6720 C.2   1 <1>  -0.1500 
 22 H        1.6080     0.2890    -2.1830 H     1 <1>   0.4000 
 23 H        0.0940    -0.2540    -0.5660 H     1 <1>   0.0800 
 24 H        2.6740     0.8060     1.6050 H     1 <1>   0.0800 
 25 H        2.0440    -0.8260     1.7210 H     1 <1>   0.0800 
 26 H        0.9360     0.5410     1.5080 H     1 <1>   0.0800 
 27 H        3.5060    -1.5980    -1.4890 H     1 <1>   0.0800 
 28 H        4.2080    -3.1760    -1.2420 H     1 <1>   0.0800 
 29 H       -3.0290    -3.2950    -0.3680 H     1 <1>   0.1500 
 30 H        5.8440    -1.0370     1.0900 H     1 <1>   0.0800 
 31 H        5.2490    -0.4370    -0.4530 H     1 <1>   0.0800 
 32 H        6.1030    -1.9880    -0.3670 H     1 <1>   0.0800 
 33 H       -0.9210    -7.0990     0.8560 H     1 <1>   0.1500 
 34 H       -2.7560     0.3930     1.7520 H     1 <1>   0.1500 
 35 H       -4.5200    -1.3470     0.6290 H     1 <1>   0.1500 
@<TRIPOS>BOND
  1   1   2  1   
  2   1  22  1   
  3   2   3  1   
  4   2   4  1   
  5   2  23  1   
  6   3   5  1   
  7   4   6  1   
  8   4   7  2   
  9   5  24  1   
 10   5  25  1   
 11   5  26  1   
 12   6   8  2   
 13   6   9  1   
 14   7  10  1   
 15   7  11  1   
 16   8  12  1   
 17   9  13  1   
 18   9  27  1   
 19   9  28  1   
 20  10  12  1   
 21  10  14  1   
 22  11  15  1   
 23  11  16  2   
 24  12  17  2   
 25  13  18  1   
 26  14  19  2   
 27  15  20  1   
 28  16  21  1   
 29  16  29  1   
 30  17  19  1   
 31  18  30  1   
 32  18  31  1   
 33  18  32  1   
 34  19  33  1   
 35  20  21  2   
 36  20  34  1   
 37  21  35  1   
@<TRIPOS>SUBSTRUCTURE
  1 ****   4 GROUP 4 **** **** 0

# MOE 2024.06 (io_trps.svl 2023.06)
