@<TRIPOS>MOLECULE
NONAME
28 29 1 0 0 
SMALL
USER_CHARGES


@<TRIPOS>ATOM
  1 O       -0.5870     0.4590     2.0090 O.co2 1 <1>  -0.9000 
  2 C       -0.3060     1.5160     1.4280 C.2   1 <1>   0.9060 
  3 O        0.6520     2.2240     1.7450 O.co2 1 <1>  -0.9000 
  4 C       -1.1530     1.8800     0.2460 C.3   1 <1>  -0.1860 
  5 C       -1.0640     3.3210    -0.2320 C.3   1 <1>   0.3380 
  6 C       -2.6740     1.7450     0.5060 C.3   1 <1>  -0.0190 
  7 O       -2.1840     3.3170    -1.0600 O.3   1 <1>  -0.5600 
  8 C       -1.5680     4.3010     0.8090 C.2   1 <1>  -0.2880 
  9 C       -3.2450     0.4500    -0.0250 C.2   1 <1>   0.5690 
 10 C       -3.1900     3.0430    -0.1360 C.3   1 <1>   0.3380 
 11 C       -2.8870     4.1520     0.8470 C.2   1 <1>  -0.2880 
 12 O       -4.2270     0.4440    -0.7320 O.2   1 <1>  -0.5700 
 13 N       -2.6280    -0.6860     0.3740 N.am  1 <1>  -0.7300 
 14 C       -2.9880    -2.0540     0.0000 C.3   1 <1>   0.2780 
 15 C       -1.7710    -2.7070    -0.6180 C.2   1 <1>  -0.2880 
 16 C       -1.1560    -3.8020    -0.1570 C.2   1 <1>  -0.3000 
 17 H       -0.8470     1.2480    -0.5650 H     1 <1>   0.0800 
 18 H       -0.1770     3.6040    -0.7730 H     1 <1>   0.0800 
 19 H       -2.8860     1.7720     1.5600 H     1 <1>   0.0800 
 20 H       -0.8760     4.9200     1.3520 H     1 <1>   0.1500 
 21 H       -4.1630     3.0400    -0.5950 H     1 <1>   0.0800 
 22 H       -3.6600     4.6180     1.4290 H     1 <1>   0.1500 
 23 H       -1.8070    -0.5790     1.0100 H     1 <1>   0.3700 
 24 H       -3.8010    -2.0420    -0.7060 H     1 <1>   0.0800 
 25 H       -3.2990    -2.5900     0.8800 H     1 <1>   0.0800 
 26 H       -1.4360    -2.1750    -1.4920 H     1 <1>   0.1500 
 27 H       -0.2870    -4.2370    -0.6170 H     1 <1>   0.1500 
 28 H       -1.4640    -4.3450     0.7190 H     1 <1>   0.1500 
@<TRIPOS>BOND
  1   1   2  ar  
  2   2   3  ar  
  3   2   4  1   
  4   4   5  1   
  5   4   6  1   
  6   4  17  1   
  7   5   7  1   
  8   5   8  1   
  9   5  18  1   
 10   6   9  1   
 11   6  10  1   
 12   6  19  1   
 13   7  10  1   
 14   8  11  2   
 15   8  20  1   
 16   9  12  2   
 17   9  13  am  
 18  10  11  1   
 19  10  21  1   
 20  11  22  1   
 21  13  14  1   
 22  13  23  1   
 23  14  15  1   
 24  14  24  1   
 25  14  25  1   
 26  15  16  2   
 27  15  26  1   
 28  16  27  1   
 29  16  28  1   
@<TRIPOS>SUBSTRUCTURE
  1 ****   6 GROUP 4 **** **** 0

# MOE 2024.06 (io_trps.svl 2023.06)
