@<TRIPOS>MOLECULE
NONAME
49 51 1 0 0 
SMALL
USER_CHARGES


@<TRIPOS>ATOM
  1 N       -0.1280     0.0570     0.2060 N.4   1 <1>  -0.9590 
  2 C        1.0640     0.6930    -0.4350 C.3   1 <1>   0.4230 
  3 C       -0.2610    -1.4010    -0.1650 C.3   1 <1>   0.3430 
  4 C       -1.4200     0.7660    -0.1220 C.3   1 <1>   0.3430 
  5 C        2.3420    -0.1010    -0.0830 C.3   1 <1>  -0.1600 
  6 C        1.2120     2.1640    -0.0110 C.3   1 <1>  -0.1600 
  7 C       -1.4920    -2.0630     0.4860 C.3   1 <1>   0.1100 
  8 C       -2.6410     0.0850     0.5230 C.3   1 <1>   0.1100 
  9 C        3.6340     0.7430    -0.0850 C.3   1 <1>  -0.0800 
 10 C        2.3830     2.8490    -0.7430 C.3   1 <1>  -0.1600 
 11 N       -2.7260    -1.3390     0.1400 N.3   1 <1>  -0.8100 
 12 C        3.5310     1.8890    -1.0970 C.3   1 <1>  -0.1600 
 13 C        4.8580    -0.1340    -0.3710 C.3   1 <1>  -0.2400 
 14 C       -3.9210    -2.0010     0.7040 C.3   1 <1>   0.2530 
 15 C       -5.1940    -1.3110     0.2360 C.ar  1 <1>  -0.1430 
 16 C       -6.0600    -0.7300     1.1510 C.ar  1 <1>  -0.1500 
 17 C       -5.4970    -1.2520    -1.1160 C.ar  1 <1>  -0.1500 
 18 C       -7.2120    -0.0940     0.7180 C.ar  1 <1>  -0.1500 
 19 C       -6.6480    -0.6180    -1.5510 C.ar  1 <1>  -0.1500 
 20 C       -7.5060    -0.0380    -0.6330 C.ar  1 <1>  -0.1500 
 21 H        0.0030     0.1100     1.2210 H     1 <1>   0.4500 
 22 H        0.9410     0.6740    -1.5060 H     1 <1>   0.0800 
 23 H        0.6200    -1.9420     0.1360 H     1 <1>   0.0800 
 24 H       -0.3550    -1.4930    -1.2350 H     1 <1>   0.0800 
 25 H       -1.5660     0.7800    -1.1900 H     1 <1>   0.0800 
 26 H       -1.3830     1.7860     0.2210 H     1 <1>   0.0800 
 27 H        2.4440    -0.8900    -0.8070 H     1 <1>   0.0800 
 28 H        2.2550    -0.5470     0.8920 H     1 <1>   0.0800 
 29 H        1.3950     2.2060     1.0490 H     1 <1>   0.0800 
 30 H        0.3280     2.7350    -0.2240 H     1 <1>   0.0800 
 31 H       -1.3660    -2.0950     1.5550 H     1 <1>   0.0800 
 32 H       -1.5660    -3.0770     0.1290 H     1 <1>   0.0800 
 33 H       -3.5240     0.6040     0.1870 H     1 <1>   0.0800 
 34 H       -2.5920     0.1800     1.5940 H     1 <1>   0.0800 
 35 H        3.7650     1.1790     0.8930 H     1 <1>   0.0800 
 36 H        2.7620     3.6400    -0.1170 H     1 <1>   0.0800 
 37 H        2.0300     3.3070    -1.6520 H     1 <1>   0.0800 
 38 H        3.3720     1.4810    -2.0820 H     1 <1>   0.0800 
 39 H        4.4560     2.4420    -1.1270 H     1 <1>   0.0800 
 40 H        4.8020    -0.5680    -1.3540 H     1 <1>   0.0800 
 41 H        4.9310    -0.9270     0.3530 H     1 <1>   0.0800 
 42 H        5.7570     0.4540    -0.3130 H     1 <1>   0.0800 
 43 H       -3.8730    -1.9960     1.7790 H     1 <1>   0.0800 
 44 H       -3.9520    -3.0260     0.3750 H     1 <1>   0.0800 
 45 H       -5.8470    -0.7670     2.2050 H     1 <1>   0.1500 
 46 H       -4.8320    -1.7000    -1.8340 H     1 <1>   0.1500 
 47 H       -7.8810     0.3540     1.4310 H     1 <1>   0.1500 
 48 H       -6.8780    -0.5780    -2.6010 H     1 <1>   0.1500 
 49 H       -8.4010     0.4550    -0.9700 H     1 <1>   0.1500 
@<TRIPOS>BOND
  1   1   2  1   
  2   1   3  1   
  3   1   4  1   
  4   1  21  1   
  5   2   5  1   
  6   2   6  1   
  7   2  22  1   
  8   3   7  1   
  9   3  23  1   
 10   3  24  1   
 11   4   8  1   
 12   4  25  1   
 13   4  26  1   
 14   5   9  1   
 15   5  27  1   
 16   5  28  1   
 17   6  10  1   
 18   6  29  1   
 19   6  30  1   
 20   7  11  1   
 21   7  31  1   
 22   7  32  1   
 23   8  11  1   
 24   8  33  1   
 25   8  34  1   
 26   9  12  1   
 27   9  13  1   
 28   9  35  1   
 29  10  12  1   
 30  10  36  1   
 31  10  37  1   
 32  11  14  1   
 33  12  38  1   
 34  12  39  1   
 35  13  40  1   
 36  13  41  1   
 37  13  42  1   
 38  14  15  1   
 39  14  43  1   
 40  14  44  1   
 41  15  16  ar  
 42  15  17  ar  
 43  16  18  ar  
 44  16  45  1   
 45  17  19  ar  
 46  17  46  1   
 47  18  20  ar  
 48  18  47  1   
 49  19  20  ar  
 50  19  48  1   
 51  20  49  1   
@<TRIPOS>SUBSTRUCTURE
  1 ****   4 GROUP 4 **** **** 0

# MOE 2024.06 (io_trps.svl 2023.06)
