@<TRIPOS>MOLECULE
NONAME
38 39 1 0 0 
SMALL
USER_CHARGES


@<TRIPOS>ATOM
  1 O       -0.2150     0.6390    -1.1380 O.2   1 <1>  -0.5700 
  2 C       -0.0500     1.5480    -0.3580 C.2   1 <1>   0.5690 
  3 N        1.1770     1.9270     0.1250 N.am  1 <1>  -0.5470 
  4 C       -1.3140     2.2980     0.1000 C.3   1 <1>   0.4040 
  5 C        2.4510     1.3820    -0.1100 C.ar  1 <1>   0.1170 
  6 N       -2.5820     1.4960    -0.0860 N.4   1 <1>  -0.9590 
  7 C        3.5640     2.1870     0.1130 C.ar  1 <1>  -0.1500 
  8 C        2.6590     0.0730    -0.5350 C.ar  1 <1>  -0.1500 
  9 C       -3.8230     2.3330    -0.0550 C.3   1 <1>   0.3430 
 10 C       -2.6570     0.3200     0.8240 C.3   1 <1>   0.3430 
 11 C        4.8450     1.7030    -0.0860 C.ar  1 <1>  -0.1500 
 12 C        3.9380    -0.4140    -0.7360 C.ar  1 <1>  -0.1500 
 13 C       -5.1050     1.4800     0.0510 C.3   1 <1>  -0.0800 
 14 C       -3.7390    -0.6420     0.3190 C.3   1 <1>  -0.1600 
 15 C        5.0340     0.4010    -0.5130 C.ar  1 <1>  -0.1500 
 16 C       -4.8870     0.0420    -0.4480 C.3   1 <1>  -0.1600 
 17 C       -6.2570     2.1420    -0.7170 C.3   1 <1>  -0.2400 
 18 H        1.2160     2.7630     0.7070 H     1 <1>   0.3700 
 19 H       -1.3790     3.2020    -0.4800 H     1 <1>   0.0800 
 20 H       -1.2060     2.5680     1.1360 H     1 <1>   0.0800 
 21 H       -2.5010     1.0780    -1.0290 H     1 <1>   0.4500 
 22 H        3.4400     3.2020     0.4410 H     1 <1>   0.1500 
 23 H        1.8280    -0.5840    -0.7110 H     1 <1>   0.1500 
 24 H       -3.8690     2.9210    -0.9570 H     1 <1>   0.0800 
 25 H       -3.7930     3.0130     0.7810 H     1 <1>   0.0800 
 26 H       -2.9040     0.6510     1.8200 H     1 <1>   0.0800 
 27 H       -1.7100    -0.1970     0.8580 H     1 <1>   0.0800 
 28 H        5.6970     2.3370     0.0880 H     1 <1>   0.1500 
 29 H        4.0820    -1.4280    -1.0680 H     1 <1>   0.1500 
 30 H       -5.3890     1.4370     1.0890 H     1 <1>   0.0800 
 31 H       -4.1400    -1.1640     1.1710 H     1 <1>   0.0800 
 32 H       -3.2850    -1.3860    -0.3130 H     1 <1>   0.0800 
 33 H        6.0290     0.0220    -0.6700 H     1 <1>   0.1500 
 34 H       -4.6480     0.0630    -1.4990 H     1 <1>   0.0800 
 35 H       -5.7900    -0.5360    -0.3360 H     1 <1>   0.0800 
 36 H       -6.0350     2.2060    -1.7680 H     1 <1>   0.0800 
 37 H       -6.4430     3.1340    -0.3430 H     1 <1>   0.0800 
 38 H       -7.1610     1.5690    -0.5980 H     1 <1>   0.0800 
@<TRIPOS>BOND
  1   1   2  2   
  2   2   3  am  
  3   2   4  1   
  4   3   5  1   
  5   3  18  1   
  6   4   6  1   
  7   4  19  1   
  8   4  20  1   
  9   5   7  ar  
 10   5   8  ar  
 11   6   9  1   
 12   6  10  1   
 13   6  21  1   
 14   7  11  ar  
 15   7  22  1   
 16   8  12  ar  
 17   8  23  1   
 18   9  13  1   
 19   9  24  1   
 20   9  25  1   
 21  10  14  1   
 22  10  26  1   
 23  10  27  1   
 24  11  15  ar  
 25  11  28  1   
 26  12  15  ar  
 27  12  29  1   
 28  13  16  1   
 29  13  17  1   
 30  13  30  1   
 31  14  16  1   
 32  14  31  1   
 33  14  32  1   
 34  15  33  1   
 35  16  34  1   
 36  16  35  1   
 37  17  36  1   
 38  17  37  1   
 39  17  38  1   
@<TRIPOS>SUBSTRUCTURE
  1 ****   2 GROUP 4 **** **** 0

# MOE 2024.06 (io_trps.svl 2023.06)
