@<TRIPOS>MOLECULE
NONAME
47 48 1 0 0 
SMALL
USER_CHARGES


@<TRIPOS>ATOM
  1 O        0.5760     0.0740     0.1080 O.2   1 <1>  -0.5700 
  2 C        1.6300     0.6430     0.3190 C.2   1 <1>   0.7800 
  3 O        1.6600     1.9750     0.3860 O.3   1 <1>  -0.4300 
  4 N        2.8110    -0.0280     0.4860 N.am  1 <1>  -0.6600 
  5 C        0.4830     2.7330     0.2240 C.3   1 <1>   0.1200 
  6 C        2.8960    -1.5160     0.3860 C.3   1 <1>   0.1400 
  7 C        4.1290     0.6460     0.6830 C.3   1 <1>   0.1400 
  8 C        0.8500     4.2080     0.3460 C.3   1 <1>  -0.2400 
  9 C        3.8850    -1.9260    -0.7140 C.3   1 <1>   0.1400 
 10 C        5.1310     0.2260    -0.4060 C.3   1 <1>   0.1400 
 11 N        5.2140    -1.2650    -0.5110 N.am  1 <1>  -0.6600 
 12 C        6.3340    -1.9890    -0.1560 C.2   1 <1>   0.5440 
 13 O        6.1950    -3.1440     0.2000 O.2   1 <1>  -0.5700 
 14 C        7.6610    -1.4090    -0.1850 C.ar  1 <1>   0.0860 
 15 C        8.5150    -1.5080     0.9120 C.ar  1 <1>  -0.1500 
 16 C        8.1440    -0.7350    -1.3080 C.ar  1 <1>  -0.1500 
 17 C        9.7780    -0.9480     0.8980 C.ar  1 <1>  -0.1500 
 18 C        9.4070    -0.1750    -1.3260 C.ar  1 <1>  -0.1500 
 19 C       10.2460    -0.2650    -0.2210 C.ar  1 <1>   0.1170 
 20 N       11.5200     0.3090    -0.2860 N.am  1 <1>  -0.5470 
 21 C       12.3540     0.7430     0.7070 C.2   1 <1>   0.5690 
 22 O       12.0660     0.7380     1.8770 O.2   1 <1>  -0.5700 
 23 C       13.7140     1.2800     0.2960 C.3   1 <1>  -0.0990 
 24 C       14.6320     0.1970    -0.2940 C.3   1 <1>  -0.2400 
 25 H       -0.2170     2.4420     0.9890 H     1 <1>   0.0800 
 26 H        0.0690     2.5160    -0.7470 H     1 <1>   0.0800 
 27 H        1.9300    -1.9390     0.1700 H     1 <1>   0.0800 
 28 H        3.2290    -1.9170     1.3270 H     1 <1>   0.0800 
 29 H        4.5200     0.3700     1.6470 H     1 <1>   0.0800 
 30 H        4.0190     1.7160     0.6680 H     1 <1>   0.0800 
 31 H        1.2690     4.4060     1.3170 H     1 <1>   0.0800 
 32 H       -0.0310     4.8110     0.2250 H     1 <1>   0.0800 
 33 H        1.5580     4.4790    -0.4160 H     1 <1>   0.0800 
 34 H        3.4900    -1.6360    -1.6710 H     1 <1>   0.0800 
 35 H        3.9900    -2.9970    -0.7170 H     1 <1>   0.0800 
 36 H        6.0910     0.6470    -0.1710 H     1 <1>   0.0800 
 37 H        4.8140     0.6280    -1.3520 H     1 <1>   0.0800 
 38 H        8.1750    -2.0390     1.7850 H     1 <1>   0.1500 
 39 H        7.5110    -0.6580    -2.1760 H     1 <1>   0.1500 
 40 H       10.4060    -1.0490     1.7640 H     1 <1>   0.1500 
 41 H        9.7460     0.3390    -2.2070 H     1 <1>   0.1500 
 42 H       11.8850     0.4380    -1.2260 H     1 <1>   0.3700 
 43 H       14.1870     1.7060     1.1630 H     1 <1>   0.0800 
 44 H       13.5750     2.0710    -0.4180 H     1 <1>   0.0800 
 45 H       14.7800    -0.5910     0.4250 H     1 <1>   0.0800 
 46 H       15.5910     0.6190    -0.5390 H     1 <1>   0.0800 
 47 H       14.2060    -0.2260    -1.1860 H     1 <1>   0.0800 
@<TRIPOS>BOND
  1   1   2  2   
  2   2   3  1   
  3   2   4  am  
  4   3   5  1   
  5   4   6  1   
  6   4   7  1   
  7   5   8  1   
  8   5  25  1   
  9   5  26  1   
 10   6   9  1   
 11   6  27  1   
 12   6  28  1   
 13   7  10  1   
 14   7  29  1   
 15   7  30  1   
 16   8  31  1   
 17   8  32  1   
 18   8  33  1   
 19   9  11  1   
 20   9  34  1   
 21   9  35  1   
 22  10  11  1   
 23  10  36  1   
 24  10  37  1   
 25  11  12  am  
 26  12  13  2   
 27  12  14  1   
 28  14  15  ar  
 29  14  16  ar  
 30  15  17  ar  
 31  15  38  1   
 32  16  18  ar  
 33  16  39  1   
 34  17  19  ar  
 35  17  40  1   
 36  18  19  ar  
 37  18  41  1   
 38  19  20  1   
 39  20  21  am  
 40  20  42  1   
 41  21  22  2   
 42  21  23  1   
 43  23  24  1   
 44  23  43  1   
 45  23  44  1   
 46  24  45  1   
 47  24  46  1   
 48  24  47  1   
@<TRIPOS>SUBSTRUCTURE
  1 ****  10 GROUP 4 **** **** 0

# MOE 2024.06 (io_trps.svl 2023.06)
