@<TRIPOS>MOLECULE
NONAME
35 36 1 0 0 
SMALL
USER_CHARGES


@<TRIPOS>ATOM
  1 BR       0.2880     0.8950    -2.0160 Br    1 <1>  -0.1110 
  2 C        1.8080     1.2900    -0.8940 C.ar  1 <1>   0.1110 
  3 C        2.8090     0.3530    -0.6770 C.ar  1 <1>  -0.1440 
  4 C        1.8400     2.5490    -0.3440 C.ar  1 <1>  -0.1500 
  5 C        3.8960     0.7310     0.1150 C.ar  1 <1>  -0.1440 
  6 C        2.7010    -1.0440    -1.2940 C.3   1 <1>  -0.0960 
  7 C        2.9020     2.9320     0.4630 C.ar  1 <1>   0.0860 
  8 C        3.9240     2.0000     0.7060 C.ar  1 <1>  -0.1440 
  9 C        5.0530    -0.2490     0.3320 C.3   1 <1>  -0.0960 
 10 C        2.9040     4.2830     0.9890 C.2   1 <1>   0.5440 
 11 C        5.0700     2.3970     1.6420 C.3   1 <1>  -0.0970 
 12 O        2.2510     4.5570     1.9780 O.2   1 <1>  -0.5700 
 13 N        3.6340     5.2720     0.3760 N.am  1 <1>  -0.6600 
 14 C        3.6580     6.6720     0.8460 C.3   1 <1>   0.1400 
 15 C        4.4020     5.1080    -0.8750 C.3   1 <1>   0.1400 
 16 C        4.2860     7.4530    -0.3030 C.3   1 <1>  -0.1600 
 17 C        5.1420     6.4300    -1.0460 C.3   1 <1>  -0.1600 
 18 H        1.0410     3.2420    -0.5370 H     1 <1>   0.1500 
 19 H        1.6800    -1.3270    -1.4650 H     1 <1>   0.0800 
 20 H        3.1140    -1.7880    -0.6390 H     1 <1>   0.0800 
 21 H        3.2270    -1.0700    -2.2320 H     1 <1>   0.0800 
 22 H        5.2120    -0.8630    -0.5340 H     1 <1>   0.0800 
 23 H        4.8410    -0.8820     1.1750 H     1 <1>   0.0800 
 24 H        5.9830     0.2590     0.5060 H     1 <1>   0.0800 
 25 H        5.3180     1.5850     2.3000 H     1 <1>   0.0800 
 26 H        4.8140     3.2300     2.2710 H     1 <1>   0.0800 
 27 H        5.9390     2.6630     1.0670 H     1 <1>   0.0800 
 28 H        4.2710     6.7320     1.7300 H     1 <1>   0.0800 
 29 H        2.6640     7.0190     1.0720 H     1 <1>   0.0800 
 30 H        3.7170     4.9500    -1.6910 H     1 <1>   0.0800 
 31 H        5.0850     4.2780    -0.8060 H     1 <1>   0.0800 
 32 H        4.8590     8.2910     0.0500 H     1 <1>   0.0800 
 33 H        3.5020     7.8110    -0.9480 H     1 <1>   0.0800 
 34 H        5.2760     6.6820    -2.0830 H     1 <1>   0.0800 
 35 H        6.1070     6.3520    -0.5770 H     1 <1>   0.0800 
@<TRIPOS>BOND
  1   1   2  1   
  2   2   3  ar  
  3   2   4  ar  
  4   3   5  ar  
  5   3   6  1   
  6   4   7  ar  
  7   4  18  1   
  8   5   8  ar  
  9   5   9  1   
 10   6  19  1   
 11   6  20  1   
 12   6  21  1   
 13   7   8  ar  
 14   7  10  1   
 15   8  11  1   
 16   9  22  1   
 17   9  23  1   
 18   9  24  1   
 19  10  12  2   
 20  10  13  am  
 21  11  25  1   
 22  11  26  1   
 23  11  27  1   
 24  13  14  1   
 25  13  15  1   
 26  14  16  1   
 27  14  28  1   
 28  14  29  1   
 29  15  17  1   
 30  15  30  1   
 31  15  31  1   
 32  16  17  1   
 33  16  32  1   
 34  16  33  1   
 35  17  34  1   
 36  17  35  1   
@<TRIPOS>SUBSTRUCTURE
  1 ****   7 GROUP 4 **** **** 0

# MOE 2024.06 (io_trps.svl 2023.06)
