@<TRIPOS>MOLECULE
ka-06751
41 42 1 0 0 
SMALL
USER_CHARGES


@<TRIPOS>ATOM
  1 O       -0.5380    -1.3050    -1.8730 O.3   1 <1>  -0.3630 
  2 C       -0.2350    -2.3100    -1.0230 C.ar  1 <1>   0.0830 
  3 C       -1.2520    -0.1800    -1.3880 C.3   1 <1>   0.1200 
  4 C        0.6730    -2.1130     0.0510 C.ar  1 <1>   0.0000 
  5 C       -0.8580    -3.5160    -1.2160 C.ar  1 <1>  -0.1500 
  6 C       -2.7490    -0.5030    -1.2310 C.3   1 <1>   0.2000 
  7 C        0.8100    -3.1520     0.9980 C.ar  1 <1>   0.0000 
  8 C        1.4610    -0.9520     0.2230 C.ar  1 <1>  -0.1500 
  9 C       -0.6790    -4.5540    -0.3000 C.ar  1 <1>  -0.1500 
 10 O       -2.9370    -1.4570    -0.2250 O.3   1 <1>  -0.6800 
 11 C       -3.5680     0.7510    -0.8610 C.3   1 <1>   0.3430 
 12 C        0.1250    -4.3670     0.7890 C.ar  1 <1>  -0.1500 
 13 C        1.6430    -2.9520     2.1170 C.ar  1 <1>  -0.1500 
 14 C        2.2750    -0.7910     1.3090 C.ar  1 <1>  -0.1500 
 15 N       -4.8200     0.3480    -0.1540 N.4   1 <1>  -0.9060 
 16 C        2.3570    -1.7970     2.2760 C.ar  1 <1>  -0.1500 
 17 C       -5.4060     1.3460     0.7460 C.3   1 <1>   0.4230 
 18 C       -4.5300     1.4750     1.9890 C.3   1 <1>  -0.2400 
 19 C       -6.8000     0.8590     1.1170 C.3   1 <1>  -0.2400 
 20 H       -0.8320     0.1400    -0.4520 H     1 <1>   0.0800 
 21 H       -1.1170     0.6040    -2.1120 H     1 <1>   0.0800 
 22 H       -1.4970    -3.6710    -2.0680 H     1 <1>   0.1500 
 23 H       -3.1190    -0.9170    -2.1540 H     1 <1>   0.0800 
 24 H        1.4250    -0.1870    -0.5300 H     1 <1>   0.1500 
 25 H       -1.1800    -5.4940    -0.4610 H     1 <1>   0.1500 
 26 H       -2.2530    -2.1660    -0.3130 H     1 <1>   0.4000 
 27 H       -3.7910     1.3290    -1.7420 H     1 <1>   0.0800 
 28 H       -2.9660     1.3600    -0.2070 H     1 <1>   0.0800 
 29 H        0.2580    -5.1580     1.5060 H     1 <1>   0.1500 
 30 H        1.7150    -3.7360     2.8500 H     1 <1>   0.1500 
 31 H        2.8650     0.1010     1.4340 H     1 <1>   0.1500 
 32 H       -4.5420    -0.4880     0.3930 H     1 <1>   0.4500 
 33 H       -5.5210     0.0120    -0.8200 H     1 <1>   0.4500 
 34 H        2.9930    -1.6520     3.1310 H     1 <1>   0.1500 
 35 H       -5.4820     2.2990     0.2460 H     1 <1>   0.0800 
 36 H       -4.4140     0.5270     2.4830 H     1 <1>   0.0800 
 37 H       -4.9910     2.1560     2.6830 H     1 <1>   0.0800 
 38 H       -3.5620     1.8730     1.7470 H     1 <1>   0.0800 
 39 H       -6.7600    -0.0930     1.6170 H     1 <1>   0.0800 
 40 H       -7.4220     0.7810     0.2430 H     1 <1>   0.0800 
 41 H       -7.2630     1.5650     1.7840 H     1 <1>   0.0800 
@<TRIPOS>BOND
  1   1   2  1   
  2   1   3  1   
  3   2   4  ar  
  4   2   5  ar  
  5   3   6  1   
  6   3  20  1   
  7   3  21  1   
  8   4   7  ar  
  9   4   8  ar  
 10   5   9  ar  
 11   5  22  1   
 12   6  10  1   
 13   6  11  1   
 14   6  23  1   
 15   7  12  ar  
 16   7  13  ar  
 17   8  14  ar  
 18   8  24  1   
 19   9  12  ar  
 20   9  25  1   
 21  10  26  1   
 22  11  15  1   
 23  11  27  1   
 24  11  28  1   
 25  12  29  1   
 26  13  16  ar  
 27  13  30  1   
 28  14  16  ar  
 29  14  31  1   
 30  15  17  1   
 31  15  32  1   
 32  15  33  1   
 33  16  34  1   
 34  17  18  1   
 35  17  19  1   
 36  17  35  1   
 37  18  36  1   
 38  18  37  1   
 39  18  38  1   
 40  19  39  1   
 41  19  40  1   
 42  19  41  1   
@<TRIPOS>SUBSTRUCTURE
  1 ****  10 GROUP 4 **** **** 0

# MOE 2024.06 (io_trps.svl 2023.06)
