@<TRIPOS>MOLECULE
NONAME
44 45 1 0 0 
SMALL
USER_CHARGES


@<TRIPOS>ATOM
  1 O       -7.7190    -2.7800     1.9380 O.2   1 <1>  -0.5700 
  2 C       -7.9620    -1.9100     1.1360 C.2   1 <1>   0.5690 
  3 N       -9.0750    -1.1470     1.2690 N.am  1 <1>  -0.5470 
  4 C       -7.0140    -1.6510    -0.0590 C.3   1 <1>   0.4040 
  5 C       -9.4690    -0.1140     0.4140 C.ar  1 <1>   0.1170 
  6 N       -5.8750    -2.6370    -0.2660 N.4   1 <1>  -0.9590 
  7 C       -9.0190     1.1880     0.6350 C.ar  1 <1>  -0.1430 
  8 C      -10.2870    -0.3910    -0.6840 C.ar  1 <1>  -0.1430 
  9 C       -6.4000    -4.0160    -0.4740 C.3   1 <1>   0.3430 
 10 C       -4.9530    -2.6310     0.9020 C.3   1 <1>   0.3430 
 11 C       -9.3620     2.1910    -0.2560 C.ar  1 <1>  -0.1500 
 12 C       -8.1640     1.5430     1.8470 C.3   1 <1>  -0.0970 
 13 C      -10.6180     0.6260    -1.5620 C.ar  1 <1>  -0.1500 
 14 C      -10.8380    -1.7900    -0.9360 C.3   1 <1>  -0.0970 
 15 C       -5.4040    -4.8820    -1.2490 C.3   1 <1>  -0.1600 
 16 C       -3.4970    -2.7140     0.4390 C.3   1 <1>  -0.1600 
 17 C      -10.1540     1.9120    -1.3530 C.ar  1 <1>  -0.1500 
 18 C       -3.9960    -5.0070    -0.6370 C.3   1 <1>  -0.1600 
 19 C       -3.1950    -3.6990    -0.7040 C.3   1 <1>  -0.1600 
 20 H       -9.6710    -1.3520     2.0750 H     1 <1>   0.3700 
 21 H       -6.6050    -0.6640     0.0660 H     1 <1>   0.0800 
 22 H       -7.6210    -1.6280    -0.9470 H     1 <1>   0.0800 
 23 H       -5.3300    -2.3720    -1.0950 H     1 <1>   0.4500 
 24 H       -7.3200    -3.9740    -1.0330 H     1 <1>   0.0800 
 25 H       -6.6170    -4.4710     0.4810 H     1 <1>   0.0800 
 26 H       -5.1790    -3.4670     1.5450 H     1 <1>   0.0800 
 27 H       -5.0840    -1.7310     1.4820 H     1 <1>   0.0800 
 28 H       -9.0210     3.2010    -0.1020 H     1 <1>   0.1500 
 29 H       -8.6400     1.2010     2.7490 H     1 <1>   0.0800 
 30 H       -8.0330     2.6080     1.9270 H     1 <1>   0.0800 
 31 H       -7.1940     1.0890     1.7710 H     1 <1>   0.0800 
 32 H      -11.2460     0.4320    -2.4160 H     1 <1>   0.1500 
 33 H      -10.0440    -2.4700    -1.1810 H     1 <1>   0.0800 
 34 H      -11.5420    -1.7850    -1.7500 H     1 <1>   0.0800 
 35 H      -11.3500    -2.1480    -0.0600 H     1 <1>   0.0800 
 36 H       -5.3290    -4.5190    -2.2590 H     1 <1>   0.0800 
 37 H       -5.8240    -5.8710    -1.3120 H     1 <1>   0.0800 
 38 H       -2.9110    -2.9970     1.2960 H     1 <1>   0.0800 
 39 H       -3.1610    -1.7320     0.1540 H     1 <1>   0.0800 
 40 H      -10.4180     2.6980    -2.0410 H     1 <1>   0.1500 
 41 H       -3.4610    -5.7500    -1.2060 H     1 <1>   0.0800 
 42 H       -4.0490    -5.3710     0.3760 H     1 <1>   0.0800 
 43 H       -2.1440    -3.9390    -0.6620 H     1 <1>   0.0800 
 44 H       -3.3580    -3.2240    -1.6570 H     1 <1>   0.0800 
@<TRIPOS>BOND
  1   1   2  2   
  2   2   3  am  
  3   2   4  1   
  4   3   5  1   
  5   3  20  1   
  6   4   6  1   
  7   4  21  1   
  8   4  22  1   
  9   5   7  ar  
 10   5   8  ar  
 11   6   9  1   
 12   6  10  1   
 13   6  23  1   
 14   7  11  ar  
 15   7  12  1   
 16   8  13  ar  
 17   8  14  1   
 18   9  15  1   
 19   9  24  1   
 20   9  25  1   
 21  10  16  1   
 22  10  26  1   
 23  10  27  1   
 24  11  17  ar  
 25  11  28  1   
 26  12  29  1   
 27  12  30  1   
 28  12  31  1   
 29  13  17  ar  
 30  13  32  1   
 31  14  33  1   
 32  14  34  1   
 33  14  35  1   
 34  15  18  1   
 35  15  36  1   
 36  15  37  1   
 37  16  19  1   
 38  16  38  1   
 39  16  39  1   
 40  17  40  1   
 41  18  19  1   
 42  18  41  1   
 43  18  42  1   
 44  19  43  1   
 45  19  44  1   
@<TRIPOS>SUBSTRUCTURE
  1 ****   4 GROUP 4 **** **** 0

# MOE 2024.06 (io_trps.svl 2023.06)
