@<TRIPOS>MOLECULE
NONAME
39 39 1 0 0 
SMALL
USER_CHARGES


@<TRIPOS>ATOM
  1 S        0.5350     0.4620     1.3960 S.o2  1 <1>   1.3330 
  2 O        0.5540    -0.2840     0.1620 O.2   1 <1>  -0.6500 
  3 O        1.6890     0.4670     2.2630 O.2   1 <1>  -0.6500 
  4 N        0.1930     2.1150     1.0330 N.am  1 <1>  -0.6930 
  5 C       -0.8800    -0.0150     2.3640 C.3   1 <1>  -0.1350 
  6 C       -1.0240     2.4790     0.4700 C.ar  1 <1>   0.1990 
  7 C        1.3730     2.9790     0.7150 C.3   1 <1>   0.2570 
  8 C       -1.4040     2.0390    -0.7910 C.ar  1 <1>  -0.1500 
  9 C       -1.8960     3.2880     1.1820 C.ar  1 <1>  -0.1500 
 10 C        1.9260     2.8240    -0.7130 C.2   1 <1>   0.5690 
 11 C       -2.6310     2.3820    -1.3330 C.ar  1 <1>  -0.1440 
 12 C       -3.1230     3.6380     0.6510 C.ar  1 <1>  -0.1500 
 13 O        1.4650     3.5640    -1.5530 O.2   1 <1>  -0.5700 
 14 N        2.9150     1.9170    -1.0380 N.am  1 <1>  -0.6600 
 15 C       -3.5010     3.1870    -0.6050 C.ar  1 <1>  -0.1430 
 16 C       -2.9880     1.8710    -2.7220 C.3   1 <1>  -0.0970 
 17 C        3.2810     1.6600    -2.4600 C.3   1 <1>   0.0600 
 18 C        3.6520     1.0490    -0.0770 C.3   1 <1>   0.0600 
 19 C       -4.8590     3.5930    -1.1600 C.3   1 <1>  -0.0970 
 20 H       -0.7740    -1.0290     2.6940 H     1 <1>   0.0800 
 21 H       -1.7740     0.0630     1.7760 H     1 <1>   0.0800 
 22 H       -0.9730     0.6210     3.2220 H     1 <1>   0.0800 
 23 H        2.1510     2.8100     1.4340 H     1 <1>   0.0800 
 24 H        1.0720     4.0050     0.8250 H     1 <1>   0.0800 
 25 H       -0.7180     1.4260    -1.3490 H     1 <1>   0.1500 
 26 H       -1.6080     3.6420     2.1540 H     1 <1>   0.1500 
 27 H       -3.7830     4.2660     1.2220 H     1 <1>   0.1500 
 28 H       -2.1960     1.2670    -3.1250 H     1 <1>   0.0800 
 29 H       -3.1500     2.7000    -3.3870 H     1 <1>   0.0800 
 30 H       -3.8800     1.2730    -2.6780 H     1 <1>   0.0800 
 31 H        2.6510     2.2190    -3.1300 H     1 <1>   0.0800 
 32 H        3.1640     0.6130    -2.6790 H     1 <1>   0.0800 
 33 H        4.3030     1.9480    -2.6300 H     1 <1>   0.0800 
 34 H        3.6400     1.4590     0.9150 H     1 <1>   0.0800 
 35 H        4.6790     0.9560    -0.3840 H     1 <1>   0.0800 
 36 H        3.2060     0.0690    -0.0600 H     1 <1>   0.0800 
 37 H       -5.4500     2.7190    -1.3630 H     1 <1>   0.0800 
 38 H       -4.7310     4.1500    -2.0710 H     1 <1>   0.0800 
 39 H       -5.3940     4.2090    -0.4610 H     1 <1>   0.0800 
@<TRIPOS>BOND
  1   1   2  2   
  2   1   3  2   
  3   1   4  am  
  4   1   5  1   
  5   4   6  1   
  6   4   7  1   
  7   5  20  1   
  8   5  21  1   
  9   5  22  1   
 10   6   8  ar  
 11   6   9  ar  
 12   7  10  1   
 13   7  23  1   
 14   7  24  1   
 15   8  11  ar  
 16   8  25  1   
 17   9  12  ar  
 18   9  26  1   
 19  10  13  2   
 20  10  14  am  
 21  11  15  ar  
 22  11  16  1   
 23  12  15  ar  
 24  12  27  1   
 25  14  17  1   
 26  14  18  1   
 27  15  19  1   
 28  16  28  1   
 29  16  29  1   
 30  16  30  1   
 31  17  31  1   
 32  17  32  1   
 33  17  33  1   
 34  18  34  1   
 35  18  35  1   
 36  18  36  1   
 37  19  37  1   
 38  19  38  1   
 39  19  39  1   
@<TRIPOS>SUBSTRUCTURE
  1 ****   6 GROUP 4 **** **** 0

# MOE 2024.06 (io_trps.svl 2023.06)
