@<TRIPOS>MOLECULE
NONAME
50 52 1 0 0 
SMALL
USER_CHARGES


@<TRIPOS>ATOM
  1 S        0.8260     0.3290     0.5390 S.o2  1 <1>   1.3330 
  2 O       -0.1630    -0.7190     0.5420 O.2   1 <1>  -0.6500 
  3 O        2.1130     0.1130     1.1600 O.2   1 <1>  -0.6500 
  4 N        0.1460     1.7410     1.2730 N.am  1 <1>  -0.6930 
  5 C        1.0830     0.8840    -1.1330 C.3   1 <1>  -0.1350 
  6 C       -1.1120     2.2290     0.9220 C.ar  1 <1>   0.1990 
  7 C        1.0400     2.5680     2.1440 C.3   1 <1>   0.2570 
  8 C       -1.2570     3.5020     0.3790 C.ar  1 <1>  -0.1500 
  9 C       -2.2520     1.4560     1.1050 C.ar  1 <1>  -0.1500 
 10 C        2.1390     3.3280     1.3910 C.2   1 <1>   0.5690 
 11 C       -2.5020     3.9910     0.0250 C.ar  1 <1>  -0.1440 
 12 C       -3.5030     1.9290     0.7500 C.ar  1 <1>  -0.1440 
 13 O        1.9810     4.5040     1.1600 O.2   1 <1>  -0.5700 
 14 N        3.2680     2.6750     1.0060 N.am  1 <1>  -0.7300 
 15 C       -3.6220     3.1990     0.2110 C.ar  1 <1>  -0.1500 
 16 C       -2.6480     5.3830    -0.5640 C.3   1 <1>  -0.0970 
 17 C       -4.7370     1.0690     0.9510 C.3   1 <1>  -0.0970 
 18 C        4.4330     3.2940     0.3460 C.3   1 <1>   0.2200 
 19 C        4.7580     2.6750    -1.0290 C.3   1 <1>  -0.0800 
 20 C        5.7210     3.0490     1.1470 C.3   1 <1>  -0.1600 
 21 C        6.2220     3.0630    -1.1700 C.3   1 <1>  -0.1600 
 22 C        4.8860     1.1400    -0.9410 C.3   1 <1>  -0.1600 
 23 C        6.6540     2.3840     0.1200 C.3   1 <1>  -0.0800 
 24 C        6.1680     0.9450    -0.1150 C.3   1 <1>  -0.1600 
 25 H        1.5410     0.1070    -1.7130 H     1 <1>   0.0800 
 26 H        1.7180     1.7470    -1.1480 H     1 <1>   0.0800 
 27 H        0.1440     1.1410    -1.5830 H     1 <1>   0.0800 
 28 H        1.5010     1.9310     2.8780 H     1 <1>   0.0800 
 29 H        0.4420     3.2860     2.6750 H     1 <1>   0.0800 
 30 H       -0.3860     4.1130     0.2280 H     1 <1>   0.1500 
 31 H       -2.1510     0.4750     1.5320 H     1 <1>   0.1500 
 32 H        3.3430     1.6610     1.1700 H     1 <1>   0.3700 
 33 H       -4.5930     3.5740    -0.0630 H     1 <1>   0.1500 
 34 H       -1.7320     5.9380    -0.4690 H     1 <1>   0.0800 
 35 H       -3.4250     5.9200    -0.0510 H     1 <1>   0.0800 
 36 H       -2.9030     5.3120    -1.6060 H     1 <1>   0.0800 
 37 H       -4.4650     0.0370     1.0810 H     1 <1>   0.0800 
 38 H       -5.3840     1.1430     0.0960 H     1 <1>   0.0800 
 39 H       -5.2720     1.3990     1.8230 H     1 <1>   0.0800 
 40 H        4.2750     4.3550     0.2340 H     1 <1>   0.0800 
 41 H        4.1240     3.0300    -1.8230 H     1 <1>   0.0800 
 42 H        5.5650     2.4280     2.0110 H     1 <1>   0.0800 
 43 H        6.1330     3.9930     1.4580 H     1 <1>   0.0800 
 44 H        6.3780     4.1290    -1.1530 H     1 <1>   0.0800 
 45 H        6.6890     2.6360    -2.0430 H     1 <1>   0.0800 
 46 H        5.0190     0.7260    -1.9260 H     1 <1>   0.0800 
 47 H        4.0390     0.6660    -0.4840 H     1 <1>   0.0800 
 48 H        7.7020     2.4620     0.3580 H     1 <1>   0.0800 
 49 H        6.8960     0.3900    -0.6830 H     1 <1>   0.0800 
 50 H        5.9770     0.4290     0.8100 H     1 <1>   0.0800 
@<TRIPOS>BOND
  1   1   2  2   
  2   1   3  2   
  3   1   4  am  
  4   1   5  1   
  5   4   6  1   
  6   4   7  1   
  7   5  25  1   
  8   5  26  1   
  9   5  27  1   
 10   6   8  ar  
 11   6   9  ar  
 12   7  10  1   
 13   7  28  1   
 14   7  29  1   
 15   8  11  ar  
 16   8  30  1   
 17   9  12  ar  
 18   9  31  1   
 19  10  13  2   
 20  10  14  am  
 21  11  15  ar  
 22  11  16  1   
 23  12  15  ar  
 24  12  17  1   
 25  14  18  1   
 26  14  32  1   
 27  15  33  1   
 28  16  34  1   
 29  16  35  1   
 30  16  36  1   
 31  17  37  1   
 32  17  38  1   
 33  17  39  1   
 34  18  19  1   
 35  18  20  1   
 36  18  40  1   
 37  19  21  1   
 38  19  22  1   
 39  19  41  1   
 40  20  23  1   
 41  20  42  1   
 42  20  43  1   
 43  21  23  1   
 44  21  44  1   
 45  21  45  1   
 46  22  24  1   
 47  22  46  1   
 48  22  47  1   
 49  23  24  1   
 50  23  48  1   
 51  24  49  1   
 52  24  50  1   
@<TRIPOS>SUBSTRUCTURE
  1 ****   4 GROUP 4 **** **** 0

# MOE 2024.06 (io_trps.svl 2023.06)
