@<TRIPOS>MOLECULE
NONAME
47 49 1 0 0 
SMALL
USER_CHARGES


@<TRIPOS>ATOM
  1 O        0.9020    -1.7760    -1.9390 O.2   1 <1>  -0.5700 
  2 C        1.0670    -1.9220    -0.7430 C.2   1 <1>   0.5440 
  3 N        2.1370    -1.2980    -0.1390 N.am  1 <1>  -0.6600 
  4 C        0.1490    -2.7600     0.0080 C.ar  1 <1>   0.0860 
  5 C        2.9680    -0.2800    -0.8630 C.3   1 <1>   0.1400 
  6 C        2.7880    -1.7970     1.1180 C.3   1 <1>   0.1400 
  7 C       -0.1780    -4.0400    -0.4370 C.ar  1 <1>  -0.1500 
  8 C       -0.4370    -2.3190     1.1940 C.ar  1 <1>  -0.1500 
  9 C        4.3760    -0.8220    -1.1550 C.3   1 <1>   0.2090 
 10 C        4.2090    -2.3240     0.8430 C.3   1 <1>   0.2090 
 11 C       -1.0370    -4.8600     0.2740 C.ar  1 <1>  -0.1440 
 12 C       -1.2960    -3.1280     1.9140 C.ar  1 <1>  -0.1500 
 13 N        5.0150    -1.3160     0.1000 N.pl3 1 <1>  -0.8380 
 14 C       -1.5930    -4.4000     1.4560 C.ar  1 <1>  -0.1500 
 15 C       -1.3740    -6.2520    -0.2300 C.3   1 <1>  -0.0970 
 16 C        6.4040    -1.3480     0.2140 C.ar  1 <1>   0.1000 
 17 C        7.2340    -2.1550    -0.5720 C.ar  1 <1>  -0.1430 
 18 C        6.9850    -0.5290     1.1730 C.ar  1 <1>  -0.1500 
 19 C        8.6060    -2.1160    -0.3810 C.ar  1 <1>  -0.1500 
 20 C        6.6820    -3.0870    -1.6420 C.3   1 <1>  -0.0970 
 21 C        8.3540    -0.4980     1.3570 C.ar  1 <1>  -0.1500 
 22 C        9.1750    -1.2950     0.5790 C.ar  1 <1>  -0.1430 
 23 C       10.6810    -1.2670     0.7700 C.3   1 <1>  -0.0970 
 24 H        3.0540     0.6010    -0.2520 H     1 <1>   0.0800 
 25 H        2.4980     0.0060    -1.7870 H     1 <1>   0.0800 
 26 H        2.2100    -2.5870     1.5620 H     1 <1>   0.0800 
 27 H        2.8480    -0.9900     1.8250 H     1 <1>   0.0800 
 28 H        0.2560    -4.3830    -1.3600 H     1 <1>   0.1500 
 29 H       -0.2150    -1.3270     1.5480 H     1 <1>   0.1500 
 30 H        4.9850    -0.0460    -1.5850 H     1 <1>   0.0800 
 31 H        4.2960    -1.6260    -1.8640 H     1 <1>   0.0800 
 32 H        4.1430    -3.2280     0.2650 H     1 <1>   0.0800 
 33 H        4.6970    -2.5560     1.7740 H     1 <1>   0.0800 
 34 H       -1.7380    -2.7710     2.8280 H     1 <1>   0.1500 
 35 H       -2.2620    -5.0270     2.0200 H     1 <1>   0.1500 
 36 H       -1.0960    -6.3620    -1.2630 H     1 <1>   0.0800 
 37 H       -2.4310    -6.4300    -0.1430 H     1 <1>   0.0800 
 38 H       -0.8480    -6.9880     0.3500 H     1 <1>   0.0800 
 39 H        6.3460     0.0900     1.7730 H     1 <1>   0.1500 
 40 H        9.2470    -2.7310    -0.9870 H     1 <1>   0.1500 
 41 H        6.4200    -2.5190    -2.5160 H     1 <1>   0.0800 
 42 H        5.8100    -3.5990    -1.2820 H     1 <1>   0.0800 
 43 H        7.4110    -3.8260    -1.9200 H     1 <1>   0.0800 
 44 H        8.7750     0.1490     2.1060 H     1 <1>   0.1500 
 45 H       11.0960    -2.2450     0.6030 H     1 <1>   0.0800 
 46 H       10.9290    -0.9590     1.7690 H     1 <1>   0.0800 
 47 H       11.1220    -0.5780     0.0730 H     1 <1>   0.0800 
@<TRIPOS>BOND
  1   1   2  2   
  2   2   3  am  
  3   2   4  1   
  4   3   5  1   
  5   3   6  1   
  6   4   7  ar  
  7   4   8  ar  
  8   5   9  1   
  9   5  24  1   
 10   5  25  1   
 11   6  10  1   
 12   6  26  1   
 13   6  27  1   
 14   7  11  ar  
 15   7  28  1   
 16   8  12  ar  
 17   8  29  1   
 18   9  13  1   
 19   9  30  1   
 20   9  31  1   
 21  10  13  1   
 22  10  32  1   
 23  10  33  1   
 24  11  14  ar  
 25  11  15  1   
 26  12  14  ar  
 27  12  34  1   
 28  13  16  1   
 29  14  35  1   
 30  15  36  1   
 31  15  37  1   
 32  15  38  1   
 33  16  17  ar  
 34  16  18  ar  
 35  17  19  ar  
 36  17  20  1   
 37  18  21  ar  
 38  18  39  1   
 39  19  22  ar  
 40  19  40  1   
 41  20  41  1   
 42  20  42  1   
 43  20  43  1   
 44  21  22  ar  
 45  21  44  1   
 46  22  23  1   
 47  23  45  1   
 48  23  46  1   
 49  23  47  1   
@<TRIPOS>SUBSTRUCTURE
  1 ****  10 GROUP 4 **** **** 0

# MOE 2024.06 (io_trps.svl 2023.06)
