@<TRIPOS>MOLECULE
NONAME
44 45 1 0 0 
SMALL
USER_CHARGES


@<TRIPOS>ATOM
  1 BR       1.5710    -1.1130     1.0280 Br    1 <1>  -0.1110 
  2 C       -0.0750    -1.9840     0.5260 C.ar  1 <1>   0.1110 
  3 C       -0.0530    -3.2980     0.0830 C.ar  1 <1>   0.0820 
  4 C       -1.2420    -1.2580     0.6270 C.ar  1 <1>  -0.1500 
  5 O        1.1450    -3.9390     0.0110 O.3   1 <1>  -0.3630 
  6 C       -1.2650    -3.8850    -0.2650 C.ar  1 <1>  -0.1500 
  7 C       -2.4460    -1.8630     0.2700 C.ar  1 <1>   0.0830 
  8 C        1.2480    -5.2550    -0.4890 C.3   1 <1>   0.0400 
  9 C       -2.4670    -3.1850    -0.1770 C.ar  1 <1>  -0.0090 
 10 O       -3.6280    -1.1960     0.3420 O.3   1 <1>  -0.3630 
 11 S       -4.0220    -3.9950    -0.6370 S.o2  1 <1>   1.4470 
 12 C       -3.6740     0.2060     0.5100 C.3   1 <1>   0.0400 
 13 O       -4.8200    -3.2010    -1.5460 O.2   1 <1>  -0.6500 
 14 O       -3.7530    -5.3590    -1.0450 O.2   1 <1>  -0.6500 
 15 N       -4.9150    -4.1280     0.8140 N.am  1 <1>  -0.8490 
 16 C       -6.1170    -3.2720     0.8580 C.3   1 <1>   0.1960 
 17 C       -5.2560    -5.5090     1.1980 C.3   1 <1>   0.1960 
 18 C       -7.2580    -3.8080    -0.0460 C.3   1 <1>   0.3430 
 19 C       -6.3420    -6.1110     0.2730 C.3   1 <1>   0.3430 
 20 N       -7.5910    -5.2580     0.2210 N.4   1 <1>  -0.9590 
 21 C       -8.5490    -5.7510    -0.8020 C.3   1 <1>   0.3430 
 22 C       -9.1740    -7.0600    -0.3360 C.3   1 <1>  -0.2400 
 23 H       -1.1850    -0.2470     0.9820 H     1 <1>   0.1500 
 24 H       -1.2910    -4.9020    -0.6120 H     1 <1>   0.1500 
 25 H        2.2870    -5.5350    -0.4750 H     1 <1>   0.0800 
 26 H        0.8790    -5.2770    -1.4990 H     1 <1>   0.0800 
 27 H        0.6850    -5.9160     0.1450 H     1 <1>   0.0800 
 28 H       -4.6970     0.5230     0.4160 H     1 <1>   0.0800 
 29 H       -3.0790     0.6720    -0.2570 H     1 <1>   0.0800 
 30 H       -3.3050     0.4560     1.4890 H     1 <1>   0.0800 
 31 H       -5.8680    -2.2690     0.5550 H     1 <1>   0.0800 
 32 H       -6.4700    -3.2120     1.8730 H     1 <1>   0.0800 
 33 H       -5.6130    -5.5170     2.2140 H     1 <1>   0.0800 
 34 H       -4.3740    -6.1280     1.1750 H     1 <1>   0.0800 
 35 H       -6.9590    -3.6930    -1.0750 H     1 <1>   0.0800 
 36 H       -8.1340    -3.1990     0.1010 H     1 <1>   0.0800 
 37 H       -6.5890    -7.1000     0.6220 H     1 <1>   0.0800 
 38 H       -5.9300    -6.2100    -0.7180 H     1 <1>   0.0800 
 39 H       -8.0510    -5.3110     1.1390 H     1 <1>   0.4500 
 40 H       -8.0450    -5.8930    -1.7460 H     1 <1>   0.0800 
 41 H       -9.3320    -5.0230    -0.9470 H     1 <1>   0.0800 
 42 H       -8.4440    -7.8460    -0.2720 H     1 <1>   0.0800 
 43 H       -9.9170    -7.3660    -1.0510 H     1 <1>   0.0800 
 44 H       -9.6630    -6.9360     0.6140 H     1 <1>   0.0800 
@<TRIPOS>BOND
  1   1   2  1   
  2   2   3  ar  
  3   2   4  ar  
  4   3   5  1   
  5   3   6  ar  
  6   4   7  ar  
  7   4  23  1   
  8   5   8  1   
  9   6   9  ar  
 10   6  24  1   
 11   7   9  ar  
 12   7  10  1   
 13   8  25  1   
 14   8  26  1   
 15   8  27  1   
 16   9  11  1   
 17  10  12  1   
 18  11  13  2   
 19  11  14  2   
 20  11  15  am  
 21  12  28  1   
 22  12  29  1   
 23  12  30  1   
 24  15  16  1   
 25  15  17  1   
 26  16  18  1   
 27  16  31  1   
 28  16  32  1   
 29  17  19  1   
 30  17  33  1   
 31  17  34  1   
 32  18  20  1   
 33  18  35  1   
 34  18  36  1   
 35  19  20  1   
 36  19  37  1   
 37  19  38  1   
 38  20  21  1   
 39  20  39  1   
 40  21  22  1   
 41  21  40  1   
 42  21  41  1   
 43  22  42  1   
 44  22  43  1   
 45  22  44  1   
@<TRIPOS>SUBSTRUCTURE
  1 ****  11 GROUP 4 **** **** 0

# MOE 2024.06 (io_trps.svl 2023.06)
