@<TRIPOS>MOLECULE
NONAME
50 51 1 0 0 
SMALL
USER_CHARGES


@<TRIPOS>ATOM
  1 O      -13.9540    -0.0130    -0.7410 O.3   1 <1>  -0.3630 
  2 C      -15.1470    -0.3870    -0.2290 C.ar  1 <1>   0.0830 
  3 C      -12.8500    -0.1350     0.1290 C.3   1 <1>   0.1200 
  4 C      -15.5730    -1.7060    -0.3690 C.ar  1 <1>  -0.1440 
  5 C      -15.9430     0.5540     0.4210 C.ar  1 <1>  -0.1440 
  6 C      -11.6020     0.3250    -0.6150 C.3   1 <1>   0.1200 
  7 C      -16.7890    -2.0830     0.1780 C.ar  1 <1>  -0.1500 
  8 C      -14.7340    -2.7370    -1.1100 C.3   1 <1>  -0.0960 
  9 C      -17.1550     0.1540     0.9600 C.ar  1 <1>  -0.1500 
 10 C      -15.5110     2.0080     0.5480 C.3   1 <1>  -0.0960 
 11 O      -10.5080     0.2150     0.2430 O.3   1 <1>  -0.5600 
 12 C      -17.5750    -1.1590     0.8420 C.ar  1 <1>  -0.1500 
 13 C       -9.3010     0.6020    -0.3290 C.3   1 <1>   0.1200 
 14 C       -8.1950     0.3720     0.7040 C.3   1 <1>   0.1100 
 15 N       -6.8610     0.7370     0.1770 N.3   1 <1>  -0.8100 
 16 C       -6.6640     2.2090     0.1210 C.3   1 <1>   0.1100 
 17 C       -5.7920     0.1110     0.9920 C.3   1 <1>   0.1100 
 18 C       -5.2420     2.6030    -0.3550 C.3   1 <1>   0.3430 
 19 C       -4.3720     0.4540     0.4760 C.3   1 <1>   0.3430 
 20 N       -4.4310     1.3890    -0.6960 N.4   1 <1>  -0.9590 
 21 C       -3.0920     1.7060    -1.2710 C.3   1 <1>   0.2630 
 22 H      -12.7590    -1.1650     0.4220 H     1 <1>   0.0800 
 23 H      -13.0260     0.4820     0.9920 H     1 <1>   0.0800 
 24 H      -11.7070     1.3540    -0.9120 H     1 <1>   0.0800 
 25 H      -11.4330    -0.3010    -1.4740 H     1 <1>   0.0800 
 26 H      -17.1320    -3.0990     0.0880 H     1 <1>   0.1500 
 27 H      -13.9450    -3.0920    -0.4740 H     1 <1>   0.0800 
 28 H      -14.3020    -2.2990    -1.9920 H     1 <1>   0.0800 
 29 H      -15.3380    -3.5740    -1.4130 H     1 <1>   0.0800 
 30 H      -17.7810     0.8630     1.4730 H     1 <1>   0.1500 
 31 H      -14.7960     2.1090     1.3430 H     1 <1>   0.0800 
 32 H      -16.3550     2.6400     0.7590 H     1 <1>   0.0800 
 33 H      -15.0630     2.3430    -0.3700 H     1 <1>   0.0800 
 34 H      -18.5170    -1.4600     1.2640 H     1 <1>   0.1500 
 35 H       -9.3730     1.6410    -0.5960 H     1 <1>   0.0800 
 36 H       -9.1240    -0.0010    -1.2030 H     1 <1>   0.0800 
 37 H       -8.2050    -0.6760     0.9520 H     1 <1>   0.0800 
 38 H       -8.4110     0.9340     1.5960 H     1 <1>   0.0800 
 39 H       -6.8370     2.6400     1.0940 H     1 <1>   0.0800 
 40 H       -7.3800     2.6440    -0.5540 H     1 <1>   0.0800 
 41 H       -5.9130    -0.9600     0.9770 H     1 <1>   0.0800 
 42 H       -5.8810     0.4290     2.0170 H     1 <1>   0.0800 
 43 H       -4.7530     3.1670     0.4220 H     1 <1>   0.0800 
 44 H       -5.3290     3.2420    -1.2190 H     1 <1>   0.0800 
 45 H       -3.8760    -0.4590     0.1900 H     1 <1>   0.0800 
 46 H       -3.8040     0.8980     1.2760 H     1 <1>   0.0800 
 47 H       -5.0180     0.8840    -1.3810 H     1 <1>   0.4500 
 48 H       -2.4890     2.2310    -0.5480 H     1 <1>   0.0800 
 49 H       -3.2000     2.3260    -2.1470 H     1 <1>   0.0800 
 50 H       -2.5830     0.7990    -1.5540 H     1 <1>   0.0800 
@<TRIPOS>BOND
  1   1   2  1   
  2   1   3  1   
  3   2   4  ar  
  4   2   5  ar  
  5   3   6  1   
  6   3  22  1   
  7   3  23  1   
  8   4   7  ar  
  9   4   8  1   
 10   5   9  ar  
 11   5  10  1   
 12   6  11  1   
 13   6  24  1   
 14   6  25  1   
 15   7  12  ar  
 16   7  26  1   
 17   8  27  1   
 18   8  28  1   
 19   8  29  1   
 20   9  12  ar  
 21   9  30  1   
 22  10  31  1   
 23  10  32  1   
 24  10  33  1   
 25  11  13  1   
 26  12  34  1   
 27  13  14  1   
 28  13  35  1   
 29  13  36  1   
 30  14  15  1   
 31  14  37  1   
 32  14  38  1   
 33  15  16  1   
 34  15  17  1   
 35  16  18  1   
 36  16  39  1   
 37  16  40  1   
 38  17  19  1   
 39  17  41  1   
 40  17  42  1   
 41  18  20  1   
 42  18  43  1   
 43  18  44  1   
 44  19  20  1   
 45  19  45  1   
 46  19  46  1   
 47  20  21  1   
 48  20  47  1   
 49  21  48  1   
 50  21  49  1   
 51  21  50  1   
@<TRIPOS>SUBSTRUCTURE
  1 ****  11 GROUP 4 **** **** 0

# MOE 2024.06 (io_trps.svl 2023.06)
