@<TRIPOS>MOLECULE
NONAME
47 48 1 0 0 
SMALL
USER_CHARGES


@<TRIPOS>ATOM
  1 O        0.3800     0.3900     0.2290 O.3   1 <1>  -0.3630 
  2 C       -0.8430     0.9720     0.1620 C.ar  1 <1>   0.0830 
  3 C        1.5590     1.1520     0.1340 C.3   1 <1>   0.1200 
  4 C       -1.0480     2.3390    -0.0010 C.ar  1 <1>  -0.1500 
  5 C       -1.9380     0.1330     0.2650 C.ar  1 <1>  -0.1500 
  6 C        2.7470     0.1950     0.2460 C.3   1 <1>  -0.1600 
  7 C       -2.3320     2.8610    -0.0610 C.ar  1 <1>  -0.1440 
  8 C       -3.2200     0.6470     0.2070 C.ar  1 <1>  -0.1500 
  9 C        4.0850     0.9410     0.1500 C.3   1 <1>  -0.1600 
 10 C       -3.4270     2.0080     0.0440 C.ar  1 <1>  -0.1430 
 11 C       -2.5130     4.3620    -0.2400 C.3   1 <1>  -0.0970 
 12 C        5.2640    -0.0350     0.2650 C.3   1 <1>  -0.1600 
 13 C       -4.8540     2.5340    -0.0150 C.3   1 <1>  -0.0970 
 14 C        6.5990     0.7050     0.1710 C.3   1 <1>   0.3430 
 15 N        7.7290    -0.2420     0.3680 N.4   1 <1>  -0.9590 
 16 C        9.0330     0.4470     0.5170 C.3   1 <1>   0.3430 
 17 C        7.9120    -1.2140    -0.7400 C.3   1 <1>   0.3430 
 18 C       10.0660    -0.6370     0.2450 C.3   1 <1>  -0.1600 
 19 C        9.3440    -1.7050    -0.5820 C.3   1 <1>  -0.1600 
 20 H        1.5640     1.8670     0.9390 H     1 <1>   0.0800 
 21 H        1.5590     1.6570    -0.8170 H     1 <1>   0.0800 
 22 H       -0.2140     3.0080    -0.0830 H     1 <1>   0.1500 
 23 H       -1.7800    -0.9220     0.3910 H     1 <1>   0.1500 
 24 H        2.6780    -0.5310    -0.5460 H     1 <1>   0.0800 
 25 H        2.6850    -0.3200     1.1900 H     1 <1>   0.0800 
 26 H       -4.0560    -0.0240     0.2890 H     1 <1>   0.1500 
 27 H        4.1380     1.6730     0.9400 H     1 <1>   0.0800 
 28 H        4.1320     1.4610    -0.7930 H     1 <1>   0.0800 
 29 H       -1.5640     4.8630    -0.3020 H     1 <1>   0.0800 
 30 H       -3.0550     4.7690     0.5940 H     1 <1>   0.0800 
 31 H       -3.0590     4.5610    -1.1440 H     1 <1>   0.0800 
 32 H        5.1870    -0.7600    -0.5250 H     1 <1>   0.0800 
 33 H        5.2010    -0.5440     1.2120 H     1 <1>   0.0800 
 34 H       -5.0270     3.0260    -0.9560 H     1 <1>   0.0800 
 35 H       -5.0230     3.2330     0.7840 H     1 <1>   0.0800 
 36 H       -5.5650     1.7340     0.0820 H     1 <1>   0.0800 
 37 H        6.6300     1.4670     0.9340 H     1 <1>   0.0800 
 38 H        6.6830     1.1880    -0.7900 H     1 <1>   0.0800 
 39 H        7.5670    -0.7810     1.2290 H     1 <1>   0.4500 
 40 H        9.1520     0.8750     1.5010 H     1 <1>   0.0800 
 41 H        9.1240     1.2230    -0.2260 H     1 <1>   0.0800 
 42 H        7.8070    -0.7120    -1.6880 H     1 <1>   0.0800 
 43 H        7.2030    -2.0250    -0.6830 H     1 <1>   0.0800 
 44 H       10.4110    -1.0530     1.1760 H     1 <1>   0.0800 
 45 H       10.9130    -0.2280    -0.2790 H     1 <1>   0.0800 
 46 H        9.8020    -1.8400    -1.5470 H     1 <1>   0.0800 
 47 H        9.3530    -2.6500    -0.0660 H     1 <1>   0.0800 
@<TRIPOS>BOND
  1   1   2  1   
  2   1   3  1   
  3   2   4  ar  
  4   2   5  ar  
  5   3   6  1   
  6   3  20  1   
  7   3  21  1   
  8   4   7  ar  
  9   4  22  1   
 10   5   8  ar  
 11   5  23  1   
 12   6   9  1   
 13   6  24  1   
 14   6  25  1   
 15   7  10  ar  
 16   7  11  1   
 17   8  10  ar  
 18   8  26  1   
 19   9  12  1   
 20   9  27  1   
 21   9  28  1   
 22  10  13  1   
 23  11  29  1   
 24  11  30  1   
 25  11  31  1   
 26  12  14  1   
 27  12  32  1   
 28  12  33  1   
 29  13  34  1   
 30  13  35  1   
 31  13  36  1   
 32  14  15  1   
 33  14  37  1   
 34  14  38  1   
 35  15  16  1   
 36  15  17  1   
 37  15  39  1   
 38  16  18  1   
 39  16  40  1   
 40  16  41  1   
 41  17  19  1   
 42  17  42  1   
 43  17  43  1   
 44  18  19  1   
 45  18  44  1   
 46  18  45  1   
 47  19  46  1   
 48  19  47  1   
@<TRIPOS>SUBSTRUCTURE
  1 ****   6 GROUP 4 **** **** 0

# MOE 2024.06 (io_trps.svl 2023.06)
