@<TRIPOS>MOLECULE
NONAME
43 44 1 0 0 
SMALL
USER_CHARGES


@<TRIPOS>ATOM
  1 O       -0.2560     1.7870    -2.1950 O.2   1 <1>  -0.5700 
  2 C       -0.5160     2.4140    -1.1920 C.2   1 <1>   0.5690 
  3 N       -1.3560     1.8850    -0.2560 N.am  1 <1>  -0.7300 
  4 C        0.0750     3.8410    -0.9850 C.3   1 <1>   0.3410 
  5 C       -2.0330     0.5790    -0.3270 C.3   1 <1>   0.2200 
  6 O        1.4920     3.8630    -1.1270 O.3   1 <1>  -0.3630 
  7 C       -0.2740     4.4940     0.3700 C.3   1 <1>  -0.2400 
  8 C       -0.4430     4.7660    -2.0970 C.3   1 <1>  -0.2400 
  9 C       -3.5420     0.8080    -0.0700 C.3   1 <1>   0.2000 
 10 C       -1.3420    -0.3320     0.6910 C.3   1 <1>  -0.2400 
 11 C        2.4030     3.1960    -0.3680 C.ar  1 <1>   0.0820 
 12 O       -3.7480     1.4850     1.1380 O.3   1 <1>  -0.5600 
 13 C       -4.4290    -0.4280     0.0200 C.3   1 <1>  -0.1600 
 14 C        3.7270     3.5610    -0.5580 C.ar  1 <1>  -0.1500 
 15 C        2.1030     2.2020     0.5600 C.ar  1 <1>  -0.1500 
 16 C       -5.0120     1.2090     1.6610 C.3   1 <1>   0.1200 
 17 C       -5.6130     0.0950     0.8090 C.3   1 <1>  -0.1600 
 18 C        4.7390     2.9550     0.1650 C.ar  1 <1>  -0.1500 
 19 C        3.1150     1.5960     1.2840 C.ar  1 <1>  -0.1500 
 20 C        4.4330     1.9720     1.0890 C.ar  1 <1>  -0.1500 
 21 H       -1.6620     2.4340     0.5520 H     1 <1>   0.3700 
 22 H       -1.9060     0.1610    -1.3130 H     1 <1>   0.0800 
 23 H        0.0480     3.8860     1.1930 H     1 <1>   0.0800 
 24 H       -1.3370     4.6330     0.4510 H     1 <1>   0.0800 
 25 H        0.1990     5.4570     0.4470 H     1 <1>   0.0800 
 26 H       -0.1610     4.3730    -3.0580 H     1 <1>   0.0800 
 27 H       -0.0340     5.7540    -1.9890 H     1 <1>   0.0800 
 28 H       -1.5150     4.8260    -2.0600 H     1 <1>   0.0800 
 29 H       -3.9250     1.4450    -0.8500 H     1 <1>   0.0800 
 30 H       -1.5170     0.0200     1.6920 H     1 <1>   0.0800 
 31 H       -0.2840    -0.3550     0.5010 H     1 <1>   0.0800 
 32 H       -1.7090    -1.3370     0.6080 H     1 <1>   0.0800 
 33 H       -3.9450    -1.2110     0.5740 H     1 <1>   0.0800 
 34 H       -4.7070    -0.7960    -0.9520 H     1 <1>   0.0800 
 35 H        3.9580     4.3230    -1.2790 H     1 <1>   0.1500 
 36 H        1.0990     1.8780     0.7340 H     1 <1>   0.1500 
 37 H       -5.6060     2.1060     1.6250 H     1 <1>   0.0800 
 38 H       -4.8820     0.8950     2.6830 H     1 <1>   0.0800 
 39 H       -6.0750    -0.6670     1.4120 H     1 <1>   0.0800 
 40 H       -6.3510     0.5140     0.1470 H     1 <1>   0.0800 
 41 H        5.7630     3.2490     0.0080 H     1 <1>   0.1500 
 42 H        2.8770     0.8280     1.9990 H     1 <1>   0.1500 
 43 H        5.2180     1.4990     1.6530 H     1 <1>   0.1500 
@<TRIPOS>BOND
  1   1   2  2   
  2   2   3  am  
  3   2   4  1   
  4   3   5  1   
  5   3  21  1   
  6   4   6  1   
  7   4   7  1   
  8   4   8  1   
  9   5   9  1   
 10   5  10  1   
 11   5  22  1   
 12   6  11  1   
 13   7  23  1   
 14   7  24  1   
 15   7  25  1   
 16   8  26  1   
 17   8  27  1   
 18   8  28  1   
 19   9  12  1   
 20   9  13  1   
 21   9  29  1   
 22  10  30  1   
 23  10  31  1   
 24  10  32  1   
 25  11  14  ar  
 26  11  15  ar  
 27  12  16  1   
 28  13  17  1   
 29  13  33  1   
 30  13  34  1   
 31  14  18  ar  
 32  14  35  1   
 33  15  19  ar  
 34  15  36  1   
 35  16  17  1   
 36  16  37  1   
 37  16  38  1   
 38  17  39  1   
 39  17  40  1   
 40  18  20  ar  
 41  18  41  1   
 42  19  20  ar  
 43  19  42  1   
 44  20  43  1   
@<TRIPOS>SUBSTRUCTURE
  1 ****   3 GROUP 4 **** **** 0

# MOE 2024.06 (io_trps.svl 2023.06)
