@<TRIPOS>MOLECULE
NONAME
37 38 1 0 0 
SMALL
USER_CHARGES


@<TRIPOS>ATOM
  1 CL       0.9070    -0.0500    -0.3200 Cl    1 <1>  -0.1770 
  2 C        0.7420    -1.7900    -0.4150 C.ar  1 <1>   0.1770 
  3 C        1.8590    -2.6190    -0.3580 C.ar  1 <1>   0.0830 
  4 C       -0.5280    -2.3200    -0.5550 C.ar  1 <1>  -0.1500 
  5 O        3.1120    -2.1310    -0.2200 O.3   1 <1>  -0.3630 
  6 C        1.6920    -3.9910    -0.4650 C.ar  1 <1>  -0.1500 
  7 C       -0.6870    -3.6940    -0.6480 C.ar  1 <1>  -0.1500 
  8 C        3.4850    -1.7040     1.0840 C.3   1 <1>   0.1810 
  9 C        0.4210    -4.5260    -0.6060 C.ar  1 <1>  -0.1500 
 10 C        4.9440    -1.2520     1.1460 C.2   1 <1>   0.5690 
 11 O        5.1650    -0.1690     1.6390 O.2   1 <1>  -0.5700 
 12 N        5.9710    -2.0490     0.7010 N.am  1 <1>  -0.6600 
 13 C        5.7870    -3.3990     0.0880 C.3   1 <1>   0.1400 
 14 C        7.3840    -1.5620     0.7180 C.3   1 <1>   0.1400 
 15 C        7.0860    -4.2290     0.1520 C.3   1 <1>   0.2000 
 16 C        8.1990    -2.1720    -0.4420 C.3   1 <1>   0.2000 
 17 O        8.1710    -3.5760    -0.4490 O.3   1 <1>  -0.5600 
 18 C        6.9420    -5.5780    -0.5470 C.3   1 <1>  -0.2400 
 19 C        9.6670    -1.7600    -0.3920 C.3   1 <1>  -0.2400 
 20 H       -1.3780    -1.6640    -0.5930 H     1 <1>   0.1500 
 21 H        2.5510    -4.6350    -0.4390 H     1 <1>   0.1500 
 22 H       -1.6730    -4.1150    -0.7580 H     1 <1>   0.1500 
 23 H        3.3350    -2.5210     1.7640 H     1 <1>   0.0800 
 24 H        2.8510    -0.8860     1.3690 H     1 <1>   0.0800 
 25 H        0.2920    -5.5920    -0.6850 H     1 <1>   0.1500 
 26 H        5.4890    -3.2830    -0.9410 H     1 <1>   0.0800 
 27 H        5.0080    -3.9300     0.6050 H     1 <1>   0.0800 
 28 H        7.8400    -1.8230     1.6570 H     1 <1>   0.0800 
 29 H        7.3990    -0.4890     0.6300 H     1 <1>   0.0800 
 30 H        7.3440    -4.3910     1.1850 H     1 <1>   0.0800 
 31 H        7.7700    -1.8420    -1.3730 H     1 <1>   0.0800 
 32 H        6.7150    -5.4350    -1.5880 H     1 <1>   0.0800 
 33 H        6.1520    -6.1490    -0.0940 H     1 <1>   0.0800 
 34 H        7.8580    -6.1330    -0.4570 H     1 <1>   0.0800 
 35 H       10.1220    -2.1090     0.5180 H     1 <1>   0.0800 
 36 H        9.7530    -0.6900    -0.4350 H     1 <1>   0.0800 
 37 H       10.1910    -2.1780    -1.2330 H     1 <1>   0.0800 
@<TRIPOS>BOND
  1   1   2  1   
  2   2   3  ar  
  3   2   4  ar  
  4   3   5  1   
  5   3   6  ar  
  6   4   7  ar  
  7   4  20  1   
  8   5   8  1   
  9   6   9  ar  
 10   6  21  1   
 11   7   9  ar  
 12   7  22  1   
 13   8  10  1   
 14   8  23  1   
 15   8  24  1   
 16   9  25  1   
 17  10  11  2   
 18  10  12  am  
 19  12  13  1   
 20  12  14  1   
 21  13  15  1   
 22  13  26  1   
 23  13  27  1   
 24  14  16  1   
 25  14  28  1   
 26  14  29  1   
 27  15  17  1   
 28  15  18  1   
 29  15  30  1   
 30  16  17  1   
 31  16  19  1   
 32  16  31  1   
 33  18  32  1   
 34  18  33  1   
 35  18  34  1   
 36  19  35  1   
 37  19  36  1   
 38  19  37  1   
@<TRIPOS>SUBSTRUCTURE
  1 ****   5 GROUP 4 **** **** 0

# MOE 2024.06 (io_trps.svl 2023.06)
