@<TRIPOS>MOLECULE
NONAME
49 52 1 0 0 
SMALL
USER_CHARGES


@<TRIPOS>ATOM
  1 O       -1.1300     2.2930    -1.9310 O.2   1 <1>  -0.5700 
  2 C       -0.1290     2.6550    -1.3620 C.2   1 <1>   0.5690 
  3 N        1.1160     2.2580    -1.8240 N.am  1 <1>  -0.2370 
  4 C       -0.2450     3.5610    -0.1210 C.3   1 <1>  -0.0190 
  5 C        2.2460     2.2490    -0.9730 C.ar  1 <1>   0.1170 
  6 C        1.2250     1.7420    -3.1020 C.2   1 <1>   0.5700 
  7 C       -1.2880     3.1110     0.9260 C.3   1 <1>   0.1530 
  8 C       -0.5940     5.0730    -0.3570 C.3   1 <1>  -0.0800 
  9 C        3.1770     3.2910    -1.0090 C.ar  1 <1>  -0.1440 
 10 C        2.4190     1.2070    -0.0570 C.ar  1 <1>  -0.1440 
 11 O        2.2540     1.3510    -3.5970 O.2   1 <1>  -0.5700 
 12 C       -2.6810     3.2410     0.3370 C.2   1 <1>  -0.2880 
 13 C       -1.3140     4.3820     1.7640 C.3   1 <1>  -0.1900 
 14 C       -1.7440     5.3270     0.6500 C.3   1 <1>   0.1530 
 15 C       -0.9420     5.4740    -1.8040 C.3   1 <1>  -0.2400 
 16 C        4.2390     3.2950    -0.1210 C.ar  1 <1>  -0.1500 
 17 C        3.0580     4.4340    -2.0090 C.3   1 <1>  -0.0970 
 18 C        3.4890     1.2330     0.8210 C.ar  1 <1>  -0.1500 
 19 C        1.4580     0.0240    -0.0020 C.3   1 <1>  -0.0970 
 20 C       -2.9490     4.5360     0.1790 C.2   1 <1>  -0.2880 
 21 C       -0.3660     4.7150     2.8670 C.3   1 <1>  -0.2000 
 22 C       -1.8280     4.4510     3.1620 C.3   1 <1>  -0.2000 
 23 C        4.3990     2.2750     0.7990 C.ar  1 <1>  -0.1430 
 24 C        5.5690     2.2910     1.7650 C.3   1 <1>  -0.0970 
 25 H        0.6910     3.5520     0.4020 H     1 <1>   0.0800 
 26 H        0.3320     1.6940    -3.7010 H     1 <1>   0.0600 
 27 H       -1.0820     2.2080     1.4740 H     1 <1>   0.0800 
 28 H        0.2510     5.6640    -0.0460 H     1 <1>   0.0800 
 29 H       -3.2590     2.3650     0.0980 H     1 <1>   0.1500 
 30 H       -1.9290     6.3440     0.9490 H     1 <1>   0.0800 
 31 H       -1.7710     4.8990    -2.1800 H     1 <1>   0.0800 
 32 H       -0.1020     5.3190    -2.4560 H     1 <1>   0.0800 
 33 H       -1.2110     6.5150    -1.8420 H     1 <1>   0.0800 
 34 H        4.9570     4.0960    -0.1450 H     1 <1>   0.1500 
 35 H        3.0090     4.0460    -3.0110 H     1 <1>   0.0800 
 36 H        3.9090     5.0880    -1.9510 H     1 <1>   0.0800 
 37 H        2.1760     5.0120    -1.8100 H     1 <1>   0.0800 
 38 H        3.6250     0.4340     1.5290 H     1 <1>   0.1500 
 39 H        0.4820     0.3470     0.3130 H     1 <1>   0.0800 
 40 H        1.8050    -0.7240     0.6860 H     1 <1>   0.0800 
 41 H        1.3790    -0.4310    -0.9740 H     1 <1>   0.0800 
 42 H       -3.8120     5.0360    -0.2230 H     1 <1>   0.1500 
 43 H        0.0000     5.7230     2.9590 H     1 <1>   0.1000 
 44 H        0.3590     3.9820     3.1770 H     1 <1>   0.1000 
 45 H       -2.1050     3.5350     3.6540 H     1 <1>   0.1000 
 46 H       -2.4630     5.2750     3.4380 H     1 <1>   0.1000 
 47 H        5.8540     3.3020     1.9960 H     1 <1>   0.0800 
 48 H        6.4100     1.7850     1.3250 H     1 <1>   0.0800 
 49 H        5.3080     1.7960     2.6830 H     1 <1>   0.0800 
@<TRIPOS>BOND
  1   1   2  2   
  2   2   3  am  
  3   2   4  1   
  4   3   5  1   
  5   3   6  am  
  6   4   7  1   
  7   4   8  1   
  8   4  25  1   
  9   5   9  ar  
 10   5  10  ar  
 11   6  11  2   
 12   6  26  1   
 13   7  12  1   
 14   7  13  1   
 15   7  27  1   
 16   8  14  1   
 17   8  15  1   
 18   8  28  1   
 19   9  16  ar  
 20   9  17  1   
 21  10  18  ar  
 22  10  19  1   
 23  12  20  2   
 24  12  29  1   
 25  13  14  1   
 26  13  21  1   
 27  13  22  1   
 28  14  20  1   
 29  14  30  1   
 30  15  31  1   
 31  15  32  1   
 32  15  33  1   
 33  16  23  ar  
 34  16  34  1   
 35  17  35  1   
 36  17  36  1   
 37  17  37  1   
 38  18  23  ar  
 39  18  38  1   
 40  19  39  1   
 41  19  40  1   
 42  19  41  1   
 43  20  42  1   
 44  21  22  1   
 45  21  43  1   
 46  21  44  1   
 47  22  45  1   
 48  22  46  1   
 49  23  24  1   
 50  24  47  1   
 51  24  48  1   
 52  24  49  1   
@<TRIPOS>SUBSTRUCTURE
  1 ****   4 GROUP 4 **** **** 0

# MOE 2024.06 (io_trps.svl 2023.06)
