@<TRIPOS>MOLECULE
NONAME
49 51 1 0 0 
SMALL
USER_CHARGES


@<TRIPOS>ATOM
  1 N        1.0510     1.1520    -0.2680 N.3   1 <1>  -0.8100 
  2 C        0.5120     1.4790     1.0650 C.3   1 <1>   0.1100 
  3 C        0.3540     0.0110    -0.8990 C.3   1 <1>   0.1100 
  4 C        2.5370     1.0880    -0.3510 C.3   1 <1>   0.1100 
  5 C       -1.0090     1.7270     1.0010 C.3   1 <1>   0.3430 
  6 C       -1.1640     0.2590    -0.9740 C.3   1 <1>   0.3430 
  7 C        3.2700     0.1440     0.6400 C.3   1 <1>   0.2070 
  8 N       -1.7420     0.5670     0.3830 N.4   1 <1>  -0.9590 
  9 C        4.7950     0.2690     0.5470 C.ar  1 <1>  -0.1440 
 10 C        2.8510    -1.3210     0.5050 C.ar  1 <1>  -0.1440 
 11 C       -3.2030     0.8230     0.3370 C.3   1 <1>   0.3430 
 12 C        5.4640     0.4760    -0.6550 C.ar  1 <1>  -0.1500 
 13 C        5.5440     0.1660     1.7120 C.ar  1 <1>  -0.1500 
 14 C        3.0620    -2.0180    -0.6770 C.ar  1 <1>  -0.1500 
 15 C        2.2410    -1.9730     1.5690 C.ar  1 <1>  -0.1500 
 16 C       -3.9460    -0.4810     0.0700 C.3   1 <1>  -0.2400 
 17 C        6.8430     0.5890    -0.6860 C.ar  1 <1>  -0.1500 
 18 C        6.9230     0.2780     1.6830 C.ar  1 <1>  -0.1500 
 19 C        2.6540    -3.3350    -0.8010 C.ar  1 <1>  -0.1500 
 20 C        1.8330    -3.2900     1.4470 C.ar  1 <1>  -0.1500 
 21 C        7.5740     0.4930     0.4830 C.ar  1 <1>  -0.1500 
 22 C        2.0360    -3.9710     0.2600 C.ar  1 <1>  -0.1500 
 23 H        0.9960     2.3670     1.4350 H     1 <1>   0.0800 
 24 H        0.7120     0.6760     1.7520 H     1 <1>   0.0800 
 25 H        0.5240    -0.8940    -0.3440 H     1 <1>   0.0800 
 26 H        0.7340    -0.1340    -1.8950 H     1 <1>   0.0800 
 27 H        2.9200     2.0820    -0.1920 H     1 <1>   0.0800 
 28 H        2.8010     0.8150    -1.3560 H     1 <1>   0.0800 
 29 H       -1.1810     2.6160     0.4170 H     1 <1>   0.0800 
 30 H       -1.3780     1.9060     1.9980 H     1 <1>   0.0800 
 31 H       -1.6390    -0.6140    -1.3900 H     1 <1>   0.0800 
 32 H       -1.3410     1.0860    -1.6420 H     1 <1>   0.0800 
 33 H        3.0080     0.4800     1.6250 H     1 <1>   0.0800 
 34 H       -1.5700    -0.2550     0.9760 H     1 <1>   0.4500 
 35 H       -3.4310     1.5450    -0.4310 H     1 <1>   0.0800 
 36 H       -3.5310     1.2230     1.2830 H     1 <1>   0.0800 
 37 H        4.9320     0.5480    -1.5850 H     1 <1>   0.1500 
 38 H        5.0600    -0.0090     2.6570 H     1 <1>   0.1500 
 39 H        3.5510    -1.5420    -1.5080 H     1 <1>   0.1500 
 40 H        2.0850    -1.4650     2.5040 H     1 <1>   0.1500 
 41 H       -3.7230    -0.8700    -0.9060 H     1 <1>   0.0800 
 42 H       -5.0050    -0.2960     0.1120 H     1 <1>   0.0800 
 43 H       -3.7100    -1.2170     0.8190 H     1 <1>   0.0800 
 44 H        7.3490     0.7510    -1.6220 H     1 <1>   0.1500 
 45 H        7.4890     0.1970     2.5940 H     1 <1>   0.1500 
 46 H        2.8250    -3.8670    -1.7200 H     1 <1>   0.1500 
 47 H        1.3650    -3.7910     2.2780 H     1 <1>   0.1500 
 48 H        8.6460     0.5810     0.4590 H     1 <1>   0.1500 
 49 H        1.7240    -4.9970     0.1660 H     1 <1>   0.1500 
@<TRIPOS>BOND
  1   1   2  1   
  2   1   3  1   
  3   1   4  1   
  4   2   5  1   
  5   2  23  1   
  6   2  24  1   
  7   3   6  1   
  8   3  25  1   
  9   3  26  1   
 10   4   7  1   
 11   4  27  1   
 12   4  28  1   
 13   5   8  1   
 14   5  29  1   
 15   5  30  1   
 16   6   8  1   
 17   6  31  1   
 18   6  32  1   
 19   7   9  1   
 20   7  10  1   
 21   7  33  1   
 22   8  11  1   
 23   8  34  1   
 24   9  12  ar  
 25   9  13  ar  
 26  10  14  ar  
 27  10  15  ar  
 28  11  16  1   
 29  11  35  1   
 30  11  36  1   
 31  12  17  ar  
 32  12  37  1   
 33  13  18  ar  
 34  13  38  1   
 35  14  19  ar  
 36  14  39  1   
 37  15  20  ar  
 38  15  40  1   
 39  16  41  1   
 40  16  42  1   
 41  16  43  1   
 42  17  21  ar  
 43  17  44  1   
 44  18  21  ar  
 45  18  45  1   
 46  19  22  ar  
 47  19  46  1   
 48  20  22  ar  
 49  20  47  1   
 50  21  48  1   
 51  22  49  1   
@<TRIPOS>SUBSTRUCTURE
  1 ****   7 GROUP 4 **** **** 0

# MOE 2024.06 (io_trps.svl 2023.06)
