@<TRIPOS>MOLECULE
NONAME
33 34 1 0 0 
SMALL
USER_CHARGES


@<TRIPOS>ATOM
  1 S       -0.5410     0.1120     0.1630 S.3   1 <1>  -0.3710 
  2 C       -1.1420     1.7430    -0.0940 C.2   1 <1>   0.7320 
  3 C        1.1990     0.6480    -0.0130 C.3   1 <1>   0.0700 
  4 S       -2.9170     1.9500    -0.0470 S.3   1 <1>  -0.3710 
  5 N       -0.2870     2.6380    -0.2920 N.2   1 <1>  -0.6960 
  6 C        1.1120     2.1690    -0.2760 C.3   1 <1>   0.0860 
  7 C       -3.6100     0.2520     0.2920 C.3   1 <1>   0.1310 
  8 C       -5.1300     0.2650     0.3650 C.2   1 <1>   0.5690 
  9 O       -5.6830    -0.7620     0.6760 O.2   1 <1>  -0.5700 
 10 N       -5.7980     1.4280     0.0840 N.am  1 <1>  -0.5470 
 11 C       -7.1640     1.7510     0.0710 C.ar  1 <1>   0.1170 
 12 C       -8.1720     0.7950     0.0140 C.ar  1 <1>  -0.1500 
 13 C       -7.5230     3.0910     0.1040 C.ar  1 <1>  -0.1500 
 14 C       -9.5270     1.1330     0.0050 C.ar  1 <1>   0.0860 
 15 C       -8.8530     3.4620     0.0890 C.ar  1 <1>  -0.1500 
 16 C      -10.5880     0.1440    -0.0410 C.2   1 <1>   0.4230 
 17 C       -9.8380     2.4940     0.0400 C.ar  1 <1>  -0.1500 
 18 O      -11.7520     0.4340    -0.1430 O.2   1 <1>  -0.5700 
 19 C      -10.2660    -1.3350     0.0430 C.3   1 <1>  -0.1790 
 20 H        1.6340     0.1160    -0.8400 H     1 <1>   0.0800 
 21 H        1.7160     0.4230     0.9030 H     1 <1>   0.0800 
 22 H        1.5680     2.3990    -1.2240 H     1 <1>   0.0800 
 23 H        1.6500     2.7010     0.4900 H     1 <1>   0.0800 
 24 H       -3.2030    -0.0840     1.2270 H     1 <1>   0.0800 
 25 H       -3.2890    -0.3950    -0.5040 H     1 <1>   0.0800 
 26 H       -5.1720     2.2150    -0.1060 H     1 <1>   0.3700 
 27 H       -7.8930    -0.2380    -0.0300 H     1 <1>   0.1500 
 28 H       -6.7630     3.8500     0.1460 H     1 <1>   0.1500 
 29 H       -9.1250     4.5040     0.1160 H     1 <1>   0.1500 
 30 H      -10.8730     2.7930     0.0300 H     1 <1>   0.1500 
 31 H       -9.6910    -1.5390     0.9270 H     1 <1>   0.0800 
 32 H       -9.7130    -1.6400    -0.8260 H     1 <1>   0.0800 
 33 H      -11.1760    -1.9060     0.0870 H     1 <1>   0.0800 
@<TRIPOS>BOND
  1   1   2  1   
  2   1   3  1   
  3   2   4  1   
  4   2   5  2   
  5   3   6  1   
  6   3  20  1   
  7   3  21  1   
  8   4   7  1   
  9   5   6  1   
 10   6  22  1   
 11   6  23  1   
 12   7   8  1   
 13   7  24  1   
 14   7  25  1   
 15   8   9  2   
 16   8  10  am  
 17  10  11  1   
 18  10  26  1   
 19  11  12  ar  
 20  11  13  ar  
 21  12  14  ar  
 22  12  27  1   
 23  13  15  ar  
 24  13  28  1   
 25  14  16  1   
 26  14  17  ar  
 27  15  17  ar  
 28  15  29  1   
 29  16  18  2   
 30  16  19  1   
 31  17  30  1   
 32  19  31  1   
 33  19  32  1   
 34  19  33  1   
@<TRIPOS>SUBSTRUCTURE
  1 ****  10 GROUP 4 **** **** 0

# MOE 2024.06 (io_trps.svl 2023.06)
