@<TRIPOS>MOLECULE
NONAME
45 47 1 0 0 
SMALL
USER_CHARGES


@<TRIPOS>ATOM
  1 O       -0.4930    -0.1070     0.5070 O.2   1 <1>  -0.5700 
  2 C       -1.4080     0.6970     0.4110 C.2   1 <1>   0.6160 
  3 N       -2.6000     0.3350     0.9610 N.am  1 <1>  -0.5390 
  4 C       -1.3000     1.9740    -0.2170 C.2   1 <1>   0.0290 
  5 C       -3.6990     1.1400     0.9550 C.2   1 <1>  -0.0290 
  6 C       -2.4090     2.8020    -0.2370 C.2   1 <1>  -0.1380 
  7 C       -0.0290     2.2970    -0.8050 C.2   1 <1>   0.5410 
  8 C       -3.6330     2.3720     0.3550 C.2   1 <1>  -0.1380 
  9 C       -4.9140     0.5450     1.6510 C.3   1 <1>  -0.1020 
 10 C       -2.3130     4.1730    -0.9170 C.3   1 <1>  -0.0220 
 11 O        0.0250     2.6240    -1.9770 O.2   1 <1>  -0.5700 
 12 C        1.1810     2.2860    -0.0260 C.2   1 <1>  -0.1360 
 13 C       -4.8640     3.2850     0.3380 C.3   1 <1>  -0.0220 
 14 C       -3.4210     5.1430    -0.5100 C.3   1 <1>  -0.1600 
 15 C        2.4220     2.6400    -0.4360 C.2   1 <1>  -0.1780 
 16 C       -4.7740     4.4520    -0.6460 C.3   1 <1>  -0.1600 
 17 C        3.6540     2.6360     0.3140 C.ar  1 <1>   0.0280 
 18 C        4.9050     2.5990    -0.3210 C.ar  1 <1>   0.0820 
 19 C        3.6530     2.6860     1.7100 C.ar  1 <1>  -0.1500 
 20 O        5.0070     2.5280    -1.6640 O.3   1 <1>  -0.3630 
 21 C        6.0840     2.6380     0.4060 C.ar  1 <1>  -0.1500 
 22 C        4.8290     2.7100     2.4370 C.ar  1 <1>  -0.1500 
 23 C        4.8070     1.2610    -2.2500 C.3   1 <1>   0.0400 
 24 C        6.0500     2.6900     1.7860 C.ar  1 <1>  -0.1500 
 25 H       -2.6070    -0.5950     1.3810 H     1 <1>   0.3700 
 26 H       -4.6260     0.1420     2.6060 H     1 <1>   0.0800 
 27 H       -5.3210    -0.2490     1.0510 H     1 <1>   0.0800 
 28 H       -5.6840     1.2700     1.8270 H     1 <1>   0.0800 
 29 H       -1.3650     4.6340    -0.7000 H     1 <1>   0.0800 
 30 H       -2.3610     4.0210    -1.9830 H     1 <1>   0.0800 
 31 H        1.0390     1.9450     0.9820 H     1 <1>   0.1500 
 32 H       -5.7400     2.7130     0.0890 H     1 <1>   0.0800 
 33 H       -4.9980     3.6810     1.3290 H     1 <1>   0.0800 
 34 H       -3.2720     5.4600     0.5080 H     1 <1>   0.0800 
 35 H       -3.3870     6.0130    -1.1430 H     1 <1>   0.0800 
 36 H        2.5390     2.9690    -1.4560 H     1 <1>   0.1500 
 37 H       -4.8930     4.0850    -1.6510 H     1 <1>   0.0800 
 38 H       -5.5670     5.1520    -0.4490 H     1 <1>   0.0800 
 39 H        2.7210     2.7160     2.2410 H     1 <1>   0.1500 
 40 H        7.0240     2.6240    -0.1150 H     1 <1>   0.1500 
 41 H        4.7970     2.7490     3.5120 H     1 <1>   0.1500 
 42 H        4.9310     1.3590    -3.3130 H     1 <1>   0.0800 
 43 H        3.8130     0.9190    -2.0250 H     1 <1>   0.0800 
 44 H        5.5360     0.5770    -1.8530 H     1 <1>   0.0800 
 45 H        6.9660     2.7160     2.3510 H     1 <1>   0.1500 
@<TRIPOS>BOND
  1   1   2  2   
  2   2   3  am  
  3   2   4  1   
  4   3   5  1   
  5   3  25  1   
  6   4   6  2   
  7   4   7  1   
  8   5   8  2   
  9   5   9  1   
 10   6   8  1   
 11   6  10  1   
 12   7  11  2   
 13   7  12  1   
 14   8  13  1   
 15   9  26  1   
 16   9  27  1   
 17   9  28  1   
 18  10  14  1   
 19  10  29  1   
 20  10  30  1   
 21  12  15  2   
 22  12  31  1   
 23  13  16  1   
 24  13  32  1   
 25  13  33  1   
 26  14  16  1   
 27  14  34  1   
 28  14  35  1   
 29  15  17  1   
 30  15  36  1   
 31  16  37  1   
 32  16  38  1   
 33  17  18  ar  
 34  17  19  ar  
 35  18  20  1   
 36  18  21  ar  
 37  19  22  ar  
 38  19  39  1   
 39  20  23  1   
 40  21  24  ar  
 41  21  40  1   
 42  22  24  ar  
 43  22  41  1   
 44  23  42  1   
 45  23  43  1   
 46  23  44  1   
 47  24  45  1   
@<TRIPOS>SUBSTRUCTURE
  1 ****  12 GROUP 4 **** **** 0

# MOE 2024.06 (io_trps.svl 2023.06)
