@<TRIPOS>MOLECULE
NONAME
44 46 1 0 0 
SMALL
USER_CHARGES


@<TRIPOS>ATOM
  1 O       -0.5280     2.6090     1.7110 O.2   1 <1>  -0.5700 
  2 C        0.3060     3.1390     1.0010 C.2   1 <1>   0.7060 
  3 O        1.5730     3.0530     1.4230 O.3   1 <1>  -0.2320 
  4 C        0.0280     3.8360    -0.2330 C.2   1 <1>   0.0290 
  5 C        2.6220     3.5850     0.7630 C.ar  1 <1>   0.0830 
  6 C       -1.3330     3.9460    -0.7180 C.2   1 <1>   0.6160 
  7 C        1.0770     4.3800    -0.9140 C.2   1 <1>  -0.1780 
  8 C        2.4120     4.2710    -0.4350 C.ar  1 <1>   0.0280 
  9 C        3.8970     3.4410     1.2880 C.ar  1 <1>  -0.1500 
 10 O       -1.5570     4.5860    -1.7280 O.2   1 <1>  -0.5700 
 11 N       -2.3930     3.3590    -0.0940 N.am  1 <1>  -0.7300 
 12 C        3.5180     4.8090    -1.0910 C.ar  1 <1>  -0.1500 
 13 C        4.9830     3.9810     0.6240 C.ar  1 <1>  -0.1500 
 14 C       -3.8160     3.4690    -0.4700 C.3   1 <1>   0.2200 
 15 C        4.7920     4.6700    -0.5750 C.ar  1 <1>   0.0830 
 16 C       -4.6270     4.0730     0.6960 C.3   1 <1>  -0.0800 
 17 C       -4.3200     2.0700    -0.8410 C.3   1 <1>  -0.1600 
 18 O        5.8040     5.2290    -1.2870 O.3   1 <1>  -0.3630 
 19 C       -6.1280     4.0820     0.3560 C.3   1 <1>  -0.1600 
 20 C       -4.1680     5.4990     1.0420 C.3   1 <1>  -0.2400 
 21 C       -5.8180     2.0870    -1.1740 C.3   1 <1>  -0.1600 
 22 C        7.1430     5.1470    -0.8510 C.3   1 <1>   0.0400 
 23 C       -6.6320     2.6810    -0.0180 C.3   1 <1>  -0.1600 
 24 H        0.9290     4.9120    -1.8400 H     1 <1>   0.1500 
 25 H        4.0320     2.9080     2.2120 H     1 <1>   0.1500 
 26 H       -2.2110     2.8480     0.7800 H     1 <1>   0.3700 
 27 H        3.3850     5.3420    -2.0140 H     1 <1>   0.1500 
 28 H        5.9620     3.8580     1.0480 H     1 <1>   0.1500 
 29 H       -3.9150     4.1100    -1.3310 H     1 <1>   0.0800 
 30 H       -4.4900     3.4490     1.5630 H     1 <1>   0.0800 
 31 H       -4.1510     1.3970    -0.0190 H     1 <1>   0.0800 
 32 H       -3.7720     1.7120    -1.6940 H     1 <1>   0.0800 
 33 H       -6.3050     4.7520    -0.4690 H     1 <1>   0.0800 
 34 H       -6.6890     4.4450     1.2000 H     1 <1>   0.0800 
 35 H       -4.2510     6.1400     0.1820 H     1 <1>   0.0800 
 36 H       -3.1430     5.4980     1.3680 H     1 <1>   0.0800 
 37 H       -4.7690     5.9050     1.8360 H     1 <1>   0.0800 
 38 H       -6.1550     1.0840    -1.3750 H     1 <1>   0.0800 
 39 H       -5.9790     2.6740    -2.0620 H     1 <1>   0.0800 
 40 H        7.7600     5.6570    -1.5690 H     1 <1>   0.0800 
 41 H        7.4290     4.1120    -0.7940 H     1 <1>   0.0800 
 42 H        7.2280     5.6260     0.1090 H     1 <1>   0.0800 
 43 H       -7.6700     2.7350    -0.2990 H     1 <1>   0.0800 
 44 H       -6.5580     2.0350     0.8400 H     1 <1>   0.0800 
@<TRIPOS>BOND
  1   1   2  2   
  2   2   3  1   
  3   2   4  1   
  4   3   5  1   
  5   4   6  1   
  6   4   7  2   
  7   5   8  ar  
  8   5   9  ar  
  9   6  10  2   
 10   6  11  am  
 11   7   8  1   
 12   7  24  1   
 13   8  12  ar  
 14   9  13  ar  
 15   9  25  1   
 16  11  14  1   
 17  11  26  1   
 18  12  15  ar  
 19  12  27  1   
 20  13  15  ar  
 21  13  28  1   
 22  14  16  1   
 23  14  17  1   
 24  14  29  1   
 25  15  18  1   
 26  16  19  1   
 27  16  20  1   
 28  16  30  1   
 29  17  21  1   
 30  17  31  1   
 31  17  32  1   
 32  18  22  1   
 33  19  23  1   
 34  19  33  1   
 35  19  34  1   
 36  20  35  1   
 37  20  36  1   
 38  20  37  1   
 39  21  23  1   
 40  21  38  1   
 41  21  39  1   
 42  22  40  1   
 43  22  41  1   
 44  22  42  1   
 45  23  43  1   
 46  23  44  1   
@<TRIPOS>SUBSTRUCTURE
  1 ****   4 GROUP 4 **** **** 0

# MOE 2024.06 (io_trps.svl 2023.06)
