@<TRIPOS>MOLECULE
NONAME
51 52 1 0 0 
SMALL
USER_CHARGES


@<TRIPOS>ATOM
  1 CL       2.2490    -2.0000    -3.0030 Cl    1 <1>  -0.1770 
  2 C        2.5450    -0.7890    -1.7790 C.ar  1 <1>   0.1770 
  3 C        3.8370    -0.3790    -1.5250 C.ar  1 <1>  -0.1500 
  4 C        1.4730    -0.2620    -1.0840 C.ar  1 <1>  -0.1500 
  5 C        4.0790     0.5820    -0.5560 C.ar  1 <1>   0.1990 
  6 C        1.7000     0.6980    -0.1120 C.ar  1 <1>  -0.1500 
  7 N        5.3890     0.9910    -0.3130 N.am  1 <1>  -0.6930 
  8 C        2.9990     1.1260     0.1590 C.ar  1 <1>   0.0830 
  9 S        6.4810     0.0450     0.6320 S.o2  1 <1>   1.3330 
 10 C        5.9330     2.1780    -1.0320 C.3   1 <1>   0.2570 
 11 O        3.2790     2.0680     1.1120 O.3   1 <1>  -0.3630 
 12 O        6.3110    -1.3410     0.2740 O.2   1 <1>  -0.6500 
 13 O        7.7710     0.6880     0.5660 O.2   1 <1>  -0.6500 
 14 C        5.8350     0.3000     2.2690 C.3   1 <1>  -0.1350 
 15 C        6.7980     1.8380    -2.2590 C.2   1 <1>   0.5690 
 16 C        2.2500     2.7130     1.8310 C.3   1 <1>   0.0400 
 17 O        6.4290     0.9890    -3.0340 O.2   1 <1>  -0.5700 
 18 N        7.9550     2.4960    -2.5330 N.am  1 <1>  -0.7300 
 19 C        8.5780     3.6560    -1.8510 C.3   1 <1>   0.1400 
 20 C        9.7400     3.1950    -0.9690 C.3   1 <1>  -0.0220 
 21 C       10.4470     4.3340    -0.2340 C.2   1 <1>  -0.2760 
 22 C       10.1530     5.6380    -0.3380 C.2   1 <1>  -0.2880 
 23 C       11.5700     3.8260     0.6680 C.3   1 <1>  -0.0220 
 24 C       10.8950     6.7480     0.3890 C.3   1 <1>  -0.0220 
 25 C       12.0420     4.8940     1.6650 C.3   1 <1>  -0.1600 
 26 C       12.2230     6.2510     0.9750 C.3   1 <1>  -0.1600 
 27 H        4.6580    -0.8020    -2.0770 H     1 <1>   0.1500 
 28 H        0.4770    -0.6020    -1.3050 H     1 <1>   0.1500 
 29 H        0.8540     1.0930     0.4170 H     1 <1>   0.1500 
 30 H        6.5070     2.7580    -0.3360 H     1 <1>   0.0800 
 31 H        5.1130     2.7850    -1.3680 H     1 <1>   0.0800 
 32 H        5.8270     1.3460     2.5050 H     1 <1>   0.0800 
 33 H        6.4420    -0.2150     2.9880 H     1 <1>   0.0800 
 34 H        4.8320    -0.0750     2.3310 H     1 <1>   0.0800 
 35 H        2.7030     3.4260     2.4960 H     1 <1>   0.0800 
 36 H        1.7060     1.9800     2.3990 H     1 <1>   0.0800 
 37 H        1.6040     3.2220     1.1380 H     1 <1>   0.0800 
 38 H        8.4700     2.1280    -3.3360 H     1 <1>   0.3700 
 39 H        7.8510     4.1740    -1.2510 H     1 <1>   0.0800 
 40 H        8.9450     4.3410    -2.5970 H     1 <1>   0.0800 
 41 H       10.4590     2.6800    -1.5800 H     1 <1>   0.0800 
 42 H        9.3620     2.5020    -0.2400 H     1 <1>   0.0800 
 43 H        9.3590     6.0300    -0.9490 H     1 <1>   0.1500 
 44 H       12.3960     3.5210     0.0500 H     1 <1>   0.0800 
 45 H       11.2360     2.9670     1.2230 H     1 <1>   0.0800 
 46 H       10.2680     7.1230     1.1780 H     1 <1>   0.0800 
 47 H       11.0950     7.5560    -0.2930 H     1 <1>   0.0800 
 48 H       12.9680     4.5820     2.1150 H     1 <1>   0.0800 
 49 H       11.3080     4.9930     2.4460 H     1 <1>   0.0800 
 50 H       12.6020     6.9740     1.6750 H     1 <1>   0.0800 
 51 H       12.9420     6.1470     0.1800 H     1 <1>   0.0800 
@<TRIPOS>BOND
  1   1   2  1   
  2   2   3  ar  
  3   2   4  ar  
  4   3   5  ar  
  5   3  27  1   
  6   4   6  ar  
  7   4  28  1   
  8   5   7  1   
  9   5   8  ar  
 10   6   8  ar  
 11   6  29  1   
 12   7   9  am  
 13   7  10  1   
 14   8  11  1   
 15   9  12  2   
 16   9  13  2   
 17   9  14  1   
 18  10  15  1   
 19  10  30  1   
 20  10  31  1   
 21  11  16  1   
 22  14  32  1   
 23  14  33  1   
 24  14  34  1   
 25  15  17  2   
 26  15  18  am  
 27  16  35  1   
 28  16  36  1   
 29  16  37  1   
 30  18  19  1   
 31  18  38  1   
 32  19  20  1   
 33  19  39  1   
 34  19  40  1   
 35  20  21  1   
 36  20  41  1   
 37  20  42  1   
 38  21  22  2   
 39  21  23  1   
 40  22  24  1   
 41  22  43  1   
 42  23  25  1   
 43  23  44  1   
 44  23  45  1   
 45  24  26  1   
 46  24  46  1   
 47  24  47  1   
 48  25  26  1   
 49  25  48  1   
 50  25  49  1   
 51  26  50  1   
 52  26  51  1   
@<TRIPOS>SUBSTRUCTURE
  1 ****  10 GROUP 4 **** **** 0

# MOE 2024.06 (io_trps.svl 2023.06)
