@<TRIPOS>MOLECULE
NONAME
27 27 1 0 0 
SMALL
USER_CHARGES


@<TRIPOS>ATOM
  1 CL      -0.4110    -0.3120     0.0270 Cl    1 <1>  -0.1770 
  2 C       -0.1130     1.4070     0.0150 C.ar  1 <1>   0.1770 
  3 C        1.1910     1.8630     0.0140 C.ar  1 <1>  -0.1500 
  4 C       -1.1870     2.2780     0.0060 C.ar  1 <1>  -0.1500 
  5 C        1.4270     3.2350     0.0040 C.ar  1 <1>   0.0820 
  6 C       -0.9500     3.6420    -0.0030 C.ar  1 <1>  -0.1500 
  7 O        2.6660     3.7860     0.0030 O.3   1 <1>  -0.3630 
  8 C        0.3530     4.1130    -0.0040 C.ar  1 <1>  -0.1500 
  9 C        3.8250     2.9860     0.0110 C.3   1 <1>   0.1200 
 10 C        5.0400     3.9150     0.0060 C.3   1 <1>  -0.1600 
 11 C        6.3520     3.1190     0.0150 C.3   1 <1>  -0.1600 
 12 C        7.5630     4.0550     0.0100 C.3   1 <1>   0.0700 
 13 S        9.0880     3.0160     0.0210 S.3   1 <1>  -0.2660 
 14 C       10.4070     4.2470     0.0140 C.1   1 <1>   0.5930 
 15 N       11.2190     5.0440     0.0090 N.1   1 <1>  -0.5570 
 16 H        1.9860     1.1440     0.0210 H     1 <1>   0.1500 
 17 H       -2.1900     1.8910     0.0070 H     1 <1>   0.1500 
 18 H       -1.7740     4.3350    -0.0100 H     1 <1>   0.1500 
 19 H        0.5460     5.1710    -0.0110 H     1 <1>   0.1500 
 20 H        3.8150     2.3650    -0.8680 H     1 <1>   0.0800 
 21 H        3.8120     2.3780     0.8990 H     1 <1>   0.0800 
 22 H        4.9960     4.5480     0.8760 H     1 <1>   0.0800 
 23 H        5.0000     4.5340    -0.8730 H     1 <1>   0.0800 
 24 H        6.3940     2.4840    -0.8540 H     1 <1>   0.0800 
 25 H        6.3910     2.4970     0.8930 H     1 <1>   0.0800 
 26 H        7.5910     4.6760     0.8880 H     1 <1>   0.0800 
 27 H        7.5940     4.6630    -0.8780 H     1 <1>   0.0800 
@<TRIPOS>BOND
  1   1   2  1   
  2   2   3  ar  
  3   2   4  ar  
  4   3   5  ar  
  5   3  16  1   
  6   4   6  ar  
  7   4  17  1   
  8   5   7  1   
  9   5   8  ar  
 10   6   8  ar  
 11   6  18  1   
 12   7   9  1   
 13   8  19  1   
 14   9  10  1   
 15   9  20  1   
 16   9  21  1   
 17  10  11  1   
 18  10  22  1   
 19  10  23  1   
 20  11  12  1   
 21  11  24  1   
 22  11  25  1   
 23  12  13  1   
 24  12  26  1   
 25  12  27  1   
 26  13  14  1   
 27  14  15  3   
@<TRIPOS>SUBSTRUCTURE
  1 ****   9 GROUP 4 **** **** 0

# MOE 2024.06 (io_trps.svl 2023.06)
