@<TRIPOS>MOLECULE
NONAME
51 53 1 0 0 
SMALL
USER_CHARGES


@<TRIPOS>ATOM
  1 O       -0.3170     0.7320     1.5790 O.2   1 <1>  -0.5700 
  2 C       -0.2440     1.9150     1.3390 C.2   1 <1>   0.5690 
  3 N       -1.3420     2.7310     1.4230 N.am  1 <1>  -0.6600 
  4 C        1.1080     2.4900     0.9400 C.3   1 <1>  -0.0990 
  5 C       -1.3700     4.2000     1.1190 C.3   1 <1>   0.1400 
  6 C       -2.6880     2.1920     1.8040 C.3   1 <1>   0.1400 
  7 C        2.2580     1.4620     0.9560 C.3   1 <1>  -0.0990 
  8 C       -2.4510     4.5410     0.0780 C.3   1 <1>   0.2090 
  9 C       -3.7550     2.5460     0.7540 C.3   1 <1>   0.2090 
 10 C        3.6010     2.0520     0.5520 C.2   1 <1>   0.5690 
 11 N       -3.7880     4.0140     0.4890 N.pl3 1 <1>  -0.8380 
 12 O        3.7940     3.2360     0.6740 O.2   1 <1>  -0.5700 
 13 N        4.5850     1.2680     0.0420 N.am  1 <1>  -0.5470 
 14 C       -4.9000     4.4930    -0.1750 C.ar  1 <1>   0.4100 
 15 C        4.6270    -0.1120    -0.1940 C.ar  1 <1>   0.1170 
 16 N       -4.7530     4.8280    -1.4520 N.ar  1 <1>  -0.6200 
 17 C       -6.1110     4.5940     0.5050 C.ar  1 <1>  -0.1500 
 18 C        4.2920    -1.0320     0.7940 C.ar  1 <1>  -0.1500 
 19 C        5.0230    -0.5820    -1.4390 C.ar  1 <1>  -0.1500 
 20 C       -5.8400     5.2700    -2.0620 C.ar  1 <1>   0.1600 
 21 C       -7.2340     5.0540    -0.1420 C.ar  1 <1>  -0.1500 
 22 C        4.3330    -2.3910     0.5400 C.ar  1 <1>  -0.1500 
 23 C        5.0690    -1.9400    -1.6960 C.ar  1 <1>  -0.1500 
 24 C       -7.0830     5.4000    -1.4690 C.ar  1 <1>  -0.1500 
 25 C        4.7220    -2.8530    -0.7140 C.ar  1 <1>   0.0820 
 26 O        4.7860    -4.1680    -1.0520 O.3   1 <1>  -0.3630 
 27 C        4.3960    -5.1710    -0.1400 C.3   1 <1>   0.0400 
 28 H        1.3470     3.2870     1.6200 H     1 <1>   0.0800 
 29 H        1.0250     2.9000    -0.0500 H     1 <1>   0.0800 
 30 H       -0.4200     4.5420     0.7530 H     1 <1>   0.0800 
 31 H       -1.5850     4.7390     2.0250 H     1 <1>   0.0800 
 32 H       -2.9770     2.6120     2.7510 H     1 <1>   0.0800 
 33 H       -2.6510     1.1230     1.9160 H     1 <1>   0.0800 
 34 H        2.0110     0.6590     0.2850 H     1 <1>   0.0800 
 35 H        2.3510     1.0560     1.9460 H     1 <1>   0.0800 
 36 H       -2.1780     4.1180    -0.8740 H     1 <1>   0.0800 
 37 H       -2.5120     5.6090    -0.0400 H     1 <1>   0.0800 
 38 H       -4.7190     2.2170     1.1010 H     1 <1>   0.0800 
 39 H       -3.5370     2.0250    -0.1630 H     1 <1>   0.0800 
 40 H        5.3980     1.8040    -0.2640 H     1 <1>   0.3700 
 41 H       -6.1460     4.3110     1.5390 H     1 <1>   0.1500 
 42 H        4.0040    -0.6850     1.7690 H     1 <1>   0.1500 
 43 H        5.2910     0.1160    -2.2110 H     1 <1>   0.1500 
 44 H       -5.7340     5.5430    -3.0980 H     1 <1>   0.1500 
 45 H       -8.1820     5.1430     0.3600 H     1 <1>   0.1500 
 46 H        4.0630    -3.0700     1.3260 H     1 <1>   0.1500 
 47 H        5.3730    -2.3030    -2.6620 H     1 <1>   0.1500 
 48 H       -7.9190     5.7680    -2.0360 H     1 <1>   0.1500 
 49 H        4.5040    -6.1240    -0.6260 H     1 <1>   0.0800 
 50 H        3.3670    -5.0140     0.1310 H     1 <1>   0.0800 
 51 H        5.0350    -5.1270     0.7230 H     1 <1>   0.0800 
@<TRIPOS>BOND
  1   1   2  2   
  2   2   3  am  
  3   2   4  1   
  4   3   5  1   
  5   3   6  1   
  6   4   7  1   
  7   4  28  1   
  8   4  29  1   
  9   5   8  1   
 10   5  30  1   
 11   5  31  1   
 12   6   9  1   
 13   6  32  1   
 14   6  33  1   
 15   7  10  1   
 16   7  34  1   
 17   7  35  1   
 18   8  11  1   
 19   8  36  1   
 20   8  37  1   
 21   9  11  1   
 22   9  38  1   
 23   9  39  1   
 24  10  12  2   
 25  10  13  am  
 26  11  14  1   
 27  13  15  1   
 28  13  40  1   
 29  14  16  ar  
 30  14  17  ar  
 31  15  18  ar  
 32  15  19  ar  
 33  16  20  ar  
 34  17  21  ar  
 35  17  41  1   
 36  18  22  ar  
 37  18  42  1   
 38  19  23  ar  
 39  19  43  1   
 40  20  24  ar  
 41  20  44  1   
 42  21  24  ar  
 43  21  45  1   
 44  22  25  ar  
 45  22  46  1   
 46  23  25  ar  
 47  23  47  1   
 48  24  48  1   
 49  25  26  1   
 50  26  27  1   
 51  27  49  1   
 52  27  50  1   
 53  27  51  1   
@<TRIPOS>SUBSTRUCTURE
  1 ****   2 GROUP 4 **** **** 0

# MOE 2024.06 (io_trps.svl 2023.06)
