@<TRIPOS>MOLECULE
NONAME
36 36 1 0 0 
SMALL
USER_CHARGES


@<TRIPOS>ATOM
  1 S        0.0920    -0.1410    -0.7260 S.o2  1 <1>   1.3330 
  2 O       -1.1600     0.4570    -0.3300 O.2   1 <1>  -0.6500 
  3 O        0.4980    -0.1380    -2.1090 O.2   1 <1>  -0.6500 
  4 N        1.3350     0.6550     0.1730 N.am  1 <1>  -0.6930 
  5 C        0.1490    -1.7980    -0.0780 C.3   1 <1>  -0.1350 
  6 C        2.6310     0.1670     0.1330 C.ar  1 <1>   0.1990 
  7 C        1.1610     2.1210     0.2200 C.3   1 <1>   0.3340 
  8 C        3.1990    -0.3890     1.2730 C.ar  1 <1>  -0.1500 
  9 C        3.3990     0.2100    -1.0250 C.ar  1 <1>  -0.1500 
 10 C        2.0660     2.7260     1.2790 C.2   1 <1>  -0.2880 
 11 C        4.4870    -0.8870     1.2540 C.ar  1 <1>  -0.1500 
 12 C        4.6870    -0.2880    -1.0420 C.ar  1 <1>  -0.1500 
 13 C        3.0510     3.6030     1.0540 C.2   1 <1>  -0.3000 
 14 C        5.2720    -0.8530     0.0970 C.ar  1 <1>   0.0860 
 15 C        6.6220    -1.3790     0.0940 C.2   1 <1>   0.6340 
 16 O        7.1360    -1.8970     1.0660 O.2   1 <1>  -0.5700 
 17 O        7.3320    -1.2900    -1.0350 O.3   1 <1>  -0.4300 
 18 C        8.6530    -1.7770    -1.1180 C.3   1 <1>   0.1200 
 19 C        9.1670    -1.5170    -2.5300 C.3   1 <1>  -0.2400 
 20 H       -0.6070    -2.3990    -0.5430 H     1 <1>   0.0800 
 21 H       -0.0220    -1.7870     0.9800 H     1 <1>   0.0800 
 22 H        1.1070    -2.2400    -0.2710 H     1 <1>   0.0800 
 23 H        0.1400     2.3650     0.4610 H     1 <1>   0.0800 
 24 H        1.3870     2.5360    -0.7480 H     1 <1>   0.0800 
 25 H        2.6200    -0.4210     2.1770 H     1 <1>   0.1500 
 26 H        2.9770     0.6380    -1.9180 H     1 <1>   0.1500 
 27 H        1.8280     2.3630     2.2640 H     1 <1>   0.1500 
 28 H        4.9040    -1.3110     2.1520 H     1 <1>   0.1500 
 29 H        5.2530    -0.2390    -1.9570 H     1 <1>   0.1500 
 30 H        3.6770     4.0120     1.8290 H     1 <1>   0.1500 
 31 H        3.3170     3.9830     0.0830 H     1 <1>   0.1500 
 32 H        8.6420    -2.8310    -0.8970 H     1 <1>   0.0800 
 33 H        9.2520    -1.2610    -0.3860 H     1 <1>   0.0800 
 34 H        8.5530    -2.0310    -3.2480 H     1 <1>   0.0800 
 35 H       10.1750    -1.8770    -2.6210 H     1 <1>   0.0800 
 36 H        9.1590    -0.4620    -2.7380 H     1 <1>   0.0800 
@<TRIPOS>BOND
  1   1   2  2   
  2   1   3  2   
  3   1   4  am  
  4   1   5  1   
  5   4   6  1   
  6   4   7  1   
  7   5  20  1   
  8   5  21  1   
  9   5  22  1   
 10   6   8  ar  
 11   6   9  ar  
 12   7  10  1   
 13   7  23  1   
 14   7  24  1   
 15   8  11  ar  
 16   8  25  1   
 17   9  12  ar  
 18   9  26  1   
 19  10  13  2   
 20  10  27  1   
 21  11  14  ar  
 22  11  28  1   
 23  12  14  ar  
 24  12  29  1   
 25  13  30  1   
 26  13  31  1   
 27  14  15  1   
 28  15  16  2   
 29  15  17  1   
 30  17  18  1   
 31  18  19  1   
 32  18  32  1   
 33  18  33  1   
 34  19  34  1   
 35  19  35  1   
 36  19  36  1   
@<TRIPOS>SUBSTRUCTURE
  1 ****   9 GROUP 4 **** **** 0

# MOE 2024.06 (io_trps.svl 2023.06)
