@<TRIPOS>MOLECULE
NONAME
32 33 1 0 0 
SMALL
USER_CHARGES


@<TRIPOS>ATOM
  1 S        0.0750     0.0500    -0.5690 S.o2  1 <1>   1.5000 
  2 O        0.1010     0.0030    -2.0150 O.2   1 <1>  -0.6500 
  3 O        0.1740    -1.1820     0.1830 O.2   1 <1>  -0.6500 
  4 N       -1.4060     0.7540    -0.1360 N.am  1 <1>  -0.8490 
  5 C        1.2850     1.2300     0.0780 C.2   1 <1>  -0.0220 
  6 C       -2.5100    -0.2150    -0.2580 C.3   1 <1>   0.1960 
  7 C       -1.7220     1.9420    -0.9520 C.3   1 <1>   0.1960 
  8 S        2.0340     2.3650    -1.0450 S.3   1 <1>  -0.0800 
  9 C        1.7480     1.4680     1.3240 C.2   1 <1>  -0.1500 
 10 C       -3.8510     0.3910     0.1940 C.3   1 <1>   0.1960 
 11 C       -3.0400     2.6000    -0.5050 C.3   1 <1>   0.1960 
 12 C        2.9620     3.1210     0.2360 C.2   1 <1>  -0.1100 
 13 C        2.6980     2.5350     1.4160 C.2   1 <1>  -0.1500 
 14 N       -4.1540     1.6400    -0.5240 N.am  1 <1>  -0.8490 
 15 S       -5.6780     2.3010    -0.2020 S.o2  1 <1>   1.3330 
 16 O       -5.8110     3.4940    -1.0050 O.2   1 <1>  -0.6500 
 17 O       -6.6420     1.2310    -0.2920 O.2   1 <1>  -0.6500 
 18 C       -5.5960     2.8090     1.5050 C.3   1 <1>  -0.1350 
 19 H       -2.3050    -1.0790     0.3520 H     1 <1>   0.0800 
 20 H       -2.5980    -0.5460    -1.2810 H     1 <1>   0.0800 
 21 H       -1.8080     1.6690    -1.9920 H     1 <1>   0.0800 
 22 H       -0.9310     2.6670    -0.8650 H     1 <1>   0.0800 
 23 H        1.4490     0.9200     2.2010 H     1 <1>   0.1500 
 24 H       -3.8060     0.5730     1.2530 H     1 <1>   0.0800 
 25 H       -4.6340    -0.3260     0.0090 H     1 <1>   0.0800 
 26 H       -3.2620     3.4170    -1.1710 H     1 <1>   0.0800 
 27 H       -2.9100     2.9990     0.4860 H     1 <1>   0.0800 
 28 H        3.6150     3.9320    -0.0350 H     1 <1>   0.1500 
 29 H        3.1360     2.8060     2.3620 H     1 <1>   0.1500 
 30 H       -4.8270     3.5420     1.6450 H     1 <1>   0.0800 
 31 H       -5.4050     1.9690     2.1410 H     1 <1>   0.0800 
 32 H       -6.5330     3.2440     1.7940 H     1 <1>   0.0800 
@<TRIPOS>BOND
  1   1   2  2   
  2   1   3  2   
  3   1   4  am  
  4   1   5  1   
  5   4   6  1   
  6   4   7  1   
  7   5   8  1   
  8   5   9  2   
  9   6  10  1   
 10   6  19  1   
 11   6  20  1   
 12   7  11  1   
 13   7  21  1   
 14   7  22  1   
 15   8  12  1   
 16   9  13  1   
 17   9  23  1   
 18  10  14  1   
 19  10  24  1   
 20  10  25  1   
 21  11  14  1   
 22  11  26  1   
 23  11  27  1   
 24  12  13  2   
 25  12  28  1   
 26  13  29  1   
 27  14  15  am  
 28  15  16  2   
 29  15  17  2   
 30  15  18  1   
 31  18  30  1   
 32  18  31  1   
 33  18  32  1   
@<TRIPOS>SUBSTRUCTURE
  1 ****   4 GROUP 4 **** **** 0

# MOE 2024.06 (io_trps.svl 2023.06)
