@<TRIPOS>MOLECULE
NONAME
36 37 1 0 0 
SMALL
USER_CHARGES


@<TRIPOS>ATOM
  1 CL      -0.4030     0.4710    -1.2620 Cl    1 <1>  -0.1770 
  2 C        0.5300     1.7170    -0.4480 C.ar  1 <1>   0.1770 
  3 C        1.8740     1.5160    -0.1890 C.ar  1 <1>   0.1770 
  4 C       -0.1080     2.8990    -0.0760 C.ar  1 <1>   0.1170 
  5 CL       2.6620     0.0270    -0.6580 Cl    1 <1>  -0.1770 
  6 C        2.6230     2.4890     0.4460 C.ar  1 <1>  -0.1500 
  7 N       -1.4800     3.0560    -0.3630 N.am  1 <1>  -0.5470 
  8 C        0.6610     3.8740     0.5590 C.ar  1 <1>  -0.1500 
  9 C        2.0080     3.6730     0.8190 C.ar  1 <1>  -0.1500 
 10 C       -2.4140     3.9550     0.0740 C.2   1 <1>   0.5690 
 11 O       -2.1640     4.8440     0.8490 O.2   1 <1>  -0.5700 
 12 C       -3.8400     3.7890    -0.4580 C.3   1 <1>  -0.0190 
 13 C       -4.6670     5.0900    -0.3790 C.3   1 <1>  -0.1600 
 14 C       -4.5760     2.6560     0.2840 C.3   1 <1>  -0.1600 
 15 C       -6.0940     4.8860    -0.8920 C.3   1 <1>   0.1400 
 16 C       -6.0070     2.4770    -0.2310 C.3   1 <1>   0.1400 
 17 N       -6.7350     3.7720    -0.1400 N.am  1 <1>  -0.6600 
 18 C       -7.8810     3.8820     0.6080 C.2   1 <1>   0.5690 
 19 O       -8.3740     2.9370     1.1750 O.2   1 <1>  -0.5700 
 20 C       -8.5840     5.2110     0.7520 C.3   1 <1>  -0.1790 
 21 H        3.6670     2.3220     0.6430 H     1 <1>   0.1500 
 22 H       -1.8530     2.3130    -0.9570 H     1 <1>   0.3700 
 23 H        0.2160     4.8060     0.8570 H     1 <1>   0.1500 
 24 H        2.5780     4.4430     1.3130 H     1 <1>   0.1500 
 25 H       -3.7660     3.5170    -1.4960 H     1 <1>   0.0800 
 26 H       -4.1860     5.8580    -0.9580 H     1 <1>   0.0800 
 27 H       -4.7130     5.4330     0.6410 H     1 <1>   0.0800 
 28 H       -4.6150     2.8780     1.3370 H     1 <1>   0.0800 
 29 H       -4.0450     1.7290     0.1670 H     1 <1>   0.0800 
 30 H       -6.0750     4.6330    -1.9380 H     1 <1>   0.0800 
 31 H       -6.6450     5.8020    -0.7840 H     1 <1>   0.0800 
 32 H       -6.5030     1.7170     0.3500 H     1 <1>   0.0800 
 33 H       -5.9960     2.1520    -1.2570 H     1 <1>   0.0800 
 34 H       -8.9170     5.5550    -0.2080 H     1 <1>   0.0800 
 35 H       -7.9180     5.9290     1.1910 H     1 <1>   0.0800 
 36 H       -9.4390     5.1000     1.3930 H     1 <1>   0.0800 
@<TRIPOS>BOND
  1   1   2  1   
  2   2   3  ar  
  3   2   4  ar  
  4   3   5  1   
  5   3   6  ar  
  6   4   7  1   
  7   4   8  ar  
  8   6   9  ar  
  9   6  21  1   
 10   7  10  am  
 11   7  22  1   
 12   8   9  ar  
 13   8  23  1   
 14   9  24  1   
 15  10  11  2   
 16  10  12  1   
 17  12  13  1   
 18  12  14  1   
 19  12  25  1   
 20  13  15  1   
 21  13  26  1   
 22  13  27  1   
 23  14  16  1   
 24  14  28  1   
 25  14  29  1   
 26  15  17  1   
 27  15  30  1   
 28  15  31  1   
 29  16  17  1   
 30  16  32  1   
 31  16  33  1   
 32  17  18  am  
 33  18  19  2   
 34  18  20  1   
 35  20  34  1   
 36  20  35  1   
 37  20  36  1   
@<TRIPOS>SUBSTRUCTURE
  1 ****  10 GROUP 4 **** **** 0

# MOE 2024.06 (io_trps.svl 2023.06)
