@<TRIPOS>MOLECULE
NONAME
43 45 1 0 0 
SMALL
USER_CHARGES


@<TRIPOS>ATOM
  1 O        0.9350    -1.3910     2.6830 O.2   1 <1>  -0.5700 
  2 C        0.4060    -1.8820     1.6890 C.2   1 <1>   0.8660 
  3 N       -0.9110    -2.1940     1.7160 N.2   1 <1>  -0.6610 
  4 C        1.1900    -2.1190     0.5350 C.2   1 <1>  -0.2370 
  5 C       -1.4210    -2.7080     0.6370 C.2   1 <1>   0.5500 
  6 N        2.4930    -1.9420     0.2050 N.pl3 1 <1>   0.0480 
  7 C        0.6100    -2.6520    -0.5510 C.2   1 <1>   0.3100 
  8 N       -0.7170    -2.9410    -0.4940 N.pl3 1 <1>  -0.5330 
  9 N       -2.7190    -3.0440     0.6430 N.pl3 1 <1>  -0.8190 
 10 C        2.5790    -2.3940    -1.0720 C.2   1 <1>   0.0360 
 11 C        3.5390    -1.3800     1.0910 C.3   1 <1>   0.2390 
 12 N        1.4590    -2.8330    -1.5650 N.2   1 <1>  -0.5650 
 13 C       -3.6500    -3.3460    -0.5110 C.3   1 <1>   0.1830 
 14 C        4.8940    -1.3420     0.3980 C.ar  1 <1>  -0.1430 
 15 C       -5.0140    -2.6220    -0.3990 C.2   1 <1>   0.9060 
 16 C       -3.8490    -4.8780    -0.6650 C.3   1 <1>  -0.0800 
 17 C        5.2780    -0.2220    -0.3260 C.ar  1 <1>  -0.1500 
 18 C        5.7500    -2.4300     0.4760 C.ar  1 <1>  -0.1500 
 19 O       -5.4040    -2.2250     0.7110 O.co2 1 <1>  -0.9000 
 20 O       -5.6850    -2.4550    -1.4280 O.co2 1 <1>  -0.9000 
 21 C       -4.4160    -5.5350     0.6050 C.3   1 <1>  -0.2400 
 22 C       -2.5620    -5.6050    -1.0890 C.3   1 <1>  -0.2400 
 23 C        6.5060    -0.1910    -0.9630 C.ar  1 <1>  -0.1500 
 24 C        6.9780    -2.3990    -0.1620 C.ar  1 <1>  -0.1500 
 25 C        7.3570    -1.2790    -0.8820 C.ar  1 <1>  -0.1500 
 26 H       -1.1770    -3.3780    -1.2840 H     1 <1>   0.4000 
 27 H       -3.2760    -2.6950     1.4360 H     1 <1>   0.4000 
 28 H        3.5090    -2.3840    -1.6170 H     1 <1>   0.1500 
 29 H        3.5970    -1.9840     1.9780 H     1 <1>   0.0800 
 30 H        3.2450    -0.3880     1.3820 H     1 <1>   0.0800 
 31 H       -3.2110    -2.9710    -1.4160 H     1 <1>   0.0800 
 32 H       -4.5720    -5.0160    -1.4520 H     1 <1>   0.0800 
 33 H        4.6250     0.6300    -0.3990 H     1 <1>   0.1500 
 34 H        5.4670    -3.3080     1.0300 H     1 <1>   0.1500 
 35 H       -3.7210    -5.4460     1.4210 H     1 <1>   0.0800 
 36 H       -4.6160    -6.5770     0.4330 H     1 <1>   0.0800 
 37 H       -5.3370    -5.0570     0.8920 H     1 <1>   0.0800 
 38 H       -1.8190    -5.5390    -0.3140 H     1 <1>   0.0800 
 39 H       -2.1700    -5.1760    -1.9930 H     1 <1>   0.0800 
 40 H       -2.7700    -6.6440    -1.2720 H     1 <1>   0.0800 
 41 H        6.8000     0.6790    -1.5240 H     1 <1>   0.1500 
 42 H        7.6390    -3.2460    -0.0990 H     1 <1>   0.1500 
 43 H        8.3110    -1.2550    -1.3780 H     1 <1>   0.1500 
@<TRIPOS>BOND
  1   1   2  2   
  2   2   3  1   
  3   2   4  1   
  4   3   5  2   
  5   4   6  1   
  6   4   7  2   
  7   5   8  1   
  8   5   9  1   
  9   6  10  1   
 10   6  11  1   
 11   7   8  1   
 12   7  12  1   
 13   8  26  1   
 14   9  13  1   
 15   9  27  1   
 16  10  12  2   
 17  10  28  1   
 18  11  14  1   
 19  11  29  1   
 20  11  30  1   
 21  13  15  1   
 22  13  16  1   
 23  13  31  1   
 24  14  17  ar  
 25  14  18  ar  
 26  15  19  ar  
 27  15  20  ar  
 28  16  21  1   
 29  16  22  1   
 30  16  32  1   
 31  17  23  ar  
 32  17  33  1   
 33  18  24  ar  
 34  18  34  1   
 35  21  35  1   
 36  21  36  1   
 37  21  37  1   
 38  22  38  1   
 39  22  39  1   
 40  22  40  1   
 41  23  25  ar  
 42  23  41  1   
 43  24  25  ar  
 44  24  42  1   
 45  25  43  1   
@<TRIPOS>SUBSTRUCTURE
  1 ****   7 GROUP 4 **** **** 0

# MOE 2024.06 (io_trps.svl 2023.06)
