@<TRIPOS>MOLECULE
ka-07167
54 56 1 0 0 
SMALL
USER_CHARGES


@<TRIPOS>ATOM
  1 S       -0.6260     0.5120    -0.7610 S.o2  1 <1>   1.4470 
  2 O       -1.7270     0.6020     0.1700 O.2   1 <1>  -0.6500 
  3 O       -0.8370     0.8010    -2.1600 O.2   1 <1>  -0.6500 
  4 N        0.5330     1.6270    -0.2900 N.am  1 <1>  -0.9140 
  5 C        0.2550    -1.0610    -0.5670 C.ar  1 <1>  -0.0090 
  6 C        0.0760     3.0180    -0.3750 C.3   1 <1>   0.2760 
  7 C        1.2300    -1.4490    -1.4790 C.ar  1 <1>  -0.1500 
  8 C        0.0030    -1.9040     0.5090 C.ar  1 <1>  -0.1500 
  9 C        1.2470     3.9660    -0.8000 C.3   1 <1>   0.2760 
 10 C       -0.4990     3.4500     0.9820 C.3   1 <1>  -0.1600 
 11 C        1.9250    -2.6370    -1.3260 C.ar  1 <1>  -0.1500 
 12 C        0.6930    -3.0940     0.6670 C.ar  1 <1>  -0.1500 
 13 N        2.5320     3.4610    -0.3230 N.am  1 <1>  -0.9140 
 14 C        1.0950     5.4000    -0.2610 C.3   1 <1>  -0.1600 
 15 C       -1.0870     4.8730     0.9240 C.3   1 <1>  -0.1600 
 16 C        1.6600    -3.4660    -0.2510 C.ar  1 <1>  -0.1430 
 17 S        3.4880     2.8240    -1.5430 S.o2  1 <1>   1.4470 
 18 C       -0.3790     5.7910    -0.0890 C.3   1 <1>  -0.1600 
 19 C        2.4150    -4.7720    -0.0800 C.3   1 <1>  -0.0970 
 20 O        3.7060     3.8910    -2.4920 O.2   1 <1>  -0.6500 
 21 O        2.7710     1.6350    -1.9530 O.2   1 <1>  -0.6500 
 22 C        5.0200     2.3860    -0.6820 C.ar  1 <1>  -0.0090 
 23 C        5.2750     1.0790    -0.2820 C.ar  1 <1>  -0.1500 
 24 C        5.9670     3.3550    -0.3740 C.ar  1 <1>  -0.1500 
 25 C        6.4350     0.7500     0.3960 C.ar  1 <1>  -0.1500 
 26 C        7.1300     3.0320     0.3050 C.ar  1 <1>  -0.1500 
 27 C        7.3690     1.7260     0.6950 C.ar  1 <1>  -0.1430 
 28 C        8.6440     1.3700     1.4380 C.3   1 <1>  -0.0970 
 29 H        1.2070     1.5270    -1.0620 H     1 <1>   0.4200 
 30 H       -0.7030     3.1100    -1.1160 H     1 <1>   0.0800 
 31 H        1.4500    -0.8150    -2.3220 H     1 <1>   0.1500 
 32 H       -0.7450    -1.6260     1.2330 H     1 <1>   0.1500 
 33 H        1.2380     4.0220    -1.8770 H     1 <1>   0.0800 
 34 H        0.2910     3.4250     1.7130 H     1 <1>   0.0800 
 35 H       -1.2680     2.7750     1.3090 H     1 <1>   0.0800 
 36 H        2.6710    -2.9110    -2.0520 H     1 <1>   0.1500 
 37 H        0.4720    -3.7280     1.5080 H     1 <1>   0.1500 
 38 H        2.2730     2.6590     0.2570 H     1 <1>   0.4200 
 39 H        1.5780     6.0820    -0.9390 H     1 <1>   0.0800 
 40 H        1.5800     5.4870     0.6970 H     1 <1>   0.0800 
 41 H       -1.0240     5.3070     1.9080 H     1 <1>   0.0800 
 42 H       -2.1320     4.8190     0.6660 H     1 <1>   0.0800 
 43 H       -0.8730     5.7220    -1.0430 H     1 <1>   0.0800 
 44 H       -0.4520     6.8140     0.2400 H     1 <1>   0.0800 
 45 H        3.3840    -4.7110    -0.5430 H     1 <1>   0.0800 
 46 H        1.8620    -5.5740    -0.5360 H     1 <1>   0.0800 
 47 H        2.5510    -4.9930     0.9630 H     1 <1>   0.0800 
 48 H        4.5600     0.3040    -0.5040 H     1 <1>   0.1500 
 49 H        5.7910     4.3760    -0.6690 H     1 <1>   0.1500 
 50 H        6.6080    -0.2710     0.6910 H     1 <1>   0.1500 
 51 H        7.8470     3.8030     0.5270 H     1 <1>   0.1500 
 52 H        8.4880     0.5100     2.0650 H     1 <1>   0.0800 
 53 H        8.9570     2.1890     2.0600 H     1 <1>   0.0800 
 54 H        9.4260     1.1490     0.7340 H     1 <1>   0.0800 
@<TRIPOS>BOND
  1   1   2  2   
  2   1   3  2   
  3   1   4  am  
  4   1   5  1   
  5   4   6  1   
  6   4  29  1   
  7   5   7  ar  
  8   5   8  ar  
  9   6   9  1   
 10   6  10  1   
 11   6  30  1   
 12   7  11  ar  
 13   7  31  1   
 14   8  12  ar  
 15   8  32  1   
 16   9  13  1   
 17   9  14  1   
 18   9  33  1   
 19  10  15  1   
 20  10  34  1   
 21  10  35  1   
 22  11  16  ar  
 23  11  36  1   
 24  12  16  ar  
 25  12  37  1   
 26  13  17  am  
 27  13  38  1   
 28  14  18  1   
 29  14  39  1   
 30  14  40  1   
 31  15  18  1   
 32  15  41  1   
 33  15  42  1   
 34  16  19  1   
 35  17  20  2   
 36  17  21  2   
 37  17  22  1   
 38  18  43  1   
 39  18  44  1   
 40  19  45  1   
 41  19  46  1   
 42  19  47  1   
 43  22  23  ar  
 44  22  24  ar  
 45  23  25  ar  
 46  23  48  1   
 47  24  26  ar  
 48  24  49  1   
 49  25  27  ar  
 50  25  50  1   
 51  26  27  ar  
 52  26  51  1   
 53  27  28  1   
 54  28  52  1   
 55  28  53  1   
 56  28  54  1   
@<TRIPOS>SUBSTRUCTURE
  1 ****  21 GROUP 4 **** **** 0

# MOE 2024.06 (io_trps.svl 2023.06)
