@<TRIPOS>MOLECULE
NONAME
55 57 1 0 0 
SMALL
USER_CHARGES


@<TRIPOS>ATOM
  1 O       -0.2040     2.4170    -1.1180 O.2   1 <1>  -0.5700 
  2 C       -0.0520     2.8350     0.0140 C.2   1 <1>   0.6900 
  3 N       -0.9730     3.7050     0.5170 N.am  1 <1>  -0.6600 
  4 N        0.9700     2.4560     0.8280 N.am  1 <1>  -0.5470 
  5 C       -1.4990     4.7550    -0.4030 C.3   1 <1>   0.1400 
  6 C       -2.0160     3.1370     1.4170 C.3   1 <1>   0.1400 
  7 C        2.0350     1.5530     0.6660 C.ar  1 <1>   0.1170 
  8 C       -2.6720     4.2050    -1.2390 C.3   1 <1>   0.3430 
  9 C       -3.1910     2.5820     0.5850 C.3   1 <1>   0.3430 
 10 C        2.0910     0.6000    -0.3460 C.ar  1 <1>  -0.1500 
 11 C        3.0820     1.6080     1.5770 C.ar  1 <1>  -0.1500 
 12 N       -3.7490     3.6040    -0.3750 N.4   1 <1>  -0.9590 
 13 C        3.1680    -0.2740    -0.4540 C.ar  1 <1>   0.0830 
 14 C        4.1570     0.7430     1.4890 C.ar  1 <1>  -0.1500 
 15 C       -4.8430     3.0250    -1.2000 C.3   1 <1>   0.4860 
 16 O        3.2520    -1.2110    -1.4440 O.3   1 <1>  -0.3630 
 17 C        4.2110    -0.2070     0.4730 C.ar  1 <1>   0.0830 
 18 C       -5.9860     2.6530    -0.2750 C.ar  1 <1>  -0.1430 
 19 C        2.4120    -1.1610    -2.5760 C.3   1 <1>   0.0400 
 20 O        5.2510    -1.0850     0.3400 O.3   1 <1>  -0.3630 
 21 C       -6.8500     3.6120     0.2510 C.ar  1 <1>  -0.1430 
 22 C       -6.1590     1.3150     0.0560 C.ar  1 <1>  -0.1500 
 23 C        6.3380    -1.0810     1.2380 C.3   1 <1>   0.0400 
 24 C       -7.8550     3.2130     1.1200 C.ar  1 <1>  -0.1500 
 25 C       -6.7500     5.0930    -0.0950 C.3   1 <1>  -0.0970 
 26 C       -7.1660     0.9300     0.9210 C.ar  1 <1>  -0.1500 
 27 C       -8.0120     1.8810     1.4560 C.ar  1 <1>  -0.1500 
 28 H        1.0200     3.0230     1.6690 H     1 <1>   0.3700 
 29 H       -0.7130     5.0760    -1.0660 H     1 <1>   0.0800 
 30 H       -1.8170     5.6110     0.1680 H     1 <1>   0.0800 
 31 H       -2.3660     3.8980     2.0920 H     1 <1>   0.0800 
 32 H       -1.5940     2.3400     2.0070 H     1 <1>   0.0800 
 33 H       -2.2800     3.4510    -1.9040 H     1 <1>   0.0800 
 34 H       -3.0800     4.9980    -1.8430 H     1 <1>   0.0800 
 35 H       -3.9670     2.2450     1.2540 H     1 <1>   0.0800 
 36 H       -2.8380     1.7260     0.0330 H     1 <1>   0.0800 
 37 H        1.2830     0.5410    -1.0440 H     1 <1>   0.1500 
 38 H        3.0640     2.3360     2.3680 H     1 <1>   0.1500 
 39 H       -4.1850     4.3410     0.1910 H     1 <1>   0.4500 
 40 H        4.9410     0.8250     2.2170 H     1 <1>   0.1500 
 41 H       -4.4930     2.1520    -1.7260 H     1 <1>   0.0800 
 42 H       -5.1890     3.7440    -1.9240 H     1 <1>   0.0800 
 43 H        2.7440    -1.9130    -3.2680 H     1 <1>   0.0800 
 44 H        2.4910    -0.1870    -3.0260 H     1 <1>   0.0800 
 45 H        1.4020    -1.3660    -2.2710 H     1 <1>   0.0800 
 46 H       -5.5160     0.5540    -0.3530 H     1 <1>   0.1500 
 47 H        7.0210    -1.8530     0.9340 H     1 <1>   0.0800 
 48 H        5.9730    -1.2850     2.2280 H     1 <1>   0.0800 
 49 H        6.8250    -0.1230     1.1910 H     1 <1>   0.0800 
 50 H       -8.5320     3.9360     1.5420 H     1 <1>   0.1500 
 51 H       -5.9540     5.5570     0.4570 H     1 <1>   0.0800 
 52 H       -7.6660     5.5990     0.1590 H     1 <1>   0.0800 
 53 H       -6.5910     5.2340    -1.1480 H     1 <1>   0.0800 
 54 H       -7.2980    -0.1080     1.1760 H     1 <1>   0.1500 
 55 H       -8.7990     1.5850     2.1300 H     1 <1>   0.1500 
@<TRIPOS>BOND
  1   1   2  2   
  2   2   3  am  
  3   2   4  am  
  4   3   5  1   
  5   3   6  1   
  6   4   7  1   
  7   4  28  1   
  8   5   8  1   
  9   5  29  1   
 10   5  30  1   
 11   6   9  1   
 12   6  31  1   
 13   6  32  1   
 14   7  10  ar  
 15   7  11  ar  
 16   8  12  1   
 17   8  33  1   
 18   8  34  1   
 19   9  12  1   
 20   9  35  1   
 21   9  36  1   
 22  10  13  ar  
 23  10  37  1   
 24  11  14  ar  
 25  11  38  1   
 26  12  15  1   
 27  12  39  1   
 28  13  16  1   
 29  13  17  ar  
 30  14  17  ar  
 31  14  40  1   
 32  15  18  1   
 33  15  41  1   
 34  15  42  1   
 35  16  19  1   
 36  17  20  1   
 37  18  21  ar  
 38  18  22  ar  
 39  19  43  1   
 40  19  44  1   
 41  19  45  1   
 42  20  23  1   
 43  21  24  ar  
 44  21  25  1   
 45  22  26  ar  
 46  22  46  1   
 47  23  47  1   
 48  23  48  1   
 49  23  49  1   
 50  24  27  ar  
 51  24  50  1   
 52  25  51  1   
 53  25  52  1   
 54  25  53  1   
 55  26  27  ar  
 56  26  54  1   
 57  27  55  1   
@<TRIPOS>SUBSTRUCTURE
  1 ****   2 GROUP 4 **** **** 0

# MOE 2024.06 (io_trps.svl 2023.06)
