@<TRIPOS>MOLECULE
NONAME
48 49 1 0 0 
SMALL
USER_CHARGES


@<TRIPOS>ATOM
  1 O       -1.7850     1.0140     0.3780 O.3   1 <1>  -0.3630 
  2 C       -0.9920     2.0550     0.0140 C.ar  1 <1>   0.0830 
  3 C       -1.2600    -0.2780     0.1210 C.3   1 <1>   0.0400 
  4 C       -1.3540     2.7910    -1.1120 C.ar  1 <1>  -0.1440 
  5 C        0.1400     2.3960     0.7530 C.ar  1 <1>  -0.1440 
  6 C       -0.5410     3.8240    -1.5460 C.ar  1 <1>  -0.1500 
  7 C       -2.6490     2.4890    -1.8370 C.3   1 <1>   0.4870 
  8 C        0.9530     3.4340     0.3010 C.ar  1 <1>   0.0820 
  9 C        0.5100     1.6790     2.0530 C.3   1 <1>  -0.0970 
 10 C        0.6100     4.1380    -0.8500 C.ar  1 <1>  -0.1500 
 11 N       -3.7400     2.6090    -0.8250 N.4   1 <1>  -0.9590 
 12 O        2.0700     3.7210     1.0200 O.3   1 <1>  -0.3630 
 13 C       -4.9980     1.9090    -1.2520 C.3   1 <1>   0.3430 
 14 C       -3.8860     4.0340    -0.3990 C.3   1 <1>   0.3430 
 15 C        3.0170     4.6770     0.5950 C.3   1 <1>   0.0400 
 16 C       -5.7500     1.2380    -0.0660 C.3   1 <1>   0.3430 
 17 C       -5.0630     4.2700     0.5490 C.3   1 <1>  -0.1600 
 18 N       -6.2780     2.1560     1.0160 N.4   1 <1>  -0.9590 
 19 C       -5.3100     3.1560     1.5660 C.3   1 <1>   0.3430 
 20 C       -6.8290     1.3320     2.1450 C.3   1 <1>   0.2630 
 21 H       -0.3400    -0.4110     0.6600 H     1 <1>   0.0800 
 22 H       -1.0780    -0.3820    -0.9340 H     1 <1>   0.0800 
 23 H       -1.9750    -1.0130     0.4480 H     1 <1>   0.0800 
 24 H       -0.7860     4.3970    -2.4260 H     1 <1>   0.1500 
 25 H       -2.6030     1.4860    -2.2280 H     1 <1>   0.0800 
 26 H       -2.8010     3.1780    -2.6520 H     1 <1>   0.0800 
 27 H       -0.3220     1.1400     2.4650 H     1 <1>   0.0800 
 28 H        0.8300     2.3900     2.7930 H     1 <1>   0.0800 
 29 H        1.3190     0.9940     1.8730 H     1 <1>   0.0800 
 30 H        1.2270     4.9380    -1.2140 H     1 <1>   0.1500 
 31 H       -3.3070     2.0920    -0.0350 H     1 <1>   0.4500 
 32 H       -4.7430     1.1300    -1.9520 H     1 <1>   0.0800 
 33 H       -5.6530     2.5960    -1.7620 H     1 <1>   0.0800 
 34 H       -4.0030     4.6670    -1.2650 H     1 <1>   0.0800 
 35 H       -2.9760     4.3390     0.0980 H     1 <1>   0.0800 
 36 H        3.3890     4.3950    -0.3740 H     1 <1>   0.0800 
 37 H        3.8240     4.6850     1.3060 H     1 <1>   0.0800 
 38 H        2.5490     5.6450     0.5650 H     1 <1>   0.0800 
 39 H       -5.0830     0.5180     0.3800 H     1 <1>   0.0800 
 40 H       -6.5790     0.6800    -0.4740 H     1 <1>   0.0800 
 41 H       -5.9560     4.4820    -0.0110 H     1 <1>   0.0800 
 42 H       -4.8360     5.1690     1.0970 H     1 <1>   0.0800 
 43 H       -7.0790     2.6880     0.6370 H     1 <1>   0.4500 
 44 H       -5.7380     3.6010     2.4520 H     1 <1>   0.0800 
 45 H       -4.3840     2.6820     1.8530 H     1 <1>   0.0800 
 46 H       -6.0460     0.7570     2.6120 H     1 <1>   0.0800 
 47 H       -7.5860     0.6530     1.7840 H     1 <1>   0.0800 
 48 H       -7.2770     1.9690     2.8920 H     1 <1>   0.0800 
@<TRIPOS>BOND
  1   1   2  1   
  2   1   3  1   
  3   2   4  ar  
  4   2   5  ar  
  5   3  21  1   
  6   3  22  1   
  7   3  23  1   
  8   4   6  ar  
  9   4   7  1   
 10   5   8  ar  
 11   5   9  1   
 12   6  10  ar  
 13   6  24  1   
 14   7  11  1   
 15   7  25  1   
 16   7  26  1   
 17   8  10  ar  
 18   8  12  1   
 19   9  27  1   
 20   9  28  1   
 21   9  29  1   
 22  10  30  1   
 23  11  13  1   
 24  11  14  1   
 25  11  31  1   
 26  12  15  1   
 27  13  16  1   
 28  13  32  1   
 29  13  33  1   
 30  14  17  1   
 31  14  34  1   
 32  14  35  1   
 33  15  36  1   
 34  15  37  1   
 35  15  38  1   
 36  16  18  1   
 37  16  39  1   
 38  16  40  1   
 39  17  19  1   
 40  17  41  1   
 41  17  42  1   
 42  18  19  1   
 43  18  20  1   
 44  18  43  1   
 45  19  44  1   
 46  19  45  1   
 47  20  46  1   
 48  20  47  1   
 49  20  48  1   
@<TRIPOS>SUBSTRUCTURE
  1 ****   2 GROUP 4 **** **** 0

# MOE 2024.06 (io_trps.svl 2023.06)
