@<TRIPOS>MOLECULE
NONAME
46 47 1 0 0 
SMALL
USER_CHARGES


@<TRIPOS>ATOM
  1 O       -0.0570    -1.5590    -0.2020 O.3   1 <1>  -0.3630 
  2 C       -1.3080    -2.0540    -0.0260 C.ar  1 <1>   0.0830 
  3 C        0.1520    -0.1910    -0.4830 C.3   1 <1>   0.1200 
  4 C       -2.4620    -1.2780    -0.0740 C.ar  1 <1>  -0.1500 
  5 C       -1.4130    -3.4150     0.2150 C.ar  1 <1>  -0.1500 
  6 C        1.6600     0.0470    -0.6340 C.3   1 <1>   0.2000 
  7 C       -3.7050    -1.8570     0.1150 C.ar  1 <1>   0.0830 
  8 C       -2.6530    -3.9990     0.4060 C.ar  1 <1>  -0.1500 
  9 O        2.3210    -0.4950     0.4720 O.3   1 <1>  -0.6800 
 10 C        2.0250     1.5420    -0.7360 C.3   1 <1>   0.3430 
 11 O       -4.7760    -1.0270     0.0510 O.3   1 <1>  -0.3620 
 12 C       -3.8000    -3.2260     0.3570 C.ar  1 <1>  -0.1500 
 13 N        3.4460     1.7330    -0.3290 N.4   1 <1>  -0.9060 
 14 C       -6.0890    -1.5100     0.2370 C.3   1 <1>   0.0400 
 15 C        3.8130     3.0400     0.2160 C.3   1 <1>   0.5660 
 16 C        5.3290     3.1000     0.2060 C.ar  1 <1>  -0.1430 
 17 C        3.2340     3.1990     1.6180 C.3   1 <1>  -0.2400 
 18 C        6.1050     2.2380     0.9750 C.ar  1 <1>  -0.1500 
 19 C        5.9610     4.0320    -0.6070 C.ar  1 <1>  -0.1500 
 20 C        7.4860     2.3080     0.9270 C.ar  1 <1>  -0.1500 
 21 C        7.3420     4.1000    -0.6530 C.ar  1 <1>  -0.1500 
 22 C        8.1050     3.2380     0.1120 C.ar  1 <1>  -0.1500 
 23 H       -0.2470     0.3870     0.3330 H     1 <1>   0.0800 
 24 H       -0.3670     0.0520    -1.3940 H     1 <1>   0.0800 
 25 H       -2.4350    -0.2220    -0.2570 H     1 <1>   0.1500 
 26 H       -0.5230    -4.0160     0.2520 H     1 <1>   0.1500 
 27 H        2.0090    -0.4730    -1.5110 H     1 <1>   0.0800 
 28 H       -2.7250    -5.0570     0.5920 H     1 <1>   0.1500 
 29 H        1.9120    -1.3710     0.6750 H     1 <1>   0.4000 
 30 H        1.3810     2.0890    -0.0690 H     1 <1>   0.0800 
 31 H        1.8570     1.9040    -1.7380 H     1 <1>   0.0800 
 32 H       -4.7490    -3.7030     0.5080 H     1 <1>   0.1500 
 33 H        4.1030     1.5020    -1.0810 H     1 <1>   0.4500 
 34 H        3.6090     1.0160     0.3980 H     1 <1>   0.4500 
 35 H       -6.7660    -0.6800     0.1450 H     1 <1>   0.0800 
 36 H       -6.1680    -1.9390     1.2200 H     1 <1>   0.0800 
 37 H       -6.3030    -2.2410    -0.5230 H     1 <1>   0.0800 
 38 H        3.4330     3.8230    -0.4220 H     1 <1>   0.0800 
 39 H        3.5310     2.3900     2.2610 H     1 <1>   0.0800 
 40 H        2.1620     3.2570     1.5900 H     1 <1>   0.0800 
 41 H        3.6000     4.1150     2.0480 H     1 <1>   0.0800 
 42 H        5.6560     1.5060     1.6230 H     1 <1>   0.1500 
 43 H        5.3940     4.7190    -1.2120 H     1 <1>   0.1500 
 44 H        8.0840     1.6410     1.5250 H     1 <1>   0.1500 
 45 H        7.8290     4.8260    -1.2840 H     1 <1>   0.1500 
 46 H        9.1800     3.2920     0.0760 H     1 <1>   0.1500 
@<TRIPOS>BOND
  1   1   2  1   
  2   1   3  1   
  3   2   4  ar  
  4   2   5  ar  
  5   3   6  1   
  6   3  23  1   
  7   3  24  1   
  8   4   7  ar  
  9   4  25  1   
 10   5   8  ar  
 11   5  26  1   
 12   6   9  1   
 13   6  10  1   
 14   6  27  1   
 15   7  11  1   
 16   7  12  ar  
 17   8  12  ar  
 18   8  28  1   
 19   9  29  1   
 20  10  13  1   
 21  10  30  1   
 22  10  31  1   
 23  11  14  1   
 24  12  32  1   
 25  13  15  1   
 26  13  33  1   
 27  13  34  1   
 28  14  35  1   
 29  14  36  1   
 30  14  37  1   
 31  15  16  1   
 32  15  17  1   
 33  15  38  1   
 34  16  18  ar  
 35  16  19  ar  
 36  17  39  1   
 37  17  40  1   
 38  17  41  1   
 39  18  20  ar  
 40  18  42  1   
 41  19  21  ar  
 42  19  43  1   
 43  20  22  ar  
 44  20  44  1   
 45  21  22  ar  
 46  21  45  1   
 47  22  46  1   
@<TRIPOS>SUBSTRUCTURE
  1 ****   6 GROUP 4 **** **** 0

# MOE 2024.06 (io_trps.svl 2023.06)
