@<TRIPOS>MOLECULE
NONAME
42 44 1 0 0 
SMALL
USER_CHARGES


@<TRIPOS>ATOM
  1 CL      -1.2430     3.0660     2.8040 Cl    1 <1>  -0.1770 
  2 C       -0.1130     2.9100     1.4780 C.ar  1 <1>   0.1770 
  3 C       -0.5720     2.7280     0.1810 C.ar  1 <1>  -0.1440 
  4 C        1.2380     2.9760     1.7620 C.ar  1 <1>  -0.1500 
  5 C        0.3580     2.6030    -0.8410 C.ar  1 <1>  -0.1500 
  6 C       -2.0620     2.6460    -0.1340 C.3   1 <1>   0.0890 
  7 C        2.1560     2.8550     0.7340 C.ar  1 <1>  -0.1500 
  8 C        1.7140     2.6680    -0.5650 C.ar  1 <1>  -0.1500 
  9 S       -2.6770     0.9610    -0.2520 S.o2  1 <1>   1.3330 
 10 O       -2.4240     0.2320     0.9720 O.2   1 <1>  -0.6500 
 11 O       -2.2350     0.4110    -1.5150 O.2   1 <1>  -0.6500 
 12 N       -4.3550     1.1800    -0.3590 N.am  1 <1>  -0.8490 
 13 C       -5.0060     0.0600    -1.0720 C.3   1 <1>   0.1960 
 14 C       -4.9930     1.3320     0.9690 C.3   1 <1>   0.1960 
 15 C       -6.5270     0.2650    -1.2290 C.3   1 <1>   0.2090 
 16 C       -6.5080     1.5950     0.8630 C.3   1 <1>   0.2090 
 17 N       -7.1880     0.5160     0.0880 N.pl3 1 <1>  -0.8380 
 18 C       -8.5770     0.5400     0.0890 C.ar  1 <1>   0.1000 
 19 C       -9.2900     1.5370    -0.5740 C.ar  1 <1>  -0.1500 
 20 C       -9.2710    -0.4540     0.7720 C.ar  1 <1>  -0.1500 
 21 C      -10.6750     1.5430    -0.5580 C.ar  1 <1>  -0.1500 
 22 C      -10.6540    -0.4630     0.7980 C.ar  1 <1>  -0.1500 
 23 C      -11.3310     0.5400     0.1300 C.ar  1 <1>   0.1900 
 24 F      -12.6400     0.5400     0.1490 F     1 <1>  -0.1900 
 25 H        1.5650     3.1180     2.7760 H     1 <1>   0.1500 
 26 H        0.0340     2.4450    -1.8570 H     1 <1>   0.1500 
 27 H       -2.2450     3.1430    -1.0660 H     1 <1>   0.0800 
 28 H       -2.6160     3.1750     0.6130 H     1 <1>   0.0800 
 29 H        3.2110     2.9040     0.9420 H     1 <1>   0.1500 
 30 H        2.4280     2.5690    -1.3650 H     1 <1>   0.1500 
 31 H       -4.8290    -0.8610    -0.5420 H     1 <1>   0.0800 
 32 H       -4.5810    -0.0400    -2.0560 H     1 <1>   0.0800 
 33 H       -4.5370     2.1490     1.5010 H     1 <1>   0.0800 
 34 H       -4.8460     0.4380     1.5530 H     1 <1>   0.0800 
 35 H       -6.9590    -0.6120    -1.6790 H     1 <1>   0.0800 
 36 H       -6.7020     1.0990    -1.8850 H     1 <1>   0.0800 
 37 H       -6.6720     2.5440     0.3840 H     1 <1>   0.0800 
 38 H       -6.9320     1.6380     1.8510 H     1 <1>   0.0800 
 39 H       -8.7550     2.3050    -1.1010 H     1 <1>   0.1500 
 40 H       -8.7090    -1.2180     1.2800 H     1 <1>   0.1500 
 41 H      -11.2380     2.3050    -1.0650 H     1 <1>   0.1500 
 42 H      -11.1990    -1.2260     1.3230 H     1 <1>   0.1500 
@<TRIPOS>BOND
  1   1   2  1   
  2   2   3  ar  
  3   2   4  ar  
  4   3   5  ar  
  5   3   6  1   
  6   4   7  ar  
  7   4  25  1   
  8   5   8  ar  
  9   5  26  1   
 10   6   9  1   
 11   6  27  1   
 12   6  28  1   
 13   7   8  ar  
 14   7  29  1   
 15   8  30  1   
 16   9  10  2   
 17   9  11  2   
 18   9  12  am  
 19  12  13  1   
 20  12  14  1   
 21  13  15  1   
 22  13  31  1   
 23  13  32  1   
 24  14  16  1   
 25  14  33  1   
 26  14  34  1   
 27  15  17  1   
 28  15  35  1   
 29  15  36  1   
 30  16  17  1   
 31  16  37  1   
 32  16  38  1   
 33  17  18  1   
 34  18  19  ar  
 35  18  20  ar  
 36  19  21  ar  
 37  19  39  1   
 38  20  22  ar  
 39  20  40  1   
 40  21  23  ar  
 41  21  41  1   
 42  22  23  ar  
 43  22  42  1   
 44  23  24  1   
@<TRIPOS>SUBSTRUCTURE
  1 ****  12 GROUP 4 **** **** 0

# MOE 2024.06 (io_trps.svl 2023.06)
