@<TRIPOS>MOLECULE
NONAME
48 49 1 0 0 
SMALL
USER_CHARGES


@<TRIPOS>ATOM
  1 O        0.3380     0.6690     0.6480 O.2   1 <1>  -0.5700 
  2 C       -0.7460     1.0570     0.2470 C.2   1 <1>   0.5440 
  3 N       -1.6570     0.1450    -0.2170 N.am  1 <1>  -0.7300 
  4 C       -1.0730     2.4720     0.2300 C.ar  1 <1>   0.0860 
  5 C       -1.5710    -1.3180    -0.2840 C.3   1 <1>   0.3000 
  6 C       -0.1110     3.4560    -0.0730 C.ar  1 <1>   0.1170 
  7 C       -2.3780     2.8880     0.5090 C.ar  1 <1>  -0.1500 
  8 C       -2.9030    -1.8020    -0.8550 C.3   1 <1>  -0.2400 
  9 C       -1.3780    -1.8950     1.1180 C.3   1 <1>  -0.2400 
 10 C       -0.4350    -1.7270    -1.2220 C.3   1 <1>  -0.2400 
 11 N        1.2130     3.0640    -0.3210 N.am  1 <1>  -0.5470 
 12 C       -0.4940     4.7950    -0.1040 C.ar  1 <1>  -0.1500 
 13 C       -2.7400     4.2200     0.4740 C.ar  1 <1>  -0.1500 
 14 C        2.3160     3.6940    -0.8230 C.2   1 <1>   0.5690 
 15 C       -1.7920     5.1770     0.1620 C.ar  1 <1>  -0.1500 
 16 O        2.3300     4.8330    -1.2150 O.2   1 <1>  -0.5700 
 17 C        3.5940     2.8880    -0.8790 C.3   1 <1>  -0.0990 
 18 C        4.2540     2.7960     0.5010 C.3   1 <1>  -0.0170 
 19 C        5.4710     1.8890     0.4420 C.ar  1 <1>  -0.1440 
 20 C        6.7120     2.4030     0.1030 C.ar  1 <1>  -0.1500 
 21 C        5.3460     0.5370     0.7200 C.ar  1 <1>  -0.1500 
 22 C        7.8190     1.5740     0.0440 C.ar  1 <1>  -0.1500 
 23 C        6.4520    -0.2940     0.6600 C.ar  1 <1>  -0.1500 
 24 C        7.6890     0.2250     0.3220 C.ar  1 <1>  -0.1500 
 25 H       -2.5000     0.5080    -0.6590 H     1 <1>   0.3700 
 26 H       -3.1240     2.1570     0.7670 H     1 <1>   0.1500 
 27 H       -3.0630    -1.4010    -1.8400 H     1 <1>   0.0800 
 28 H       -3.7170    -1.5100    -0.2150 H     1 <1>   0.0800 
 29 H       -2.9040    -2.8750    -0.9270 H     1 <1>   0.0800 
 30 H       -2.1570    -1.5560     1.7760 H     1 <1>   0.0800 
 31 H       -0.4260    -1.6030     1.5240 H     1 <1>   0.0800 
 32 H       -1.4030    -2.9690     1.0830 H     1 <1>   0.0800 
 33 H       -0.5620    -1.2760    -2.1890 H     1 <1>   0.0800 
 34 H       -0.4210    -2.7950    -1.3420 H     1 <1>   0.0800 
 35 H        0.5160    -1.4290    -0.8200 H     1 <1>   0.0800 
 36 H        1.3760     2.0830    -0.0510 H     1 <1>   0.3700 
 37 H        0.2280     5.5570    -0.3340 H     1 <1>   0.1500 
 38 H       -3.7520     4.5180     0.6900 H     1 <1>   0.1500 
 39 H       -2.0650     6.2180     0.1310 H     1 <1>   0.1500 
 40 H        4.2720     3.3530    -1.5720 H     1 <1>   0.0800 
 41 H        3.3730     1.9020    -1.2450 H     1 <1>   0.0800 
 42 H        3.5530     2.4070     1.2200 H     1 <1>   0.0800 
 43 H        4.5450     3.7790     0.8290 H     1 <1>   0.0800 
 44 H        6.8220     3.4510    -0.1160 H     1 <1>   0.1500 
 45 H        4.3880     0.1230     0.9830 H     1 <1>   0.1500 
 46 H        8.7800     1.9790    -0.2200 H     1 <1>   0.1500 
 47 H        6.3490    -1.3420     0.8780 H     1 <1>   0.1500 
 48 H        8.5490    -0.4200     0.2760 H     1 <1>   0.1500 
@<TRIPOS>BOND
  1   1   2  2   
  2   2   3  am  
  3   2   4  1   
  4   3   5  1   
  5   3  25  1   
  6   4   6  ar  
  7   4   7  ar  
  8   5   8  1   
  9   5   9  1   
 10   5  10  1   
 11   6  11  1   
 12   6  12  ar  
 13   7  13  ar  
 14   7  26  1   
 15   8  27  1   
 16   8  28  1   
 17   8  29  1   
 18   9  30  1   
 19   9  31  1   
 20   9  32  1   
 21  10  33  1   
 22  10  34  1   
 23  10  35  1   
 24  11  14  am  
 25  11  36  1   
 26  12  15  ar  
 27  12  37  1   
 28  13  15  ar  
 29  13  38  1   
 30  14  16  2   
 31  14  17  1   
 32  15  39  1   
 33  17  18  1   
 34  17  40  1   
 35  17  41  1   
 36  18  19  1   
 37  18  42  1   
 38  18  43  1   
 39  19  20  ar  
 40  19  21  ar  
 41  20  22  ar  
 42  20  44  1   
 43  21  23  ar  
 44  21  45  1   
 45  22  24  ar  
 46  22  46  1   
 47  23  24  ar  
 48  23  47  1   
 49  24  48  1   
@<TRIPOS>SUBSTRUCTURE
  1 ****  11 GROUP 4 **** **** 0

# MOE 2024.06 (io_trps.svl 2023.06)
