@<TRIPOS>MOLECULE
NONAME
48 51 1 0 0 
SMALL
USER_CHARGES


@<TRIPOS>ATOM
  1 O       -3.1740    -0.2130     1.7940 O.2   1 <1>  -0.5700 
  2 C       -3.1790    -1.3500     1.3870 C.2   1 <1>   0.5690 
  3 N       -4.3650    -2.0100     1.3410 N.am  1 <1>  -0.7300 
  4 C       -1.8320    -1.9590     0.9690 C.3   1 <1>   0.1710 
  5 C       -4.7710    -3.3510     0.8830 C.3   1 <1>   0.3000 
  6 N       -1.4260    -1.6290    -0.4210 N.3   1 <1>  -0.9000 
  7 C       -4.2730    -3.6520    -0.5440 C.3   1 <1>  -0.1600 
  8 C       -6.3120    -3.3720     0.8730 C.3   1 <1>  -0.1600 
  9 C       -4.2750    -4.4330     1.8620 C.3   1 <1>  -0.1600 
 10 C       -0.0910    -2.1310    -0.7490 C.3   1 <1>   0.2530 
 11 C       -4.7700    -5.0380    -0.9970 C.3   1 <1>  -0.0800 
 12 C       -6.8330    -4.7510     0.4240 C.3   1 <1>  -0.0800 
 13 C       -4.7710    -5.8210     1.4090 C.3   1 <1>  -0.0800 
 14 C       -0.0700    -3.6530    -0.7170 C.ar  1 <1>  -0.1430 
 15 C       -6.3100    -5.0500    -0.9930 C.3   1 <1>  -0.1600 
 16 C       -4.2500    -6.1050    -0.0140 C.3   1 <1>  -0.1600 
 17 C       -6.3110    -5.8280     1.3940 C.3   1 <1>  -0.1600 
 18 C       -0.7600    -4.3750    -1.6800 C.ar  1 <1>  -0.1500 
 19 C        0.6280    -4.3350     0.2690 C.ar  1 <1>  -0.1500 
 20 C       -0.7530    -5.7580    -1.6600 C.ar  1 <1>  -0.1500 
 21 C        0.6350    -5.7190     0.2910 C.ar  1 <1>  -0.1500 
 22 C       -0.0550    -6.4320    -0.6730 C.ar  1 <1>  -0.1500 
 23 H       -5.1530    -1.4430     1.6490 H     1 <1>   0.3700 
 24 H       -1.8680    -3.0220     1.0900 H     1 <1>   0.0800 
 25 H       -1.0880    -1.5840     1.6490 H     1 <1>   0.0800 
 26 H       -1.4310    -0.6040    -0.5040 H     1 <1>   0.3600 
 27 H       -3.2030    -3.6580    -0.5770 H     1 <1>   0.0800 
 28 H       -4.6240    -2.8960    -1.2230 H     1 <1>   0.0800 
 29 H       -6.6810    -2.6190     0.2000 H     1 <1>   0.0800 
 30 H       -6.6870    -3.1580     1.8580 H     1 <1>   0.0800 
 31 H       -4.6400    -4.2250     2.8510 H     1 <1>   0.0800 
 32 H       -3.2030    -4.4500     1.8980 H     1 <1>   0.0800 
 33 H        0.6320    -1.7300    -0.0580 H     1 <1>   0.0800 
 34 H        0.1740    -1.8000    -1.7380 H     1 <1>   0.0800 
 35 H       -4.4050    -5.2470    -1.9880 H     1 <1>   0.0800 
 36 H       -7.9100    -4.7530     0.4220 H     1 <1>   0.0800 
 37 H       -4.4100    -6.5760     2.0860 H     1 <1>   0.0800 
 38 H       -6.6670    -6.0120    -1.3190 H     1 <1>   0.0800 
 39 H       -6.6820    -4.3130    -1.6830 H     1 <1>   0.0800 
 40 H       -3.1730    -6.1040    -0.0130 H     1 <1>   0.0800 
 41 H       -4.5730    -7.0810    -0.3320 H     1 <1>   0.0800 
 42 H       -6.6680    -6.7960     1.0890 H     1 <1>   0.0800 
 43 H       -6.6870    -5.6400     2.3850 H     1 <1>   0.0800 
 44 H       -1.3110    -3.8510    -2.4430 H     1 <1>   0.1500 
 45 H        1.1690    -3.7920     1.0230 H     1 <1>   0.1500 
 46 H       -1.2930    -6.3080    -2.4110 H     1 <1>   0.1500 
 47 H        1.1790    -6.2420     1.0580 H     1 <1>   0.1500 
 48 H       -0.0500    -7.5070    -0.6570 H     1 <1>   0.1500 
@<TRIPOS>BOND
  1   1   2  2   
  2   2   3  am  
  3   2   4  1   
  4   3   5  1   
  5   3  23  1   
  6   4   6  1   
  7   4  24  1   
  8   4  25  1   
  9   5   7  1   
 10   5   8  1   
 11   5   9  1   
 12   6  10  1   
 13   6  26  1   
 14   7  11  1   
 15   7  27  1   
 16   7  28  1   
 17   8  12  1   
 18   8  29  1   
 19   8  30  1   
 20   9  13  1   
 21   9  31  1   
 22   9  32  1   
 23  10  14  1   
 24  10  33  1   
 25  10  34  1   
 26  11  15  1   
 27  11  16  1   
 28  11  35  1   
 29  12  15  1   
 30  12  17  1   
 31  12  36  1   
 32  13  16  1   
 33  13  17  1   
 34  13  37  1   
 35  14  18  ar  
 36  14  19  ar  
 37  15  38  1   
 38  15  39  1   
 39  16  40  1   
 40  16  41  1   
 41  17  42  1   
 42  17  43  1   
 43  18  20  ar  
 44  18  44  1   
 45  19  21  ar  
 46  19  45  1   
 47  20  22  ar  
 48  20  46  1   
 49  21  22  ar  
 50  21  47  1   
 51  22  48  1   
@<TRIPOS>SUBSTRUCTURE
  1 ****   7 GROUP 4 **** **** 0

# MOE 2024.06 (io_trps.svl 2023.06)
