@<TRIPOS>MOLECULE
NONAME
46 48 1 0 0 
SMALL
USER_CHARGES


@<TRIPOS>ATOM
  1 O        0.4980     1.6080    -2.5320 O.2   1 <1>  -0.5700 
  2 C        0.5490     1.9040    -1.3560 C.2   1 <1>   0.5690 
  3 N        1.6300     1.4790    -0.6060 N.am  1 <1>  -0.6600 
  4 C       -0.6160     2.7650    -0.7730 C.3   1 <1>   0.2040 
  5 C        2.8390     0.9240    -1.2840 C.3   1 <1>   0.2840 
  6 C        1.7130     1.4400     0.8830 C.3   1 <1>   0.0600 
  7 C       -1.4700     1.8840     0.1780 C.ar  1 <1>  -0.1440 
  8 C       -0.0310     4.0500    -0.1200 C.3   1 <1>  -0.1600 
  9 C       -1.5410     3.2610    -1.9190 C.3   1 <1>  -0.1600 
 10 C        4.0840     1.6830    -0.8450 C.ar  1 <1>  -0.1440 
 11 C       -1.9810     0.6880    -0.3180 C.ar  1 <1>  -0.1500 
 12 C       -1.7480     2.2010     1.5070 C.ar  1 <1>  -0.1500 
 13 C       -1.0680     5.1510     0.1640 C.3   1 <1>   0.1200 
 14 C       -2.5360     4.3190    -1.4480 C.3   1 <1>   0.1200 
 15 C        4.2480     3.0110    -1.2100 C.ar  1 <1>  -0.1500 
 16 C        5.0620     1.0640    -0.0800 C.ar  1 <1>  -0.1500 
 17 C       -2.7530    -0.1490     0.4670 C.ar  1 <1>  -0.1500 
 18 C       -2.5210     1.3670     2.2960 C.ar  1 <1>  -0.1500 
 19 O       -1.8130     5.4100    -0.9780 O.3   1 <1>  -0.5600 
 20 C        5.3740     3.7130    -0.8160 C.ar  1 <1>  -0.1500 
 21 C        6.1890     1.7640     0.3150 C.ar  1 <1>  -0.1500 
 22 C       -3.0270     0.1910     1.7770 C.ar  1 <1>  -0.1500 
 23 C        6.3460     3.0890    -0.0530 C.ar  1 <1>  -0.1500 
 24 H        2.7540     0.9990    -2.3540 H     1 <1>   0.0800 
 25 H        2.9300    -0.1190    -1.0390 H     1 <1>   0.0800 
 26 H        2.1940     0.5300     1.1970 H     1 <1>   0.0800 
 27 H        2.2950     2.2750     1.2350 H     1 <1>   0.0800 
 28 H        0.7420     1.4680     1.3330 H     1 <1>   0.0800 
 29 H        0.7000     4.4680    -0.7910 H     1 <1>   0.0800 
 30 H        0.4860     3.8180     0.7900 H     1 <1>   0.0800 
 31 H       -2.0790     2.4410    -2.3580 H     1 <1>   0.0800 
 32 H       -0.9480     3.7010    -2.7020 H     1 <1>   0.0800 
 33 H       -1.7780     0.3910    -1.3340 H     1 <1>   0.1500 
 34 H       -1.3660     3.0910     1.9660 H     1 <1>   0.1500 
 35 H       -0.5730     6.0650     0.4410 H     1 <1>   0.0800 
 36 H       -1.7520     4.8850     0.9490 H     1 <1>   0.0800 
 37 H       -3.1750     3.9490    -0.6630 H     1 <1>   0.0800 
 38 H       -3.1440     4.6570    -2.2690 H     1 <1>   0.0800 
 39 H        3.4930     3.4990    -1.8030 H     1 <1>   0.1500 
 40 H        4.9520     0.0340     0.2110 H     1 <1>   0.1500 
 41 H       -3.1380    -1.0660     0.0570 H     1 <1>   0.1500 
 42 H       -2.7280     1.6330     3.3180 H     1 <1>   0.1500 
 43 H        5.4940     4.7420    -1.1040 H     1 <1>   0.1500 
 44 H        6.9450     1.2780     0.9070 H     1 <1>   0.1500 
 45 H       -3.6300    -0.4570     2.3900 H     1 <1>   0.1500 
 46 H        7.2220     3.6330     0.2530 H     1 <1>   0.1500 
@<TRIPOS>BOND
  1   1   2  2   
  2   2   3  am  
  3   2   4  1   
  4   3   5  1   
  5   3   6  1   
  6   4   7  1   
  7   4   8  1   
  8   4   9  1   
  9   5  10  1   
 10   5  24  1   
 11   5  25  1   
 12   6  26  1   
 13   6  27  1   
 14   6  28  1   
 15   7  11  ar  
 16   7  12  ar  
 17   8  13  1   
 18   8  29  1   
 19   8  30  1   
 20   9  14  1   
 21   9  31  1   
 22   9  32  1   
 23  10  15  ar  
 24  10  16  ar  
 25  11  17  ar  
 26  11  33  1   
 27  12  18  ar  
 28  12  34  1   
 29  13  19  1   
 30  13  35  1   
 31  13  36  1   
 32  14  19  1   
 33  14  37  1   
 34  14  38  1   
 35  15  20  ar  
 36  15  39  1   
 37  16  21  ar  
 38  16  40  1   
 39  17  22  ar  
 40  17  41  1   
 41  18  22  ar  
 42  18  42  1   
 43  20  23  ar  
 44  20  43  1   
 45  21  23  ar  
 46  21  44  1   
 47  22  45  1   
 48  23  46  1   
@<TRIPOS>SUBSTRUCTURE
  1 ****   2 GROUP 4 **** **** 0

# MOE 2024.06 (io_trps.svl 2023.06)
