@<TRIPOS>MOLECULE
NONAME
35 36 1 0 0 
SMALL
USER_CHARGES


@<TRIPOS>ATOM
  1 O        2.1100    -1.0550     1.8460 O.3   1 <1>  -0.6800 
  2 C        1.9030    -0.8200     0.5000 C.3   1 <1>   0.4240 
  3 C        2.0980     0.6880     0.2460 C.ar  1 <1>  -0.1440 
  4 C        2.9030    -1.6870    -0.2980 C.3   1 <1>  -0.0800 
  5 C        0.4700    -1.2960     0.2300 C.3   1 <1>  -0.1600 
  6 C        2.9280     1.4570     1.0630 C.ar  1 <1>  -0.1500 
  7 C        1.4670     1.3260    -0.8190 C.ar  1 <1>  -0.1500 
  8 C        2.6860    -3.1660     0.0440 C.3   1 <1>   0.3430 
  9 C        4.3840    -1.3180    -0.0700 C.3   1 <1>  -0.2400 
 10 C        0.3130    -2.7740     0.5770 C.3   1 <1>   0.3430 
 11 C        3.0990     2.8110     0.8380 C.ar  1 <1>  -0.1500 
 12 C        1.6380     2.6810    -1.0450 C.ar  1 <1>  -0.1500 
 13 N        1.2750    -3.5860    -0.2270 N.4   1 <1>  -0.9590 
 14 C        2.4520     3.4260    -0.2150 C.ar  1 <1>  -0.1500 
 15 C        1.1030    -5.0400     0.0700 C.3   1 <1>   0.2630 
 16 H        1.8980    -0.2280     2.3250 H     1 <1>   0.4000 
 17 H        2.7060    -1.5490    -1.3460 H     1 <1>   0.0800 
 18 H        0.2090    -1.1640    -0.8020 H     1 <1>   0.0800 
 19 H       -0.2180    -0.7110     0.8150 H     1 <1>   0.0800 
 20 H        3.4690     1.0170     1.8830 H     1 <1>   0.1500 
 21 H        0.8330     0.7920    -1.5010 H     1 <1>   0.1500 
 22 H        2.9150    -3.3160     1.0870 H     1 <1>   0.0800 
 23 H        3.3660    -3.7670    -0.5390 H     1 <1>   0.0800 
 24 H        4.6460    -1.3940     0.9720 H     1 <1>   0.0800 
 25 H        4.5770    -0.3100    -0.3940 H     1 <1>   0.0800 
 26 H        5.0300    -1.9690    -0.6330 H     1 <1>   0.0800 
 27 H       -0.6980    -3.0880     0.3740 H     1 <1>   0.0800 
 28 H        0.5080    -2.9140     1.6290 H     1 <1>   0.0800 
 29 H        3.7410     3.3880     1.4820 H     1 <1>   0.1500 
 30 H        1.1390     3.1590    -1.8710 H     1 <1>   0.1500 
 31 H        1.0790    -3.4280    -1.2250 H     1 <1>   0.4500 
 32 H        2.5840     4.4800    -0.3900 H     1 <1>   0.1500 
 33 H        1.3050    -5.2350     1.1110 H     1 <1>   0.0800 
 34 H        1.7810    -5.6270    -0.5290 H     1 <1>   0.0800 
 35 H        0.0940    -5.3500    -0.1490 H     1 <1>   0.0800 
@<TRIPOS>BOND
  1   1   2  1   
  2   1  16  1   
  3   2   3  1   
  4   2   4  1   
  5   2   5  1   
  6   3   6  ar  
  7   3   7  ar  
  8   4   8  1   
  9   4   9  1   
 10   4  17  1   
 11   5  10  1   
 12   5  18  1   
 13   5  19  1   
 14   6  11  ar  
 15   6  20  1   
 16   7  12  ar  
 17   7  21  1   
 18   8  13  1   
 19   8  22  1   
 20   8  23  1   
 21   9  24  1   
 22   9  25  1   
 23   9  26  1   
 24  10  13  1   
 25  10  27  1   
 26  10  28  1   
 27  11  14  ar  
 28  11  29  1   
 29  12  14  ar  
 30  12  30  1   
 31  13  15  1   
 32  13  31  1   
 33  14  32  1   
 34  15  33  1   
 35  15  34  1   
 36  15  35  1   
@<TRIPOS>SUBSTRUCTURE
  1 ****   2 GROUP 4 **** **** 0

# MOE 2024.06 (io_trps.svl 2023.06)
