@<TRIPOS>MOLECULE
NONAME
43 43 1 0 0 
SMALL
USER_CHARGES


@<TRIPOS>ATOM
  1 O        8.3430    -0.8300    -0.1740 O.3   1 <1>  -0.3630 
  2 C        9.5090    -0.1320    -0.2130 C.ar  1 <1>   0.0830 
  3 C        8.3000    -2.2250    -0.0320 C.3   1 <1>   0.1200 
  4 C        9.4500     1.2580    -0.3550 C.ar  1 <1>  -0.1440 
  5 C       10.7470    -0.7660    -0.1150 C.ar  1 <1>  -0.1500 
  6 C        6.8250    -2.6230    -0.0320 C.3   1 <1>  -0.1600 
  7 C       10.6380     1.9760    -0.3950 C.ar  1 <1>  -0.1500 
  8 C        8.1370     2.0480    -0.4700 C.3   1 <1>   0.0640 
  9 C       11.9170    -0.0310    -0.1580 C.ar  1 <1>  -0.1500 
 10 C        6.6710    -4.1350     0.1100 C.3   1 <1>   0.3430 
 11 C       11.8630     1.3410    -0.2980 C.ar  1 <1>  -0.1500 
 12 C        7.2980     1.9360     0.8170 C.3   1 <1>  -0.1600 
 13 C        7.3580     1.6580    -1.7360 C.3   1 <1>  -0.2400 
 14 N        5.2280    -4.5040     0.2130 N.4   1 <1>  -0.9590 
 15 C        6.1090     2.9080     0.8610 C.3   1 <1>  -0.2400 
 16 C        5.0770    -5.9140     0.6880 C.3   1 <1>   0.2630 
 17 C        4.4960    -4.3110    -1.0810 C.3   1 <1>   0.2630 
 18 H        8.7770    -2.4830     0.8980 H     1 <1>   0.0800 
 19 H        8.8260    -2.6630    -0.8630 H     1 <1>   0.0800 
 20 H       10.8300    -1.8280    -0.0050 H     1 <1>   0.1500 
 21 H        6.3910    -2.2880    -0.9570 H     1 <1>   0.0800 
 22 H        6.3420    -2.1290     0.7920 H     1 <1>   0.0800 
 23 H       10.6230     3.0470    -0.5040 H     1 <1>   0.1500 
 24 H        8.3920     3.0880    -0.5820 H     1 <1>   0.0800 
 25 H       12.8700    -0.5260    -0.0820 H     1 <1>   0.1500 
 26 H        7.1870    -4.4540     1.0020 H     1 <1>   0.0800 
 27 H        7.1210    -4.6330    -0.7350 H     1 <1>   0.0800 
 28 H       12.7710     1.9170    -0.3310 H     1 <1>   0.1500 
 29 H        7.9390     2.1440     1.6570 H     1 <1>   0.0800 
 30 H        6.9310     0.9330     0.9330 H     1 <1>   0.0800 
 31 H        6.9310     0.6780    -1.6390 H     1 <1>   0.0800 
 32 H        8.0190     1.6630    -2.5830 H     1 <1>   0.0800 
 33 H        6.5670     2.3600    -1.9230 H     1 <1>   0.0800 
 34 H        4.8000    -3.8820     0.9180 H     1 <1>   0.4500 
 35 H        6.4460     3.9210     0.7290 H     1 <1>   0.0800 
 36 H        5.6150     2.8360     1.8130 H     1 <1>   0.0800 
 37 H        5.3940     2.6750     0.0920 H     1 <1>   0.0800 
 38 H        5.5160    -6.5980    -0.0210 H     1 <1>   0.0800 
 39 H        4.0340    -6.1610     0.8030 H     1 <1>   0.0800 
 40 H        5.5650    -6.0440     1.6400 H     1 <1>   0.0800 
 41 H        4.9350    -4.9200    -1.8540 H     1 <1>   0.0800 
 42 H        4.5380    -3.2790    -1.3890 H     1 <1>   0.0800 
 43 H        3.4600    -4.5900    -0.9690 H     1 <1>   0.0800 
@<TRIPOS>BOND
  1   1   2  1   
  2   1   3  1   
  3   2   4  ar  
  4   2   5  ar  
  5   3   6  1   
  6   3  18  1   
  7   3  19  1   
  8   4   7  ar  
  9   4   8  1   
 10   5   9  ar  
 11   5  20  1   
 12   6  10  1   
 13   6  21  1   
 14   6  22  1   
 15   7  11  ar  
 16   7  23  1   
 17   8  12  1   
 18   8  13  1   
 19   8  24  1   
 20   9  11  ar  
 21   9  25  1   
 22  10  14  1   
 23  10  26  1   
 24  10  27  1   
 25  11  28  1   
 26  12  15  1   
 27  12  29  1   
 28  12  30  1   
 29  13  31  1   
 30  13  32  1   
 31  13  33  1   
 32  14  16  1   
 33  14  17  1   
 34  14  34  1   
 35  15  35  1   
 36  15  36  1   
 37  15  37  1   
 38  16  38  1   
 39  16  39  1   
 40  16  40  1   
 41  17  41  1   
 42  17  42  1   
 43  17  43  1   
@<TRIPOS>SUBSTRUCTURE
  1 ****   1 GROUP 4 **** **** 0

# MOE 2024.06 (io_trps.svl 2023.06)
