@<TRIPOS>MOLECULE
NONAME
39 40 1 0 0 
SMALL
USER_CHARGES


@<TRIPOS>ATOM
  1 CL       3.8950     0.0170     0.4730 Cl    1 <1>  -0.1770 
  2 C        2.5230    -1.0730     0.3610 C.ar  1 <1>   0.1770 
  3 C        2.6460    -2.3470    -0.2020 C.ar  1 <1>   0.0820 
  4 C        1.3100    -0.6200     0.8440 C.ar  1 <1>  -0.1500 
  5 O        3.8280    -2.8110    -0.6840 O.3   1 <1>  -0.3630 
  6 C        1.5240    -3.1680    -0.2980 C.ar  1 <1>  -0.1440 
  7 C        0.2130    -1.4530     0.7510 C.ar  1 <1>   0.1770 
  8 C        4.8970    -2.9910     0.2140 C.3   1 <1>   0.1200 
  9 C        0.3060    -2.7120     0.1870 C.ar  1 <1>  -0.1500 
 10 C        1.6180    -4.5510    -0.9270 C.3   1 <1>  -0.0960 
 11 CL      -1.3270    -0.9000     1.3580 Cl    1 <1>  -0.1770 
 12 C        6.1210    -2.2880    -0.3810 C.3   1 <1>  -0.1600 
 13 C        7.0050    -1.7220     0.7280 C.3   1 <1>   0.3430 
 14 N        8.0020    -0.7740     0.1590 N.4   1 <1>  -0.9590 
 15 C        9.1440    -0.5520     1.1130 C.3   1 <1>   0.3430 
 16 C        7.3690     0.5500    -0.2000 C.3   1 <1>   0.3430 
 17 C       10.1200     0.5200     0.5900 C.3   1 <1>   0.1200 
 18 C        8.4220     1.5770    -0.6580 C.3   1 <1>   0.1200 
 19 O        9.4310     1.7010     0.3020 O.3   1 <1>  -0.5600 
 20 H        1.2170     0.3570     1.2780 H     1 <1>   0.1500 
 21 H        5.0650    -4.0490     0.3250 H     1 <1>   0.0800 
 22 H        4.6210    -2.5790     1.1710 H     1 <1>   0.0800 
 23 H       -0.5770    -3.3250     0.1300 H     1 <1>   0.1500 
 24 H        2.2800    -5.1720    -0.3520 H     1 <1>   0.0800 
 25 H        2.0020    -4.4720    -1.9290 H     1 <1>   0.0800 
 26 H        0.6540    -5.0250    -0.9700 H     1 <1>   0.0800 
 27 H        5.7760    -1.4950    -1.0190 H     1 <1>   0.0800 
 28 H        6.6760    -2.9920    -0.9750 H     1 <1>   0.0800 
 29 H        7.5080    -2.5350     1.2260 H     1 <1>   0.0800 
 30 H        6.3950    -1.2070     1.4540 H     1 <1>   0.0800 
 31 H        8.3880    -1.1810    -0.7030 H     1 <1>   0.4500 
 32 H        9.6800    -1.4740     1.2690 H     1 <1>   0.0800 
 33 H        8.7640    -0.2240     2.0670 H     1 <1>   0.0800 
 34 H        6.8550     0.9530     0.6580 H     1 <1>   0.0800 
 35 H        6.6420     0.4170    -0.9830 H     1 <1>   0.0800 
 36 H       10.6280     0.1870    -0.2990 H     1 <1>   0.0800 
 37 H       10.8580     0.7470     1.3400 H     1 <1>   0.0800 
 38 H        7.9660     2.5450    -0.7790 H     1 <1>   0.0800 
 39 H        8.8660     1.2890    -1.5960 H     1 <1>   0.0800 
@<TRIPOS>BOND
  1   1   2  1   
  2   2   3  ar  
  3   2   4  ar  
  4   3   5  1   
  5   3   6  ar  
  6   4   7  ar  
  7   4  20  1   
  8   5   8  1   
  9   6   9  ar  
 10   6  10  1   
 11   7   9  ar  
 12   7  11  1   
 13   8  12  1   
 14   8  21  1   
 15   8  22  1   
 16   9  23  1   
 17  10  24  1   
 18  10  25  1   
 19  10  26  1   
 20  12  13  1   
 21  12  27  1   
 22  12  28  1   
 23  13  14  1   
 24  13  29  1   
 25  13  30  1   
 26  14  15  1   
 27  14  16  1   
 28  14  31  1   
 29  15  17  1   
 30  15  32  1   
 31  15  33  1   
 32  16  18  1   
 33  16  34  1   
 34  16  35  1   
 35  17  19  1   
 36  17  36  1   
 37  17  37  1   
 38  18  19  1   
 39  18  38  1   
 40  18  39  1   
@<TRIPOS>SUBSTRUCTURE
  1 ****   1 GROUP 4 **** **** 0

# MOE 2024.06 (io_trps.svl 2023.06)
