@<TRIPOS>MOLECULE
NONAME
37 38 1 0 0 
SMALL
USER_CHARGES


@<TRIPOS>ATOM
  1 O       -0.3010     0.6790     0.0650 O.3   1 <1>  -0.5600 
  2 C        0.4750    -0.4750     0.2230 C.3   1 <1>   0.4800 
  3 C       -1.6600     0.6340     0.4420 C.3   1 <1>   0.2000 
  4 O        1.7210    -0.1710    -0.3620 O.3   1 <1>  -0.3630 
  5 C       -0.1910    -1.6560    -0.5130 C.3   1 <1>   0.2000 
  6 C       -2.1180    -0.7640     0.9460 C.3   1 <1>   0.2000 
  7 C       -2.4950     1.1850    -0.7330 C.3   1 <1>   0.1200 
  8 C        2.8180    -0.9370    -0.1400 C.ar  1 <1>   0.0820 
  9 O       -0.3580    -1.3460    -1.8740 O.3   1 <1>  -0.6800 
 10 C       -1.5590    -1.9500     0.1240 C.3   1 <1>   0.2000 
 11 O       -3.5080    -0.8520     0.9800 O.3   1 <1>  -0.6800 
 12 O       -2.6880     0.2240    -1.7200 O.3   1 <1>  -0.6800 
 13 C        3.9500    -0.6200    -0.8730 C.ar  1 <1>  -0.1500 
 14 C        2.8650    -1.9980     0.7620 C.ar  1 <1>  -0.1500 
 15 O       -1.4380    -3.0400     0.9810 O.3   1 <1>  -0.6800 
 16 C        5.1140    -1.3520    -0.7210 C.ar  1 <1>  -0.1500 
 17 C        4.0320    -2.7280     0.9110 C.ar  1 <1>  -0.1500 
 18 C        5.1610    -2.4100     0.1730 C.ar  1 <1>  -0.1430 
 19 C        6.4360    -3.2160     0.3390 C.3   1 <1>  -0.0970 
 20 H        0.6100    -0.6620     1.2740 H     1 <1>   0.0800 
 21 H       -1.7560     1.3250     1.2610 H     1 <1>   0.0800 
 22 H        0.4280    -2.5340    -0.4600 H     1 <1>   0.0800 
 23 H       -1.7800    -0.8580     1.9640 H     1 <1>   0.0800 
 24 H       -2.0040     2.0360    -1.1730 H     1 <1>   0.0800 
 25 H       -3.4670     1.4900    -0.3870 H     1 <1>   0.0800 
 26 H        0.4950    -1.0000    -2.2180 H     1 <1>   0.4000 
 27 H       -2.2480    -2.2300    -0.6540 H     1 <1>   0.0800 
 28 H       -3.8540    -0.7070     0.0700 H     1 <1>   0.4000 
 29 H       -1.8170    -0.1760    -1.9780 H     1 <1>   0.4000 
 30 H        3.9150     0.2020    -1.5640 H     1 <1>   0.1500 
 31 H        2.0180    -2.2780     1.3580 H     1 <1>   0.1500 
 32 H       -2.3230    -3.2550     1.3460 H     1 <1>   0.4000 
 33 H        5.9830    -1.0940    -1.3010 H     1 <1>   0.1500 
 34 H        4.0590    -3.5480     1.6060 H     1 <1>   0.1500 
 35 H        7.2960    -2.6040     0.1380 H     1 <1>   0.0800 
 36 H        6.4330    -4.0470    -0.3430 H     1 <1>   0.0800 
 37 H        6.5150    -3.5910     1.3440 H     1 <1>   0.0800 
@<TRIPOS>BOND
  1   1   2  1   
  2   1   3  1   
  3   2   4  1   
  4   2   5  1   
  5   2  20  1   
  6   3   6  1   
  7   3   7  1   
  8   3  21  1   
  9   4   8  1   
 10   5   9  1   
 11   5  10  1   
 12   5  22  1   
 13   6  10  1   
 14   6  11  1   
 15   6  23  1   
 16   7  12  1   
 17   7  24  1   
 18   7  25  1   
 19   8  13  ar  
 20   8  14  ar  
 21   9  26  1   
 22  10  15  1   
 23  10  27  1   
 24  11  28  1   
 25  12  29  1   
 26  13  16  ar  
 27  13  30  1   
 28  14  17  ar  
 29  14  31  1   
 30  15  32  1   
 31  16  18  ar  
 32  16  33  1   
 33  17  18  ar  
 34  17  34  1   
 35  18  19  1   
 36  19  35  1   
 37  19  36  1   
 38  19  37  1   
@<TRIPOS>SUBSTRUCTURE
  1 ****   2 GROUP 4 **** **** 0

# MOE 2024.06 (io_trps.svl 2023.06)
