@<TRIPOS>MOLECULE
NONAME
41 43 1 0 0 
SMALL
USER_CHARGES


@<TRIPOS>ATOM
  1 F       -0.7490     1.7120    -3.5090 F     1 <1>  -0.1900 
  2 C       -1.3060     2.3630    -2.5240 C.ar  1 <1>   0.1900 
  3 C       -1.3840     3.7410    -2.5950 C.ar  1 <1>  -0.1500 
  4 C       -1.7960     1.6510    -1.4460 C.ar  1 <1>  -0.1500 
  5 C       -1.9750     4.4260    -1.5460 C.ar  1 <1>  -0.1500 
  6 C       -2.3840     2.3470    -0.4040 C.ar  1 <1>  -0.1500 
  7 C       -2.4740     3.7340    -0.4480 C.ar  1 <1>  -0.1430 
  8 C       -3.1220     4.4950     0.7010 C.3   1 <1>   0.2840 
  9 N       -4.5660     4.6880     0.4230 N.am  1 <1>  -0.4200 
 10 C       -4.9870     5.8170    -0.2640 C.2   1 <1>   0.6900 
 11 C       -5.4610     3.7040     0.7900 C.2   1 <1>   0.7150 
 12 O       -4.1820     6.6940    -0.5340 O.2   1 <1>  -0.5700 
 13 N       -6.3130     5.9560    -0.6330 N.am  1 <1>  -0.4230 
 14 O       -5.0990     2.7360     1.4380 O.2   1 <1>  -0.5700 
 15 C       -6.8110     3.8690     0.4010 C.2   1 <1>  -0.2370 
 16 C       -7.2170     4.9580    -0.2870 C.2   1 <1>   0.2900 
 17 C       -6.8170     7.1330    -1.3890 C.3   1 <1>   0.0600 
 18 N       -7.9240     3.1080     0.5740 N.pl3 1 <1>   0.0480 
 19 N       -8.5270     4.9390    -0.5630 N.2   1 <1>  -0.5650 
 20 C       -8.9100     3.8130    -0.0290 C.2   1 <1>   0.2490 
 21 C       -8.0130     1.8060     1.2660 C.3   1 <1>   0.0160 
 22 O      -10.1740     3.3470    -0.0510 O.3   1 <1>  -0.3430 
 23 C      -11.1710     4.1100    -0.6910 C.3   1 <1>   0.1200 
 24 C      -12.4960     3.3620    -0.5720 C.3   1 <1>  -0.2400 
 25 H       -0.9940     4.2610    -3.4510 H     1 <1>   0.1500 
 26 H       -1.7190     0.5790    -1.4280 H     1 <1>   0.1500 
 27 H       -2.0480     5.5000    -1.5890 H     1 <1>   0.1500 
 28 H       -2.7760     1.8050     0.4410 H     1 <1>   0.1500 
 29 H       -2.6360     5.4470     0.8280 H     1 <1>   0.0800 
 30 H       -2.9920     3.9510     1.6200 H     1 <1>   0.0800 
 31 H       -6.0190     7.8160    -1.6230 H     1 <1>   0.0800 
 32 H       -7.5550     7.6460    -0.7980 H     1 <1>   0.0800 
 33 H       -7.2720     6.8000    -2.3040 H     1 <1>   0.0800 
 34 H       -7.7000     1.9250     2.2870 H     1 <1>   0.0800 
 35 H       -7.3690     1.1000     0.7750 H     1 <1>   0.0800 
 36 H       -9.0260     1.4470     1.2400 H     1 <1>   0.0800 
 37 H      -10.8900     4.2380    -1.7230 H     1 <1>   0.0800 
 38 H      -11.2250     5.0710    -0.2080 H     1 <1>   0.0800 
 39 H      -12.4220     2.4010    -1.0490 H     1 <1>   0.0800 
 40 H      -13.2750     3.9250    -1.0540 H     1 <1>   0.0800 
 41 H      -12.7560     3.2330     0.4630 H     1 <1>   0.0800 
@<TRIPOS>BOND
  1   1   2  1   
  2   2   3  ar  
  3   2   4  ar  
  4   3   5  ar  
  5   3  25  1   
  6   4   6  ar  
  7   4  26  1   
  8   5   7  ar  
  9   5  27  1   
 10   6   7  ar  
 11   6  28  1   
 12   7   8  1   
 13   8   9  1   
 14   8  29  1   
 15   8  30  1   
 16   9  10  am  
 17   9  11  am  
 18  10  12  2   
 19  10  13  am  
 20  11  14  2   
 21  11  15  1   
 22  13  16  1   
 23  13  17  1   
 24  15  16  2   
 25  15  18  1   
 26  16  19  1   
 27  17  31  1   
 28  17  32  1   
 29  17  33  1   
 30  18  20  1   
 31  18  21  1   
 32  19  20  2   
 33  20  22  1   
 34  21  34  1   
 35  21  35  1   
 36  21  36  1   
 37  22  23  1   
 38  23  24  1   
 39  23  37  1   
 40  23  38  1   
 41  24  39  1   
 42  24  40  1   
 43  24  41  1   
@<TRIPOS>SUBSTRUCTURE
  1 ****  11 GROUP 4 **** **** 0

# MOE 2024.06 (io_trps.svl 2023.06)
