@<TRIPOS>MOLECULE
NONAME
46 48 1 0 0 
SMALL
USER_CHARGES


@<TRIPOS>ATOM
  1 S       -1.8400     1.9470    -1.9940 S.3   1 <1>  -0.0800 
  2 C       -0.3230     2.1320    -1.1250 C.2   1 <1>   0.1040 
  3 C       -2.6920     1.4880    -0.5320 C.2   1 <1>  -0.1100 
  4 N        0.8270     2.4950    -1.8040 N.am  1 <1>  -0.4940 
  5 C       -0.4930     1.8590     0.2050 C.2   1 <1>  -0.0860 
  6 C       -1.8520     1.4910     0.5160 C.2   1 <1>  -0.1500 
  7 C        1.0780     2.9900    -3.0560 C.2   1 <1>   0.5690 
  8 C        0.5420     1.9350     1.1970 C.2   1 <1>   0.8060 
  9 O        0.2330     3.2320    -3.8820 O.2   1 <1>  -0.5700 
 10 C        2.5470     3.2560    -3.3940 C.3   1 <1>   0.1710 
 11 O        1.6800     2.2970     0.9550 O.2   1 <1>  -0.5700 
 12 O        0.2340     1.5940     2.4550 O.3   1 <1>  -0.4300 
 13 N        3.4500     3.2300    -2.2040 N.3   1 <1>  -0.8100 
 14 C        1.1910     1.6400     3.4970 C.3   1 <1>   0.0400 
 15 C        4.8640     3.0450    -2.6030 C.3   1 <1>   0.1100 
 16 C        3.3330     4.4700    -1.3930 C.3   1 <1>   0.1100 
 17 C        5.8020     2.9750    -1.3810 C.3   1 <1>   0.2090 
 18 C        4.2320     4.4240    -0.1430 C.3   1 <1>   0.2090 
 19 N        5.6570     4.1830    -0.5170 N.pl3 1 <1>  -0.8380 
 20 C        6.5750     4.2930     0.5210 C.ar  1 <1>   0.1000 
 21 C        7.5290     5.3000     0.4870 C.ar  1 <1>  -0.1500 
 22 C        6.5660     3.4160     1.6010 C.ar  1 <1>  -0.1500 
 23 C        8.4540     5.4340     1.5070 C.ar  1 <1>  -0.1500 
 24 C        7.4890     3.5450     2.6230 C.ar  1 <1>  -0.1500 
 25 C        8.4350     4.5550     2.5770 C.ar  1 <1>  -0.1500 
 26 H       -3.7410     1.2650    -0.6230 H     1 <1>   0.1500 
 27 H        1.7010     2.4510    -1.2590 H     1 <1>   0.3700 
 28 H       -2.1380     1.2430     1.5240 H     1 <1>   0.1500 
 29 H        2.6250     4.2040    -3.8960 H     1 <1>   0.0800 
 30 H        2.8490     2.4910    -4.0860 H     1 <1>   0.0800 
 31 H        0.7180     1.3240     4.4090 H     1 <1>   0.0800 
 32 H        1.5500     2.6500     3.5970 H     1 <1>   0.0800 
 33 H        2.0050     0.9780     3.2540 H     1 <1>   0.0800 
 34 H        5.1780     3.8610    -3.2320 H     1 <1>   0.0800 
 35 H        4.9620     2.1310    -3.1620 H     1 <1>   0.0800 
 36 H        2.3160     4.6090    -1.0740 H     1 <1>   0.0800 
 37 H        3.6160     5.3240    -1.9850 H     1 <1>   0.0800 
 38 H        6.8220     2.9020    -1.7150 H     1 <1>   0.0800 
 39 H        5.5710     2.0930    -0.8100 H     1 <1>   0.0800 
 40 H        3.8900     3.6400     0.5100 H     1 <1>   0.0800 
 41 H        4.1590     5.3570     0.3860 H     1 <1>   0.0800 
 42 H        7.5320     5.9750    -0.3480 H     1 <1>   0.1500 
 43 H        5.8310     2.6340     1.6340 H     1 <1>   0.1500 
 44 H        9.1860     6.2200     1.4680 H     1 <1>   0.1500 
 45 H        7.4720     2.8610     3.4530 H     1 <1>   0.1500 
 46 H        9.1540     4.6570     3.3710 H     1 <1>   0.1500 
@<TRIPOS>BOND
  1   1   2  1   
  2   1   3  1   
  3   2   4  1   
  4   2   5  2   
  5   3   6  2   
  6   3  26  1   
  7   4   7  am  
  8   4  27  1   
  9   5   6  1   
 10   5   8  1   
 11   6  28  1   
 12   7   9  2   
 13   7  10  1   
 14   8  11  2   
 15   8  12  1   
 16  10  13  1   
 17  10  29  1   
 18  10  30  1   
 19  12  14  1   
 20  13  15  1   
 21  13  16  1   
 22  14  31  1   
 23  14  32  1   
 24  14  33  1   
 25  15  17  1   
 26  15  34  1   
 27  15  35  1   
 28  16  18  1   
 29  16  36  1   
 30  16  37  1   
 31  17  19  1   
 32  17  38  1   
 33  17  39  1   
 34  18  19  1   
 35  18  40  1   
 36  18  41  1   
 37  19  20  1   
 38  20  21  ar  
 39  20  22  ar  
 40  21  23  ar  
 41  21  42  1   
 42  22  24  ar  
 43  22  43  1   
 44  23  25  ar  
 45  23  44  1   
 46  24  25  ar  
 47  24  45  1   
 48  25  46  1   
@<TRIPOS>SUBSTRUCTURE
  1 ****  16 GROUP 4 **** **** 0

# MOE 2024.06 (io_trps.svl 2023.06)
