@<TRIPOS>MOLECULE
NONAME
35 36 1 0 0 
SMALL
USER_CHARGES


@<TRIPOS>ATOM
  1 BR      -0.3350    -1.5270     0.5610 Br    1 <1>  -0.1110 
  2 C       -2.1490    -0.8810     0.5050 C.ar  1 <1>   0.1110 
  3 C       -2.9100    -1.1240    -0.6210 C.ar  1 <1>  -0.1500 
  4 C       -2.6450    -0.1890     1.5930 C.ar  1 <1>  -0.1500 
  5 C       -4.2130    -0.6570    -0.6530 C.ar  1 <1>  -0.1500 
  6 C       -3.9490     0.2720     1.5440 C.ar  1 <1>  -0.1500 
  7 C       -4.7480     0.0490     0.4240 C.ar  1 <1>   0.1170 
  8 N       -6.0670     0.5310     0.4400 N.am  1 <1>  -0.5470 
  9 C       -6.9400     0.7990    -0.5790 C.2   1 <1>   0.5690 
 10 O       -6.6690     0.6810    -1.7470 O.2   1 <1>  -0.5700 
 11 C       -8.3260     1.2930    -0.2090 C.3   1 <1>  -0.0990 
 12 C       -9.3840     0.1730    -0.1940 C.3   1 <1>  -0.0800 
 13 C      -10.7810     0.7740     0.0490 C.3   1 <1>  -0.1600 
 14 C       -9.0720    -0.9070     0.8620 C.3   1 <1>  -0.1600 
 15 C      -11.8650    -0.3110     0.0850 C.3   1 <1>  -0.1600 
 16 C      -10.1610    -1.9880     0.9010 C.3   1 <1>  -0.1600 
 17 C      -11.5460    -1.3770     1.1400 C.3   1 <1>  -0.1600 
 18 H       -2.4950    -1.6660    -1.4520 H     1 <1>   0.1500 
 19 H       -2.0230    -0.0180     2.4530 H     1 <1>   0.1500 
 20 H       -4.8130    -0.8480    -1.5240 H     1 <1>   0.1500 
 21 H       -4.3450     0.8140     2.3830 H     1 <1>   0.1500 
 22 H       -6.4320     0.7270     1.3690 H     1 <1>   0.3700 
 23 H       -8.6080     2.0310    -0.9370 H     1 <1>   0.0800 
 24 H       -8.2930     1.7810     0.7480 H     1 <1>   0.0800 
 25 H       -9.3850    -0.2960    -1.1650 H     1 <1>   0.0800 
 26 H      -11.0140     1.4760    -0.7330 H     1 <1>   0.0800 
 27 H      -10.7880     1.3070     0.9840 H     1 <1>   0.0800 
 28 H       -8.9960    -0.4520     1.8340 H     1 <1>   0.0800 
 29 H       -8.1320    -1.3810     0.6390 H     1 <1>   0.0800 
 30 H      -11.9350    -0.7770    -0.8830 H     1 <1>   0.0800 
 31 H      -12.8180     0.1390     0.3040 H     1 <1>   0.0800 
 32 H       -9.9390    -2.6950     1.6820 H     1 <1>   0.0800 
 33 H      -10.1650    -2.5220    -0.0340 H     1 <1>   0.0800 
 34 H      -12.2930    -2.1520     1.1070 H     1 <1>   0.0800 
 35 H      -11.5770    -0.9310     2.1200 H     1 <1>   0.0800 
@<TRIPOS>BOND
  1   1   2  1   
  2   2   3  ar  
  3   2   4  ar  
  4   3   5  ar  
  5   3  18  1   
  6   4   6  ar  
  7   4  19  1   
  8   5   7  ar  
  9   5  20  1   
 10   6   7  ar  
 11   6  21  1   
 12   7   8  1   
 13   8   9  am  
 14   8  22  1   
 15   9  10  2   
 16   9  11  1   
 17  11  12  1   
 18  11  23  1   
 19  11  24  1   
 20  12  13  1   
 21  12  14  1   
 22  12  25  1   
 23  13  15  1   
 24  13  26  1   
 25  13  27  1   
 26  14  16  1   
 27  14  28  1   
 28  14  29  1   
 29  15  17  1   
 30  15  30  1   
 31  15  31  1   
 32  16  17  1   
 33  16  32  1   
 34  16  33  1   
 35  17  34  1   
 36  17  35  1   
@<TRIPOS>SUBSTRUCTURE
  1 ****   8 GROUP 4 **** **** 0

# MOE 2024.06 (io_trps.svl 2023.06)
