@<TRIPOS>MOLECULE
NONAME
57 59 1 0 0 
SMALL
USER_CHARGES


@<TRIPOS>ATOM
  1 S        0.7020     0.0170     2.9670 S.2   1 <1>  -0.3800 
  2 C        1.8560     0.9970     2.4090 C.2   1 <1>   0.5000 
  3 N        3.1240     0.8480     2.8210 N.am  1 <1>  -0.5390 
  4 N        1.5610     1.9650     1.5460 N.am  1 <1>  -0.7300 
  5 C        4.1870     1.5990     2.3470 C.2   1 <1>  -0.0290 
  6 C        2.5400     2.9650     1.0700 C.3   1 <1>   0.5020 
  7 C        3.9880     2.6110     1.4530 C.2   1 <1>  -0.1240 
  8 C        5.5260     1.1440     2.9120 C.3   1 <1>  -0.1020 
  9 C        2.1230     4.3130     1.6700 C.ar  1 <1>  -0.1440 
 10 C        5.0000     3.3930     0.7790 C.2   1 <1>   0.6160 
 11 C        1.8000     5.4000     0.8620 C.ar  1 <1>   0.0830 
 12 C        2.0710     4.4550     3.0510 C.ar  1 <1>  -0.1500 
 13 O        6.1660     3.0490     0.8150 O.2   1 <1>  -0.5700 
 14 N        4.6860     4.5250     0.0560 N.am  1 <1>  -0.5470 
 15 O        1.8850     5.1930    -0.4810 O.3   1 <1>  -0.3630 
 16 C        1.4580     6.6350     1.4370 C.ar  1 <1>   0.0830 
 17 C        1.7070     5.6580     3.6240 C.ar  1 <1>  -0.1500 
 18 C        5.4440     5.3710    -0.7650 C.ar  1 <1>   0.1170 
 19 C        0.9280     5.7350    -1.3650 C.3   1 <1>   0.1200 
 20 O        1.2200     7.7080     0.6300 O.3   1 <1>  -0.3630 
 21 C        1.4030     6.7430     2.8240 C.ar  1 <1>  -0.1500 
 22 C        6.6400     4.9970    -1.3700 C.ar  1 <1>  -0.1500 
 23 C        4.9580     6.6510    -1.0100 C.ar  1 <1>  -0.1500 
 24 C        0.9120     4.8740    -2.6280 C.3   1 <1>  -0.1600 
 25 C        1.0580     9.0120     1.1470 C.3   1 <1>   0.0400 
 26 C        7.3290     5.8760    -2.1860 C.ar  1 <1>  -0.1500 
 27 C        5.6440     7.5310    -1.8260 C.ar  1 <1>  -0.1500 
 28 C       -0.0950     5.4070    -3.6520 C.3   1 <1>  -0.2400 
 29 C        6.8350     7.1490    -2.4210 C.ar  1 <1>  -0.1430 
 30 C        7.5940     8.1120    -3.3150 C.3   1 <1>  -0.0970 
 31 H        3.2920     0.0860     3.4810 H     1 <1>   0.3700 
 32 H        0.5920     2.1220     1.2720 H     1 <1>   0.3700 
 33 H        2.4740     2.9740    -0.0040 H     1 <1>   0.0800 
 34 H        5.4050     0.7480     3.9040 H     1 <1>   0.0800 
 35 H        6.2200     1.9600     2.9820 H     1 <1>   0.0800 
 36 H        5.9480     0.3820     2.2820 H     1 <1>   0.0800 
 37 H        2.3140     3.6210     3.6890 H     1 <1>   0.1500 
 38 H        3.7250     4.8570     0.1670 H     1 <1>   0.3700 
 39 H        1.6650     5.7490     4.6960 H     1 <1>   0.1500 
 40 H        1.2170     6.7430    -1.6040 H     1 <1>   0.0800 
 41 H       -0.0340     5.7310    -0.8810 H     1 <1>   0.0800 
 42 H        1.1300     7.6610     3.3070 H     1 <1>   0.1500 
 43 H        7.0400     4.0140    -1.2100 H     1 <1>   0.1500 
 44 H        4.0350     6.9640    -0.5560 H     1 <1>   0.1500 
 45 H        0.6490     3.8640    -2.3670 H     1 <1>   0.0800 
 46 H        1.8950     4.8730    -3.0670 H     1 <1>   0.0800 
 47 H        1.9280     9.2700     1.7250 H     1 <1>   0.0800 
 48 H        0.1690     9.0420     1.7500 H     1 <1>   0.0800 
 49 H        0.9580     9.6900     0.3180 H     1 <1>   0.0800 
 50 H        8.2530     5.5620    -2.6370 H     1 <1>   0.1500 
 51 H        5.2470     8.5160    -1.9960 H     1 <1>   0.1500 
 52 H       -1.0890     5.4050    -3.2400 H     1 <1>   0.0800 
 53 H       -0.0880     4.7870    -4.5320 H     1 <1>   0.0800 
 54 H        0.1580     6.4120    -3.9420 H     1 <1>   0.0800 
 55 H        8.1080     7.5760    -4.0930 H     1 <1>   0.0800 
 56 H        8.3160     8.6560    -2.7320 H     1 <1>   0.0800 
 57 H        6.9200     8.8120    -3.7740 H     1 <1>   0.0800 
@<TRIPOS>BOND
  1   1   2  2   
  2   2   3  am  
  3   2   4  am  
  4   3   5  1   
  5   3  31  1   
  6   4   6  1   
  7   4  32  1   
  8   5   7  2   
  9   5   8  1   
 10   6   7  1   
 11   6   9  1   
 12   6  33  1   
 13   7  10  1   
 14   8  34  1   
 15   8  35  1   
 16   8  36  1   
 17   9  11  ar  
 18   9  12  ar  
 19  10  13  2   
 20  10  14  am  
 21  11  15  1   
 22  11  16  ar  
 23  12  17  ar  
 24  12  37  1   
 25  14  18  1   
 26  14  38  1   
 27  15  19  1   
 28  16  20  1   
 29  16  21  ar  
 30  17  21  ar  
 31  17  39  1   
 32  18  22  ar  
 33  18  23  ar  
 34  19  24  1   
 35  19  40  1   
 36  19  41  1   
 37  20  25  1   
 38  21  42  1   
 39  22  26  ar  
 40  22  43  1   
 41  23  27  ar  
 42  23  44  1   
 43  24  28  1   
 44  24  45  1   
 45  24  46  1   
 46  25  47  1   
 47  25  48  1   
 48  25  49  1   
 49  26  29  ar  
 50  26  50  1   
 51  27  29  ar  
 52  27  51  1   
 53  28  52  1   
 54  28  53  1   
 55  28  54  1   
 56  29  30  1   
 57  30  55  1   
 58  30  56  1   
 59  30  57  1   
@<TRIPOS>SUBSTRUCTURE
  1 ****  14 GROUP 4 **** **** 0

# MOE 2024.06 (io_trps.svl 2023.06)
