@<TRIPOS>MOLECULE
NONAME
51 53 1 0 0 
SMALL
USER_CHARGES


@<TRIPOS>ATOM
  1 O        0.5550    -4.2510    -1.6110 O.2   1 <1>  -0.5700 
  2 C        0.5920    -3.3300    -0.8380 C.2   1 <1>   0.6590 
  3 O       -0.2110    -2.2820    -0.9370 O.3   1 <1>  -0.4300 
  4 C        1.5880    -3.2880     0.3190 C.3   1 <1>  -0.0190 
  5 C       -1.1720    -2.1870    -1.9630 C.3   1 <1>   0.1200 
  6 C        2.8450    -2.4920    -0.0760 C.3   1 <1>  -0.1600 
  7 C        1.9880    -4.6980     0.8020 C.3   1 <1>  -0.1600 
  8 C       -1.9160    -0.8660    -1.7950 C.3   1 <1>  -0.2400 
  9 C        3.8930    -2.4850     1.0350 C.3   1 <1>   0.3430 
 10 C        3.0450    -4.6480     1.9020 C.3   1 <1>   0.3430 
 11 N        4.2290    -3.8880     1.4170 N.4   1 <1>  -0.9590 
 12 C        5.3480    -3.9380     2.3980 C.3   1 <1>   0.4860 
 13 C        6.5900    -3.3600     1.7470 C.ar  1 <1>  -0.1440 
 14 C        7.2210    -4.0470     0.7210 C.ar  1 <1>  -0.1500 
 15 C        7.0980    -2.1370     2.1640 C.ar  1 <1>  -0.1500 
 16 C        8.3470    -3.5100     0.1070 C.ar  1 <1>   0.0820 
 17 C        8.2180    -1.6000     1.5510 C.ar  1 <1>  -0.1500 
 18 O        8.9810    -4.1460    -0.9100 O.3   1 <1>  -0.1650 
 19 C        8.8380    -2.2840     0.5200 C.ar  1 <1>  -0.1500 
 20 C        9.0390    -5.4990    -0.9630 C.ar  1 <1>   0.0820 
 21 C        9.3770    -6.2530     0.1550 C.ar  1 <1>  -0.1500 
 22 C        8.7600    -6.1290    -2.1650 C.ar  1 <1>  -0.1500 
 23 C        9.4140    -7.6340     0.0700 C.ar  1 <1>  -0.1500 
 24 C        8.7970    -7.5100    -2.2470 C.ar  1 <1>  -0.1500 
 25 C        9.1210    -8.2620    -1.1300 C.ar  1 <1>  -0.1500 
 26 H        1.1030    -2.7790     1.1340 H     1 <1>   0.0800 
 27 H       -1.8460    -3.0240    -1.8800 H     1 <1>   0.0800 
 28 H       -0.6650    -2.2270    -2.9130 H     1 <1>   0.0800 
 29 H        2.5680    -1.4760    -0.3010 H     1 <1>   0.0800 
 30 H        3.2780    -2.9090    -0.9700 H     1 <1>   0.0800 
 31 H        2.3650    -5.2800    -0.0220 H     1 <1>   0.0800 
 32 H        1.1150    -5.2060     1.1750 H     1 <1>   0.0800 
 33 H       -2.4100    -0.8370    -0.8410 H     1 <1>   0.0800 
 34 H       -2.6580    -0.7690    -2.5670 H     1 <1>   0.0800 
 35 H       -1.2320    -0.0410    -1.8740 H     1 <1>   0.0800 
 36 H        3.5100    -1.9530     1.8920 H     1 <1>   0.0800 
 37 H        4.7770    -1.9720     0.6860 H     1 <1>   0.0800 
 38 H        3.3310    -5.6540     2.1670 H     1 <1>   0.0800 
 39 H        2.6340    -4.1690     2.7770 H     1 <1>   0.0800 
 40 H        4.5760    -4.3460     0.5630 H     1 <1>   0.4500 
 41 H        5.5450    -4.9590     2.6860 H     1 <1>   0.0800 
 42 H        5.0980    -3.3750     3.2820 H     1 <1>   0.0800 
 43 H        6.8490    -4.9990     0.3840 H     1 <1>   0.1500 
 44 H        6.6360    -1.5870     2.9670 H     1 <1>   0.1500 
 45 H        8.6120    -0.6510     1.8740 H     1 <1>   0.1500 
 46 H        9.7070    -1.8710     0.0370 H     1 <1>   0.1500 
 47 H        9.6180    -5.7630     1.0820 H     1 <1>   0.1500 
 48 H        8.5160    -5.5390    -3.0310 H     1 <1>   0.1500 
 49 H        9.6760    -8.2220     0.9330 H     1 <1>   0.1500 
 50 H        8.5780    -8.0000    -3.1800 H     1 <1>   0.1500 
 51 H        9.1520    -9.3360    -1.1960 H     1 <1>   0.1500 
@<TRIPOS>BOND
  1   1   2  2   
  2   2   3  1   
  3   2   4  1   
  4   3   5  1   
  5   4   6  1   
  6   4   7  1   
  7   4  26  1   
  8   5   8  1   
  9   5  27  1   
 10   5  28  1   
 11   6   9  1   
 12   6  29  1   
 13   6  30  1   
 14   7  10  1   
 15   7  31  1   
 16   7  32  1   
 17   8  33  1   
 18   8  34  1   
 19   8  35  1   
 20   9  11  1   
 21   9  36  1   
 22   9  37  1   
 23  10  11  1   
 24  10  38  1   
 25  10  39  1   
 26  11  12  1   
 27  11  40  1   
 28  12  13  1   
 29  12  41  1   
 30  12  42  1   
 31  13  14  ar  
 32  13  15  ar  
 33  14  16  ar  
 34  14  43  1   
 35  15  17  ar  
 36  15  44  1   
 37  16  18  1   
 38  16  19  ar  
 39  17  19  ar  
 40  17  45  1   
 41  18  20  1   
 42  19  46  1   
 43  20  21  ar  
 44  20  22  ar  
 45  21  23  ar  
 46  21  47  1   
 47  22  24  ar  
 48  22  48  1   
 49  23  25  ar  
 50  23  49  1   
 51  24  25  ar  
 52  24  50  1   
 53  25  51  1   
@<TRIPOS>SUBSTRUCTURE
  1 ****  11 GROUP 4 **** **** 0

# MOE 2024.06 (io_trps.svl 2023.06)
