@<TRIPOS>MOLECULE
NONAME
50 51 1 0 0 
SMALL
USER_CHARGES


@<TRIPOS>ATOM
  1 S        0.6360     1.1190     1.2970 S.o2  1 <1>   1.3330 
  2 O        0.1250    -0.1280     0.7880 O.2   1 <1>  -0.6500 
  3 O        1.8700     1.1360     2.0470 O.2   1 <1>  -0.6500 
  4 N        0.8900     2.1710    -0.0470 N.am  1 <1>  -0.6930 
  5 C       -0.6260     1.9590     2.2290 C.3   1 <1>  -0.1350 
  6 C       -0.1000     2.3440    -1.0150 C.ar  1 <1>   0.1990 
  7 C        2.0060     3.1660     0.0260 C.3   1 <1>   0.2570 
  8 C       -0.9980     3.4210    -0.9750 C.ar  1 <1>   0.0830 
  9 C       -0.1980     1.4230    -2.0470 C.ar  1 <1>  -0.1500 
 10 C        3.3400     2.6320    -0.5030 C.2   1 <1>   0.5690 
 11 O       -0.8860     4.3030     0.0650 O.3   1 <1>  -0.3630 
 12 C       -1.9620     3.5530    -1.9710 C.ar  1 <1>  -0.1500 
 13 C       -1.1580     1.5580    -3.0330 C.ar  1 <1>  -0.1500 
 14 O        3.8700     3.2290    -1.4100 O.2   1 <1>  -0.5700 
 15 N        3.8730     1.5140     0.0800 N.am  1 <1>  -0.5470 
 16 C       -1.6330     5.4980     0.0950 C.3   1 <1>   0.1200 
 17 C       -2.0390     2.6240    -2.9950 C.ar  1 <1>  -0.1500 
 18 C        5.0030     0.7400    -0.2340 C.ar  1 <1>   0.1170 
 19 C       -1.2000     6.2880     1.3260 C.3   1 <1>  -0.2400 
 20 C        5.0150    -0.6290     0.0610 C.ar  1 <1>  -0.1430 
 21 C        6.1260     1.3190    -0.8130 C.ar  1 <1>  -0.1500 
 22 C        6.1520    -1.3870    -0.2150 C.ar  1 <1>  -0.1430 
 23 C        3.7640    -1.2620     0.6800 C.3   1 <1>  -0.0970 
 24 C        7.2460     0.5650    -1.0950 C.ar  1 <1>  -0.1500 
 25 C        7.2580    -0.7830    -0.7950 C.ar  1 <1>  -0.1500 
 26 C        6.2410    -2.8750     0.0950 C.3   1 <1>  -0.0970 
 27 H       -0.8470     1.4130     3.1250 H     1 <1>   0.0800 
 28 H       -1.5220     2.0410     1.6460 H     1 <1>   0.0800 
 29 H       -0.2970     2.9440     2.4960 H     1 <1>   0.0800 
 30 H        2.1390     3.4900     1.0410 H     1 <1>   0.0800 
 31 H        1.7440     4.0310    -0.5570 H     1 <1>   0.0800 
 32 H        0.4880     0.5940    -2.0720 H     1 <1>   0.1500 
 33 H       -2.6650     4.3640    -1.9710 H     1 <1>   0.1500 
 34 H       -1.2180     0.8340    -3.8270 H     1 <1>   0.1500 
 35 H        3.3020     1.1200     0.8380 H     1 <1>   0.3700 
 36 H       -2.6780     5.2490     0.1510 H     1 <1>   0.0800 
 37 H       -1.4270     6.0530    -0.8050 H     1 <1>   0.0800 
 38 H       -2.7860     2.7290    -3.7630 H     1 <1>   0.1500 
 39 H       -1.3980     5.7230     2.2190 H     1 <1>   0.0800 
 40 H       -1.7500     7.2100     1.3760 H     1 <1>   0.0800 
 41 H       -0.1510     6.5180     1.2690 H     1 <1>   0.0800 
 42 H        6.1300     2.3680    -1.0430 H     1 <1>   0.1500 
 43 H        3.6680    -0.9510     1.7050 H     1 <1>   0.0800 
 44 H        3.7840    -2.3340     0.6560 H     1 <1>   0.0800 
 45 H        2.8860    -0.9570     0.1400 H     1 <1>   0.0800 
 46 H        8.1060     1.0270    -1.5460 H     1 <1>   0.1500 
 47 H        8.1390    -1.3570    -1.0170 H     1 <1>   0.1500 
 48 H        5.5460    -3.4200    -0.5180 H     1 <1>   0.0800 
 49 H        6.0140    -3.0500     1.1320 H     1 <1>   0.0800 
 50 H        7.2280    -3.2550    -0.0970 H     1 <1>   0.0800 
@<TRIPOS>BOND
  1   1   2  2   
  2   1   3  2   
  3   1   4  am  
  4   1   5  1   
  5   4   6  1   
  6   4   7  1   
  7   5  27  1   
  8   5  28  1   
  9   5  29  1   
 10   6   8  ar  
 11   6   9  ar  
 12   7  10  1   
 13   7  30  1   
 14   7  31  1   
 15   8  11  1   
 16   8  12  ar  
 17   9  13  ar  
 18   9  32  1   
 19  10  14  2   
 20  10  15  am  
 21  11  16  1   
 22  12  17  ar  
 23  12  33  1   
 24  13  17  ar  
 25  13  34  1   
 26  15  18  1   
 27  15  35  1   
 28  16  19  1   
 29  16  36  1   
 30  16  37  1   
 31  17  38  1   
 32  18  20  ar  
 33  18  21  ar  
 34  19  39  1   
 35  19  40  1   
 36  19  41  1   
 37  20  22  ar  
 38  20  23  1   
 39  21  24  ar  
 40  21  42  1   
 41  22  25  ar  
 42  22  26  1   
 43  23  43  1   
 44  23  44  1   
 45  23  45  1   
 46  24  25  ar  
 47  24  46  1   
 48  25  47  1   
 49  26  48  1   
 50  26  49  1   
 51  26  50  1   
@<TRIPOS>SUBSTRUCTURE
  1 ****   4 GROUP 4 **** **** 0

# MOE 2024.06 (io_trps.svl 2023.06)
