@<TRIPOS>MOLECULE
NONAME
54 56 1 0 0 
SMALL
USER_CHARGES


@<TRIPOS>ATOM
  1 O       -1.2520    -0.5060    -2.2000 O.2   1 <1>  -0.5700 
  2 C       -1.0370    -1.4440    -1.4730 C.2   1 <1>   0.5690 
  3 N        0.1750    -1.6790    -0.8750 N.am  1 <1>  -0.5470 
  4 C       -2.1810    -2.4260    -1.1840 C.3   1 <1>   0.1710 
  5 C        1.3560    -0.9170    -0.8420 C.ar  1 <1>   0.1170 
  6 N       -3.2110    -1.9160    -0.2310 N.3   1 <1>  -0.8100 
  7 C        2.5710    -1.5440    -0.5510 C.ar  1 <1>  -0.1430 
  8 C        1.3510     0.4580    -1.0650 C.ar  1 <1>  -0.1500 
  9 C       -4.3510    -2.8470    -0.0600 C.3   1 <1>   0.1100 
 10 C       -2.6720    -1.4660     1.0760 C.3   1 <1>   0.1100 
 11 C        3.7370    -0.7960    -0.4880 C.ar  1 <1>  -0.1500 
 12 C        2.6560    -3.0460    -0.3060 C.3   1 <1>  -0.0970 
 13 C        2.5170     1.1960    -1.0020 C.ar  1 <1>  -0.1500 
 14 C       -5.4430    -2.2690     0.8760 C.3   1 <1>   0.3430 
 15 C       -3.7640    -0.7980     1.9500 C.3   1 <1>   0.3430 
 16 C        3.7140     0.5690    -0.7120 C.ar  1 <1>  -0.1500 
 17 N       -5.1050    -0.8640     1.2860 N.4   1 <1>  -0.9590 
 18 C       -6.1890    -0.1580     2.0170 C.3   1 <1>   0.4860 
 19 C       -7.4560    -0.2090     1.1870 C.ar  1 <1>  -0.1430 
 20 C       -7.5220     0.4560    -0.0280 C.ar  1 <1>  -0.1500 
 21 C       -8.5570    -0.9300     1.6280 C.ar  1 <1>  -0.1500 
 22 C       -8.6640     0.3950    -0.8080 C.ar  1 <1>   0.0820 
 23 C       -9.7040    -0.9910     0.8550 C.ar  1 <1>  -0.1500 
 24 O       -8.6270     1.0670    -1.9830 O.3   1 <1>  -0.3620 
 25 C       -9.7610    -0.3340    -0.3610 C.ar  1 <1>  -0.1500 
 26 C       -9.7450     1.1040    -2.8440 C.3   1 <1>   0.0400 
 27 H        0.2740    -2.5790    -0.4150 H     1 <1>   0.3700 
 28 H       -1.7700    -3.3470    -0.8130 H     1 <1>   0.0800 
 29 H       -2.6580    -2.6370    -2.1250 H     1 <1>   0.0800 
 30 H        0.4320     0.9660    -1.2890 H     1 <1>   0.1500 
 31 H       -4.0060    -3.7870     0.3360 H     1 <1>   0.0800 
 32 H       -4.7940    -3.0420    -1.0220 H     1 <1>   0.0800 
 33 H       -1.8850    -0.7480     0.9200 H     1 <1>   0.0800 
 34 H       -2.2490    -2.3020     1.6070 H     1 <1>   0.0800 
 35 H        4.6770    -1.2690    -0.2660 H     1 <1>   0.1500 
 36 H        2.2330    -3.5810    -1.1370 H     1 <1>   0.0800 
 37 H        2.1270    -3.3050     0.5940 H     1 <1>   0.0800 
 38 H        3.6780    -3.3600    -0.1960 H     1 <1>   0.0800 
 39 H        2.4920     2.2570    -1.1800 H     1 <1>   0.1500 
 40 H       -5.5370    -2.8950     1.7470 H     1 <1>   0.0800 
 41 H       -6.3870    -2.2870     0.3550 H     1 <1>   0.0800 
 42 H       -3.4890     0.2310     2.1150 H     1 <1>   0.0800 
 43 H       -3.7980    -1.2870     2.9090 H     1 <1>   0.0800 
 44 H        4.6240     1.1400    -0.6620 H     1 <1>   0.1500 
 45 H       -4.9630    -0.3910     0.3790 H     1 <1>   0.4500 
 46 H       -5.9140     0.8700     2.1850 H     1 <1>   0.0800 
 47 H       -6.3590    -0.6280     2.9720 H     1 <1>   0.0800 
 48 H       -6.6940     1.0350    -0.3980 H     1 <1>   0.1500 
 49 H       -8.5400    -1.4490     2.5720 H     1 <1>   0.1500 
 50 H      -10.5580    -1.5500     1.2000 H     1 <1>   0.1500 
 51 H      -10.6620    -0.3980    -0.9420 H     1 <1>   0.1500 
 52 H       -9.4870     1.7020    -3.6990 H     1 <1>   0.0800 
 53 H      -10.5730     1.5510    -2.3220 H     1 <1>   0.0800 
 54 H       -9.9800     0.1020    -3.1560 H     1 <1>   0.0800 
@<TRIPOS>BOND
  1   1   2  2   
  2   2   3  am  
  3   2   4  1   
  4   3   5  1   
  5   3  27  1   
  6   4   6  1   
  7   4  28  1   
  8   4  29  1   
  9   5   7  ar  
 10   5   8  ar  
 11   6   9  1   
 12   6  10  1   
 13   7  11  ar  
 14   7  12  1   
 15   8  13  ar  
 16   8  30  1   
 17   9  14  1   
 18   9  31  1   
 19   9  32  1   
 20  10  15  1   
 21  10  33  1   
 22  10  34  1   
 23  11  16  ar  
 24  11  35  1   
 25  12  36  1   
 26  12  37  1   
 27  12  38  1   
 28  13  16  ar  
 29  13  39  1   
 30  14  17  1   
 31  14  40  1   
 32  14  41  1   
 33  15  17  1   
 34  15  42  1   
 35  15  43  1   
 36  16  44  1   
 37  17  18  1   
 38  17  45  1   
 39  18  19  1   
 40  18  46  1   
 41  18  47  1   
 42  19  20  ar  
 43  19  21  ar  
 44  20  22  ar  
 45  20  48  1   
 46  21  23  ar  
 47  21  49  1   
 48  22  24  1   
 49  22  25  ar  
 50  23  25  ar  
 51  23  50  1   
 52  24  26  1   
 53  25  51  1   
 54  26  52  1   
 55  26  53  1   
 56  26  54  1   
@<TRIPOS>SUBSTRUCTURE
  1 ****   6 GROUP 4 **** **** 0

# MOE 2024.06 (io_trps.svl 2023.06)
