@<TRIPOS>MOLECULE
NONAME
35 36 1 0 0 
SMALL
USER_CHARGES


@<TRIPOS>ATOM
  1 S        0.5840    -0.9600     2.4110 S.3   1 <1>  -0.2420 
  2 C        1.9800    -2.0080     2.1560 C.2   1 <1>   0.7710 
  3 C       -0.1630    -1.5170     0.8990 C.ar  1 <1>   0.1020 
  4 O        2.9290    -2.0170     2.9110 O.2   1 <1>  -0.5700 
  5 N        1.8270    -2.7420     1.0110 N.am  1 <1>  -0.4770 
  6 C        0.6530    -2.4550     0.2880 C.ar  1 <1>   0.1170 
  7 C       -1.3660    -1.0950     0.3750 C.ar  1 <1>  -0.1500 
  8 C        2.8490    -3.7540     0.6080 C.3   1 <1>   0.2010 
  9 C        0.2410    -2.9840    -0.9310 C.ar  1 <1>  -0.1500 
 10 C       -1.7680    -1.6400    -0.8340 C.ar  1 <1>  -0.1500 
 11 C        4.0920    -3.1290    -0.0150 C.2   1 <1>   0.5690 
 12 C       -0.9660    -2.5760    -1.4810 C.ar  1 <1>  -0.1500 
 13 O        4.4000    -3.4800    -1.1340 O.2   1 <1>  -0.5700 
 14 N        4.8160    -2.2360     0.7180 N.am  1 <1>  -0.3940 
 15 O        5.9170    -1.5150     0.2410 O.3   1 <1>  -0.3160 
 16 C        7.1150    -2.2480     0.3310 C.3   1 <1>   0.1200 
 17 C        8.2590    -1.3630    -0.1630 C.3   1 <1>  -0.1600 
 18 C        9.6020    -2.1010    -0.0980 C.3   1 <1>  -0.1600 
 19 C       10.7450    -1.2100    -0.5940 C.3   1 <1>  -0.2400 
 20 H       -1.9650    -0.3650     0.8910 H     1 <1>   0.1500 
 21 H        2.4200    -4.4490    -0.0890 H     1 <1>   0.0800 
 22 H        3.1500    -4.3120     1.4760 H     1 <1>   0.0800 
 23 H        0.8480    -3.7000    -1.4530 H     1 <1>   0.1500 
 24 H       -2.7010    -1.3360    -1.2770 H     1 <1>   0.1500 
 25 H       -1.2880    -2.9860    -2.4230 H     1 <1>   0.1500 
 26 H        4.5160    -1.9630     1.6670 H     1 <1>   0.3700 
 27 H        7.0190    -3.1260    -0.2840 H     1 <1>   0.0800 
 28 H        7.2650    -2.5320     1.3580 H     1 <1>   0.0800 
 29 H        8.3050    -0.4770     0.4460 H     1 <1>   0.0800 
 30 H        8.0590    -1.0730    -1.1800 H     1 <1>   0.0800 
 31 H        9.5570    -2.9880    -0.7060 H     1 <1>   0.0800 
 32 H        9.8030    -2.4000     0.9170 H     1 <1>   0.0800 
 33 H       10.5750    -0.9150    -1.6150 H     1 <1>   0.0800 
 34 H       11.6770    -1.7430    -0.5430 H     1 <1>   0.0800 
 35 H       10.8220    -0.3250     0.0130 H     1 <1>   0.0800 
@<TRIPOS>BOND
  1   1   2  1   
  2   1   3  1   
  3   2   4  2   
  4   2   5  am  
  5   3   6  ar  
  6   3   7  ar  
  7   5   6  1   
  8   5   8  1   
  9   6   9  ar  
 10   7  10  ar  
 11   7  20  1   
 12   8  11  1   
 13   8  21  1   
 14   8  22  1   
 15   9  12  ar  
 16   9  23  1   
 17  10  12  ar  
 18  10  24  1   
 19  11  13  2   
 20  11  14  am  
 21  12  25  1   
 22  14  15  1   
 23  14  26  1   
 24  15  16  1   
 25  16  17  1   
 26  16  27  1   
 27  16  28  1   
 28  17  18  1   
 29  17  29  1   
 30  17  30  1   
 31  18  19  1   
 32  18  31  1   
 33  18  32  1   
 34  19  33  1   
 35  19  34  1   
 36  19  35  1   
@<TRIPOS>SUBSTRUCTURE
  1 ****  11 GROUP 4 **** **** 0

# MOE 2024.06 (io_trps.svl 2023.06)
