@<TRIPOS>MOLECULE
NONAME
37 38 1 0 0 
SMALL
USER_CHARGES


@<TRIPOS>ATOM
  1 S        0.3150     0.2370    -0.1940 S.3   1 <1>  -0.0800 
  2 C       -0.8370    -0.6200     0.8130 C.2   1 <1>  -0.1100 
  3 C       -0.2410    -0.6090    -1.6250 C.2   1 <1>  -0.1100 
  4 C       -1.5800    -1.4700     0.0760 C.2   1 <1>  -0.1810 
  5 C       -1.2320    -1.4660    -1.3180 C.2   1 <1>  -0.1500 
  6 C       -2.6820    -2.3570     0.6150 C.3   1 <1>   0.5240 
  7 N       -3.9800    -1.8710     0.0750 N.4   1 <1>  -0.9590 
  8 C       -4.2880    -0.4890     0.5490 C.3   1 <1>   0.3430 
  9 C       -5.0840    -2.8280     0.3600 C.3   1 <1>   0.3430 
 10 C       -5.5440     0.0230    -0.1520 C.3   1 <1>  -0.1600 
 11 C       -6.3550    -2.3640    -0.3480 C.3   1 <1>  -0.1600 
 12 C       -6.7430    -0.9240     0.0410 C.3   1 <1>  -0.0190 
 13 C       -7.9480    -0.4400    -0.7600 C.2   1 <1>   0.6590 
 14 O       -7.9520    -0.4760    -1.9620 O.2   1 <1>  -0.5700 
 15 O       -8.9690     0.0190    -0.0520 O.3   1 <1>  -0.4300 
 16 C      -10.1380     0.5000    -0.6760 C.3   1 <1>   0.1200 
 17 C      -11.1040     0.9510     0.4130 C.3   1 <1>  -0.2400 
 18 H       -0.8240    -0.3800     1.8630 H     1 <1>   0.1500 
 19 H        0.2460    -0.3720    -2.5560 H     1 <1>   0.1500 
 20 H       -1.7210    -2.1030    -2.0350 H     1 <1>   0.1500 
 21 H       -2.6900    -2.3200     1.6920 H     1 <1>   0.0800 
 22 H       -2.5030    -3.3740     0.3060 H     1 <1>   0.0800 
 23 H       -3.8600    -1.8090    -0.9440 H     1 <1>   0.4500 
 24 H       -3.4640     0.1730     0.3280 H     1 <1>   0.0800 
 25 H       -4.4430    -0.4920     1.6160 H     1 <1>   0.0800 
 26 H       -5.2610    -2.8790     1.4230 H     1 <1>   0.0800 
 27 H       -4.8210    -3.8140     0.0110 H     1 <1>   0.0800 
 28 H       -5.3370     0.1450    -1.2030 H     1 <1>   0.0800 
 29 H       -5.7910     0.9950     0.2370 H     1 <1>   0.0800 
 30 H       -7.1620    -3.0300    -0.0950 H     1 <1>   0.0800 
 31 H       -6.2100    -2.4320    -1.4130 H     1 <1>   0.0800 
 32 H       -7.0200    -0.9160     1.0820 H     1 <1>   0.0800 
 33 H      -10.5630    -0.2960    -1.2650 H     1 <1>   0.0800 
 34 H       -9.8700     1.3210    -1.3200 H     1 <1>   0.0800 
 35 H      -11.3570     0.1250     1.0530 H     1 <1>   0.0800 
 36 H      -12.0070     1.3230    -0.0360 H     1 <1>   0.0800 
 37 H      -10.6650     1.7390     0.9980 H     1 <1>   0.0800 
@<TRIPOS>BOND
  1   1   2  1   
  2   1   3  1   
  3   2   4  2   
  4   2  18  1   
  5   3   5  2   
  6   3  19  1   
  7   4   5  1   
  8   4   6  1   
  9   5  20  1   
 10   6   7  1   
 11   6  21  1   
 12   6  22  1   
 13   7   8  1   
 14   7   9  1   
 15   7  23  1   
 16   8  10  1   
 17   8  24  1   
 18   8  25  1   
 19   9  11  1   
 20   9  26  1   
 21   9  27  1   
 22  10  12  1   
 23  10  28  1   
 24  10  29  1   
 25  11  12  1   
 26  11  30  1   
 27  11  31  1   
 28  12  13  1   
 29  12  32  1   
 30  13  14  2   
 31  13  15  1   
 32  15  16  1   
 33  16  17  1   
 34  16  33  1   
 35  16  34  1   
 36  17  35  1   
 37  17  36  1   
 38  17  37  1   
@<TRIPOS>SUBSTRUCTURE
  1 ****  10 GROUP 4 **** **** 0

# MOE 2024.06 (io_trps.svl 2023.06)
