@<TRIPOS>MOLECULE
NONAME
48 50 1 0 0 
SMALL
USER_CHARGES


@<TRIPOS>ATOM
  1 O       -1.7750    -1.6700     2.4010 O.2   1 <1>  -0.5700 
  2 C       -2.2860    -0.8820     1.6380 C.2   1 <1>   0.5690 
  3 N       -2.4490     0.4410     1.8960 N.am  1 <1>  -0.5470 
  4 C       -2.8170    -1.2130     0.2280 C.3   1 <1>   0.4810 
  5 C       -2.9930     1.0920     0.8010 C.ar  1 <1>   0.1170 
  6 C       -1.7010    -1.8020    -0.6580 C.2   1 <1>  -0.1240 
  7 C       -4.0800    -2.0850     0.2590 C.2   1 <1>  -0.1240 
  8 C       -3.2290     0.1930    -0.2220 C.ar  1 <1>  -0.1440 
  9 C       -3.2930     2.4350     0.6460 C.ar  1 <1>  -0.1500 
 10 C       -1.9180    -3.0120    -1.2610 C.2   1 <1>   0.1770 
 11 C       -0.4970    -1.0400    -0.7600 C.2   1 <1>   0.7060 
 12 C       -4.0920    -3.2650    -0.4010 C.2   1 <1>  -0.0620 
 13 C       -5.2070    -1.5390     0.9640 C.2   1 <1>   0.7060 
 14 C       -3.7740     0.6140    -1.4220 C.ar  1 <1>  -0.1500 
 15 C       -3.8380     2.8630    -0.5530 C.ar  1 <1>  -0.1500 
 16 O       -3.0490    -3.7060    -1.1070 O.3   1 <1>  -0.1530 
 17 N       -1.0470    -3.6710    -2.0760 N.pl3 1 <1>  -0.9000 
 18 O       -0.3210     0.0440    -0.2330 O.2   1 <1>  -0.5700 
 19 O        0.5390    -1.5320    -1.4640 O.3   1 <1>  -0.4300 
 20 C       -5.2450    -4.2560    -0.4630 C.3   1 <1>  -0.1020 
 21 O       -6.3160    -1.4820     0.4740 O.2   1 <1>  -0.5700 
 22 O       -5.0390    -1.0890     2.2080 O.3   1 <1>  -0.4300 
 23 C       -4.0780     1.9580    -1.5810 C.ar  1 <1>  -0.1500 
 24 C        1.7910    -0.8680    -1.5640 C.3   1 <1>   0.1200 
 25 C       -6.0970    -0.5140     2.9470 C.3   1 <1>   0.0400 
 26 C        2.5750    -1.0330    -0.2600 C.3   1 <1>   0.1200 
 27 O        3.8740    -0.5760    -0.4700 O.3   1 <1>  -0.5600 
 28 C        4.6720    -0.6180     0.6680 C.3   1 <1>   0.0400 
 29 H       -2.0760     0.8810     2.7360 H     1 <1>   0.3700 
 30 H       -3.1020     3.1280     1.4450 H     1 <1>   0.1500 
 31 H       -3.9630    -0.0860    -2.2190 H     1 <1>   0.1500 
 32 H       -4.0780     3.9030    -0.6920 H     1 <1>   0.1500 
 33 H       -0.1100    -3.3010    -2.2810 H     1 <1>   0.4000 
 34 H       -1.2610    -4.5890    -2.4760 H     1 <1>   0.4000 
 35 H       -4.9000    -5.2310    -0.1690 H     1 <1>   0.0800 
 36 H       -5.6200    -4.3130    -1.4690 H     1 <1>   0.0800 
 37 H       -6.0550    -3.9820     0.1870 H     1 <1>   0.0800 
 38 H       -4.5030     2.3030    -2.5080 H     1 <1>   0.1500 
 39 H        1.6220     0.1720    -1.7840 H     1 <1>   0.0800 
 40 H        2.3320    -1.3240    -2.3730 H     1 <1>   0.0800 
 41 H       -6.8830    -1.2420     3.0550 H     1 <1>   0.0800 
 42 H       -6.4600     0.3510     2.4190 H     1 <1>   0.0800 
 43 H       -5.7210    -0.2280     3.9130 H     1 <1>   0.0800 
 44 H        2.6220    -2.0710     0.0200 H     1 <1>   0.0800 
 45 H        2.1250    -0.4490     0.5250 H     1 <1>   0.0800 
 46 H        5.6490    -0.2520     0.4050 H     1 <1>   0.0800 
 47 H        4.7460    -1.6350     1.0140 H     1 <1>   0.0800 
 48 H        4.2410     0.0110     1.4280 H     1 <1>   0.0800 
@<TRIPOS>BOND
  1   1   2  2   
  2   2   3  am  
  3   2   4  1   
  4   3   5  1   
  5   3  29  1   
  6   4   6  1   
  7   4   7  1   
  8   4   8  1   
  9   5   8  ar  
 10   5   9  ar  
 11   6  10  2   
 12   6  11  1   
 13   7  12  2   
 14   7  13  1   
 15   8  14  ar  
 16   9  15  ar  
 17   9  30  1   
 18  10  16  1   
 19  10  17  1   
 20  11  18  2   
 21  11  19  1   
 22  12  16  1   
 23  12  20  1   
 24  13  21  2   
 25  13  22  1   
 26  14  23  ar  
 27  14  31  1   
 28  15  23  ar  
 29  15  32  1   
 30  17  33  1   
 31  17  34  1   
 32  19  24  1   
 33  20  35  1   
 34  20  36  1   
 35  20  37  1   
 36  22  25  1   
 37  23  38  1   
 38  24  26  1   
 39  24  39  1   
 40  24  40  1   
 41  25  41  1   
 42  25  42  1   
 43  25  43  1   
 44  26  27  1   
 45  26  44  1   
 46  26  45  1   
 47  27  28  1   
 48  28  46  1   
 49  28  47  1   
 50  28  48  1   
@<TRIPOS>SUBSTRUCTURE
  1 ****   4 GROUP 4 **** **** 0

# MOE 2024.06 (io_trps.svl 2023.06)
