@<TRIPOS>MOLECULE
NONAME
43 44 1 0 0 
SMALL
USER_CHARGES


@<TRIPOS>ATOM
  1 O        1.3250    -2.2380    -0.0070 O.2   1 <1>  -0.5700 
  2 C        0.3270    -1.5550    -0.1010 C.2   1 <1>   0.7200 
  3 N       -0.9450    -2.0050    -0.0560 N.2   1 <1>  -0.6610 
  4 C        0.4940    -0.0700    -0.2860 C.3   1 <1>  -0.1790 
  5 C       -1.2880    -3.2400     0.0950 C.2   1 <1>   0.5600 
  6 N       -2.5910    -3.6140     0.1310 N.pl3 1 <1>  -0.5500 
  7 N       -0.3750    -4.2470     0.2300 N.am  1 <1>  -0.4900 
  8 C       -3.8000    -2.9890     0.0410 C.ar  1 <1>   0.7200 
  9 C       -0.5120    -5.5930     0.3980 C.2   1 <1>   0.5690 
 10 N       -4.8270    -3.7750     0.1310 N.ar  1 <1>  -0.6200 
 11 N       -3.8510    -1.6500    -0.1270 N.ar  1 <1>  -0.6200 
 12 O       -1.5800    -6.1470     0.4580 O.2   1 <1>  -0.5700 
 13 C        0.7500    -6.4110     0.5120 C.3   1 <1>  -0.1790 
 14 C       -6.0460    -3.2130     0.0490 C.ar  1 <1>   0.3100 
 15 C       -5.0070    -1.0920    -0.2070 C.ar  1 <1>   0.1670 
 16 C       -6.2060    -1.8310    -0.1260 C.ar  1 <1>   0.0000 
 17 C       -7.1850    -4.0260     0.1410 C.ar  1 <1>  -0.1500 
 18 C       -5.0330     0.4130    -0.3960 C.3   1 <1>  -0.0970 
 19 C       -7.5110    -1.3010    -0.2040 C.ar  1 <1>  -0.1500 
 20 C       -8.4440    -3.4940     0.0630 C.ar  1 <1>  -0.1500 
 21 C       -8.6160    -2.1180    -0.1110 C.ar  1 <1>   0.0830 
 22 O       -9.8980    -1.6850    -0.1770 O.3   1 <1>  -0.3630 
 23 C      -10.2070    -0.3220    -0.3510 C.3   1 <1>   0.1200 
 24 C      -11.7260    -0.1830    -0.3820 C.3   1 <1>  -0.2400 
 25 H        0.0170     0.4440     0.5260 H     1 <1>   0.0800 
 26 H        0.0350     0.2260    -1.2100 H     1 <1>   0.0800 
 27 H        1.5360     0.1860    -0.3080 H     1 <1>   0.0800 
 28 H       -2.7180    -4.6200     0.2560 H     1 <1>   0.4000 
 29 H        0.5830    -3.8910     0.1940 H     1 <1>   0.3700 
 30 H        1.3370    -6.3030    -0.3810 H     1 <1>   0.0800 
 31 H        0.5000    -7.4490     0.6400 H     1 <1>   0.0800 
 32 H        1.3220    -6.0840     1.3600 H     1 <1>   0.0800 
 33 H       -7.0380    -5.0820     0.2750 H     1 <1>   0.1500 
 34 H       -5.5450     0.8780     0.4260 H     1 <1>   0.0800 
 35 H       -5.5290     0.6590    -1.3170 H     1 <1>   0.0800 
 36 H       -4.0310     0.8010    -0.4360 H     1 <1>   0.0800 
 37 H       -7.6220    -0.2440    -0.3370 H     1 <1>   0.1500 
 38 H       -9.3190    -4.1160     0.1330 H     1 <1>   0.1500 
 39 H       -9.7920     0.2310     0.4750 H     1 <1>   0.0800 
 40 H       -9.7770     0.0100    -1.2800 H     1 <1>   0.0800 
 41 H      -12.1480    -0.5330     0.5430 H     1 <1>   0.0800 
 42 H      -12.1320    -0.7520    -1.1990 H     1 <1>   0.0800 
 43 H      -11.9950     0.8490    -0.5140 H     1 <1>   0.0800 
@<TRIPOS>BOND
  1   1   2  2   
  2   2   3  1   
  3   2   4  1   
  4   3   5  2   
  5   4  25  1   
  6   4  26  1   
  7   4  27  1   
  8   5   6  1   
  9   5   7  1   
 10   6   8  1   
 11   6  28  1   
 12   7   9  am  
 13   7  29  1   
 14   8  10  ar  
 15   8  11  ar  
 16   9  12  2   
 17   9  13  1   
 18  10  14  ar  
 19  11  15  ar  
 20  13  30  1   
 21  13  31  1   
 22  13  32  1   
 23  14  16  ar  
 24  14  17  ar  
 25  15  16  ar  
 26  15  18  1   
 27  16  19  ar  
 28  17  20  ar  
 29  17  33  1   
 30  18  34  1   
 31  18  35  1   
 32  18  36  1   
 33  19  21  ar  
 34  19  37  1   
 35  20  21  ar  
 36  20  38  1   
 37  21  22  1   
 38  22  23  1   
 39  23  24  1   
 40  23  39  1   
 41  23  40  1   
 42  24  41  1   
 43  24  42  1   
 44  24  43  1   
@<TRIPOS>SUBSTRUCTURE
  1 ****   8 GROUP 4 **** **** 0

# MOE 2024.06 (io_trps.svl 2023.06)
