@<TRIPOS>MOLECULE
NONAME
38 39 1 0 0 
SMALL
USER_CHARGES


@<TRIPOS>ATOM
  1 CL       1.1840     0.5160    -1.0100 Cl    1 <1>  -0.1770 
  2 C        0.8810    -1.1380    -0.5190 C.ar  1 <1>   0.1770 
  3 C        1.9400    -1.9600    -0.1520 C.ar  1 <1>   0.0830 
  4 C       -0.4220    -1.5950    -0.5090 C.ar  1 <1>  -0.1500 
  5 O        3.1960    -1.4370    -0.1900 O.3   1 <1>  -0.3630 
  6 C        1.6650    -3.2710     0.2330 C.ar  1 <1>  -0.1500 
  7 C       -0.6810    -2.8990    -0.1250 C.ar  1 <1>  -0.1500 
  8 C        4.3340    -2.2040     0.1050 C.3   1 <1>   0.1200 
  9 C        0.3590    -3.7380     0.2480 C.ar  1 <1>  -0.1440 
 10 C        5.5440    -1.2810    -0.0700 C.3   1 <1>   0.3430 
 11 C        0.0600    -5.1670     0.6670 C.3   1 <1>  -0.0960 
 12 N        6.8480    -1.9540     0.2400 N.4   1 <1>  -0.9590 
 13 C        7.9350    -0.9340     0.3260 C.3   1 <1>   0.3430 
 14 C        7.1880    -3.0210    -0.7520 C.3   1 <1>   0.3430 
 15 C        9.2350    -1.6010     0.7800 C.3   1 <1>  -0.1600 
 16 C        8.4700    -3.7360    -0.3230 C.3   1 <1>  -0.1600 
 17 C        9.6370    -2.7550    -0.1490 C.3   1 <1>  -0.1600 
 18 H       -1.2220    -0.9370    -0.7990 H     1 <1>   0.1500 
 19 H        2.4490    -3.9420     0.5260 H     1 <1>   0.1500 
 20 H       -1.6960    -3.2580    -0.1180 H     1 <1>   0.1500 
 21 H        4.3640    -3.0300    -0.5830 H     1 <1>   0.0800 
 22 H        4.2520    -2.5450     1.1220 H     1 <1>   0.0800 
 23 H        5.4140    -0.4380     0.5890 H     1 <1>   0.0800 
 24 H        5.5590    -0.9160    -1.0840 H     1 <1>   0.0800 
 25 H        0.8040    -5.5270     1.3530 H     1 <1>   0.0800 
 26 H        0.0460    -5.8050    -0.1980 H     1 <1>   0.0800 
 27 H       -0.8990    -5.2220     1.1520 H     1 <1>   0.0800 
 28 H        6.7860    -2.3960     1.1670 H     1 <1>   0.4500 
 29 H        7.6660    -0.1620     1.0280 H     1 <1>   0.0800 
 30 H        8.0850    -0.4780    -0.6400 H     1 <1>   0.0800 
 31 H        7.3310    -2.5810    -1.7260 H     1 <1>   0.0800 
 32 H        6.3870    -3.7400    -0.8190 H     1 <1>   0.0800 
 33 H        9.1200    -1.9630     1.7870 H     1 <1>   0.0800 
 34 H       10.0220    -0.8660     0.7920 H     1 <1>   0.0800 
 35 H        8.7310    -4.4680    -1.0680 H     1 <1>   0.0800 
 36 H        8.2950    -4.2650     0.5980 H     1 <1>   0.0800 
 37 H       10.4930    -3.2700     0.2550 H     1 <1>   0.0800 
 38 H        9.9190    -2.3590    -1.1110 H     1 <1>   0.0800 
@<TRIPOS>BOND
  1   1   2  1   
  2   2   3  ar  
  3   2   4  ar  
  4   3   5  1   
  5   3   6  ar  
  6   4   7  ar  
  7   4  18  1   
  8   5   8  1   
  9   6   9  ar  
 10   6  19  1   
 11   7   9  ar  
 12   7  20  1   
 13   8  10  1   
 14   8  21  1   
 15   8  22  1   
 16   9  11  1   
 17  10  12  1   
 18  10  23  1   
 19  10  24  1   
 20  11  25  1   
 21  11  26  1   
 22  11  27  1   
 23  12  13  1   
 24  12  14  1   
 25  12  28  1   
 26  13  15  1   
 27  13  29  1   
 28  13  30  1   
 29  14  16  1   
 30  14  31  1   
 31  14  32  1   
 32  15  17  1   
 33  15  33  1   
 34  15  34  1   
 35  16  17  1   
 36  16  35  1   
 37  16  36  1   
 38  17  37  1   
 39  17  38  1   
@<TRIPOS>SUBSTRUCTURE
  1 ****   8 GROUP 4 **** **** 0

# MOE 2024.06 (io_trps.svl 2023.06)
