@<TRIPOS>MOLECULE
NONAME
38 38 1 0 0 
SMALL
USER_CHARGES


@<TRIPOS>ATOM
  1 CL      -0.9450     0.1190    -2.3360 Cl    1 <1>  -0.1770 
  2 C       -1.9320    -0.0760    -0.9060 C.ar  1 <1>   0.1770 
  3 C       -2.7090     0.9820    -0.4350 C.ar  1 <1>   0.0830 
  4 C       -1.9250    -1.2980    -0.2640 C.ar  1 <1>  -0.1500 
  5 O       -2.7380     2.1650    -1.0950 O.3   1 <1>  -0.3630 
  6 C       -3.4970     0.8160     0.7050 C.ar  1 <1>  -0.1440 
  7 C       -2.7120    -1.4510     0.8600 C.ar  1 <1>   0.1770 
  8 C       -1.5930     3.0090    -1.0060 C.3   1 <1>   0.1810 
  9 C       -3.4910    -0.4150     1.3480 C.ar  1 <1>  -0.1500 
 10 C       -4.3380     1.9520     1.2700 C.3   1 <1>   0.4870 
 11 CL      -2.7280    -2.9850     1.6900 Cl    1 <1>  -0.1770 
 12 C       -1.9900     4.3800    -0.4590 C.2   1 <1>   0.5690 
 13 N       -5.2060     2.4870     0.2050 N.4   1 <1>  -0.9060 
 14 O       -2.9720     4.4840     0.2400 O.2   1 <1>  -0.5700 
 15 N       -1.2560     5.4720    -0.7490 N.am  1 <1>  -0.8000 
 16 C       -5.9590     3.6880     0.6160 C.3   1 <1>   0.3430 
 17 C       -6.7270     4.2210    -0.5900 C.3   1 <1>  -0.1600 
 18 C       -7.5200     5.4810    -0.2180 C.3   1 <1>  -0.1600 
 19 C       -8.2910     6.0190    -1.4270 C.3   1 <1>  -0.2400 
 20 H       -1.3260    -2.1120    -0.6300 H     1 <1>   0.1500 
 21 H       -1.1820     3.1080    -1.9940 H     1 <1>   0.0800 
 22 H       -0.8630     2.5580    -0.3590 H     1 <1>   0.0800 
 23 H       -4.0790    -0.5940     2.2330 H     1 <1>   0.1500 
 24 H       -3.6850     2.7300     1.6340 H     1 <1>   0.0800 
 25 H       -4.9370     1.5960     2.0920 H     1 <1>   0.0800 
 26 H       -5.8130     1.7550    -0.1740 H     1 <1>   0.4500 
 27 H       -4.5510     2.7610    -0.5470 H     1 <1>   0.4500 
 28 H       -1.5300     6.3830    -0.3730 H     1 <1>   0.3700 
 29 H       -0.4170     5.4780    -1.3330 H     1 <1>   0.3700 
 30 H       -5.2770     4.4460     0.9690 H     1 <1>   0.0800 
 31 H       -6.6480     3.4450     1.4090 H     1 <1>   0.0800 
 32 H       -7.4110     3.4710    -0.9480 H     1 <1>   0.0800 
 33 H       -6.0340     4.4680    -1.3760 H     1 <1>   0.0800 
 34 H       -6.8490     6.2460     0.1360 H     1 <1>   0.0800 
 35 H       -8.2200     5.2590     0.5710 H     1 <1>   0.0800 
 36 H       -7.6160     6.2770    -2.2240 H     1 <1>   0.0800 
 37 H       -8.8390     6.9030    -1.1490 H     1 <1>   0.0800 
 38 H       -8.9910     5.2870    -1.7890 H     1 <1>   0.0800 
@<TRIPOS>BOND
  1   1   2  1   
  2   2   3  ar  
  3   2   4  ar  
  4   3   5  1   
  5   3   6  ar  
  6   4   7  ar  
  7   4  20  1   
  8   5   8  1   
  9   6   9  ar  
 10   6  10  1   
 11   7   9  ar  
 12   7  11  1   
 13   8  12  1   
 14   8  21  1   
 15   8  22  1   
 16   9  23  1   
 17  10  13  1   
 18  10  24  1   
 19  10  25  1   
 20  12  14  2   
 21  12  15  am  
 22  13  16  1   
 23  13  26  1   
 24  13  27  1   
 25  15  28  1   
 26  15  29  1   
 27  16  17  1   
 28  16  30  1   
 29  16  31  1   
 30  17  18  1   
 31  17  32  1   
 32  17  33  1   
 33  18  19  1   
 34  18  34  1   
 35  18  35  1   
 36  19  36  1   
 37  19  37  1   
 38  19  38  1   
@<TRIPOS>SUBSTRUCTURE
  1 ****   5 GROUP 4 **** **** 0

# MOE 2024.06 (io_trps.svl 2023.06)
