@<TRIPOS>MOLECULE
NONAME
38 39 1 0 0 
SMALL
USER_CHARGES


@<TRIPOS>ATOM
  1 O       -0.2750    -0.5460     0.1360 O.2   1 <1>  -0.5700 
  2 C       -1.0600    -1.4400    -0.1090 C.2   1 <1>   0.6340 
  3 O       -0.5840    -2.6040    -0.5680 O.3   1 <1>  -0.4300 
  4 C       -2.4910    -1.3090     0.0680 C.ar  1 <1>   0.0860 
  5 C        0.8000    -2.8150    -0.7690 C.3   1 <1>   0.0400 
  6 C       -3.0440    -0.1430     0.6030 C.ar  1 <1>  -0.1500 
  7 C       -3.3830    -2.3260    -0.2810 C.ar  1 <1>  -0.1500 
  8 C       -4.4090     0.0230     0.7710 C.ar  1 <1>   0.1170 
  9 C       -4.7460    -2.1860    -0.1020 C.ar  1 <1>  -0.1500 
 10 N       -4.9700     1.1930     1.3110 N.am  1 <1>  -0.5470 
 11 C       -5.2840    -1.0210     0.4300 C.ar  1 <1>   0.1000 
 12 C       -4.7020     2.5180     1.2010 C.2   1 <1>   0.5690 
 13 N       -6.6640    -0.8870     0.6180 N.pl3 1 <1>  -0.8380 
 14 O       -5.4400     3.3230     1.7080 O.2   1 <1>  -0.5700 
 15 C       -3.5140     3.0290     0.4210 C.3   1 <1>  -0.1790 
 16 C       -7.4710    -1.9800     1.2450 C.3   1 <1>   0.2090 
 17 C       -7.4420    -0.0540    -0.3510 C.3   1 <1>   0.2090 
 18 C       -8.3360    -2.7250     0.2090 C.3   1 <1>   0.1200 
 19 C       -8.2840    -0.9290    -1.2950 C.3   1 <1>   0.1200 
 20 O       -9.0770    -1.8310    -0.5740 O.3   1 <1>  -0.5600 
 21 H        0.9430    -3.8140    -1.1390 H     1 <1>   0.0800 
 22 H        1.3100    -2.6900     0.1710 H     1 <1>   0.0800 
 23 H        1.1610    -2.0980    -1.4860 H     1 <1>   0.0800 
 24 H       -2.3750     0.6400     0.9060 H     1 <1>   0.1500 
 25 H       -3.0040    -3.2430    -0.6980 H     1 <1>   0.1500 
 26 H       -5.4010    -2.9870    -0.3830 H     1 <1>   0.1500 
 27 H       -5.8940     1.0080     1.7120 H     1 <1>   0.3700 
 28 H       -3.3920     2.4680    -0.4860 H     1 <1>   0.0800 
 29 H       -2.6270     2.9530     1.0210 H     1 <1>   0.0800 
 30 H       -3.6690     4.0610     0.1670 H     1 <1>   0.0800 
 31 H       -8.1150    -1.5510     1.9920 H     1 <1>   0.0800 
 32 H       -6.8180    -2.6780     1.7410 H     1 <1>   0.0800 
 33 H       -6.7690     0.5530    -0.9320 H     1 <1>   0.0800 
 34 H       -8.0940     0.6060     0.1940 H     1 <1>   0.0800 
 35 H       -9.0320    -3.3740     0.7100 H     1 <1>   0.0800 
 36 H       -7.7210    -3.3190    -0.4410 H     1 <1>   0.0800 
 37 H       -7.6440    -1.4860    -1.9580 H     1 <1>   0.0800 
 38 H       -8.9390    -0.3130    -1.8840 H     1 <1>   0.0800 
@<TRIPOS>BOND
  1   1   2  2   
  2   2   3  1   
  3   2   4  1   
  4   3   5  1   
  5   4   6  ar  
  6   4   7  ar  
  7   5  21  1   
  8   5  22  1   
  9   5  23  1   
 10   6   8  ar  
 11   6  24  1   
 12   7   9  ar  
 13   7  25  1   
 14   8  10  1   
 15   8  11  ar  
 16   9  11  ar  
 17   9  26  1   
 18  10  12  am  
 19  10  27  1   
 20  11  13  1   
 21  12  14  2   
 22  12  15  1   
 23  13  16  1   
 24  13  17  1   
 25  15  28  1   
 26  15  29  1   
 27  15  30  1   
 28  16  18  1   
 29  16  31  1   
 30  16  32  1   
 31  17  19  1   
 32  17  33  1   
 33  17  34  1   
 34  18  20  1   
 35  18  35  1   
 36  18  36  1   
 37  19  20  1   
 38  19  37  1   
 39  19  38  1   
@<TRIPOS>SUBSTRUCTURE
  1 ****   8 GROUP 4 **** **** 0

# MOE 2024.06 (io_trps.svl 2023.06)
