@<TRIPOS>MOLECULE
NONAME
43 46 1 0 0 
SMALL
USER_CHARGES


@<TRIPOS>ATOM
  1 CL       1.1060     0.6520    -2.2950 Cl    1 <1>  -0.1770 
  2 C        2.5710    -0.0450    -1.6570 C.ar  1 <1>   0.1770 
  3 C        3.6770     0.7580    -1.4610 C.ar  1 <1>  -0.1500 
  4 C        2.6090    -1.3920    -1.3540 C.ar  1 <1>  -0.1500 
  5 C        4.8400     0.2020    -0.9550 C.ar  1 <1>  -0.1500 
  6 C        3.7770    -1.9380    -0.8500 C.ar  1 <1>  -0.1500 
  7 C        4.9180    -1.1590    -0.6440 C.ar  1 <1>   0.0530 
  8 C        6.1270    -1.7600    -0.1260 C.2   1 <1>   0.1330 
  9 N        6.2010    -2.8660     0.5670 N.2   1 <1>  -0.3380 
 10 N        7.3580    -1.2540    -0.3020 N.pl3 1 <1>   0.0330 
 11 N        7.4840    -3.0920     0.8550 N.2   1 <1>  -0.3380 
 12 C        8.1330    -2.1200     0.3240 C.2   1 <1>   0.2430 
 13 S        9.9100    -1.9220     0.3980 S.3   1 <1>  -0.2860 
 14 C       10.4380    -3.3790     1.4310 C.3   1 <1>   0.1310 
 15 C       11.9490    -3.4360     1.5960 C.2   1 <1>   0.5690 
 16 O       12.4010    -4.0780     2.5130 O.2   1 <1>  -0.5700 
 17 N       12.7490    -2.7830     0.7140 N.am  1 <1>  -0.7300 
 18 C       14.2290    -2.7440     0.7560 C.3   1 <1>   0.2200 
 19 C       14.7830    -1.2190     0.9830 C.3   1 <1>  -0.0800 
 20 C       14.8440    -3.2910    -0.6960 C.3   1 <1>  -0.1600 
 21 C       15.3590    -1.6930    -0.1290 C.3   1 <1>  -0.1600 
 22 C       15.8560    -0.1070     0.4450 C.3   1 <1>  -0.1600 
 23 C       15.9060    -2.1760    -1.2480 C.3   1 <1>  -0.0800 
 24 C       16.4750    -0.6610    -1.0090 C.3   1 <1>  -0.1600 
 25 H        3.6200     1.8050    -1.7000 H     1 <1>   0.1500 
 26 H        1.7370    -2.0010    -1.5100 H     1 <1>   0.1500 
 27 H        5.6870     0.8430    -0.7960 H     1 <1>   0.1500 
 28 H        3.8080    -2.9880    -0.6110 H     1 <1>   0.1500 
 29 H        7.6430    -0.4160    -0.8070 H     1 <1>   0.2700 
 30 H       10.0820    -4.2660     0.9410 H     1 <1>   0.0800 
 31 H        9.9610    -3.2790     2.3890 H     1 <1>   0.0800 
 32 H       12.3170    -2.2250    -0.0240 H     1 <1>   0.3700 
 33 H       14.5810    -3.3760     1.5580 H     1 <1>   0.0800 
 34 H       13.8690    -0.6430     0.9540 H     1 <1>   0.0800 
 35 H       14.0530    -3.4390    -1.4140 H     1 <1>   0.0800 
 36 H       15.3330    -4.2400    -0.5470 H     1 <1>   0.0800 
 37 H       14.4790    -1.2320    -0.7640 H     1 <1>   0.0800 
 38 H       16.2300    -2.1680     0.5050 H     1 <1>   0.0800 
 39 H       16.6510     0.0190     1.1640 H     1 <1>   0.0800 
 40 H       15.3840     0.8540     0.3120 H     1 <1>   0.0800 
 41 H       16.8280    -2.7430    -1.2290 H     1 <1>   0.0800 
 42 H       17.5540    -0.6500    -0.9870 H     1 <1>   0.0800 
 43 H       16.1630    -0.0150    -1.8170 H     1 <1>   0.0800 
@<TRIPOS>BOND
  1   1   2  1   
  2   2   3  ar  
  3   2   4  ar  
  4   3   5  ar  
  5   3  25  1   
  6   4   6  ar  
  7   4  26  1   
  8   5   7  ar  
  9   5  27  1   
 10   6   7  ar  
 11   6  28  1   
 12   7   8  1   
 13   8   9  2   
 14   8  10  1   
 15   9  11  1   
 16  10  12  1   
 17  10  29  1   
 18  11  12  2   
 19  12  13  1   
 20  13  14  1   
 21  14  15  1   
 22  14  30  1   
 23  14  31  1   
 24  15  16  2   
 25  15  17  am  
 26  17  18  1   
 27  17  32  1   
 28  18  19  1   
 29  18  20  1   
 30  18  33  1   
 31  19  21  1   
 32  19  22  1   
 33  19  34  1   
 34  20  23  1   
 35  20  35  1   
 36  20  36  1   
 37  21  23  1   
 38  21  37  1   
 39  21  38  1   
 40  22  24  1   
 41  22  39  1   
 42  22  40  1   
 43  23  24  1   
 44  23  41  1   
 45  24  42  1   
 46  24  43  1   
@<TRIPOS>SUBSTRUCTURE
  1 ****  13 GROUP 4 **** **** 0

# MOE 2024.06 (io_trps.svl 2023.06)
