@<TRIPOS>MOLECULE
NONAME
47 49 1 0 0 
SMALL
USER_CHARGES


@<TRIPOS>ATOM
  1 CL      -0.4190     0.1280     1.9200 Cl    1 <1>  -0.1770 
  2 C       -1.7750    -0.7060     1.2100 C.ar  1 <1>   0.1770 
  3 C       -2.0130    -0.5840    -0.1450 C.ar  1 <1>  -0.1500 
  4 C       -2.5920    -1.4790     2.0120 C.ar  1 <1>  -0.1500 
  5 C       -3.0930    -1.2430    -0.7070 C.ar  1 <1>  -0.1500 
  6 C       -3.6710    -2.1380     1.4490 C.ar  1 <1>  -0.1500 
  7 C       -3.9320    -2.0160     0.0880 C.ar  1 <1>  -0.1430 
  8 C       -5.1300    -2.7170    -0.5250 C.3   1 <1>   0.4870 
  9 N       -6.3660    -1.9830    -0.1100 N.4   1 <1>  -0.9590 
 10 C       -7.5870    -2.7500    -0.4670 C.3   1 <1>   0.3430 
 11 C       -6.3770    -0.5980    -0.6590 C.3   1 <1>   0.3430 
 12 C       -8.8300    -2.0230     0.0530 C.3   1 <1>  -0.1600 
 13 C       -7.6000     0.1590    -0.1410 C.3   1 <1>  -0.1600 
 14 C       -8.9160    -0.5720    -0.4540 C.3   1 <1>   0.4230 
 15 N      -10.0800     0.1410     0.1780 N.4   1 <1>  -0.9590 
 16 C      -11.3980    -0.5440    -0.0590 C.3   1 <1>   0.3430 
 17 C      -10.1970     1.5810    -0.2450 C.3   1 <1>   0.3430 
 18 C      -12.4950     0.1130     0.7800 C.3   1 <1>  -0.1600 
 19 C      -11.2620     2.2930     0.5890 C.3   1 <1>  -0.1600 
 20 C      -12.6260     1.6070     0.4730 C.3   1 <1>  -0.1600 
 21 H       -1.3530     0.0180    -0.7460 H     1 <1>   0.1500 
 22 H       -2.3740    -1.5620     3.0640 H     1 <1>   0.1500 
 23 H       -3.2600    -1.1460    -1.7680 H     1 <1>   0.1500 
 24 H       -4.2900    -2.7470     2.0870 H     1 <1>   0.1500 
 25 H       -5.1610    -3.7350    -0.1700 H     1 <1>   0.0800 
 26 H       -5.0400    -2.7330    -1.5990 H     1 <1>   0.0800 
 27 H       -6.2900    -1.9120     0.9150 H     1 <1>   0.4500 
 28 H       -7.5420    -3.7380    -0.0340 H     1 <1>   0.0800 
 29 H       -7.6500    -2.8580    -1.5390 H     1 <1>   0.0800 
 30 H       -6.3960    -0.6330    -1.7380 H     1 <1>   0.0800 
 31 H       -5.4810    -0.0750    -0.3580 H     1 <1>   0.0800 
 32 H       -8.8200    -2.0450     1.1280 H     1 <1>   0.0800 
 33 H       -9.6780    -2.5880    -0.2880 H     1 <1>   0.0800 
 34 H       -7.5840     1.1230    -0.6170 H     1 <1>   0.0800 
 35 H       -7.4920     0.3060     0.9190 H     1 <1>   0.0800 
 36 H       -9.0560    -0.5880    -1.5240 H     1 <1>   0.0800 
 37 H       -9.9480     0.1570     1.1980 H     1 <1>   0.4500 
 38 H      -11.3430    -1.5830     0.2160 H     1 <1>   0.0800 
 39 H      -11.6620    -0.4820    -1.1030 H     1 <1>   0.0800 
 40 H      -10.4630     1.6370    -1.2890 H     1 <1>   0.0800 
 41 H       -9.2630     2.0970    -0.1050 H     1 <1>   0.0800 
 42 H      -12.2850    -0.0310     1.8260 H     1 <1>   0.0800 
 43 H      -13.4340    -0.3720     0.5740 H     1 <1>   0.0800 
 44 H      -11.3510     3.3120     0.2510 H     1 <1>   0.0800 
 45 H      -10.9530     2.3260     1.6200 H     1 <1>   0.0800 
 46 H      -13.3270     2.0630     1.1540 H     1 <1>   0.0800 
 47 H      -13.0120     1.7380    -0.5250 H     1 <1>   0.0800 
@<TRIPOS>BOND
  1   1   2  1   
  2   2   3  ar  
  3   2   4  ar  
  4   3   5  ar  
  5   3  21  1   
  6   4   6  ar  
  7   4  22  1   
  8   5   7  ar  
  9   5  23  1   
 10   6   7  ar  
 11   6  24  1   
 12   7   8  1   
 13   8   9  1   
 14   8  25  1   
 15   8  26  1   
 16   9  10  1   
 17   9  11  1   
 18   9  27  1   
 19  10  12  1   
 20  10  28  1   
 21  10  29  1   
 22  11  13  1   
 23  11  30  1   
 24  11  31  1   
 25  12  14  1   
 26  12  32  1   
 27  12  33  1   
 28  13  14  1   
 29  13  34  1   
 30  13  35  1   
 31  14  15  1   
 32  14  36  1   
 33  15  16  1   
 34  15  17  1   
 35  15  37  1   
 36  16  18  1   
 37  16  38  1   
 38  16  39  1   
 39  17  19  1   
 40  17  40  1   
 41  17  41  1   
 42  18  20  1   
 43  18  42  1   
 44  18  43  1   
 45  19  20  1   
 46  19  44  1   
 47  19  45  1   
 48  20  46  1   
 49  20  47  1   
@<TRIPOS>SUBSTRUCTURE
  1 ****  11 GROUP 4 **** **** 0

# MOE 2024.06 (io_trps.svl 2023.06)
