@<TRIPOS>MOLECULE
NONAME
52 54 1 0 0 
SMALL
USER_CHARGES


@<TRIPOS>ATOM
  1 O       -0.4880    -1.9950    -2.1730 O.3   1 <1>  -0.3630 
  2 C       -1.3870    -1.7150    -1.1760 C.ar  1 <1>   0.0830 
  3 C       -0.7160    -1.5710    -3.5010 C.3   1 <1>   0.0400 
  4 C       -1.0820    -2.1280     0.1350 C.ar  1 <1>   0.1000 
  5 C       -2.5800    -1.0420    -1.4230 C.ar  1 <1>  -0.1500 
  6 N        0.0900    -2.8120     0.4890 N.pl3 1 <1>  -0.8380 
  7 C       -1.9850    -1.8480     1.1510 C.ar  1 <1>  -0.1500 
  8 C       -3.4650    -0.7750    -0.3920 C.ar  1 <1>  -0.1500 
  9 C        1.3380    -2.0020     0.3540 C.3   1 <1>   0.2090 
 10 C        0.1940    -4.1880    -0.0790 C.3   1 <1>   0.2090 
 11 C       -3.1670    -1.1790     0.8960 C.ar  1 <1>  -0.1500 
 12 C        2.5570    -2.7630     0.9110 C.3   1 <1>   0.3430 
 13 C        1.4220    -4.9300     0.4870 C.3   1 <1>   0.3430 
 14 N        2.6970    -4.1450     0.3140 N.4   1 <1>  -0.9590 
 15 C        3.8760    -4.8670     0.8580 C.3   1 <1>   0.4860 
 16 C        5.1250    -4.1000     0.4740 C.ar  1 <1>  -0.1430 
 17 C        5.6500    -4.1920    -0.8070 C.ar  1 <1>  -0.1500 
 18 C        5.7440    -3.2840     1.4090 C.ar  1 <1>  -0.1500 
 19 C        6.7810    -3.4560    -1.1520 C.ar  1 <1>   0.0830 
 20 C        6.8650    -2.5460     1.0720 C.ar  1 <1>   0.0830 
 21 O        7.3510    -3.4880    -2.3810 O.3   1 <1>  -0.3620 
 22 C        7.3810    -2.6330    -0.2150 C.ar  1 <1>  -0.1500 
 23 O        7.3900    -1.7670     2.0480 O.3   1 <1>  -0.3630 
 24 C        6.9740    -4.4330    -3.3580 C.3   1 <1>   0.0400 
 25 C        8.5810    -1.0390     1.8380 C.3   1 <1>   0.0400 
 26 H        0.1180    -1.8820    -4.1030 H     1 <1>   0.0800 
 27 H       -0.7970    -0.4990    -3.5180 H     1 <1>   0.0800 
 28 H       -1.6180    -2.0310    -3.8650 H     1 <1>   0.0800 
 29 H       -2.8490    -0.7120    -2.4080 H     1 <1>   0.1500 
 30 H       -1.7540    -2.1620     2.1520 H     1 <1>   0.1500 
 31 H       -4.3850    -0.2540    -0.5920 H     1 <1>   0.1500 
 32 H        1.2170    -1.0780     0.8940 H     1 <1>   0.0800 
 33 H        1.5090    -1.7560    -0.6800 H     1 <1>   0.0800 
 34 H        0.2650    -4.1400    -1.1510 H     1 <1>   0.0800 
 35 H       -0.7000    -4.7350     0.1660 H     1 <1>   0.0800 
 36 H       -3.8540    -0.9720     1.6990 H     1 <1>   0.1500 
 37 H        2.4430    -2.8390     1.9790 H     1 <1>   0.0800 
 38 H        3.4440    -2.1840     0.7140 H     1 <1>   0.0800 
 39 H        1.5070    -5.8850    -0.0030 H     1 <1>   0.0800 
 40 H        1.2460    -5.1080     1.5350 H     1 <1>   0.0800 
 41 H        2.8560    -4.0060    -0.6910 H     1 <1>   0.4500 
 42 H        3.9280    -5.8620     0.4450 H     1 <1>   0.0800 
 43 H        3.8060    -4.9440     1.9310 H     1 <1>   0.0800 
 44 H        5.1840    -4.8300    -1.5330 H     1 <1>   0.1500 
 45 H        5.3740    -3.2010     2.4160 H     1 <1>   0.1500 
 46 H        8.2470    -2.0760    -0.5160 H     1 <1>   0.1500 
 47 H        7.6260    -4.3130    -4.2050 H     1 <1>   0.0800 
 48 H        5.9570    -4.2450    -3.6540 H     1 <1>   0.0800 
 49 H        7.0850    -5.4220    -2.9510 H     1 <1>   0.0800 
 50 H        8.8260    -0.5260     2.7500 H     1 <1>   0.0800 
 51 H        8.4210    -0.3250     1.0490 H     1 <1>   0.0800 
 52 H        9.3700    -1.7240     1.5820 H     1 <1>   0.0800 
@<TRIPOS>BOND
  1   1   2  1   
  2   1   3  1   
  3   2   4  ar  
  4   2   5  ar  
  5   3  26  1   
  6   3  27  1   
  7   3  28  1   
  8   4   6  1   
  9   4   7  ar  
 10   5   8  ar  
 11   5  29  1   
 12   6   9  1   
 13   6  10  1   
 14   7  11  ar  
 15   7  30  1   
 16   8  11  ar  
 17   8  31  1   
 18   9  12  1   
 19   9  32  1   
 20   9  33  1   
 21  10  13  1   
 22  10  34  1   
 23  10  35  1   
 24  11  36  1   
 25  12  14  1   
 26  12  37  1   
 27  12  38  1   
 28  13  14  1   
 29  13  39  1   
 30  13  40  1   
 31  14  15  1   
 32  14  41  1   
 33  15  16  1   
 34  15  42  1   
 35  15  43  1   
 36  16  17  ar  
 37  16  18  ar  
 38  17  19  ar  
 39  17  44  1   
 40  18  20  ar  
 41  18  45  1   
 42  19  21  1   
 43  19  22  ar  
 44  20  22  ar  
 45  20  23  1   
 46  21  24  1   
 47  22  46  1   
 48  23  25  1   
 49  24  47  1   
 50  24  48  1   
 51  24  49  1   
 52  25  50  1   
 53  25  51  1   
 54  25  52  1   
@<TRIPOS>SUBSTRUCTURE
  1 ****  12 GROUP 4 **** **** 0

# MOE 2024.06 (io_trps.svl 2023.06)
