@<TRIPOS>MOLECULE
NONAME
38 39 1 0 0 
SMALL
USER_CHARGES


@<TRIPOS>ATOM
  1 S       -0.0420    -0.4720     1.2230 S.o2  1 <1>   1.4470 
  2 O        0.5170    -1.6910     1.7720 O.2   1 <1>  -0.6500 
  3 O       -0.5000     0.5380     2.1540 O.2   1 <1>  -0.6500 
  4 N        1.1950     0.2660     0.3240 N.am  1 <1>  -0.8490 
  5 C       -1.3070    -0.8480    -0.0360 C.ar  1 <1>  -0.0090 
  6 C        2.3930     0.4530     1.1430 C.3   1 <1>   0.1960 
  7 C        0.7520     1.5380    -0.2590 C.3   1 <1>   0.1960 
  8 C       -1.1620    -1.8610    -0.9890 C.ar  1 <1>  -0.1440 
  9 C       -2.4570    -0.0680    -0.0890 C.ar  1 <1>  -0.1500 
 10 C        3.5440     0.9940     0.2880 C.3   1 <1>  -0.1600 
 11 C        1.8430     2.1120    -1.1670 C.3   1 <1>  -0.1600 
 12 C       -2.1540    -2.0670    -1.9350 C.ar  1 <1>  -0.1500 
 13 C        0.0680    -2.7580    -1.0320 C.3   1 <1>  -0.0970 
 14 C       -3.4600    -0.2420    -1.0420 C.ar  1 <1>  -0.1790 
 15 C        3.1580     2.3090    -0.4020 C.3   1 <1>  -0.0800 
 16 C       -3.2810    -1.2720    -1.9600 C.ar  1 <1>  -0.1500 
 17 C       -4.6360     0.6200    -1.0820 C.2   1 <1>   0.9790 
 18 C        4.2730     2.7830    -1.3410 C.3   1 <1>  -0.2400 
 19 O       -4.7170     1.6120    -0.3360 O.co2 1 <1>  -0.9000 
 20 O       -5.5670     0.3880    -1.8730 O.co2 1 <1>  -0.9000 
 21 H        2.6940    -0.4900     1.5690 H     1 <1>   0.0800 
 22 H        2.1800     1.1330     1.9520 H     1 <1>   0.0800 
 23 H        0.5180     2.2430     0.5230 H     1 <1>   0.0800 
 24 H       -0.1370     1.3850    -0.8470 H     1 <1>   0.0800 
 25 H       -2.5920     0.7230     0.6320 H     1 <1>   0.1500 
 26 H        3.8000     0.2520    -0.4480 H     1 <1>   0.0800 
 27 H        4.4040     1.1490     0.9130 H     1 <1>   0.0800 
 28 H        1.5080     3.0530    -1.5660 H     1 <1>   0.0800 
 29 H        1.9910     1.4380    -1.9920 H     1 <1>   0.0800 
 30 H       -2.0570    -2.8490    -2.6660 H     1 <1>   0.1500 
 31 H        0.9660    -2.1670    -1.0320 H     1 <1>   0.0800 
 32 H        0.0720    -3.3660    -1.9190 H     1 <1>   0.0800 
 33 H        0.0780    -3.4100    -0.1770 H     1 <1>   0.0800 
 34 H        3.0050     3.0610     0.3550 H     1 <1>   0.0800 
 35 H       -4.0460    -1.4370    -2.7020 H     1 <1>   0.1500 
 36 H        4.4540     2.0550    -2.1120 H     1 <1>   0.0800 
 37 H        5.1850     2.9350    -0.7900 H     1 <1>   0.0800 
 38 H        3.9980     3.7130    -1.8050 H     1 <1>   0.0800 
@<TRIPOS>BOND
  1   1   2  2   
  2   1   3  2   
  3   1   4  am  
  4   1   5  1   
  5   4   6  1   
  6   4   7  1   
  7   5   8  ar  
  8   5   9  ar  
  9   6  10  1   
 10   6  21  1   
 11   6  22  1   
 12   7  11  1   
 13   7  23  1   
 14   7  24  1   
 15   8  12  ar  
 16   8  13  1   
 17   9  14  ar  
 18   9  25  1   
 19  10  15  1   
 20  10  26  1   
 21  10  27  1   
 22  11  15  1   
 23  11  28  1   
 24  11  29  1   
 25  12  16  ar  
 26  12  30  1   
 27  13  31  1   
 28  13  32  1   
 29  13  33  1   
 30  14  16  ar  
 31  14  17  1   
 32  15  18  1   
 33  15  34  1   
 34  16  35  1   
 35  17  19  ar  
 36  17  20  ar  
 37  18  36  1   
 38  18  37  1   
 39  18  38  1   
@<TRIPOS>SUBSTRUCTURE
  1 ****   5 GROUP 4 **** **** 0

# MOE 2024.06 (io_trps.svl 2023.06)
