@<TRIPOS>MOLECULE
NONAME
43 44 1 0 0 
SMALL
USER_CHARGES


@<TRIPOS>ATOM
  1 O        1.4810    -1.6090     2.5780 O.3   1 <1>  -0.6800 
  2 C        2.6190    -2.0940     1.9550 C.3   1 <1>   0.1200 
  3 C        3.2600    -0.9460     1.1670 C.3   1 <1>   0.1100 
  4 N        4.4820    -1.3790     0.4530 N.3   1 <1>  -0.8100 
  5 C        4.1700    -2.1640    -0.7680 C.3   1 <1>   0.1100 
  6 C        5.3140    -0.2000     0.1000 C.3   1 <1>   0.1100 
  7 C        5.4470    -2.6230    -1.5170 C.3   1 <1>   0.3430 
  8 C        6.5760    -0.5730    -0.7140 C.3   1 <1>   0.3430 
  9 N        6.6800    -2.0600    -0.8820 N.4   1 <1>  -0.9590 
 10 C        7.9560    -2.5190    -1.4870 C.3   1 <1>   0.4860 
 11 C        9.1090    -1.9780    -0.6620 C.ar  1 <1>  -0.1430 
 12 C        9.4120    -2.4760     0.6040 C.ar  1 <1>  -0.1430 
 13 C        9.8680    -0.9440    -1.1910 C.ar  1 <1>  -0.1500 
 14 C       10.4550    -1.9100     1.3210 C.ar  1 <1>  -0.1500 
 15 C        8.6440    -3.6260     1.2460 C.3   1 <1>  -0.0970 
 16 C       10.9070    -0.3930    -0.4660 C.ar  1 <1>  -0.1500 
 17 C       11.2020    -0.8700     0.7970 C.ar  1 <1>  -0.1430 
 18 C       12.3430    -0.2680     1.5980 C.3   1 <1>  -0.0970 
 19 H        1.0650    -2.2970     3.1360 H     1 <1>   0.4000 
 20 H        2.3230    -2.8990     1.3070 H     1 <1>   0.0800 
 21 H        3.2940    -2.4510     2.7130 H     1 <1>   0.0800 
 22 H        3.5150    -0.1750     1.8750 H     1 <1>   0.0800 
 23 H        2.5450    -0.5420     0.4690 H     1 <1>   0.0800 
 24 H        3.5660    -1.5720    -1.4360 H     1 <1>   0.0800 
 25 H        3.5970    -3.0360    -0.5070 H     1 <1>   0.0800 
 26 H        5.6260     0.2950     1.0050 H     1 <1>   0.0800 
 27 H        4.7290     0.5070    -0.4650 H     1 <1>   0.0800 
 28 H        5.3840    -2.3110    -2.5460 H     1 <1>   0.0800 
 29 H        5.4890    -3.7000    -1.5020 H     1 <1>   0.0800 
 30 H        7.4440    -0.1970    -0.1960 H     1 <1>   0.0800 
 31 H        6.5360    -0.0930    -1.6770 H     1 <1>   0.0800 
 32 H        6.6540    -2.3940     0.0920 H     1 <1>   0.4500 
 33 H        8.0360    -2.1640    -2.5000 H     1 <1>   0.0800 
 34 H        7.9980    -3.5960    -1.4980 H     1 <1>   0.0800 
 35 H        9.6640    -0.5530    -2.1730 H     1 <1>   0.1500 
 36 H       10.6970    -2.2830     2.3010 H     1 <1>   0.1500 
 37 H        8.4230    -4.3940     0.5290 H     1 <1>   0.0800 
 38 H        7.7310    -3.2670     1.6850 H     1 <1>   0.0800 
 39 H        9.2310    -4.0770     2.0270 H     1 <1>   0.0800 
 40 H       11.4900     0.4080    -0.8890 H     1 <1>   0.1500 
 41 H       12.1270    -0.3090     2.6500 H     1 <1>   0.0800 
 42 H       12.4970     0.7600     1.3240 H     1 <1>   0.0800 
 43 H       13.2490    -0.8160     1.4090 H     1 <1>   0.0800 
@<TRIPOS>BOND
  1   1   2  1   
  2   1  19  1   
  3   2   3  1   
  4   2  20  1   
  5   2  21  1   
  6   3   4  1   
  7   3  22  1   
  8   3  23  1   
  9   4   5  1   
 10   4   6  1   
 11   5   7  1   
 12   5  24  1   
 13   5  25  1   
 14   6   8  1   
 15   6  26  1   
 16   6  27  1   
 17   7   9  1   
 18   7  28  1   
 19   7  29  1   
 20   8   9  1   
 21   8  30  1   
 22   8  31  1   
 23   9  10  1   
 24   9  32  1   
 25  10  11  1   
 26  10  33  1   
 27  10  34  1   
 28  11  12  ar  
 29  11  13  ar  
 30  12  14  ar  
 31  12  15  1   
 32  13  16  ar  
 33  13  35  1   
 34  14  17  ar  
 35  14  36  1   
 36  15  37  1   
 37  15  38  1   
 38  15  39  1   
 39  16  17  ar  
 40  16  40  1   
 41  17  18  1   
 42  18  41  1   
 43  18  42  1   
 44  18  43  1   
@<TRIPOS>SUBSTRUCTURE
  1 ****   9 GROUP 4 **** **** 0

# MOE 2024.06 (io_trps.svl 2023.06)
