@<TRIPOS>MOLECULE
NONAME
42 45 1 0 0 
SMALL
USER_CHARGES


@<TRIPOS>ATOM
  1 O       -0.8010    -1.3510    -1.8200 O.2   1 <1>  -0.5700 
  2 C       -0.9570    -2.2410    -1.0280 C.2   1 <1>   0.5690 
  3 N       -0.1290    -2.5980     0.0090 N.am  1 <1>  -0.4200 
  4 C       -2.0830    -3.2400    -1.0310 C.3   1 <1>  -0.0190 
  5 C       -0.7410    -3.5160     0.8310 C.2   1 <1>   0.5690 
  6 C        1.2120    -2.0440     0.2370 C.3   1 <1>   0.2780 
  7 C       -3.4370    -3.4910    -1.7670 C.3   1 <1>   0.0580 
  8 C       -2.2080    -3.4980     0.4810 C.3   1 <1>  -0.0190 
  9 O       -0.2350    -4.1720     1.7030 O.2   1 <1>  -0.5700 
 10 C        1.0840    -0.7340     0.9910 C.2   1 <1>  -0.2880 
 11 C       -3.4700    -5.0310    -1.6210 C.2   1 <1>  -0.2880 
 12 C       -4.7670    -3.1800    -1.0130 C.3   1 <1>  -0.0190 
 13 C       -3.4400    -4.4320     0.7570 C.3   1 <1>   0.0580 
 14 C        1.5390    -0.5070     2.2270 C.2   1 <1>  -0.3000 
 15 C       -3.4720    -5.4930    -0.3570 C.2   1 <1>  -0.2880 
 16 C       -5.8470    -2.1320    -0.9940 C.2   1 <1>   0.5690 
 17 C       -4.6330    -3.4440     0.4970 C.3   1 <1>  -0.0190 
 18 O       -5.9740    -1.2350    -1.7850 O.2   1 <1>  -0.5700 
 19 N       -6.6770    -2.4520     0.0540 N.am  1 <1>  -0.4200 
 20 C       -6.0950    -3.3960     0.8680 C.2   1 <1>   0.5690 
 21 C       -7.9880    -1.8380     0.3000 C.3   1 <1>   0.2780 
 22 O       -6.6180    -4.0290     1.7470 O.2   1 <1>  -0.5700 
 23 C       -7.7910    -0.5360     1.0510 C.2   1 <1>  -0.2880 
 24 C       -8.2190    -0.2880     2.2940 C.2   1 <1>  -0.3000 
 25 H       -1.4890    -4.0500    -1.4330 H     1 <1>   0.0800 
 26 H        1.6990    -1.8780    -0.7090 H     1 <1>   0.0800 
 27 H        1.7970    -2.7470     0.8060 H     1 <1>   0.0800 
 28 H       -3.4370    -3.1880    -2.8010 H     1 <1>   0.0800 
 29 H       -2.4300    -2.5630     0.9600 H     1 <1>   0.0800 
 30 H        0.5730     0.0180     0.4130 H     1 <1>   0.1500 
 31 H       -3.4890    -5.6160    -2.5270 H     1 <1>   0.1500 
 32 H       -5.4020    -3.9620    -1.4060 H     1 <1>   0.0800 
 33 H       -3.4430    -4.8330     1.7570 H     1 <1>   0.0800 
 34 H        1.4370     0.4330     2.7410 H     1 <1>   0.1500 
 35 H        2.0500    -1.2380     2.8320 H     1 <1>   0.1500 
 36 H       -3.4930    -6.5240    -0.0430 H     1 <1>   0.1500 
 37 H       -4.3630    -2.5200     0.9730 H     1 <1>   0.0800 
 38 H       -8.5960    -2.5140     0.8780 H     1 <1>   0.0800 
 39 H       -8.4800    -1.6510    -0.6390 H     1 <1>   0.0800 
 40 H       -7.2550     0.1940     0.4660 H     1 <1>   0.1500 
 41 H       -8.0670     0.6470     2.8060 H     1 <1>   0.1500 
 42 H       -8.7530    -0.9960     2.9060 H     1 <1>   0.1500 
@<TRIPOS>BOND
  1   1   2  2   
  2   2   3  am  
  3   2   4  1   
  4   3   5  am  
  5   3   6  1   
  6   4   7  1   
  7   4   8  1   
  8   4  25  1   
  9   5   8  1   
 10   5   9  2   
 11   6  10  1   
 12   6  26  1   
 13   6  27  1   
 14   7  11  1   
 15   7  12  1   
 16   7  28  1   
 17   8  13  1   
 18   8  29  1   
 19  10  14  2   
 20  10  30  1   
 21  11  15  2   
 22  11  31  1   
 23  12  16  1   
 24  12  17  1   
 25  12  32  1   
 26  13  15  1   
 27  13  17  1   
 28  13  33  1   
 29  14  34  1   
 30  14  35  1   
 31  15  36  1   
 32  16  18  2   
 33  16  19  am  
 34  17  20  1   
 35  17  37  1   
 36  19  20  am  
 37  19  21  1   
 38  20  22  2   
 39  21  23  1   
 40  21  38  1   
 41  21  39  1   
 42  23  24  2   
 43  23  40  1   
 44  24  41  1   
 45  24  42  1   
@<TRIPOS>SUBSTRUCTURE
  1 ****  17 GROUP 4 **** **** 0

# MOE 2024.06 (io_trps.svl 2023.06)
