@<TRIPOS>MOLECULE
NONAME
46 46 1 0 0 
SMALL
USER_CHARGES


@<TRIPOS>ATOM
  1 O        0.3950     0.7260     0.9550 O.3   1 <1>  -0.5600 
  2 C        1.4400     1.1260     0.1070 C.3   1 <1>   0.4800 
  3 C       -0.8070     0.2590     0.4120 C.3   1 <1>   0.1200 
  4 C        1.9320    -0.0700    -0.6570 C.1   1 <1>  -0.2000 
  5 C        2.5640     1.6360     1.0370 C.3   1 <1>  -0.1600 
  6 C        0.9490     2.2420    -0.8490 C.3   1 <1>  -0.1600 
  7 C       -1.6910    -0.2020     1.5680 C.3   1 <1>   0.0400 
  8 C        2.3710    -1.0120    -1.2360 C.1   1 <1>  -0.2000 
  9 C        3.0140     0.6560     2.1400 C.3   1 <1>  -0.2400 
 10 C        2.0370     2.9140    -1.7100 C.3   1 <1>  -0.2400 
 11 C       -2.9970    -0.6850     1.0490 C.1   1 <1>   0.3570 
 12 C        2.9970    -2.1830    -1.9040 C.3   1 <1>   0.5430 
 13 N       -3.9880    -1.0530     0.6310 N.1   1 <1>  -0.5570 
 14 N        4.1120    -2.6440    -1.0390 N.4   1 <1>  -0.9590 
 15 C        5.2290    -1.6510    -0.9970 C.3   1 <1>   0.3430 
 16 C        4.5840    -4.0040    -1.4210 C.3   1 <1>   0.3430 
 17 C        6.2720    -2.0960     0.0280 C.3   1 <1>  -0.1600 
 18 C        5.6170    -4.4930    -0.4040 C.3   1 <1>  -0.1600 
 19 C        6.7880    -3.5120    -0.2630 C.3   1 <1>  -0.1600 
 20 H       -0.6070    -0.5600    -0.2580 H     1 <1>   0.0800 
 21 H       -1.2930     1.0600    -0.1180 H     1 <1>   0.0800 
 22 H        2.2290     2.5460     1.5040 H     1 <1>   0.0800 
 23 H        3.4260     1.8840     0.4450 H     1 <1>   0.0800 
 24 H        0.4640     3.0050    -0.2650 H     1 <1>   0.0800 
 25 H        0.2260     1.8310    -1.5290 H     1 <1>   0.0800 
 26 H       -1.8680     0.6170     2.2400 H     1 <1>   0.0800 
 27 H       -1.2100    -1.0020     2.1000 H     1 <1>   0.0800 
 28 H        2.1910     0.4220     2.7930 H     1 <1>   0.0800 
 29 H        3.7930     1.1040     2.7320 H     1 <1>   0.0800 
 30 H        3.3890    -0.2580     1.7180 H     1 <1>   0.0800 
 31 H        2.7290     3.4660    -1.1000 H     1 <1>   0.0800 
 32 H        1.5790     3.6060    -2.3950 H     1 <1>   0.0800 
 33 H        2.5800     2.1840    -2.2840 H     1 <1>   0.0800 
 34 H        3.3630    -1.9080    -2.8800 H     1 <1>   0.0800 
 35 H        2.2620    -2.9640    -2.0130 H     1 <1>   0.0800 
 36 H        3.7270    -2.6930    -0.0880 H     1 <1>   0.4500 
 37 H        4.8530    -0.6770    -0.7220 H     1 <1>   0.0800 
 38 H        5.6890    -1.5750    -1.9690 H     1 <1>   0.0800 
 39 H        5.0330    -3.9740    -2.4010 H     1 <1>   0.0800 
 40 H        3.7540    -4.6930    -1.4470 H     1 <1>   0.0800 
 41 H        5.8430    -2.0570     1.0150 H     1 <1>   0.0800 
 42 H        7.0980    -1.4060     0.0120 H     1 <1>   0.0800 
 43 H        5.9930    -5.4520    -0.7180 H     1 <1>   0.0800 
 44 H        5.1390    -4.6340     0.5510 H     1 <1>   0.0800 
 45 H        7.4410    -3.8340     0.5320 H     1 <1>   0.0800 
 46 H        7.3620    -3.5040    -1.1750 H     1 <1>   0.0800 
@<TRIPOS>BOND
  1   1   2  1   
  2   1   3  1   
  3   2   4  1   
  4   2   5  1   
  5   2   6  1   
  6   3   7  1   
  7   3  20  1   
  8   3  21  1   
  9   4   8  3   
 10   5   9  1   
 11   5  22  1   
 12   5  23  1   
 13   6  10  1   
 14   6  24  1   
 15   6  25  1   
 16   7  11  1   
 17   7  26  1   
 18   7  27  1   
 19   8  12  1   
 20   9  28  1   
 21   9  29  1   
 22   9  30  1   
 23  10  31  1   
 24  10  32  1   
 25  10  33  1   
 26  11  13  3   
 27  12  14  1   
 28  12  34  1   
 29  12  35  1   
 30  14  15  1   
 31  14  16  1   
 32  14  36  1   
 33  15  17  1   
 34  15  37  1   
 35  15  38  1   
 36  16  18  1   
 37  16  39  1   
 38  16  40  1   
 39  17  19  1   
 40  17  41  1   
 41  17  42  1   
 42  18  19  1   
 43  18  43  1   
 44  18  44  1   
 45  19  45  1   
 46  19  46  1   
@<TRIPOS>SUBSTRUCTURE
  1 ****   4 GROUP 4 **** **** 0

# MOE 2024.06 (io_trps.svl 2023.06)
