@<TRIPOS>MOLECULE
NONAME
49 50 1 0 0 
SMALL
USER_CHARGES


@<TRIPOS>ATOM
  1 S        0.0410    -0.0270    -0.0300 S.o2  1 <1>   1.4470 
  2 O       -0.6030    -0.7580     1.0380 O.2   1 <1>  -0.6500 
  3 O       -0.1620    -0.4150    -1.4070 O.2   1 <1>  -0.6500 
  4 N       -0.5430     1.5440     0.0210 N.am  1 <1>  -0.9140 
  5 C        1.8070     0.1770     0.3230 C.ar  1 <1>  -0.0090 
  6 C       -1.9670     1.6070     0.2720 C.3   1 <1>   0.1960 
  7 C        2.7790    -0.2140    -0.5910 C.ar  1 <1>  -0.1500 
  8 C        2.2320     0.7350     1.5220 C.ar  1 <1>  -0.1500 
  9 C       -2.4070     3.0580     0.1350 C.3   1 <1>  -0.2400 
 10 C        4.1270    -0.0510    -0.3190 C.ar  1 <1>  -0.1500 
 11 C        3.5770     0.9010     1.8010 C.ar  1 <1>  -0.1500 
 12 C        4.5330     0.5090     0.8800 C.ar  1 <1>  -0.1430 
 13 C        6.0090     0.7000     1.1870 C.3   1 <1>  -0.0170 
 14 C        6.4490     2.1210     0.8210 C.3   1 <1>  -0.0990 
 15 C        7.9080     2.3330     1.1520 C.2   1 <1>   0.5690 
 16 O        8.2210     2.4880     2.3060 O.2   1 <1>  -0.5700 
 17 N        8.8120     2.3300     0.1420 N.am  1 <1>  -0.7300 
 18 C       10.2630     2.5100     0.3080 C.3   1 <1>   0.2200 
 19 C       10.7030     3.7440    -0.4870 C.3   1 <1>  -0.1600 
 20 C       10.9780     1.2470    -0.1820 C.3   1 <1>  -0.1600 
 21 C       12.2270     3.9210    -0.4390 C.3   1 <1>  -0.1600 
 22 C       12.5040     1.4190    -0.1330 C.3   1 <1>  -0.1600 
 23 C       12.9490     2.6560    -0.9260 C.3   1 <1>  -0.1600 
 24 H       -0.3990     1.8780    -0.9290 H     1 <1>   0.4200 
 25 H       -2.1790     1.2520     1.2690 H     1 <1>   0.0800 
 26 H       -2.4980     0.9880    -0.4350 H     1 <1>   0.0800 
 27 H        2.4790    -0.6530    -1.5280 H     1 <1>   0.1500 
 28 H        1.4970     1.0440     2.2460 H     1 <1>   0.1500 
 29 H       -1.8770     3.6740     0.8390 H     1 <1>   0.0800 
 30 H       -3.4590     3.1350     0.3400 H     1 <1>   0.0800 
 31 H       -2.2280     3.4150    -0.8630 H     1 <1>   0.0800 
 32 H        4.8560    -0.3640    -1.0470 H     1 <1>   0.1500 
 33 H        3.8760     1.3370     2.7390 H     1 <1>   0.1500 
 34 H        6.5960    -0.0160     0.6390 H     1 <1>   0.0800 
 35 H        6.1830     0.5280     2.2360 H     1 <1>   0.0800 
 36 H        5.8690     2.8330     1.3800 H     1 <1>   0.0800 
 37 H        6.2790     2.3000    -0.2240 H     1 <1>   0.0800 
 38 H        8.5060     2.2030    -0.8210 H     1 <1>   0.3700 
 39 H       10.4940     2.6630     1.3500 H     1 <1>   0.0800 
 40 H       10.2310     4.6180    -0.0730 H     1 <1>   0.0800 
 41 H       10.3960     3.6420    -1.5130 H     1 <1>   0.0800 
 42 H       10.6830     1.0340    -1.1940 H     1 <1>   0.0800 
 43 H       10.6950     0.4170     0.4400 H     1 <1>   0.0800 
 44 H       12.5280     4.1340     0.5730 H     1 <1>   0.0800 
 45 H       12.5140     4.7590    -1.0500 H     1 <1>   0.0800 
 46 H       12.9800     0.5420    -0.5350 H     1 <1>   0.0800 
 47 H       12.8170     1.5230     0.8920 H     1 <1>   0.0800 
 48 H       14.0120     2.7860    -0.8230 H     1 <1>   0.0800 
 49 H       12.7360     2.5050    -1.9710 H     1 <1>   0.0800 
@<TRIPOS>BOND
  1   1   2  2   
  2   1   3  2   
  3   1   4  am  
  4   1   5  1   
  5   4   6  1   
  6   4  24  1   
  7   5   7  ar  
  8   5   8  ar  
  9   6   9  1   
 10   6  25  1   
 11   6  26  1   
 12   7  10  ar  
 13   7  27  1   
 14   8  11  ar  
 15   8  28  1   
 16   9  29  1   
 17   9  30  1   
 18   9  31  1   
 19  10  12  ar  
 20  10  32  1   
 21  11  12  ar  
 22  11  33  1   
 23  12  13  1   
 24  13  14  1   
 25  13  34  1   
 26  13  35  1   
 27  14  15  1   
 28  14  36  1   
 29  14  37  1   
 30  15  16  2   
 31  15  17  am  
 32  17  18  1   
 33  17  38  1   
 34  18  19  1   
 35  18  20  1   
 36  18  39  1   
 37  19  21  1   
 38  19  40  1   
 39  19  41  1   
 40  20  22  1   
 41  20  42  1   
 42  20  43  1   
 43  21  23  1   
 44  21  44  1   
 45  21  45  1   
 46  22  23  1   
 47  22  46  1   
 48  22  47  1   
 49  23  48  1   
 50  23  49  1   
@<TRIPOS>SUBSTRUCTURE
  1 ****  12 GROUP 4 **** **** 0

# MOE 2024.06 (io_trps.svl 2023.06)
