@<TRIPOS>MOLECULE
NONAME
53 54 1 0 0 
SMALL
USER_CHARGES


@<TRIPOS>ATOM
  1 O       -7.2230     7.6640    -1.3750 O.2   1 <1>  -0.5700 
  2 C       -6.5500     7.6600    -0.3710 C.2   1 <1>   0.6590 
  3 O       -5.5710     6.7990    -0.1550 O.3   1 <1>  -0.4300 
  4 C       -6.8150     8.6630     0.7370 C.3   1 <1>  -0.0190 
  5 C       -5.2330     5.7990    -1.0880 C.3   1 <1>   0.1200 
  6 C       -8.2950     8.5420     1.1120 C.3   1 <1>   0.3430 
  7 C       -6.4360    10.1050     0.3050 C.3   1 <1>  -0.1600 
  8 C       -4.2380     4.8530    -0.4250 C.3   1 <1>  -0.2400 
  9 N       -9.1070     9.2590     0.0730 N.4   1 <1>  -0.9590 
 10 C       -7.5250    11.1240     0.6880 C.3   1 <1>  -0.1600 
 11 C       -8.9230    10.7440     0.1660 C.3   1 <1>   0.3430 
 12 C      -10.5520     8.8700     0.0690 C.3   1 <1>   0.3430 
 13 C      -10.8020     7.6060    -0.7590 C.3   1 <1>  -0.0990 
 14 C      -10.2370     6.3910    -0.0680 C.2   1 <1>   0.5690 
 15 O      -10.4540     6.2830     1.1120 O.2   1 <1>  -0.5700 
 16 N       -9.4630     5.5360    -0.7970 N.am  1 <1>  -0.5470 
 17 C       -8.6550     4.4470    -0.4310 C.ar  1 <1>   0.1170 
 18 C       -8.1900     3.5850    -1.4270 C.ar  1 <1>  -0.1430 
 19 C       -8.2670     4.2150     0.8860 C.ar  1 <1>  -0.1500 
 20 C       -7.3540     2.5320    -1.0930 C.ar  1 <1>  -0.1500 
 21 C       -8.5760     3.7720    -2.8900 C.3   1 <1>  -0.0970 
 22 C       -7.4320     3.1630     1.2170 C.ar  1 <1>  -0.1430 
 23 C       -6.9740     2.3220     0.2190 C.ar  1 <1>  -0.1500 
 24 C       -7.0180     2.9280     2.6580 C.3   1 <1>  -0.0970 
 25 H       -6.2330     8.3800     1.5960 H     1 <1>   0.0800 
 26 H       -4.8040     6.2710    -1.9550 H     1 <1>   0.0800 
 27 H       -6.1270     5.2710    -1.3680 H     1 <1>   0.0800 
 28 H       -8.4710     8.9830     2.0790 H     1 <1>   0.0800 
 29 H       -8.5530     7.4990     1.1680 H     1 <1>   0.0800 
 30 H       -6.2970    10.1440    -0.7630 H     1 <1>   0.0800 
 31 H       -5.4980    10.3830     0.7550 H     1 <1>   0.0800 
 32 H       -3.3480     5.3850    -0.1400 H     1 <1>   0.0800 
 33 H       -3.9660     4.0740    -1.1140 H     1 <1>   0.0800 
 34 H       -4.6830     4.3990     0.4420 H     1 <1>   0.0800 
 35 H       -8.6900     8.9560    -0.8290 H     1 <1>   0.4500 
 36 H       -7.2630    12.0980     0.3100 H     1 <1>   0.0800 
 37 H       -7.5690    11.2110     1.7600 H     1 <1>   0.0800 
 38 H       -9.6650    11.1680     0.8240 H     1 <1>   0.0800 
 39 H       -9.0660    11.1740    -0.8130 H     1 <1>   0.0800 
 40 H      -11.1320     9.6700    -0.3610 H     1 <1>   0.0800 
 41 H      -10.8970     8.7170     1.0800 H     1 <1>   0.0800 
 42 H      -10.3950     7.7190    -1.7460 H     1 <1>   0.0800 
 43 H      -11.8630     7.4600    -0.8500 H     1 <1>   0.0800 
 44 H       -9.4260     5.7210    -1.7980 H     1 <1>   0.3700 
 45 H       -8.6140     4.8570     1.6710 H     1 <1>   0.1500 
 46 H       -6.9890     1.8620    -1.8520 H     1 <1>   0.1500 
 47 H       -9.6470     3.7700    -2.9930 H     1 <1>   0.0800 
 48 H       -8.1840     2.9750    -3.4960 H     1 <1>   0.0800 
 49 H       -8.1820     4.7010    -3.2630 H     1 <1>   0.0800 
 50 H       -6.3230     1.4990     0.4610 H     1 <1>   0.1500 
 51 H       -7.7290     3.3670     3.3340 H     1 <1>   0.0800 
 52 H       -6.0520     3.3650     2.8370 H     1 <1>   0.0800 
 53 H       -6.9650     1.8740     2.8630 H     1 <1>   0.0800 
@<TRIPOS>BOND
  1   1   2  2   
  2   2   3  1   
  3   2   4  1   
  4   3   5  1   
  5   4   6  1   
  6   4   7  1   
  7   4  25  1   
  8   5   8  1   
  9   5  26  1   
 10   5  27  1   
 11   6   9  1   
 12   6  28  1   
 13   6  29  1   
 14   7  10  1   
 15   7  30  1   
 16   7  31  1   
 17   8  32  1   
 18   8  33  1   
 19   8  34  1   
 20   9  11  1   
 21   9  12  1   
 22   9  35  1   
 23  10  11  1   
 24  10  36  1   
 25  10  37  1   
 26  11  38  1   
 27  11  39  1   
 28  12  13  1   
 29  12  40  1   
 30  12  41  1   
 31  13  14  1   
 32  13  42  1   
 33  13  43  1   
 34  14  15  2   
 35  14  16  am  
 36  16  17  1   
 37  16  44  1   
 38  17  18  ar  
 39  17  19  ar  
 40  18  20  ar  
 41  18  21  1   
 42  19  22  ar  
 43  19  45  1   
 44  20  23  ar  
 45  20  46  1   
 46  21  47  1   
 47  21  48  1   
 48  21  49  1   
 49  22  23  ar  
 50  22  24  1   
 51  23  50  1   
 52  24  51  1   
 53  24  52  1   
 54  24  53  1   
@<TRIPOS>SUBSTRUCTURE
  1 ****   2 GROUP 4 **** **** 0

# MOE 2024.06 (io_trps.svl 2023.06)
