@<TRIPOS>MOLECULE
NONAME
29 29 1 0 0 
SMALL
USER_CHARGES


@<TRIPOS>ATOM
  1 BR       1.2100    -1.0870     2.8820 Br    1 <1>  -0.1110 
  2 C        2.4990    -0.5110     1.5700 C.ar  1 <1>   0.1110 
  3 C        2.5780    -1.1890     0.3700 C.ar  1 <1>  -0.1500 
  4 C        3.3120     0.5670     1.8610 C.ar  1 <1>  -0.1500 
  5 C        3.5080    -0.7690    -0.5650 C.ar  1 <1>  -0.1500 
  6 C        4.2360     0.9750     0.9150 C.ar  1 <1>  -0.1500 
  7 C        4.3490     0.3110    -0.3080 C.ar  1 <1>   0.1990 
  8 N        5.2710     0.6740    -1.2840 N.am  1 <1>  -0.7570 
  9 S        6.4640     1.9070    -1.2850 S.o2  1 <1>   1.3330 
 10 O        5.8780     3.0940    -0.7150 O.2   1 <1>  -0.6500 
 11 O        6.9620     1.8920    -2.6380 O.2   1 <1>  -0.6500 
 12 C        7.7140     1.2310    -0.1900 C.3   1 <1>  -0.0550 
 13 C        8.9470     2.1350    -0.0290 C.3   1 <1>  -0.1600 
 14 C        9.9760     1.5090     0.9200 C.3   1 <1>  -0.1600 
 15 C       11.1990     2.4170     1.0770 C.3   1 <1>  -0.2400 
 16 H        1.9270    -2.0230     0.1760 H     1 <1>   0.1500 
 17 H        3.2190     1.0760     2.8040 H     1 <1>   0.1500 
 18 H        3.5830    -1.2870    -1.5040 H     1 <1>   0.1500 
 19 H        4.8600     1.8190     1.1380 H     1 <1>   0.1500 
 20 H        5.1740     0.2910    -2.2190 H     1 <1>   0.4200 
 21 H        8.0320     0.2790    -0.5700 H     1 <1>   0.0800 
 22 H        7.2790     1.0670     0.7770 H     1 <1>   0.0800 
 23 H        8.6360     3.0920     0.3560 H     1 <1>   0.0800 
 24 H        9.3960     2.2960    -0.9950 H     1 <1>   0.0800 
 25 H       10.2940     0.5540     0.5360 H     1 <1>   0.0800 
 26 H        9.5310     1.3490     1.8880 H     1 <1>   0.0800 
 27 H       11.6760     2.5740     0.1250 H     1 <1>   0.0800 
 28 H       11.9110     1.9650     1.7440 H     1 <1>   0.0800 
 29 H       10.9110     3.3720     1.4810 H     1 <1>   0.0800 
@<TRIPOS>BOND
  1   1   2  1   
  2   2   3  ar  
  3   2   4  ar  
  4   3   5  ar  
  5   3  16  1   
  6   4   6  ar  
  7   4  17  1   
  8   5   7  ar  
  9   5  18  1   
 10   6   7  ar  
 11   6  19  1   
 12   7   8  1   
 13   8   9  am  
 14   8  20  1   
 15   9  10  2   
 16   9  11  2   
 17   9  12  1   
 18  12  13  1   
 19  12  21  1   
 20  12  22  1   
 21  13  14  1   
 22  13  23  1   
 23  13  24  1   
 24  14  15  1   
 25  14  25  1   
 26  14  26  1   
 27  15  27  1   
 28  15  28  1   
 29  15  29  1   
@<TRIPOS>SUBSTRUCTURE
  1 ****   7 GROUP 4 **** **** 0

# MOE 2024.06 (io_trps.svl 2023.06)
