@<TRIPOS>MOLECULE
NONAME
50 52 1 0 0 
SMALL
USER_CHARGES


@<TRIPOS>ATOM
  1 O       -0.3460     0.7160    -0.8360 O.2   1 <1>  -0.5700 
  2 C       -0.2870     1.9230    -0.8740 C.2   1 <1>   0.5690 
  3 N       -1.4070     2.6890    -1.0690 N.am  1 <1>  -0.6600 
  4 C        1.0710     2.5880    -0.6990 C.3   1 <1>  -0.0990 
  5 C       -1.4520     4.1890    -1.0810 C.3   1 <1>   0.1400 
  6 C       -2.7590     2.0650    -1.2450 C.3   1 <1>   0.1400 
  7 C        2.2470     1.5970    -0.5750 C.3   1 <1>  -0.0990 
  8 C       -2.4810     4.7310    -0.0740 C.3   1 <1>   0.2090 
  9 C       -3.7730     2.6230    -0.2310 C.3   1 <1>   0.2090 
 10 C        3.6070     2.2630    -0.4140 C.2   1 <1>   0.5690 
 11 N       -3.8260     4.1130    -0.2850 N.pl3 1 <1>  -0.8380 
 12 O        3.6520     3.4730    -0.4130 O.2   1 <1>  -0.5700 
 13 N        4.7390     1.4990    -0.2750 N.am  1 <1>  -0.6600 
 14 C       -4.9150     4.7130     0.3170 C.ar  1 <1>   0.4100 
 15 C        6.0760     2.1290    -0.0840 C.3   1 <1>   0.1400 
 16 C        4.7790     0.0080    -0.2890 C.3   1 <1>   0.1400 
 17 N       -4.7110     5.3290     1.4760 N.ar  1 <1>  -0.6200 
 18 C       -6.1620     4.6410    -0.2990 C.ar  1 <1>  -0.1500 
 19 C        6.6960     1.6380     1.2300 C.3   1 <1>  -0.1600 
 20 C        5.3780    -0.5030     1.0250 C.3   1 <1>  -0.1600 
 21 C       -5.7770     5.8800     2.0330 C.ar  1 <1>   0.1600 
 22 C       -7.2620     5.2190     0.2910 C.ar  1 <1>  -0.1500 
 23 C        6.7630     0.1050     1.2880 C.3   1 <1>  -0.1600 
 24 C       -7.0520     5.8560     1.4970 C.ar  1 <1>  -0.1500 
 25 H        1.0390     3.1970     0.1860 H     1 <1>   0.0800 
 26 H        1.2480     3.2260    -1.5450 H     1 <1>   0.0800 
 27 H       -1.7290     4.5210    -2.0660 H     1 <1>   0.0800 
 28 H       -0.4920     4.6110    -0.8510 H     1 <1>   0.0800 
 29 H       -2.7020     0.9970    -1.1290 H     1 <1>   0.0800 
 30 H       -3.1110     2.2690    -2.2400 H     1 <1>   0.0800 
 31 H        2.2730     0.9820    -1.4560 H     1 <1>   0.0800 
 32 H        2.0770     0.9640     0.2770 H     1 <1>   0.0800 
 33 H       -2.5600     5.7990    -0.1810 H     1 <1>   0.0800 
 34 H       -2.1460     4.5220     0.9280 H     1 <1>   0.0800 
 35 H       -3.4890     2.3130     0.7610 H     1 <1>   0.0800 
 36 H       -4.7460     2.2160    -0.4400 H     1 <1>   0.0800 
 37 H        5.9950     3.2030    -0.0620 H     1 <1>   0.0800 
 38 H        6.7100     1.8620    -0.9110 H     1 <1>   0.0800 
 39 H        5.3900    -0.3150    -1.1150 H     1 <1>   0.0800 
 40 H        3.7990    -0.4140    -0.4210 H     1 <1>   0.0800 
 41 H       -6.2430     4.1340    -1.2400 H     1 <1>   0.1500 
 42 H        6.1030     2.0080     2.0480 H     1 <1>   0.0800 
 43 H        7.6850     2.0490     1.3300 H     1 <1>   0.0800 
 44 H        5.4570    -1.5750     0.9870 H     1 <1>   0.0800 
 45 H        4.7120    -0.2520     1.8320 H     1 <1>   0.0800 
 46 H       -5.6240     6.3810     2.9730 H     1 <1>   0.1500 
 47 H       -8.2360     5.1790    -0.1640 H     1 <1>   0.1500 
 48 H        7.1220    -0.2060     2.2540 H     1 <1>   0.0800 
 49 H        7.4570    -0.2490     0.5450 H     1 <1>   0.0800 
 50 H       -7.8660     6.3290     2.0140 H     1 <1>   0.1500 
@<TRIPOS>BOND
  1   1   2  2   
  2   2   3  am  
  3   2   4  1   
  4   3   5  1   
  5   3   6  1   
  6   4   7  1   
  7   4  25  1   
  8   4  26  1   
  9   5   8  1   
 10   5  27  1   
 11   5  28  1   
 12   6   9  1   
 13   6  29  1   
 14   6  30  1   
 15   7  10  1   
 16   7  31  1   
 17   7  32  1   
 18   8  11  1   
 19   8  33  1   
 20   8  34  1   
 21   9  11  1   
 22   9  35  1   
 23   9  36  1   
 24  10  12  2   
 25  10  13  am  
 26  11  14  1   
 27  13  15  1   
 28  13  16  1   
 29  14  17  ar  
 30  14  18  ar  
 31  15  19  1   
 32  15  37  1   
 33  15  38  1   
 34  16  20  1   
 35  16  39  1   
 36  16  40  1   
 37  17  21  ar  
 38  18  22  ar  
 39  18  41  1   
 40  19  23  1   
 41  19  42  1   
 42  19  43  1   
 43  20  23  1   
 44  20  44  1   
 45  20  45  1   
 46  21  24  ar  
 47  21  46  1   
 48  22  24  ar  
 49  22  47  1   
 50  23  48  1   
 51  23  49  1   
 52  24  50  1   
@<TRIPOS>SUBSTRUCTURE
  1 ****   2 GROUP 4 **** **** 0

# MOE 2024.06 (io_trps.svl 2023.06)
