@<TRIPOS>MOLECULE
NONAME
43 44 1 0 0 
SMALL
USER_CHARGES


@<TRIPOS>ATOM
  1 S        2.6630    -1.7340     1.8870 S.3   1 <1>  -0.3320 
  2 C        1.9440    -2.8060     0.6190 C.ar  1 <1>   0.1020 
  3 C        1.9940    -0.0470     1.5320 C.3   1 <1>  -0.0100 
  4 C        1.9800    -2.4690    -0.7390 C.ar  1 <1>   0.1000 
  5 C        1.3650    -3.9820     1.0560 C.ar  1 <1>  -0.1500 
  6 N        2.6190    -1.3210    -1.2030 N.pl3 1 <1>  -0.8690 
  7 C        1.3690    -3.3370    -1.6380 C.ar  1 <1>  -0.1500 
  8 C        0.7790    -4.8400     0.1400 C.ar  1 <1>  -0.1500 
  9 C        3.7340    -1.4960    -2.1530 C.3   1 <1>   0.3530 
 10 C        0.7770    -4.5120    -1.2050 C.ar  1 <1>  -0.1500 
 11 C        4.9480    -0.7960    -1.5680 C.ar  1 <1>  -0.1430 
 12 C        5.4890     0.3190    -2.1870 C.ar  1 <1>  -0.1500 
 13 C        5.5200    -1.2670    -0.3960 C.ar  1 <1>  -0.1500 
 14 C        6.5930     0.9650    -1.6550 C.ar  1 <1>   0.0830 
 15 C        6.6290    -0.6350     0.1590 C.ar  1 <1>   0.0830 
 16 O        7.0260     2.0540    -2.3490 O.3   1 <1>  -0.3630 
 17 C        7.1830     0.4750    -0.4830 C.ar  1 <1>   0.0830 
 18 O        7.1960    -1.0730     1.3200 O.3   1 <1>  -0.3630 
 19 C        7.4460     3.2060    -1.6490 C.3   1 <1>   0.0400 
 20 O        8.2930     1.0670     0.0390 O.3   1 <1>  -0.3630 
 21 C        6.4340    -1.8000     2.2600 C.3   1 <1>   0.0400 
 22 C        9.5080     0.4030    -0.2230 C.3   1 <1>   0.0400 
 23 H        1.8050     0.4330     2.4750 H     1 <1>   0.0800 
 24 H        1.0830    -0.1620     0.9710 H     1 <1>   0.0800 
 25 H        2.7320     0.4960     0.9700 H     1 <1>   0.0800 
 26 H        1.3680    -4.2210     2.1040 H     1 <1>   0.1500 
 27 H        2.9890    -0.7740    -0.4170 H     1 <1>   0.4000 
 28 H        1.3590    -3.0860    -2.6820 H     1 <1>   0.1500 
 29 H        0.3230    -5.7560     0.4750 H     1 <1>   0.1500 
 30 H        3.4640    -1.0650    -3.1020 H     1 <1>   0.0800 
 31 H        3.9500    -2.5420    -2.2960 H     1 <1>   0.0800 
 32 H        0.3130    -5.1720    -1.9170 H     1 <1>   0.1500 
 33 H        5.0570     0.7060    -3.0920 H     1 <1>   0.1500 
 34 H        5.0910    -2.1330     0.0730 H     1 <1>   0.1500 
 35 H        7.3420     4.0520    -2.3030 H     1 <1>   0.0800 
 36 H        8.4770     3.0880    -1.3700 H     1 <1>   0.0800 
 37 H        6.8300     3.3350    -0.7770 H     1 <1>   0.0800 
 38 H        7.0100    -1.8810     3.1640 H     1 <1>   0.0800 
 39 H        5.5210    -1.2670     2.4560 H     1 <1>   0.0800 
 40 H        6.2320    -2.7800     1.8680 H     1 <1>   0.0800 
 41 H        9.4780    -0.5750     0.2220 H     1 <1>   0.0800 
 42 H        9.6370     0.3280    -1.2890 H     1 <1>   0.0800 
 43 H       10.3060     0.9790     0.2080 H     1 <1>   0.0800 
@<TRIPOS>BOND
  1   1   2  1   
  2   1   3  1   
  3   2   4  ar  
  4   2   5  ar  
  5   3  23  1   
  6   3  24  1   
  7   3  25  1   
  8   4   6  1   
  9   4   7  ar  
 10   5   8  ar  
 11   5  26  1   
 12   6   9  1   
 13   6  27  1   
 14   7  10  ar  
 15   7  28  1   
 16   8  10  ar  
 17   8  29  1   
 18   9  11  1   
 19   9  30  1   
 20   9  31  1   
 21  10  32  1   
 22  11  12  ar  
 23  11  13  ar  
 24  12  14  ar  
 25  12  33  1   
 26  13  15  ar  
 27  13  34  1   
 28  14  16  1   
 29  14  17  ar  
 30  15  17  ar  
 31  15  18  1   
 32  16  19  1   
 33  17  20  1   
 34  18  21  1   
 35  19  35  1   
 36  19  36  1   
 37  19  37  1   
 38  20  22  1   
 39  21  38  1   
 40  21  39  1   
 41  21  40  1   
 42  22  41  1   
 43  22  42  1   
 44  22  43  1   
@<TRIPOS>SUBSTRUCTURE
  1 ****  13 GROUP 4 **** **** 0

# MOE 2024.06 (io_trps.svl 2023.06)
