@<TRIPOS>MOLECULE
NONAME
41 42 1 0 0 
SMALL
USER_CHARGES


@<TRIPOS>ATOM
  1 BR       0.6880     0.2510     0.6920 Br    1 <1>  -0.1110 
  2 C        1.6780    -1.3930     0.5300 C.ar  1 <1>   0.1110 
  3 C        2.8340    -1.3990    -0.2260 C.ar  1 <1>  -0.1500 
  4 C        1.2050    -2.5190     1.1730 C.ar  1 <1>  -0.1500 
  5 C        3.5470    -2.5870    -0.3430 C.ar  1 <1>   0.0830 
  6 C        1.9210    -3.6980     1.0540 C.ar  1 <1>  -0.1500 
  7 O        4.6990    -2.6840    -1.0760 O.3   1 <1>  -0.3630 
  8 C        3.0940    -3.7470     0.3030 C.ar  1 <1>   0.1170 
  9 C        5.0740    -1.6500    -1.9620 C.3   1 <1>   0.0400 
 10 N        3.8470    -4.9250     0.1560 N.am  1 <1>  -0.5470 
 11 C        3.8810    -6.1090     0.8340 C.2   1 <1>   0.5690 
 12 O        3.1460    -6.3930     1.7480 O.2   1 <1>  -0.5700 
 13 C        4.9600    -7.1110     0.4170 C.3   1 <1>   0.1710 
 14 N        6.2610    -6.4830     0.0220 N.3   1 <1>  -0.8100 
 15 C        7.1780    -7.4810    -0.5630 C.3   1 <1>   0.1100 
 16 C        6.8910    -5.7840     1.1680 C.3   1 <1>   0.1100 
 17 C        8.5160    -6.8380    -0.9890 C.3   1 <1>   0.3430 
 18 C        8.2220    -5.1190     0.7640 C.3   1 <1>   0.3430 
 19 N        9.1750    -6.1100     0.1520 N.4   1 <1>  -0.9590 
 20 C       10.4380    -5.4440    -0.2870 C.3   1 <1>   0.2630 
 21 H        3.1440    -0.4870    -0.6960 H     1 <1>   0.1500 
 22 H        0.3000    -2.4770     1.7520 H     1 <1>   0.1500 
 23 H        1.5570    -4.5800     1.5480 H     1 <1>   0.1500 
 24 H        5.9390    -1.9740    -2.5130 H     1 <1>   0.0800 
 25 H        5.3140    -0.7690    -1.3930 H     1 <1>   0.0800 
 26 H        4.2620    -1.4580    -2.6420 H     1 <1>   0.0800 
 27 H        4.6020    -4.8260    -0.5270 H     1 <1>   0.3700 
 28 H        4.5670    -7.6710    -0.4130 H     1 <1>   0.0800 
 29 H        5.1160    -7.7990     1.2310 H     1 <1>   0.0800 
 30 H        6.7160    -7.9190    -1.4320 H     1 <1>   0.0800 
 31 H        7.3660    -8.2710     0.1450 H     1 <1>   0.0800 
 32 H        7.0630    -6.4770     1.9750 H     1 <1>   0.0800 
 33 H        6.2290    -5.0170     1.5350 H     1 <1>   0.0800 
 34 H        8.3180    -6.1490    -1.7920 H     1 <1>   0.0800 
 35 H        9.1740    -7.6050    -1.3640 H     1 <1>   0.0800 
 36 H        8.6690    -4.6660     1.6330 H     1 <1>   0.0800 
 37 H        8.0050    -4.3360     0.0550 H     1 <1>   0.0800 
 38 H        9.3960    -6.8070     0.8760 H     1 <1>   0.4500 
 39 H       10.2280    -4.7070    -1.0460 H     1 <1>   0.0800 
 40 H       11.1240    -6.1700    -0.6920 H     1 <1>   0.0800 
 41 H       10.9120    -4.9530     0.5470 H     1 <1>   0.0800 
@<TRIPOS>BOND
  1   1   2  1   
  2   2   3  ar  
  3   2   4  ar  
  4   3   5  ar  
  5   3  21  1   
  6   4   6  ar  
  7   4  22  1   
  8   5   7  1   
  9   5   8  ar  
 10   6   8  ar  
 11   6  23  1   
 12   7   9  1   
 13   8  10  1   
 14   9  24  1   
 15   9  25  1   
 16   9  26  1   
 17  10  11  am  
 18  10  27  1   
 19  11  12  2   
 20  11  13  1   
 21  13  14  1   
 22  13  28  1   
 23  13  29  1   
 24  14  15  1   
 25  14  16  1   
 26  15  17  1   
 27  15  30  1   
 28  15  31  1   
 29  16  18  1   
 30  16  32  1   
 31  16  33  1   
 32  17  19  1   
 33  17  34  1   
 34  17  35  1   
 35  18  19  1   
 36  18  36  1   
 37  18  37  1   
 38  19  20  1   
 39  19  38  1   
 40  20  39  1   
 41  20  40  1   
 42  20  41  1   
@<TRIPOS>SUBSTRUCTURE
  1 ****  10 GROUP 4 **** **** 0

# MOE 2024.06 (io_trps.svl 2023.06)
