@<TRIPOS>MOLECULE
NONAME
44 45 1 0 0 
SMALL
USER_CHARGES


@<TRIPOS>ATOM
  1 S        0.3560     0.4430    -0.8830 S.3   1 <1>  -0.3320 
  2 C       -1.2310     1.2450    -0.5960 C.ar  1 <1>   0.1020 
  3 C        1.1460     0.2250     0.7860 C.3   1 <1>   0.1310 
  4 C       -1.7330     1.4600     0.6790 C.ar  1 <1>  -0.1500 
  5 C       -1.9420     1.6460    -1.7120 C.ar  1 <1>  -0.1500 
  6 C        2.5590    -0.3320     0.6600 C.2   1 <1>   0.5690 
  7 C       -2.9570     2.0910     0.8270 C.ar  1 <1>  -0.1500 
  8 C       -3.1650     2.2750    -1.5550 C.ar  1 <1>  -0.1500 
  9 O        2.7600    -1.4220     1.1440 O.2   1 <1>  -0.5700 
 10 N        3.5720     0.3800     0.0620 N.am  1 <1>  -0.6600 
 11 C       -3.6770     2.5000    -0.2860 C.ar  1 <1>  -0.1430 
 12 C        3.4490     1.7610    -0.5060 C.3   1 <1>   0.1400 
 13 C        4.9340    -0.2120    -0.1230 C.3   1 <1>   0.1400 
 14 C       -5.0180     3.1910    -0.1170 C.3   1 <1>  -0.0970 
 15 C        4.5310     2.6880     0.0700 C.3   1 <1>   0.1400 
 16 C        6.0220     0.7080     0.4530 C.3   1 <1>   0.1400 
 17 N        5.8910     2.0940    -0.0920 N.am  1 <1>  -0.6600 
 18 C        6.7970     2.6360    -0.9680 C.2   1 <1>   0.7800 
 19 O        6.5060     3.5140    -1.7520 O.2   1 <1>  -0.5700 
 20 O        8.0430     2.1760    -0.9820 O.3   1 <1>  -0.4300 
 21 C        8.8720     2.4270     0.1260 C.3   1 <1>   0.1200 
 22 C       10.1720     1.6540    -0.0730 C.3   1 <1>  -0.2400 
 23 H        0.5290    -0.4610     1.3360 H     1 <1>   0.0800 
 24 H        1.1590     1.1810     1.2700 H     1 <1>   0.0800 
 25 H       -1.2000     1.1460     1.5530 H     1 <1>   0.1500 
 26 H       -1.5410     1.4680    -2.6930 H     1 <1>   0.1500 
 27 H       -3.3500     2.2610     1.8140 H     1 <1>   0.1500 
 28 H       -3.7160     2.5880    -2.4240 H     1 <1>   0.1500 
 29 H        2.4850     2.1850    -0.2960 H     1 <1>   0.0800 
 30 H        3.5600     1.7130    -1.5760 H     1 <1>   0.0800 
 31 H        5.1130    -0.3560    -1.1740 H     1 <1>   0.0800 
 32 H        4.9990    -1.1750     0.3540 H     1 <1>   0.0800 
 33 H       -4.8750     4.2560    -0.0680 H     1 <1>   0.0800 
 34 H       -5.5010     2.8640     0.7860 H     1 <1>   0.0800 
 35 H       -5.6640     2.9660    -0.9460 H     1 <1>   0.0800 
 36 H        4.3420     2.8480     1.1170 H     1 <1>   0.0800 
 37 H        4.4770     3.6450    -0.4210 H     1 <1>   0.0800 
 38 H        6.9850     0.2950     0.2130 H     1 <1>   0.0800 
 39 H        5.9290     0.7380     1.5250 H     1 <1>   0.0800 
 40 H        8.3710     2.1110     1.0250 H     1 <1>   0.0800 
 41 H        9.0570     3.4870     0.1700 H     1 <1>   0.0800 
 42 H        9.9730     0.6000    -0.1310 H     1 <1>   0.0800 
 43 H       10.8330     1.8350     0.7560 H     1 <1>   0.0800 
 44 H       10.6580     1.9790    -0.9760 H     1 <1>   0.0800 
@<TRIPOS>BOND
  1   1   2  1   
  2   1   3  1   
  3   2   4  ar  
  4   2   5  ar  
  5   3   6  1   
  6   3  23  1   
  7   3  24  1   
  8   4   7  ar  
  9   4  25  1   
 10   5   8  ar  
 11   5  26  1   
 12   6   9  2   
 13   6  10  am  
 14   7  11  ar  
 15   7  27  1   
 16   8  11  ar  
 17   8  28  1   
 18  10  12  1   
 19  10  13  1   
 20  11  14  1   
 21  12  15  1   
 22  12  29  1   
 23  12  30  1   
 24  13  16  1   
 25  13  31  1   
 26  13  32  1   
 27  14  33  1   
 28  14  34  1   
 29  14  35  1   
 30  15  17  1   
 31  15  36  1   
 32  15  37  1   
 33  16  17  1   
 34  16  38  1   
 35  16  39  1   
 36  17  18  am  
 37  18  19  2   
 38  18  20  1   
 39  20  21  1   
 40  21  22  1   
 41  21  40  1   
 42  21  41  1   
 43  22  42  1   
 44  22  43  1   
 45  22  44  1   
@<TRIPOS>SUBSTRUCTURE
  1 ****  12 GROUP 4 **** **** 0

# MOE 2024.06 (io_trps.svl 2023.06)
