@<TRIPOS>MOLECULE
NONAME
51 54 1 0 0 
SMALL
USER_CHARGES


@<TRIPOS>ATOM
  1 O        0.5080    -2.6550    -2.0430 O.2   1 <1>  -0.5700 
  2 C        0.3190    -1.9230    -1.0980 C.2   1 <1>   0.5690 
  3 N        1.3110    -1.1190    -0.6370 N.am  1 <1>  -0.7300 
  4 C       -1.0390    -1.9150    -0.3680 C.3   1 <1>   0.0610 
  5 C        2.7290    -1.1610    -1.0750 C.3   1 <1>   0.2810 
  6 C       -2.0690    -2.8510    -1.0560 C.3   1 <1>  -0.1600 
  7 C       -1.6370    -0.4840    -0.3420 C.3   1 <1>  -0.1600 
  8 C       -0.8580    -2.3990     1.0940 C.3   1 <1>  -0.1600 
  9 C        3.5920    -1.9520    -0.0590 C.2   1 <1>   0.5690 
 10 C        3.1860     0.2900    -1.2650 C.3   1 <1>  -0.2400 
 11 C       -3.4160    -2.8390    -0.3100 C.3   1 <1>  -0.0800 
 12 C       -2.9810    -0.4620     0.4100 C.3   1 <1>  -0.0800 
 13 C       -2.1990    -2.3820     1.8510 C.3   1 <1>  -0.0800 
 14 O        4.0370    -1.3430     0.8910 O.2   1 <1>  -0.5700 
 15 N        3.8070    -3.3070    -0.1840 N.am  1 <1>  -0.6600 
 16 C       -3.9730    -1.4040    -0.2960 C.3   1 <1>  -0.1600 
 17 C       -3.1950    -3.3140     1.1370 C.3   1 <1>  -0.1600 
 18 C       -2.7610    -0.9480     1.8550 C.3   1 <1>  -0.1600 
 19 C        4.4220    -4.0990     0.9220 C.3   1 <1>   0.1400 
 20 C        3.2310    -4.2010    -1.2350 C.3   1 <1>   0.1400 
 21 C        3.4010    -5.1150     1.4650 C.3   1 <1>   0.1200 
 22 C        2.2580    -5.2020    -0.5930 C.3   1 <1>   0.1200 
 23 O        2.8940    -5.9160     0.4330 O.3   1 <1>  -0.5600 
 24 H        1.1570    -0.5760     0.2130 H     1 <1>   0.3700 
 25 H        2.7920    -1.6350    -2.0360 H     1 <1>   0.0800 
 26 H       -1.6840    -3.8550    -1.0830 H     1 <1>   0.0800 
 27 H       -2.2190    -2.5370    -2.0740 H     1 <1>   0.0800 
 28 H       -1.7830    -0.1380    -1.3510 H     1 <1>   0.0800 
 29 H       -0.9570     0.1960     0.1380 H     1 <1>   0.0800 
 30 H       -0.1560    -1.7690     1.6110 H     1 <1>   0.0800 
 31 H       -0.4570    -3.3970     1.0950 H     1 <1>   0.0800 
 32 H        3.1210     0.8330    -0.3390 H     1 <1>   0.0800 
 33 H        2.5820     0.7750    -2.0100 H     1 <1>   0.0800 
 34 H        4.2100     0.3040    -1.5920 H     1 <1>   0.0800 
 35 H       -4.1120    -3.4950    -0.8060 H     1 <1>   0.0800 
 36 H       -3.3770     0.5390     0.4190 H     1 <1>   0.0800 
 37 H       -2.0510    -2.7180     2.8630 H     1 <1>   0.0800 
 38 H       -4.9200    -1.3860     0.2140 H     1 <1>   0.0800 
 39 H       -4.1400    -1.0690    -1.3050 H     1 <1>   0.0800 
 40 H       -2.8160    -4.3220     1.1370 H     1 <1>   0.0800 
 41 H       -4.1320    -3.3190     1.6660 H     1 <1>   0.0800 
 42 H       -3.6930    -0.9250     2.3910 H     1 <1>   0.0800 
 43 H       -2.0780    -0.2890     2.3620 H     1 <1>   0.0800 
 44 H        4.7460    -3.4580     1.7230 H     1 <1>   0.0800 
 45 H        5.2850    -4.6230     0.5500 H     1 <1>   0.0800 
 46 H        4.0280    -4.7470    -1.7080 H     1 <1>   0.0800 
 47 H        2.7220    -3.6520    -2.0010 H     1 <1>   0.0800 
 48 H        2.5810    -4.6040     1.9390 H     1 <1>   0.0800 
 49 H        3.8690    -5.7630     2.1850 H     1 <1>   0.0800 
 50 H        1.9160    -5.9100    -1.3260 H     1 <1>   0.0800 
 51 H        1.4040    -4.6900    -0.1840 H     1 <1>   0.0800 
@<TRIPOS>BOND
  1   1   2  2   
  2   2   3  am  
  3   2   4  1   
  4   3   5  1   
  5   3  24  1   
  6   4   6  1   
  7   4   7  1   
  8   4   8  1   
  9   5   9  1   
 10   5  10  1   
 11   5  25  1   
 12   6  11  1   
 13   6  26  1   
 14   6  27  1   
 15   7  12  1   
 16   7  28  1   
 17   7  29  1   
 18   8  13  1   
 19   8  30  1   
 20   8  31  1   
 21   9  14  2   
 22   9  15  am  
 23  10  32  1   
 24  10  33  1   
 25  10  34  1   
 26  11  16  1   
 27  11  17  1   
 28  11  35  1   
 29  12  16  1   
 30  12  18  1   
 31  12  36  1   
 32  13  17  1   
 33  13  18  1   
 34  13  37  1   
 35  15  19  1   
 36  15  20  1   
 37  16  38  1   
 38  16  39  1   
 39  17  40  1   
 40  17  41  1   
 41  18  42  1   
 42  18  43  1   
 43  19  21  1   
 44  19  44  1   
 45  19  45  1   
 46  20  22  1   
 47  20  46  1   
 48  20  47  1   
 49  21  23  1   
 50  21  48  1   
 51  21  49  1   
 52  22  23  1   
 53  22  50  1   
 54  22  51  1   
@<TRIPOS>SUBSTRUCTURE
  1 ****   2 GROUP 4 **** **** 0

# MOE 2024.06 (io_trps.svl 2023.06)
