@<TRIPOS>MOLECULE
NONAME
29 29 1 0 0 
SMALL
USER_CHARGES


@<TRIPOS>ATOM
  1 BR      -1.2660    -0.2390     1.9640 Br    1 <1>  -0.1110 
  2 C       -1.4350     1.4440     1.0470 C.ar  1 <1>   0.1110 
  3 C       -0.6050     2.4850     1.4150 C.ar  1 <1>  -0.1500 
  4 C       -2.3780     1.5670     0.0460 C.ar  1 <1>  -0.1500 
  5 C       -0.7230     3.6990     0.7540 C.ar  1 <1>  -0.1440 
  6 C       -2.4940     2.7790    -0.6120 C.ar  1 <1>  -0.1500 
  7 C       -1.6680     3.8480    -0.2620 C.ar  1 <1>   0.0830 
  8 C        0.1670     4.8610     1.1400 C.3   1 <1>   0.4870 
  9 O       -1.7300     5.0590    -0.8820 O.3   1 <1>  -0.3620 
 10 N        0.9730     5.2020    -0.0470 N.4   1 <1>  -0.9060 
 11 C       -2.8170     5.3860    -1.7280 C.3   1 <1>   0.0400 
 12 C        1.8170     6.4140     0.1410 C.3   1 <1>   0.3430 
 13 C        2.5800     6.7770    -1.1390 C.3   1 <1>   0.1200 
 14 O        3.3430     7.8960    -0.8630 O.3   1 <1>  -0.6800 
 15 H        0.1080     2.3270     2.2070 H     1 <1>   0.1500 
 16 H       -3.0070     0.7310    -0.2090 H     1 <1>   0.1500 
 17 H       -3.2290     2.8640    -1.3910 H     1 <1>   0.1500 
 18 H        0.8040     4.5890     1.9670 H     1 <1>   0.0800 
 19 H       -0.4460     5.6990     1.4290 H     1 <1>   0.0800 
 20 H        0.2750     5.3460    -0.7960 H     1 <1>   0.4500 
 21 H        1.5270     4.3810    -0.3150 H     1 <1>   0.4500 
 22 H       -2.7250     6.4180    -2.0170 H     1 <1>   0.0800 
 23 H       -3.7380     5.2430    -1.1890 H     1 <1>   0.0800 
 24 H       -2.7860     4.7610    -2.6030 H     1 <1>   0.0800 
 25 H        2.5310     6.2430     0.9300 H     1 <1>   0.0800 
 26 H        1.1950     7.2510     0.4160 H     1 <1>   0.0800 
 27 H        1.9040     7.0220    -1.9400 H     1 <1>   0.0800 
 28 H        3.2470     5.9840    -1.4350 H     1 <1>   0.0800 
 29 H        3.8580     8.1890    -1.6460 H     1 <1>   0.4000 
@<TRIPOS>BOND
  1   1   2  1   
  2   2   3  ar  
  3   2   4  ar  
  4   3   5  ar  
  5   3  15  1   
  6   4   6  ar  
  7   4  16  1   
  8   5   7  ar  
  9   5   8  1   
 10   6   7  ar  
 11   6  17  1   
 12   7   9  1   
 13   8  10  1   
 14   8  18  1   
 15   8  19  1   
 16   9  11  1   
 17  10  12  1   
 18  10  20  1   
 19  10  21  1   
 20  11  22  1   
 21  11  23  1   
 22  11  24  1   
 23  12  13  1   
 24  12  25  1   
 25  12  26  1   
 26  13  14  1   
 27  13  27  1   
 28  13  28  1   
 29  14  29  1   
@<TRIPOS>SUBSTRUCTURE
  1 ****   5 GROUP 4 **** **** 0

# MOE 2024.06 (io_trps.svl 2023.06)
