@<TRIPOS>MOLECULE
NONAME
42 44 1 0 0 
SMALL
USER_CHARGES


@<TRIPOS>ATOM
  1 O       -5.7930     1.7130     0.0690 O.3   1 <1>  -0.3630 
  2 C       -7.1470     1.6640     0.0630 C.ar  1 <1>   0.0830 
  3 C       -5.0930     2.9120    -0.1900 C.3   1 <1>   0.1200 
  4 C       -7.7370     0.4320     0.1630 C.ar  1 <1>  -0.1500 
  5 C       -7.9570     2.8120    -0.0420 C.ar  1 <1>  -0.1500 
  6 C       -3.5910     2.6050    -0.1940 C.3   1 <1>   0.2000 
  7 C       -9.1360     0.2780     0.1600 C.ar  1 <1>   0.0000 
  8 C       -9.3190     2.6880    -0.0470 C.ar  1 <1>  -0.1500 
  9 O       -3.2590     1.9370     0.9870 O.3   1 <1>  -0.6800 
 10 C       -2.7250     3.8780    -0.3090 C.3   1 <1>   0.3430 
 11 C       -9.9450     1.4290     0.0520 C.ar  1 <1>   0.0000 
 12 C       -9.7630    -0.9820     0.2610 C.ar  1 <1>  -0.1500 
 13 N       -1.3480     3.6190     0.2110 N.4   1 <1>  -0.9590 
 14 C      -11.3460     1.2760     0.0470 C.ar  1 <1>  -0.1500 
 15 C      -11.1250    -1.1010     0.2530 C.ar  1 <1>  -0.1500 
 16 C       -0.6050     4.8170     0.6610 C.3   1 <1>   0.3430 
 17 C       -0.4600     2.8770    -0.7100 C.3   1 <1>   0.3430 
 18 C      -11.9260     0.0410     0.1460 C.ar  1 <1>  -0.1500 
 19 C        0.8440     4.3550     0.7310 C.3   1 <1>  -0.1600 
 20 C        0.9340     3.0950    -0.1380 C.3   1 <1>  -0.1600 
 21 H       -5.3350     3.6200     0.5840 H     1 <1>   0.0800 
 22 H       -5.4090     3.2890    -1.1470 H     1 <1>   0.0800 
 23 H       -7.1260    -0.4470     0.2460 H     1 <1>   0.1500 
 24 H       -7.5230     3.7890    -0.1160 H     1 <1>   0.1500 
 25 H       -3.3720     1.9450    -1.0160 H     1 <1>   0.0800 
 26 H       -9.9430     3.5600    -0.1270 H     1 <1>   0.1500 
 27 H       -3.9620     1.2700     1.1740 H     1 <1>   0.4000 
 28 H       -3.1860     4.6490     0.2850 H     1 <1>   0.0800 
 29 H       -2.6920     4.2200    -1.3300 H     1 <1>   0.0800 
 30 H       -9.1430    -1.8570     0.3430 H     1 <1>   0.1500 
 31 H       -1.5040     2.9970     1.0280 H     1 <1>   0.4500 
 32 H      -11.9570     2.1560    -0.0360 H     1 <1>   0.1500 
 33 H      -11.5970    -2.0650     0.3300 H     1 <1>   0.1500 
 34 H       -0.9590     5.1700     1.6170 H     1 <1>   0.0800 
 35 H       -0.6980     5.6020    -0.0720 H     1 <1>   0.0800 
 36 H       -0.5150     3.3050    -1.6980 H     1 <1>   0.0800 
 37 H       -0.7150     1.8300    -0.7520 H     1 <1>   0.0800 
 38 H      -12.9970    -0.0690     0.1410 H     1 <1>   0.1500 
 39 H        1.1050     4.1260     1.7500 H     1 <1>   0.0800 
 40 H        1.5010     5.1310     0.3780 H     1 <1>   0.0800 
 41 H        1.6540     3.2050    -0.9310 H     1 <1>   0.0800 
 42 H        1.2150     2.2470     0.4620 H     1 <1>   0.0800 
@<TRIPOS>BOND
  1   1   2  1   
  2   1   3  1   
  3   2   4  ar  
  4   2   5  ar  
  5   3   6  1   
  6   3  21  1   
  7   3  22  1   
  8   4   7  ar  
  9   4  23  1   
 10   5   8  ar  
 11   5  24  1   
 12   6   9  1   
 13   6  10  1   
 14   6  25  1   
 15   7  11  ar  
 16   7  12  ar  
 17   8  11  ar  
 18   8  26  1   
 19   9  27  1   
 20  10  13  1   
 21  10  28  1   
 22  10  29  1   
 23  11  14  ar  
 24  12  15  ar  
 25  12  30  1   
 26  13  16  1   
 27  13  17  1   
 28  13  31  1   
 29  14  18  ar  
 30  14  32  1   
 31  15  18  ar  
 32  15  33  1   
 33  16  19  1   
 34  16  34  1   
 35  16  35  1   
 36  17  20  1   
 37  17  36  1   
 38  17  37  1   
 39  18  38  1   
 40  19  20  1   
 41  19  39  1   
 42  19  40  1   
 43  20  41  1   
 44  20  42  1   
@<TRIPOS>SUBSTRUCTURE
  1 ****   1 GROUP 4 **** **** 0

# MOE 2024.06 (io_trps.svl 2023.06)
