@<TRIPOS>MOLECULE
NONAME
32 32 1 0 0 
SMALL
USER_CHARGES


@<TRIPOS>ATOM
  1 CL       3.7330     1.1620    -3.6050 Cl    1 <1>  -0.2900 
  2 C        3.0020     1.1970    -2.0040 C.3   1 <1>   0.9310 
  3 CL       2.1620     2.7340    -1.8430 Cl    1 <1>  -0.2900 
  4 CL       1.7690    -0.0630    -1.9830 Cl    1 <1>  -0.2900 
  5 C        4.0640     0.9770    -0.8820 C.2   1 <1>   0.5690 
  6 O        4.9780     1.7690    -0.7760 O.2   1 <1>  -0.5700 
  7 N        3.9860    -0.1160    -0.0370 N.am  1 <1>  -0.7300 
  8 C        4.7260    -0.4720     1.2140 C.3   1 <1>   0.1400 
  9 C        6.0880     0.2120     1.3930 C.3   1 <1>  -0.1600 
 10 C        7.0450    -0.1050     0.2410 C.3   1 <1>   0.3430 
 11 N        8.2140     0.8140     0.2630 N.4   1 <1>  -0.9590 
 12 C        7.8600     2.2080    -0.1870 C.3   1 <1>   0.3430 
 13 C        9.3710     0.3030    -0.5440 C.3   1 <1>   0.3430 
 14 C        9.0970     3.1350    -0.1960 C.3   1 <1>   0.1200 
 15 C       10.5420     1.3130    -0.5680 C.3   1 <1>   0.1200 
 16 O       10.2540     2.4480     0.2040 O.3   1 <1>  -0.5600 
 17 H        3.1800    -0.7410    -0.1860 H     1 <1>   0.3700 
 18 H        4.8690    -1.5400     1.2290 H     1 <1>   0.0800 
 19 H        4.1020    -0.2240     2.0570 H     1 <1>   0.0800 
 20 H        6.5230    -0.1390     2.3110 H     1 <1>   0.0800 
 21 H        5.9200     1.2670     1.4990 H     1 <1>   0.0800 
 22 H        6.5300    -0.0030    -0.7010 H     1 <1>   0.0800 
 23 H        7.3760    -1.1270     0.3300 H     1 <1>   0.0800 
 24 H        8.5700     0.9190     1.2240 H     1 <1>   0.4500 
 25 H        7.1100     2.6310     0.4610 H     1 <1>   0.0800 
 26 H        7.4360     2.1770    -1.1770 H     1 <1>   0.0800 
 27 H        9.0560     0.1140    -1.5580 H     1 <1>   0.0800 
 28 H        9.7220    -0.6300    -0.1350 H     1 <1>   0.0800 
 29 H        8.9490     3.9540     0.4870 H     1 <1>   0.0800 
 30 H        9.2580     3.5420    -1.1790 H     1 <1>   0.0800 
 31 H       10.7540     1.6280    -1.5760 H     1 <1>   0.0800 
 32 H       11.4310     0.8600    -0.1650 H     1 <1>   0.0800 
@<TRIPOS>BOND
  1   1   2  1   
  2   2   3  1   
  3   2   4  1   
  4   2   5  1   
  5   5   6  2   
  6   5   7  am  
  7   7   8  1   
  8   7  17  1   
  9   8   9  1   
 10   8  18  1   
 11   8  19  1   
 12   9  10  1   
 13   9  20  1   
 14   9  21  1   
 15  10  11  1   
 16  10  22  1   
 17  10  23  1   
 18  11  12  1   
 19  11  13  1   
 20  11  24  1   
 21  12  14  1   
 22  12  25  1   
 23  12  26  1   
 24  13  15  1   
 25  13  27  1   
 26  13  28  1   
 27  14  16  1   
 28  14  29  1   
 29  14  30  1   
 30  15  16  1   
 31  15  31  1   
 32  15  32  1   
@<TRIPOS>SUBSTRUCTURE
  1 ****   6 GROUP 4 **** **** 0

# MOE 2024.06 (io_trps.svl 2023.06)
