@<TRIPOS>MOLECULE
NONAME
35 35 1 0 0 
SMALL
USER_CHARGES


@<TRIPOS>ATOM
  1 S       -0.5130     0.3830     0.9650 S.3   1 <1>  -0.4100 
  2 C       -2.1960     0.8260     1.4620 C.3   1 <1>   0.0700 
  3 C       -3.1650    -0.0750     0.6950 C.3   1 <1>  -0.1600 
  4 C       -4.6220     0.2370     1.0610 C.3   1 <1>  -0.1600 
  5 C       -5.5880    -0.6710     0.2880 C.3   1 <1>  -0.1600 
  6 C       -7.0430    -0.3660     0.6470 C.3   1 <1>   0.1200 
  7 O       -7.8680    -1.2320    -0.0960 O.3   1 <1>  -0.3620 
  8 C       -9.2230    -1.1950     0.0130 C.ar  1 <1>   0.0820 
  9 C       -9.9570    -2.0900    -0.7610 C.ar  1 <1>  -0.1430 
 10 C       -9.8910    -0.3100     0.8560 C.ar  1 <1>  -0.1500 
 11 C      -11.3410    -2.0900    -0.6820 C.ar  1 <1>  -0.1500 
 12 C       -9.2530    -3.0670    -1.6910 C.3   1 <1>  -0.0970 
 13 C      -11.2720    -0.3210     0.9250 C.ar  1 <1>  -0.1500 
 14 C      -12.0050    -1.2110     0.1580 C.ar  1 <1>  -0.1430 
 15 C      -13.5210    -1.2230     0.2310 C.3   1 <1>  -0.0970 
 16 H        0.2490     1.2410     1.7050 H     1 <1>   0.1800 
 17 H       -2.3400     1.8640     1.2200 H     1 <1>   0.0800 
 18 H       -2.2670     0.6750     2.5250 H     1 <1>   0.0800 
 19 H       -2.9470    -1.1040     0.9270 H     1 <1>   0.0800 
 20 H       -3.0190     0.0700    -0.3610 H     1 <1>   0.0800 
 21 H       -4.8360     1.2670     0.8300 H     1 <1>   0.0800 
 22 H       -4.7640     0.0920     2.1190 H     1 <1>   0.0800 
 23 H       -5.3800    -1.7000     0.5220 H     1 <1>   0.0800 
 24 H       -5.4520    -0.5230    -0.7700 H     1 <1>   0.0800 
 25 H       -7.2950     0.6470     0.3870 H     1 <1>   0.0800 
 26 H       -7.2230    -0.5420     1.6930 H     1 <1>   0.0800 
 27 H       -9.3570     0.3920     1.4650 H     1 <1>   0.1500 
 28 H      -11.9090    -2.7790    -1.2800 H     1 <1>   0.1500 
 29 H       -9.9580    -3.6850    -2.2140 H     1 <1>   0.0800 
 30 H       -8.6690    -2.5230    -2.4120 H     1 <1>   0.0800 
 31 H       -8.5950    -3.6990    -1.1220 H     1 <1>   0.0800 
 32 H      -11.7760     0.3690     1.5790 H     1 <1>   0.1500 
 33 H      -13.8930    -2.2240     0.1090 H     1 <1>   0.0800 
 34 H      -13.9260    -0.6030    -0.5490 H     1 <1>   0.0800 
 35 H      -13.8560    -0.8500     1.1820 H     1 <1>   0.0800 
@<TRIPOS>BOND
  1   1   2  1   
  2   1  16  1   
  3   2   3  1   
  4   2  17  1   
  5   2  18  1   
  6   3   4  1   
  7   3  19  1   
  8   3  20  1   
  9   4   5  1   
 10   4  21  1   
 11   4  22  1   
 12   5   6  1   
 13   5  23  1   
 14   5  24  1   
 15   6   7  1   
 16   6  25  1   
 17   6  26  1   
 18   7   8  1   
 19   8   9  ar  
 20   8  10  ar  
 21   9  11  ar  
 22   9  12  1   
 23  10  13  ar  
 24  10  27  1   
 25  11  14  ar  
 26  11  28  1   
 27  12  29  1   
 28  12  30  1   
 29  12  31  1   
 30  13  14  ar  
 31  13  32  1   
 32  14  15  1   
 33  15  33  1   
 34  15  34  1   
 35  15  35  1   
@<TRIPOS>SUBSTRUCTURE
  1 ****   7 GROUP 4 **** **** 0

# MOE 2024.06 (io_trps.svl 2023.06)
