@<TRIPOS>MOLECULE
NONAME
51 53 1 0 0 
SMALL
USER_CHARGES


@<TRIPOS>ATOM
  1 S       -0.0380     0.4940     0.9060 S.3   1 <1>  -0.0800 
  2 C       -0.4320    -0.9900     0.0610 C.2   1 <1>   0.1040 
  3 C       -1.5740     1.2240     0.4630 C.2   1 <1>  -0.1400 
  4 N        0.4720    -2.0340    -0.0350 N.am  1 <1>  -0.4940 
  5 C       -1.6890    -0.9260    -0.4620 C.2   1 <1>  -0.0860 
  6 C       -2.3170     0.3620    -0.2620 C.2   1 <1>  -0.1810 
  7 C       -1.7670     2.6530     0.9350 C.3   1 <1>  -0.0600 
  8 C        1.5880    -2.3910     0.6780 C.2   1 <1>   0.7160 
  9 C       -2.2810    -2.0660    -1.1080 C.2   1 <1>   0.7160 
 10 C       -3.6810     0.6860    -0.8650 C.3   1 <1>   0.0210 
 11 O        1.9860    -1.7010     1.5930 O.2   1 <1>  -0.5700 
 12 C        2.2700    -3.6120     0.3280 C.2   1 <1>  -0.0860 
 13 O       -1.6740    -2.6110    -2.0180 O.2   1 <1>  -0.5700 
 14 N       -3.4570    -2.6340    -0.6630 N.am  1 <1>  -0.6600 
 15 C       -3.5740     0.8590    -2.3810 C.3   1 <1>  -0.2400 
 16 C        3.5810    -3.9330     0.4010 C.2   1 <1>  -0.0400 
 17 C        1.7360    -4.7940    -0.1760 C.2   1 <1>   0.1080 
 18 C       -4.1510    -3.7040    -1.4300 C.3   1 <1>   0.1400 
 19 C       -3.9370    -2.4790     0.7380 C.3   1 <1>   0.1400 
 20 O        3.8190    -5.1520    -0.0170 O.3   1 <1>  -0.0190 
 21 C        4.7660    -3.1100     0.8720 C.3   1 <1>  -0.0600 
 22 N        2.6600    -5.6570    -0.3670 N.2   1 <1>  -0.4100 
 23 C        0.2780    -5.1020    -0.4670 C.3   1 <1>  -0.0590 
 24 C       -3.9780    -5.0450    -0.7080 C.3   1 <1>  -0.1600 
 25 C       -3.7610    -3.8050     1.4850 C.3   1 <1>  -0.1600 
 26 C       -4.4490    -4.9670     0.7520 C.3   1 <1>  -0.1600 
 27 H        0.2550    -2.6800    -0.7970 H     1 <1>   0.3700 
 28 H       -0.9760     3.2700     0.5490 H     1 <1>   0.0800 
 29 H       -1.7370     2.6860     2.0090 H     1 <1>   0.0800 
 30 H       -2.7060     3.0510     0.6030 H     1 <1>   0.0800 
 31 H       -4.0650     1.5950    -0.4410 H     1 <1>   0.0800 
 32 H       -4.3880    -0.0890    -0.6380 H     1 <1>   0.0800 
 33 H       -2.8710     1.6390    -2.6140 H     1 <1>   0.0800 
 34 H       -4.5320     1.1230    -2.7920 H     1 <1>   0.0800 
 35 H       -3.2410    -0.0520    -2.8460 H     1 <1>   0.0800 
 36 H       -3.7570    -3.7730    -2.4310 H     1 <1>   0.0800 
 37 H       -5.1970    -3.4600    -1.5030 H     1 <1>   0.0800 
 38 H       -4.9780    -2.2040     0.7240 H     1 <1>   0.0800 
 39 H       -3.3940    -1.7050     1.2520 H     1 <1>   0.0800 
 40 H        4.4660    -2.1140     1.1400 H     1 <1>   0.0800 
 41 H        5.4990    -3.0490     0.0890 H     1 <1>   0.0800 
 42 H        5.2120    -3.5790     1.7300 H     1 <1>   0.0800 
 43 H       -0.0060    -4.6840    -1.4160 H     1 <1>   0.0800 
 44 H       -0.3550    -4.7080     0.3060 H     1 <1>   0.0800 
 45 H        0.1350    -6.1670    -0.5110 H     1 <1>   0.0800 
 46 H       -2.9390    -5.3240    -0.7430 H     1 <1>   0.0800 
 47 H       -4.5370    -5.8020    -1.2280 H     1 <1>   0.0800 
 48 H       -4.1700    -3.7110     2.4760 H     1 <1>   0.0800 
 49 H       -2.7090    -4.0100     1.5860 H     1 <1>   0.0800 
 50 H       -4.2330    -5.8940     1.2550 H     1 <1>   0.0800 
 51 H       -5.5150    -4.8190     0.7740 H     1 <1>   0.0800 
@<TRIPOS>BOND
  1   1   2  1   
  2   1   3  1   
  3   2   4  1   
  4   2   5  2   
  5   3   6  2   
  6   3   7  1   
  7   4   8  am  
  8   4  27  1   
  9   5   6  1   
 10   5   9  1   
 11   6  10  1   
 12   7  28  1   
 13   7  29  1   
 14   7  30  1   
 15   8  11  2   
 16   8  12  1   
 17   9  13  2   
 18   9  14  am  
 19  10  15  1   
 20  10  31  1   
 21  10  32  1   
 22  12  16  2   
 23  12  17  1   
 24  14  18  1   
 25  14  19  1   
 26  15  33  1   
 27  15  34  1   
 28  15  35  1   
 29  16  20  1   
 30  16  21  1   
 31  17  22  2   
 32  17  23  1   
 33  18  24  1   
 34  18  36  1   
 35  18  37  1   
 36  19  25  1   
 37  19  38  1   
 38  19  39  1   
 39  20  22  1   
 40  21  40  1   
 41  21  41  1   
 42  21  42  1   
 43  23  43  1   
 44  23  44  1   
 45  23  45  1   
 46  24  26  1   
 47  24  46  1   
 48  24  47  1   
 49  25  26  1   
 50  25  48  1   
 51  25  49  1   
 52  26  50  1   
 53  26  51  1   
@<TRIPOS>SUBSTRUCTURE
  1 ****   4 GROUP 4 **** **** 0

# MOE 2024.06 (io_trps.svl 2023.06)
