@<TRIPOS>MOLECULE
NONAME
41 42 1 0 0 
SMALL
USER_CHARGES


@<TRIPOS>ATOM
  1 S       -0.3560    -0.4570     0.5210 S.3   1 <1>  -0.0800 
  2 C       -1.3970    -1.6290    -0.2660 C.2   1 <1>   0.0600 
  3 C        1.1170    -1.2010    -0.1070 C.2   1 <1>  -0.0450 
  4 C       -2.8050    -1.5040    -0.0810 C.1   1 <1>  -0.0200 
  5 C       -0.6390    -2.5060    -0.9550 C.2   1 <1>  -0.1500 
  6 C        2.3870    -0.6160     0.2480 C.2   1 <1>   0.7150 
  7 C        0.7610    -2.2670    -0.8710 C.2   1 <1>  -0.1500 
  8 C       -3.9790    -1.3910     0.0870 C.1   1 <1>  -0.2000 
  9 O        2.4890     0.5580     0.5420 O.2   1 <1>  -0.5700 
 10 N        3.5430    -1.3270     0.2770 N.am  1 <1>  -0.7300 
 11 C       -5.4390    -1.2320     0.3140 C.3   1 <1>   0.4800 
 12 C        3.7060    -2.7650     0.5340 C.3   1 <1>   0.2200 
 13 O       -5.6540    -1.4650     1.6420 O.3   1 <1>  -0.6800 
 14 C       -5.8870     0.1950     0.0250 C.3   1 <1>  -0.2400 
 15 C       -6.2480    -2.2600    -0.4660 C.3   1 <1>  -0.2400 
 16 C        4.4630    -2.9490     1.8530 C.3   1 <1>  -0.1600 
 17 C        4.4730    -3.3960    -0.6330 C.3   1 <1>  -0.1600 
 18 C        4.7430    -4.4340     2.1260 C.3   1 <1>  -0.1600 
 19 C        4.7520    -4.8830    -0.3710 C.3   1 <1>  -0.1600 
 20 C        5.4980    -5.0810     0.9560 C.3   1 <1>  -0.1600 
 21 H       -1.0320    -3.3260    -1.5300 H     1 <1>   0.1500 
 22 H        1.4540    -2.9020    -1.3940 H     1 <1>   0.1500 
 23 H        4.3630    -0.7610     0.4930 H     1 <1>   0.3700 
 24 H        2.7430    -3.2370     0.6250 H     1 <1>   0.0800 
 25 H       -4.9250    -1.0490     2.1360 H     1 <1>   0.4000 
 26 H       -5.7380     0.4190    -1.0150 H     1 <1>   0.0800 
 27 H       -5.3160     0.8960     0.6060 H     1 <1>   0.0800 
 28 H       -6.9320     0.3110     0.2530 H     1 <1>   0.0800 
 29 H       -5.9300    -3.2540    -0.2090 H     1 <1>   0.0800 
 30 H       -6.1030    -2.1170    -1.5210 H     1 <1>   0.0800 
 31 H       -7.2950    -2.1550    -0.2460 H     1 <1>   0.0800 
 32 H        3.8790    -2.5440     2.6610 H     1 <1>   0.0800 
 33 H        5.4000    -2.4210     1.8100 H     1 <1>   0.0800 
 34 H        5.4090    -2.8830    -0.7660 H     1 <1>   0.0800 
 35 H        3.9010    -3.2950    -1.5380 H     1 <1>   0.0800 
 36 H        3.8110    -4.9520     2.2780 H     1 <1>   0.0800 
 37 H        5.3240    -4.5330     3.0270 H     1 <1>   0.0800 
 38 H        5.3390    -5.2880    -1.1770 H     1 <1>   0.0800 
 39 H        3.8200    -5.4230    -0.3390 H     1 <1>   0.0800 
 40 H        5.6230    -6.1330     1.1460 H     1 <1>   0.0800 
 41 H        6.4790    -4.6430     0.8810 H     1 <1>   0.0800 
@<TRIPOS>BOND
  1   1   2  1   
  2   1   3  1   
  3   2   4  1   
  4   2   5  2   
  5   3   6  1   
  6   3   7  2   
  7   4   8  3   
  8   5   7  1   
  9   5  21  1   
 10   6   9  2   
 11   6  10  am  
 12   7  22  1   
 13   8  11  1   
 14  10  12  1   
 15  10  23  1   
 16  11  13  1   
 17  11  14  1   
 18  11  15  1   
 19  12  16  1   
 20  12  17  1   
 21  12  24  1   
 22  13  25  1   
 23  14  26  1   
 24  14  27  1   
 25  14  28  1   
 26  15  29  1   
 27  15  30  1   
 28  15  31  1   
 29  16  18  1   
 30  16  32  1   
 31  16  33  1   
 32  17  19  1   
 33  17  34  1   
 34  17  35  1   
 35  18  20  1   
 36  18  36  1   
 37  18  37  1   
 38  19  20  1   
 39  19  38  1   
 40  19  39  1   
 41  20  40  1   
 42  20  41  1   
@<TRIPOS>SUBSTRUCTURE
  1 ****   3 GROUP 4 **** **** 0

# MOE 2024.06 (io_trps.svl 2023.06)
