@<TRIPOS>MOLECULE
NONAME
36 36 1 0 0 
SMALL
USER_CHARGES


@<TRIPOS>ATOM
  1 F        1.2100     0.1670    -2.0330 F     1 <1>  -0.1900 
  2 C        2.0380    -0.5480    -1.3190 C.ar  1 <1>   0.1900 
  3 C        3.3040    -0.0550    -1.0800 C.ar  1 <1>  -0.1500 
  4 C        1.6100    -1.7680    -0.8320 C.ar  1 <1>  -0.1500 
  5 C        4.1950    -0.8060    -0.3230 C.ar  1 <1>   0.1170 
  6 C        2.4930    -2.5180    -0.0750 C.ar  1 <1>  -0.1500 
  7 N        5.4730    -0.2870    -0.0760 N.am  1 <1>  -0.5470 
  8 C        3.7690    -2.0370     0.1760 C.ar  1 <1>  -0.1500 
  9 C        6.6580    -0.8940     0.2320 C.2   1 <1>   0.6900 
 10 O        6.7620    -2.1060     0.2220 O.2   1 <1>  -0.5700 
 11 N        7.7430    -0.1010     0.5190 N.am  1 <1>  -0.6600 
 12 C        7.6180     1.3080     0.9820 C.3   1 <1>   0.1400 
 13 C        9.1030    -0.7020     0.6200 C.3   1 <1>   0.1400 
 14 C        7.8530     2.2690    -0.1870 C.3   1 <1>  -0.1600 
 15 C        9.7110    -0.8570    -0.7760 C.3   1 <1>  -0.1600 
 16 C        7.5880     3.7210     0.2240 C.3   1 <1>  -0.2400 
 17 C       11.1230    -1.4490    -0.7070 C.3   1 <1>  -0.2400 
 18 H        3.5880     0.8970    -1.4840 H     1 <1>   0.1500 
 19 H        0.6150    -2.1180    -1.0420 H     1 <1>   0.1500 
 20 H        2.1930    -3.4730     0.3200 H     1 <1>   0.1500 
 21 H        5.5940     0.7020    -0.2620 H     1 <1>   0.3700 
 22 H        4.4420    -2.6300     0.7700 H     1 <1>   0.1500 
 23 H        8.3330     1.5000     1.7640 H     1 <1>   0.0800 
 24 H        6.6390     1.4680     1.4010 H     1 <1>   0.0800 
 25 H        9.0350    -1.6680     1.0940 H     1 <1>   0.0800 
 26 H        9.7390    -0.0830     1.2290 H     1 <1>   0.0800 
 27 H        7.2070     2.0110    -1.0070 H     1 <1>   0.0800 
 28 H        8.8730     2.1810    -0.5180 H     1 <1>   0.0800 
 29 H        9.7530     0.1000    -1.2630 H     1 <1>   0.0800 
 30 H        9.0860    -1.5110    -1.3610 H     1 <1>   0.0800 
 31 H        6.5680     3.8460     0.5430 H     1 <1>   0.0800 
 32 H        7.7670     4.3770    -0.6100 H     1 <1>   0.0800 
 33 H        8.2410     4.0100     1.0290 H     1 <1>   0.0800 
 34 H       11.7750    -0.8070    -0.1410 H     1 <1>   0.0800 
 35 H       11.5250    -1.5550    -1.7000 H     1 <1>   0.0800 
 36 H       11.1000    -2.4200    -0.2440 H     1 <1>   0.0800 
@<TRIPOS>BOND
  1   1   2  1   
  2   2   3  ar  
  3   2   4  ar  
  4   3   5  ar  
  5   3  18  1   
  6   4   6  ar  
  7   4  19  1   
  8   5   7  1   
  9   5   8  ar  
 10   6   8  ar  
 11   6  20  1   
 12   7   9  am  
 13   7  21  1   
 14   8  22  1   
 15   9  10  2   
 16   9  11  am  
 17  11  12  1   
 18  11  13  1   
 19  12  14  1   
 20  12  23  1   
 21  12  24  1   
 22  13  15  1   
 23  13  25  1   
 24  13  26  1   
 25  14  16  1   
 26  14  27  1   
 27  14  28  1   
 28  15  17  1   
 29  15  29  1   
 30  15  30  1   
 31  16  31  1   
 32  16  32  1   
 33  16  33  1   
 34  17  34  1   
 35  17  35  1   
 36  17  36  1   
@<TRIPOS>SUBSTRUCTURE
  1 ****   7 GROUP 4 **** **** 0

# MOE 2024.06 (io_trps.svl 2023.06)
