@<TRIPOS>MOLECULE
NONAME
45 46 1 0 0 
SMALL
USER_CHARGES


@<TRIPOS>ATOM
  1 O        0.0550    -0.3970     0.3050 O.2   1 <1>  -0.5700 
  2 C        0.1180    -1.5510    -0.0660 C.2   1 <1>   0.7800 
  3 O       -0.9250    -2.3640     0.0900 O.3   1 <1>  -0.4300 
  4 N        1.2560    -2.0750    -0.6250 N.am  1 <1>  -0.6600 
  5 C       -2.1310    -1.8920     0.6470 C.3   1 <1>   0.1200 
  6 C        2.4800    -1.2440    -0.8150 C.3   1 <1>   0.1400 
  7 C        1.4280    -3.5260    -0.9230 C.3   1 <1>   0.1400 
  8 C       -3.1190    -3.0530     0.6910 C.3   1 <1>  -0.2400 
  9 C        3.6540    -1.8330    -0.0130 C.3   1 <1>   0.3430 
 10 C        2.6180    -4.0970    -0.1270 C.3   1 <1>   0.3430 
 11 N        3.8820    -3.2960    -0.3240 N.4   1 <1>  -0.9590 
 12 C        4.9960    -3.8750     0.4780 C.3   1 <1>   0.3430 
 13 C        6.3340    -3.2930     0.0270 C.3   1 <1>  -0.1600 
 14 C        7.5070    -3.9680     0.7480 C.3   1 <1>  -0.0170 
 15 C        8.8080    -3.3430     0.2810 C.ar  1 <1>  -0.1440 
 16 C        9.4570    -3.8350    -0.8410 C.ar  1 <1>  -0.1500 
 17 C        9.3560    -2.2690     0.9670 C.ar  1 <1>  -0.1500 
 18 C       10.6370    -3.2570    -1.2760 C.ar  1 <1>  -0.1500 
 19 C       10.5350    -1.6900     0.5320 C.ar  1 <1>  -0.1500 
 20 C       11.1760    -2.1830    -0.5910 C.ar  1 <1>  -0.1500 
 21 H       -2.5030    -1.0910     0.0280 H     1 <1>   0.0800 
 22 H       -1.9290    -1.5180     1.6370 H     1 <1>   0.0800 
 23 H        2.3060    -0.2310    -0.4910 H     1 <1>   0.0800 
 24 H        2.7280    -1.2090    -1.8610 H     1 <1>   0.0800 
 25 H        1.5960    -3.6530    -1.9790 H     1 <1>   0.0800 
 26 H        0.5390    -4.0790    -0.6700 H     1 <1>   0.0800 
 27 H       -3.3060    -3.4200    -0.3020 H     1 <1>   0.0800 
 28 H       -4.0510    -2.7180     1.1110 H     1 <1>   0.0800 
 29 H       -2.7340    -3.8470     1.3050 H     1 <1>   0.0800 
 30 H        3.4400    -1.7140     1.0370 H     1 <1>   0.0800 
 31 H        4.5420    -1.2640    -0.2340 H     1 <1>   0.0800 
 32 H        2.7810    -5.1190    -0.4280 H     1 <1>   0.0800 
 33 H        2.3520    -4.1000     0.9170 H     1 <1>   0.0800 
 34 H        4.1390    -3.3620    -1.3180 H     1 <1>   0.4500 
 35 H        5.0210    -4.9440     0.3410 H     1 <1>   0.0800 
 36 H        4.8420    -3.6750     1.5270 H     1 <1>   0.0800 
 37 H        6.3770    -2.2390     0.2380 H     1 <1>   0.0800 
 38 H        6.4590    -3.4380    -1.0320 H     1 <1>   0.0800 
 39 H        7.5230    -5.0240     0.5370 H     1 <1>   0.0800 
 40 H        7.4140    -3.8450     1.8140 H     1 <1>   0.0800 
 41 H        9.0530    -4.6710    -1.3840 H     1 <1>   0.1500 
 42 H        8.8730    -1.8740     1.8430 H     1 <1>   0.1500 
 43 H       11.1380    -3.6420    -2.1470 H     1 <1>   0.1500 
 44 H       10.9570    -0.8570     1.0670 H     1 <1>   0.1500 
 45 H       12.0930    -1.7340    -0.9290 H     1 <1>   0.1500 
@<TRIPOS>BOND
  1   1   2  2   
  2   2   3  1   
  3   2   4  am  
  4   3   5  1   
  5   4   6  1   
  6   4   7  1   
  7   5   8  1   
  8   5  21  1   
  9   5  22  1   
 10   6   9  1   
 11   6  23  1   
 12   6  24  1   
 13   7  10  1   
 14   7  25  1   
 15   7  26  1   
 16   8  27  1   
 17   8  28  1   
 18   8  29  1   
 19   9  11  1   
 20   9  30  1   
 21   9  31  1   
 22  10  11  1   
 23  10  32  1   
 24  10  33  1   
 25  11  12  1   
 26  11  34  1   
 27  12  13  1   
 28  12  35  1   
 29  12  36  1   
 30  13  14  1   
 31  13  37  1   
 32  13  38  1   
 33  14  15  1   
 34  14  39  1   
 35  14  40  1   
 36  15  16  ar  
 37  15  17  ar  
 38  16  18  ar  
 39  16  41  1   
 40  17  19  ar  
 41  17  42  1   
 42  18  20  ar  
 43  18  43  1   
 44  19  20  ar  
 45  19  44  1   
 46  20  45  1   
@<TRIPOS>SUBSTRUCTURE
  1 ****  11 GROUP 4 **** **** 0

# MOE 2024.06 (io_trps.svl 2023.06)
