@<TRIPOS>MOLECULE
NONAME
48 49 1 0 0 
SMALL
USER_CHARGES


@<TRIPOS>ATOM
  1 O        0.8420     2.0080     2.1120 O.2   1 <1>  -0.5700 
  2 C        0.5920     2.2740     0.9620 C.2   1 <1>   0.5690 
  3 N        1.4440     1.9780    -0.0520 N.am  1 <1>  -0.7300 
  4 C       -0.7120     2.9690     0.6290 C.3   1 <1>  -0.0990 
  5 C        2.7360     1.2730     0.1160 C.3   1 <1>   0.1400 
  6 C       -1.7630     1.9840     0.0850 C.3   1 <1>  -0.1600 
  7 C        3.8770     2.2860     0.2020 C.3   1 <1>  -0.0160 
  8 C       -3.0570     2.6670    -0.3980 C.3   1 <1>  -0.0800 
  9 C        5.2110     1.5660     0.3080 C.ar  1 <1>  -0.1440 
 10 C       -3.8130     3.3620     0.7520 C.3   1 <1>  -0.1600 
 11 C       -3.9650     1.6260    -1.0780 C.3   1 <1>  -0.1600 
 12 C        5.6480     1.0940     1.5370 C.ar  1 <1>  -0.1500 
 13 C        6.0000     1.3690    -0.8150 C.ar  1 <1>  -0.1500 
 14 C       -5.1350     3.9780     0.2730 C.3   1 <1>  -0.1600 
 15 C       -5.2820     2.2480    -1.5620 C.3   1 <1>  -0.1600 
 16 C        6.8590     0.4330     1.6390 C.ar  1 <1>  -0.1500 
 17 C        7.2120     0.7080    -0.7160 C.ar  1 <1>  -0.1500 
 18 C       -6.0240     2.9320    -0.4090 C.3   1 <1>  -0.1600 
 19 C        7.6490     0.2340     0.5190 C.ar  1 <1>   0.0820 
 20 O        8.8210    -0.4230     0.7040 O.3   1 <1>  -0.3620 
 21 C        9.7020    -0.6670    -0.3690 C.3   1 <1>   0.0400 
 22 H        1.1910     2.2310    -1.0070 H     1 <1>   0.3700 
 23 H       -0.5200     3.7420    -0.0920 H     1 <1>   0.0800 
 24 H       -1.0740     3.4360     1.5270 H     1 <1>   0.0800 
 25 H        2.8930     0.6080    -0.7160 H     1 <1>   0.0800 
 26 H        2.7130     0.6820     1.0170 H     1 <1>   0.0800 
 27 H       -1.9970     1.2640     0.8510 H     1 <1>   0.0800 
 28 H       -1.3300     1.4450    -0.7400 H     1 <1>   0.0800 
 29 H        3.7350     2.9070     1.0690 H     1 <1>   0.0800 
 30 H        3.8720     2.9150    -0.6700 H     1 <1>   0.0800 
 31 H       -2.7990     3.4110    -1.1320 H     1 <1>   0.0800 
 32 H       -3.2100     4.1440     1.1760 H     1 <1>   0.0800 
 33 H       -4.0200     2.6460     1.5290 H     1 <1>   0.0800 
 34 H       -4.1870     0.8350    -0.3820 H     1 <1>   0.0800 
 35 H       -3.4540     1.1910    -1.9190 H     1 <1>   0.0800 
 36 H        5.0460     1.2390     2.4180 H     1 <1>   0.1500 
 37 H        5.6740     1.7300    -1.7750 H     1 <1>   0.1500 
 38 H       -4.9250     4.7730    -0.4230 H     1 <1>   0.0800 
 39 H       -5.6580     4.4040     1.1110 H     1 <1>   0.0800 
 40 H       -5.9060     1.4820    -1.9880 H     1 <1>   0.0800 
 41 H       -5.0730     2.9710    -2.3310 H     1 <1>   0.0800 
 42 H        7.1990     0.0660     2.5900 H     1 <1>   0.1500 
 43 H        7.7990     0.5720    -1.6030 H     1 <1>   0.1500 
 44 H       -6.9160     3.4040    -0.7830 H     1 <1>   0.0800 
 45 H       -6.3200     2.1910     0.3140 H     1 <1>   0.0800 
 46 H       10.5570    -1.1930     0.0140 H     1 <1>   0.0800 
 47 H       10.0080     0.2740    -0.7890 H     1 <1>   0.0800 
 48 H        9.1990    -1.2730    -1.1020 H     1 <1>   0.0800 
@<TRIPOS>BOND
  1   1   2  2   
  2   2   3  am  
  3   2   4  1   
  4   3   5  1   
  5   3  22  1   
  6   4   6  1   
  7   4  23  1   
  8   4  24  1   
  9   5   7  1   
 10   5  25  1   
 11   5  26  1   
 12   6   8  1   
 13   6  27  1   
 14   6  28  1   
 15   7   9  1   
 16   7  29  1   
 17   7  30  1   
 18   8  10  1   
 19   8  11  1   
 20   8  31  1   
 21   9  12  ar  
 22   9  13  ar  
 23  10  14  1   
 24  10  32  1   
 25  10  33  1   
 26  11  15  1   
 27  11  34  1   
 28  11  35  1   
 29  12  16  ar  
 30  12  36  1   
 31  13  17  ar  
 32  13  37  1   
 33  14  18  1   
 34  14  38  1   
 35  14  39  1   
 36  15  18  1   
 37  15  40  1   
 38  15  41  1   
 39  16  19  ar  
 40  16  42  1   
 41  17  19  ar  
 42  17  43  1   
 43  18  44  1   
 44  18  45  1   
 45  19  20  1   
 46  20  21  1   
 47  21  46  1   
 48  21  47  1   
 49  21  48  1   
@<TRIPOS>SUBSTRUCTURE
  1 ****   3 GROUP 4 **** **** 0

# MOE 2024.06 (io_trps.svl 2023.06)
