@<TRIPOS>MOLECULE
NONAME
57 60 1 0 0 
SMALL
USER_CHARGES


@<TRIPOS>ATOM
  1 O       -2.3450     1.6800     0.0310 O.3   1 <1>  -0.5600 
  2 C       -2.8750     2.7310    -0.7260 C.3   1 <1>   0.1200 
  3 C       -3.0430     1.4010     1.2100 C.3   1 <1>   0.1200 
  4 C       -4.3190     2.4070    -1.1530 C.3   1 <1>   0.3430 
  5 C       -4.4980     1.0050     0.8910 C.3   1 <1>   0.3430 
  6 N       -5.1680     2.0360     0.0290 N.4   1 <1>  -0.9590 
  7 C       -6.5710     1.6790    -0.3450 C.3   1 <1>   0.3430 
  8 C       -7.3880     2.9580    -0.6240 C.3   1 <1>   0.2000 
  9 O       -6.9550     3.9720     0.2310 O.3   1 <1>  -0.6800 
 10 C       -8.8980     2.7700    -0.4220 C.3   1 <1>   0.1200 
 11 O       -9.4940     4.0310    -0.4060 O.3   1 <1>  -0.5600 
 12 C      -10.8750     4.0100    -0.2340 C.3   1 <1>   0.1200 
 13 C      -11.3660     5.4610    -0.2410 C.3   1 <1>  -0.1600 
 14 C      -12.8910     5.6390    -0.0550 C.3   1 <1>   0.0000 
 15 C      -13.6900     4.9490    -1.1870 C.3   1 <1>  -0.1600 
 16 C      -13.2140     7.1520    -0.0890 C.3   1 <1>  -0.1600 
 17 C      -13.3720     5.0730     1.3030 C.3   1 <1>  -0.1600 
 18 C      -15.2030     5.1850    -1.0110 C.3   1 <1>  -0.0800 
 19 C      -14.7230     7.4010     0.0920 C.3   1 <1>  -0.0800 
 20 C      -14.8830     5.3100     1.4900 C.3   1 <1>  -0.0800 
 21 C      -15.4890     6.6970    -1.0430 C.3   1 <1>  -0.1600 
 22 C      -15.6490     4.6150     0.3490 C.3   1 <1>  -0.1600 
 23 C      -15.1700     6.8210     1.4450 C.3   1 <1>  -0.1600 
 24 H       -2.2500     2.8570    -1.5930 H     1 <1>   0.0800 
 25 H       -2.8360     3.6350    -0.1420 H     1 <1>   0.0800 
 26 H       -3.0070     2.2670     1.8490 H     1 <1>   0.0800 
 27 H       -2.5380     0.5900     1.7050 H     1 <1>   0.0800 
 28 H       -4.2890     1.5890    -1.8530 H     1 <1>   0.0800 
 29 H       -4.7400     3.2630    -1.6540 H     1 <1>   0.0800 
 30 H       -5.0440     0.8820     1.8120 H     1 <1>   0.0800 
 31 H       -4.4860     0.0560     0.3810 H     1 <1>   0.0800 
 32 H       -5.2920     2.9080     0.5810 H     1 <1>   0.4500 
 33 H       -7.0360     1.1620     0.4780 H     1 <1>   0.0800 
 34 H       -6.5890     1.0250    -1.2010 H     1 <1>   0.0800 
 35 H       -7.2140     3.2890    -1.6340 H     1 <1>   0.0800 
 36 H       -7.6840     4.6420     0.2570 H     1 <1>   0.4000 
 37 H       -9.1000     2.2850     0.5190 H     1 <1>   0.0800 
 38 H       -9.3230     2.1920    -1.2260 H     1 <1>   0.0800 
 39 H      -11.0960     3.5350     0.7060 H     1 <1>   0.0800 
 40 H      -11.3140     3.4530    -1.0430 H     1 <1>   0.0800 
 41 H      -11.0790     5.9070    -1.1760 H     1 <1>   0.0800 
 42 H      -10.8600     5.9900     0.5470 H     1 <1>   0.0800 
 43 H      -13.5080     3.8900    -1.1850 H     1 <1>   0.0800 
 44 H      -13.3770     5.3330    -2.1420 H     1 <1>   0.0800 
 45 H      -12.8960     7.5730    -1.0270 H     1 <1>   0.0800 
 46 H      -12.6760     7.6590     0.6930 H     1 <1>   0.0800 
 47 H      -12.8330     5.5440     2.1060 H     1 <1>   0.0800 
 48 H      -13.1830     4.0160     1.3580 H     1 <1>   0.0800 
 49 H      -15.7420     4.6970    -1.8040 H     1 <1>   0.0800 
 50 H      -14.9230     8.4590     0.0650 H     1 <1>   0.0800 
 51 H      -15.1990     4.9080     2.4370 H     1 <1>   0.0800 
 52 H      -16.5450     6.8710    -0.9310 H     1 <1>   0.0800 
 53 H      -15.1890     7.1050    -1.9930 H     1 <1>   0.0800 
 54 H      -15.4650     3.5550     0.3780 H     1 <1>   0.0800 
 55 H      -16.7070     4.7660     0.4760 H     1 <1>   0.0800 
 56 H      -14.6460     7.3150     2.2450 H     1 <1>   0.0800 
 57 H      -16.2220     6.9970     1.5870 H     1 <1>   0.0800 
@<TRIPOS>BOND
  1   1   2  1   
  2   1   3  1   
  3   2   4  1   
  4   2  24  1   
  5   2  25  1   
  6   3   5  1   
  7   3  26  1   
  8   3  27  1   
  9   4   6  1   
 10   4  28  1   
 11   4  29  1   
 12   5   6  1   
 13   5  30  1   
 14   5  31  1   
 15   6   7  1   
 16   6  32  1   
 17   7   8  1   
 18   7  33  1   
 19   7  34  1   
 20   8   9  1   
 21   8  10  1   
 22   8  35  1   
 23   9  36  1   
 24  10  11  1   
 25  10  37  1   
 26  10  38  1   
 27  11  12  1   
 28  12  13  1   
 29  12  39  1   
 30  12  40  1   
 31  13  14  1   
 32  13  41  1   
 33  13  42  1   
 34  14  15  1   
 35  14  16  1   
 36  14  17  1   
 37  15  18  1   
 38  15  43  1   
 39  15  44  1   
 40  16  19  1   
 41  16  45  1   
 42  16  46  1   
 43  17  20  1   
 44  17  47  1   
 45  17  48  1   
 46  18  21  1   
 47  18  22  1   
 48  18  49  1   
 49  19  21  1   
 50  19  23  1   
 51  19  50  1   
 52  20  22  1   
 53  20  23  1   
 54  20  51  1   
 55  21  52  1   
 56  21  53  1   
 57  22  54  1   
 58  22  55  1   
 59  23  56  1   
 60  23  57  1   
@<TRIPOS>SUBSTRUCTURE
  1 ****  11 GROUP 4 **** **** 0

# MOE 2024.06 (io_trps.svl 2023.06)
