@<TRIPOS>MOLECULE
NONAME
51 53 1 0 0 
SMALL
USER_CHARGES


@<TRIPOS>ATOM
  1 O        0.2170    -0.4890     1.7720 O.2   1 <1>  -0.5700 
  2 C       -0.3340    -1.2300     0.9740 C.2   1 <1>   0.5440 
  3 N       -1.4810    -0.7810     0.3570 N.am  1 <1>  -0.6600 
  4 C        0.2200    -2.5390     0.6930 C.ar  1 <1>   0.0860 
  5 C       -2.2950     0.3080     0.9710 C.3   1 <1>   0.1400 
  6 C       -1.9250    -1.2620    -0.9800 C.3   1 <1>   0.1400 
  7 C        1.5620    -2.6990     0.3110 C.ar  1 <1>   0.1170 
  8 C       -0.5830    -3.6770     0.7910 C.ar  1 <1>  -0.1500 
  9 C       -3.7010     0.3920     0.3560 C.3   1 <1>  -0.1600 
 10 C       -3.3660    -1.7910    -0.9050 C.3   1 <1>  -0.1600 
 11 N        2.3940    -1.5770     0.2410 N.am  1 <1>  -0.5470 
 12 C        2.0440    -3.9730     0.0270 C.ar  1 <1>  -0.1500 
 13 C       -0.0910    -4.9360     0.5060 C.ar  1 <1>  -0.1500 
 14 C       -4.2680    -1.0050     0.0670 C.3   1 <1>  -0.1600 
 15 C        3.4480    -1.2610    -0.5850 C.2   1 <1>   0.5440 
 16 C        1.2290    -5.0830     0.1200 C.ar  1 <1>  -0.1500 
 17 O        3.7910    -2.0410    -1.4540 O.2   1 <1>  -0.5700 
 18 C        4.0960     0.0190    -0.4170 C.ar  1 <1>   0.0860 
 19 C        5.4680     0.1180    -0.1470 C.ar  1 <1>   0.0820 
 20 C        3.3510     1.2050    -0.4930 C.ar  1 <1>   0.0820 
 21 O        6.1750    -1.0330    -0.0280 O.3   1 <1>  -0.3630 
 22 C        6.0690     1.3630     0.0140 C.ar  1 <1>  -0.1500 
 23 O        2.0220     1.1100    -0.7360 O.3   1 <1>  -0.3630 
 24 C        3.9630     2.4420    -0.3260 C.ar  1 <1>  -0.1500 
 25 C        7.5820    -1.0650     0.0580 C.3   1 <1>   0.0400 
 26 C        5.3190     2.5200    -0.0760 C.ar  1 <1>  -0.1500 
 27 C        1.1060     2.0690    -0.2560 C.3   1 <1>   0.0400 
 28 H       -1.7840     1.2480     0.8570 H     1 <1>   0.0800 
 29 H       -2.3820     0.1070     2.0260 H     1 <1>   0.0800 
 30 H       -1.2670    -2.0240    -1.3610 H     1 <1>   0.0800 
 31 H       -1.8850    -0.4310    -1.6630 H     1 <1>   0.0800 
 32 H       -1.6080    -3.5620     1.0970 H     1 <1>   0.1500 
 33 H       -3.6560     0.9610    -0.5570 H     1 <1>   0.0800 
 34 H       -4.3500     0.9210     1.0320 H     1 <1>   0.0800 
 35 H       -3.3490    -2.8250    -0.6130 H     1 <1>   0.0800 
 36 H       -3.7850    -1.7500    -1.8950 H     1 <1>   0.0800 
 37 H        2.0340    -0.7690     0.7660 H     1 <1>   0.3700 
 38 H        3.0720    -4.0930    -0.2670 H     1 <1>   0.1500 
 39 H       -0.7280    -5.8010     0.5850 H     1 <1>   0.1500 
 40 H       -5.2640    -0.9280    -0.3350 H     1 <1>   0.0800 
 41 H       -4.3310    -1.5440     0.9980 H     1 <1>   0.0800 
 42 H        1.6220    -6.0600    -0.1070 H     1 <1>   0.1500 
 43 H        7.1190     1.4530     0.2160 H     1 <1>   0.1500 
 44 H        3.3980     3.3520    -0.3970 H     1 <1>   0.1500 
 45 H        7.8900    -2.0960     0.0570 H     1 <1>   0.0800 
 46 H        7.8870    -0.5940     0.9750 H     1 <1>   0.0800 
 47 H        7.9950    -0.5600    -0.7960 H     1 <1>   0.0800 
 48 H        5.7900     3.4800     0.0490 H     1 <1>   0.1500 
 49 H        0.1160     1.6800    -0.4050 H     1 <1>   0.0800 
 50 H        1.2260     2.9820    -0.8100 H     1 <1>   0.0800 
 51 H        1.2810     2.2240     0.7940 H     1 <1>   0.0800 
@<TRIPOS>BOND
  1   1   2  2   
  2   2   3  am  
  3   2   4  1   
  4   3   5  1   
  5   3   6  1   
  6   4   7  ar  
  7   4   8  ar  
  8   5   9  1   
  9   5  28  1   
 10   5  29  1   
 11   6  10  1   
 12   6  30  1   
 13   6  31  1   
 14   7  11  1   
 15   7  12  ar  
 16   8  13  ar  
 17   8  32  1   
 18   9  14  1   
 19   9  33  1   
 20   9  34  1   
 21  10  14  1   
 22  10  35  1   
 23  10  36  1   
 24  11  15  am  
 25  11  37  1   
 26  12  16  ar  
 27  12  38  1   
 28  13  16  ar  
 29  13  39  1   
 30  14  40  1   
 31  14  41  1   
 32  15  17  2   
 33  15  18  1   
 34  16  42  1   
 35  18  19  ar  
 36  18  20  ar  
 37  19  21  1   
 38  19  22  ar  
 39  20  23  1   
 40  20  24  ar  
 41  21  25  1   
 42  22  26  ar  
 43  22  43  1   
 44  23  27  1   
 45  24  26  ar  
 46  24  44  1   
 47  25  45  1   
 48  25  46  1   
 49  25  47  1   
 50  26  48  1   
 51  27  49  1   
 52  27  50  1   
 53  27  51  1   
@<TRIPOS>SUBSTRUCTURE
  1 ****  11 GROUP 4 **** **** 0

# MOE 2024.06 (io_trps.svl 2023.06)
