@<TRIPOS>MOLECULE
NONAME
51 53 1 0 0 
SMALL
USER_CHARGES


@<TRIPOS>ATOM
  1 O       -0.1000    -0.7950    -1.5680 O.3   1 <1>  -0.3630 
  2 C       -1.1750    -0.8250    -0.7170 C.ar  1 <1>   0.0830 
  3 C        0.0080     0.1810    -2.5790 C.3   1 <1>   0.1200 
  4 C       -1.1580    -1.7470     0.3460 C.ar  1 <1>   0.1000 
  5 C       -2.2670     0.0230    -0.8750 C.ar  1 <1>  -0.1500 
  6 C        1.3470    -0.0180    -3.2830 C.3   1 <1>  -0.2400 
  7 N       -0.1060    -2.6430     0.5870 N.pl3 1 <1>  -0.8380 
  8 C       -2.2390    -1.7840     1.2150 C.ar  1 <1>  -0.1500 
  9 C       -3.3340    -0.0340     0.0060 C.ar  1 <1>  -0.1500 
 10 C        1.1730    -1.9820     0.9910 C.3   1 <1>   0.2090 
 11 C        0.0490    -3.6920    -0.4660 C.3   1 <1>   0.2090 
 12 C       -3.3200    -0.9380     1.0510 C.ar  1 <1>  -0.1500 
 13 C        2.2570    -3.0180     1.3420 C.3   1 <1>   0.3430 
 14 C        1.1470    -4.7080    -0.0930 C.3   1 <1>   0.3430 
 15 N        2.4500    -4.0340     0.2430 N.4   1 <1>  -0.9590 
 16 C        3.5290    -5.0020     0.5640 C.3   1 <1>   0.4860 
 17 C        4.8300    -4.2330     0.6670 C.ar  1 <1>  -0.1430 
 18 C        5.3980    -3.6750    -0.4680 C.ar  1 <1>  -0.1500 
 19 C        5.4580    -4.0660     1.8940 C.ar  1 <1>  -0.1500 
 20 C        6.5680    -2.9400    -0.3880 C.ar  1 <1>   0.0830 
 21 C        6.6320    -3.3370     1.9800 C.ar  1 <1>  -0.1500 
 22 O        7.0350    -2.4220    -1.5490 O.3   1 <1>  -0.3630 
 23 C        7.1870    -2.7710     0.8460 C.ar  1 <1>  -0.1500 
 24 C        8.2580    -1.7200    -1.5990 C.3   1 <1>   0.0400 
 25 H       -0.0400     1.1540    -2.1210 H     1 <1>   0.0800 
 26 H       -0.8080     0.0510    -3.2690 H     1 <1>   0.0800 
 27 H       -2.3180     0.7360    -1.6750 H     1 <1>   0.1500 
 28 H        2.1550     0.1020    -2.5840 H     1 <1>   0.0800 
 29 H        1.4580     0.7160    -4.0610 H     1 <1>   0.0800 
 30 H        1.3910    -0.9950    -3.7280 H     1 <1>   0.0800 
 31 H       -2.2280    -2.4860     2.0270 H     1 <1>   0.1500 
 32 H       -4.1760     0.6250    -0.1230 H     1 <1>   0.1500 
 33 H        0.9880    -1.3560     1.8470 H     1 <1>   0.0800 
 34 H        1.5300    -1.3500     0.1970 H     1 <1>   0.0800 
 35 H        0.2910    -3.2340    -1.4090 H     1 <1>   0.0800 
 36 H       -0.8890    -4.2070    -0.5850 H     1 <1>   0.0800 
 37 H       -4.1480    -0.9830     1.7370 H     1 <1>   0.1500 
 38 H        1.9640    -3.5170     2.2500 H     1 <1>   0.0800 
 39 H        3.1830    -2.5000     1.5310 H     1 <1>   0.0800 
 40 H        1.2840    -5.3900    -0.9160 H     1 <1>   0.0800 
 41 H        0.8030    -5.2740     0.7560 H     1 <1>   0.0800 
 42 H        2.7580    -3.5040    -0.5830 H     1 <1>   0.4500 
 43 H        3.6140    -5.7410    -0.2170 H     1 <1>   0.0800 
 44 H        3.3190    -5.5050     1.4940 H     1 <1>   0.0800 
 45 H        4.9510    -3.7970    -1.4400 H     1 <1>   0.1500 
 46 H        5.0480    -4.4970     2.7920 H     1 <1>   0.1500 
 47 H        7.1190    -3.2090     2.9330 H     1 <1>   0.1500 
 48 H        8.0970    -2.2080     0.9410 H     1 <1>   0.1500 
 49 H        8.4370    -1.4320    -2.6190 H     1 <1>   0.0800 
 50 H        9.0480    -2.3660    -1.2590 H     1 <1>   0.0800 
 51 H        8.1840    -0.8430    -0.9800 H     1 <1>   0.0800 
@<TRIPOS>BOND
  1   1   2  1   
  2   1   3  1   
  3   2   4  ar  
  4   2   5  ar  
  5   3   6  1   
  6   3  25  1   
  7   3  26  1   
  8   4   7  1   
  9   4   8  ar  
 10   5   9  ar  
 11   5  27  1   
 12   6  28  1   
 13   6  29  1   
 14   6  30  1   
 15   7  10  1   
 16   7  11  1   
 17   8  12  ar  
 18   8  31  1   
 19   9  12  ar  
 20   9  32  1   
 21  10  13  1   
 22  10  33  1   
 23  10  34  1   
 24  11  14  1   
 25  11  35  1   
 26  11  36  1   
 27  12  37  1   
 28  13  15  1   
 29  13  38  1   
 30  13  39  1   
 31  14  15  1   
 32  14  40  1   
 33  14  41  1   
 34  15  16  1   
 35  15  42  1   
 36  16  17  1   
 37  16  43  1   
 38  16  44  1   
 39  17  18  ar  
 40  17  19  ar  
 41  18  20  ar  
 42  18  45  1   
 43  19  21  ar  
 44  19  46  1   
 45  20  22  1   
 46  20  23  ar  
 47  21  23  ar  
 48  21  47  1   
 49  22  24  1   
 50  23  48  1   
 51  24  49  1   
 52  24  50  1   
 53  24  51  1   
@<TRIPOS>SUBSTRUCTURE
  1 ****  10 GROUP 4 **** **** 0

# MOE 2024.06 (io_trps.svl 2023.06)
