@<TRIPOS>MOLECULE
NONAME
41 42 1 0 0 
SMALL
USER_CHARGES


@<TRIPOS>ATOM
  1 O        0.2360     0.3280     0.6000 O.3   1 <1>  -0.5600 
  2 C        1.2310    -0.6550     0.7050 C.3   1 <1>   0.2000 
  3 C        0.2990     1.2070    -0.4930 C.3   1 <1>   0.2000 
  4 C        2.6310     0.0080     0.8160 C.3   1 <1>   0.3430 
  5 C        1.1110    -1.6420    -0.4630 C.3   1 <1>  -0.2400 
  6 C        1.7530     1.6810    -0.7500 C.3   1 <1>   0.3430 
  7 C       -0.6220     2.3750    -0.1470 C.3   1 <1>  -0.2400 
  8 N        2.5980     1.4830     0.4830 N.4   1 <1>  -0.9590 
  9 C        3.9330     2.1430     0.5280 C.3   1 <1>   0.4230 
 10 C        3.7680     3.6630     0.6060 C.3   1 <1>  -0.1600 
 11 C        4.8140     1.7640    -0.6690 C.3   1 <1>  -0.1600 
 12 C        5.1320     4.3500     0.6870 C.3   1 <1>   0.3430 
 13 C        6.1700     2.4670    -0.5810 C.3   1 <1>   0.3430 
 14 N        5.9790     3.9440    -0.4740 N.4   1 <1>  -0.9590 
 15 C        7.3110     4.6320    -0.4030 C.3   1 <1>   0.2630 
 16 H        1.0330    -1.1950     1.6170 H     1 <1>   0.0800 
 17 H       -0.0880     0.7010    -1.3630 H     1 <1>   0.0800 
 18 H        3.3070    -0.5110     0.1580 H     1 <1>   0.0800 
 19 H        2.9920    -0.1300     1.8220 H     1 <1>   0.0800 
 20 H        1.3730    -1.1950    -1.4040 H     1 <1>   0.0800 
 21 H        0.1050    -2.0200    -0.5160 H     1 <1>   0.0800 
 22 H        1.7660    -2.4800    -0.2990 H     1 <1>   0.0800 
 23 H        1.7340     2.7170    -1.0430 H     1 <1>   0.0800 
 24 H        2.1630     1.1150    -1.5690 H     1 <1>   0.0800 
 25 H       -0.2880     2.8830     0.7390 H     1 <1>   0.0800 
 26 H       -1.6210     2.0100     0.0190 H     1 <1>   0.0800 
 27 H       -0.6600     3.0790    -0.9590 H     1 <1>   0.0800 
 28 H        2.0080     1.8740     1.2360 H     1 <1>   0.4500 
 29 H        4.4350     1.8230     1.4290 H     1 <1>   0.0800 
 30 H        3.2080     3.9210     1.4880 H     1 <1>   0.0800 
 31 H        3.2420     4.0430    -0.2500 H     1 <1>   0.0800 
 32 H        4.3470     2.0370    -1.5980 H     1 <1>   0.0800 
 33 H        4.9880     0.7030    -0.6770 H     1 <1>   0.0800 
 34 H        5.6230     4.0760     1.6090 H     1 <1>   0.0800 
 35 H        4.9980     5.4210     0.6880 H     1 <1>   0.0800 
 36 H        6.7550     2.2350    -1.4590 H     1 <1>   0.0800 
 37 H        6.7110     2.1080     0.2810 H     1 <1>   0.0800 
 38 H        5.5250     4.2780    -1.3400 H     1 <1>   0.4500 
 39 H        7.8470     4.3300     0.4830 H     1 <1>   0.0800 
 40 H        7.1810     5.7020    -0.3770 H     1 <1>   0.0800 
 41 H        7.9100     4.3840    -1.2660 H     1 <1>   0.0800 
@<TRIPOS>BOND
  1   1   2  1   
  2   1   3  1   
  3   2   4  1   
  4   2   5  1   
  5   2  16  1   
  6   3   6  1   
  7   3   7  1   
  8   3  17  1   
  9   4   8  1   
 10   4  18  1   
 11   4  19  1   
 12   5  20  1   
 13   5  21  1   
 14   5  22  1   
 15   6   8  1   
 16   6  23  1   
 17   6  24  1   
 18   7  25  1   
 19   7  26  1   
 20   7  27  1   
 21   8   9  1   
 22   8  28  1   
 23   9  10  1   
 24   9  11  1   
 25   9  29  1   
 26  10  12  1   
 27  10  30  1   
 28  10  31  1   
 29  11  13  1   
 30  11  32  1   
 31  11  33  1   
 32  12  14  1   
 33  12  34  1   
 34  12  35  1   
 35  13  14  1   
 36  13  36  1   
 37  13  37  1   
 38  14  15  1   
 39  14  38  1   
 40  15  39  1   
 41  15  40  1   
 42  15  41  1   
@<TRIPOS>SUBSTRUCTURE
  1 ****   8 GROUP 4 **** **** 0

# MOE 2024.06 (io_trps.svl 2023.06)
