@<TRIPOS>MOLECULE
NONAME
27 27 1 0 0 
SMALL
USER_CHARGES


@<TRIPOS>ATOM
  1 O       -0.0660    -0.2850     0.2260 O.2   1 <1>  -0.5700 
  2 C       -0.0340    -1.4960     0.0770 C.2   1 <1>   0.7060 
  3 O        1.1770    -2.0710    -0.0060 O.3   1 <1>  -0.4300 
  4 C       -1.2210    -2.3080    -0.0090 C.2   1 <1>  -0.1240 
  5 C        2.3630    -1.3130     0.0760 C.3   1 <1>   0.1200 
  6 C       -1.2750    -3.6710    -0.1050 C.2   1 <1>  -0.0380 
  7 C       -2.5230    -1.4930     0.0320 C.3   1 <1>  -0.0220 
  8 C        3.5440    -2.2710    -0.0500 C.3   1 <1>  -0.2400 
  9 N       -0.1720    -4.4770    -0.1660 N.pl3 1 <1>  -0.9000 
 10 C       -2.5790    -4.4590    -0.1620 C.3   1 <1>  -0.0220 
 11 C       -3.7680    -2.2720    -0.4050 C.3   1 <1>  -0.1600 
 12 C       -3.7970    -3.6410     0.2700 C.3   1 <1>  -0.1600 
 13 H        2.3770    -0.8030     1.0250 H     1 <1>   0.0800 
 14 H        2.3620    -0.5920    -0.7240 H     1 <1>   0.0800 
 15 H       -2.4350    -0.6300    -0.6050 H     1 <1>   0.0800 
 16 H       -2.6640    -1.1380     1.0380 H     1 <1>   0.0800 
 17 H        3.5250    -2.9890     0.7490 H     1 <1>   0.0800 
 18 H        4.4640    -1.7180     0.0080 H     1 <1>   0.0800 
 19 H        3.5090    -2.7800    -0.9960 H     1 <1>   0.0800 
 20 H        0.7760    -4.0730    -0.1440 H     1 <1>   0.4000 
 21 H       -0.1990    -5.4980    -0.2460 H     1 <1>   0.4000 
 22 H       -2.5050    -5.3230     0.4740 H     1 <1>   0.0800 
 23 H       -2.7190    -4.8030    -1.1720 H     1 <1>   0.0800 
 24 H       -3.7520    -2.4010    -1.4740 H     1 <1>   0.0800 
 25 H       -4.6520    -1.7140    -0.1480 H     1 <1>   0.0800 
 26 H       -3.7810    -3.5140     1.3390 H     1 <1>   0.0800 
 27 H       -4.6990    -4.1660     0.0080 H     1 <1>   0.0800 
@<TRIPOS>BOND
  1   1   2  2   
  2   2   3  1   
  3   2   4  1   
  4   3   5  1   
  5   4   6  2   
  6   4   7  1   
  7   5   8  1   
  8   5  13  1   
  9   5  14  1   
 10   6   9  1   
 11   6  10  1   
 12   7  11  1   
 13   7  15  1   
 14   7  16  1   
 15   8  17  1   
 16   8  18  1   
 17   8  19  1   
 18   9  20  1   
 19   9  21  1   
 20  10  12  1   
 21  10  22  1   
 22  10  23  1   
 23  11  12  1   
 24  11  24  1   
 25  11  25  1   
 26  12  26  1   
 27  12  27  1   
@<TRIPOS>SUBSTRUCTURE
  1 ****   4 GROUP 4 **** **** 0

# MOE 2024.06 (io_trps.svl 2023.06)
