@<TRIPOS>MOLECULE
NONAME
50 52 1 0 0 
SMALL
USER_CHARGES


@<TRIPOS>ATOM
  1 S        0.8900    -0.7330     1.6140 S.o2  1 <1>   1.4470 
  2 O        1.7940    -1.1860     2.6490 O.2   1 <1>  -0.6500 
  3 O        0.0420     0.4140     1.8560 O.2   1 <1>  -0.6500 
  4 N        1.8420    -0.3630     0.2640 N.am  1 <1>  -0.8490 
  5 C       -0.1360    -2.1090     1.0300 C.ar  1 <1>  -0.0090 
  6 C        2.5160     0.9390     0.4360 C.3   1 <1>   0.1960 
  7 C        2.8520    -1.4060    -0.0140 C.3   1 <1>   0.1960 
  8 C       -0.8670    -1.9960    -0.1450 C.ar  1 <1>  -0.1500 
  9 C       -0.2200    -3.3030     1.7360 C.ar  1 <1>  -0.1500 
 10 C        3.3730     1.3400    -0.7830 C.3   1 <1>   0.2090 
 11 C        3.6930    -1.0960    -1.2670 C.3   1 <1>   0.2090 
 12 C       -1.6720    -3.0240    -0.6150 C.ar  1 <1>   0.1170 
 13 C       -0.9970    -4.3530     1.2790 C.ar  1 <1>  -0.1500 
 14 N        4.3140     0.2600    -1.2070 N.pl3 1 <1>  -0.8380 
 15 N       -2.4150    -2.8970    -1.8010 N.am  1 <1>  -0.5470 
 16 C       -1.7220    -4.2240     0.1000 C.ar  1 <1>   0.0830 
 17 C        5.6440     0.3500    -0.8140 C.ar  1 <1>   0.1000 
 18 C       -3.1430    -1.8840    -2.3400 C.2   1 <1>   0.5690 
 19 O       -2.4930    -5.2280    -0.4090 O.3   1 <1>  -0.3630 
 20 C        6.6220     0.5920    -1.7690 C.ar  1 <1>  -0.1500 
 21 C        6.0310     0.1990     0.5140 C.ar  1 <1>  -0.1500 
 22 O       -3.7070    -2.0470    -3.3900 O.2   1 <1>  -0.5700 
 23 C       -3.2940    -0.5530    -1.6420 C.3   1 <1>  -0.1790 
 24 C       -2.7090    -6.4270     0.3020 C.3   1 <1>   0.0400 
 25 C        7.9550     0.6840    -1.4120 C.ar  1 <1>  -0.1500 
 26 C        7.3630     0.2900     0.8760 C.ar  1 <1>  -0.1500 
 27 C        8.3280     0.5330    -0.0870 C.ar  1 <1>  -0.1500 
 28 H        3.1440     0.9110     1.3100 H     1 <1>   0.0800 
 29 H        1.7790     1.7070     0.5920 H     1 <1>   0.0800 
 30 H        2.3620    -2.3530    -0.1620 H     1 <1>   0.0800 
 31 H        3.5170    -1.5100     0.8260 H     1 <1>   0.0800 
 32 H       -0.7900    -1.0820    -0.7050 H     1 <1>   0.1500 
 33 H        0.3340    -3.4140     2.6550 H     1 <1>   0.1500 
 34 H        3.9330     2.2290    -0.5470 H     1 <1>   0.0800 
 35 H        2.7210     1.5730    -1.6060 H     1 <1>   0.0800 
 36 H        3.0650    -1.1520    -2.1390 H     1 <1>   0.0800 
 37 H        4.4670    -1.8370    -1.3710 H     1 <1>   0.0800 
 38 H       -1.0220    -5.2590     1.8560 H     1 <1>   0.1500 
 39 H       -2.5920    -3.7870    -2.2730 H     1 <1>   0.3700 
 40 H        6.3220     0.7090    -2.7930 H     1 <1>   0.1500 
 41 H        5.2880     0.0090     1.2640 H     1 <1>   0.1500 
 42 H       -2.4580     0.0770    -1.8750 H     1 <1>   0.0800 
 43 H       -3.3640    -0.6920    -0.5790 H     1 <1>   0.0800 
 44 H       -4.1920    -0.0720    -1.9830 H     1 <1>   0.0800 
 45 H       -3.3850    -7.0370    -0.2700 H     1 <1>   0.0800 
 46 H       -3.1490    -6.1950     1.2560 H     1 <1>   0.0800 
 47 H       -1.7710    -6.9390     0.4230 H     1 <1>   0.0800 
 48 H        8.7010     0.8730    -2.1640 H     1 <1>   0.1500 
 49 H        7.6510     0.1720     1.9060 H     1 <1>   0.1500 
 50 H        9.3650     0.6030     0.1920 H     1 <1>   0.1500 
@<TRIPOS>BOND
  1   1   2  2   
  2   1   3  2   
  3   1   4  am  
  4   1   5  1   
  5   4   6  1   
  6   4   7  1   
  7   5   8  ar  
  8   5   9  ar  
  9   6  10  1   
 10   6  28  1   
 11   6  29  1   
 12   7  11  1   
 13   7  30  1   
 14   7  31  1   
 15   8  12  ar  
 16   8  32  1   
 17   9  13  ar  
 18   9  33  1   
 19  10  14  1   
 20  10  34  1   
 21  10  35  1   
 22  11  14  1   
 23  11  36  1   
 24  11  37  1   
 25  12  15  1   
 26  12  16  ar  
 27  13  16  ar  
 28  13  38  1   
 29  14  17  1   
 30  15  18  am  
 31  15  39  1   
 32  16  19  1   
 33  17  20  ar  
 34  17  21  ar  
 35  18  22  2   
 36  18  23  1   
 37  19  24  1   
 38  20  25  ar  
 39  20  40  1   
 40  21  26  ar  
 41  21  41  1   
 42  23  42  1   
 43  23  43  1   
 44  23  44  1   
 45  24  45  1   
 46  24  46  1   
 47  24  47  1   
 48  25  27  ar  
 49  25  48  1   
 50  26  27  ar  
 51  26  49  1   
 52  27  50  1   
@<TRIPOS>SUBSTRUCTURE
  1 ****   4 GROUP 4 **** **** 0

# MOE 2024.06 (io_trps.svl 2023.06)
