@<TRIPOS>MOLECULE
NONAME
47 48 1 0 0 
SMALL
USER_CHARGES


@<TRIPOS>ATOM
  1 O        0.1340     0.2640     0.6480 O.2   1 <1>  -0.5700 
  2 C        0.5690    -0.8600     0.7950 C.2   1 <1>   0.6900 
  3 N       -0.2230    -1.9680     0.7520 N.am  1 <1>  -0.5470 
  4 N        1.8940    -1.0570     0.9910 N.am  1 <1>  -0.7300 
  5 C       -1.6050    -2.1280     0.5720 C.ar  1 <1>   0.1170 
  6 C        2.9270    -0.0090     0.9280 C.3   1 <1>   0.2200 
  7 C       -2.0830    -3.3700     0.1690 C.ar  1 <1>  -0.1500 
  8 C       -2.5300    -1.1130     0.7920 C.ar  1 <1>  -0.1500 
  9 C        3.7980    -0.2680    -0.3260 C.3   1 <1>   0.2000 
 10 C        3.6900    -0.0580     2.2550 C.3   1 <1>  -0.2400 
 11 C       -3.4360    -3.5900    -0.0130 C.ar  1 <1>  -0.1500 
 12 C       -3.8830    -1.3310     0.6090 C.ar  1 <1>  -0.1500 
 13 O        4.3400    -1.5580    -0.3030 O.3   1 <1>  -0.5600 
 14 C        4.9940     0.6510    -0.5420 C.3   1 <1>  -0.1600 
 15 C       -4.3530    -2.5730     0.2040 C.ar  1 <1>  -0.1430 
 16 C        5.5000    -1.6270    -1.0750 C.3   1 <1>   0.1200 
 17 C        5.8800    -0.1930    -1.4380 C.3   1 <1>  -0.1600 
 18 C       -5.8450    -2.8280    -0.0060 C.3   1 <1>   0.0630 
 19 C       -6.3770    -1.9470    -1.1520 C.3   1 <1>  -0.1600 
 20 C       -6.6090    -2.6110     1.3080 C.3   1 <1>  -0.2400 
 21 C       -7.8180    -2.2780    -1.5630 C.3   1 <1>  -0.2400 
 22 H        0.2950    -2.8320     0.8510 H     1 <1>   0.3700 
 23 H        2.2960    -1.9830     0.8500 H     1 <1>   0.3700 
 24 H        2.4600     0.9580     0.8320 H     1 <1>   0.0800 
 25 H       -1.3920    -4.1720    -0.0080 H     1 <1>   0.1500 
 26 H       -2.1970    -0.1430     1.1120 H     1 <1>   0.1500 
 27 H        3.1640    -0.2120    -1.1960 H     1 <1>   0.0800 
 28 H        4.2400    -0.9790     2.3390 H     1 <1>   0.0800 
 29 H        2.9990     0.0200     3.0750 H     1 <1>   0.0800 
 30 H        4.3780     0.7630     2.3260 H     1 <1>   0.0800 
 31 H       -3.7720    -4.5620    -0.3280 H     1 <1>   0.1500 
 32 H       -4.5700    -0.5230     0.7850 H     1 <1>   0.1500 
 33 H        5.5020     0.8460     0.3840 H     1 <1>   0.0800 
 34 H        4.7090     1.5820    -0.9970 H     1 <1>   0.0800 
 35 H        5.2970    -2.2200    -1.9510 H     1 <1>   0.0800 
 36 H        6.2630    -2.0990    -0.4810 H     1 <1>   0.0800 
 37 H        6.9270    -0.0040    -1.2780 H     1 <1>   0.0800 
 38 H        5.6460    -0.0160    -2.4740 H     1 <1>   0.0800 
 39 H       -5.9750    -3.8570    -0.2920 H     1 <1>   0.0800 
 40 H       -5.7380    -2.0850    -2.0080 H     1 <1>   0.0800 
 41 H       -6.3180    -0.9100    -0.8720 H     1 <1>   0.0800 
 42 H       -6.6030    -1.5730     1.5870 H     1 <1>   0.0800 
 43 H       -6.1450    -3.1780     2.0950 H     1 <1>   0.0800 
 44 H       -7.6280    -2.9380     1.2150 H     1 <1>   0.0800 
 45 H       -7.9070    -3.3190    -1.8230 H     1 <1>   0.0800 
 46 H       -8.0950    -1.6900    -2.4200 H     1 <1>   0.0800 
 47 H       -8.5060    -2.0560    -0.7680 H     1 <1>   0.0800 
@<TRIPOS>BOND
  1   1   2  2   
  2   2   3  am  
  3   2   4  am  
  4   3   5  1   
  5   3  22  1   
  6   4   6  1   
  7   4  23  1   
  8   5   7  ar  
  9   5   8  ar  
 10   6   9  1   
 11   6  10  1   
 12   6  24  1   
 13   7  11  ar  
 14   7  25  1   
 15   8  12  ar  
 16   8  26  1   
 17   9  13  1   
 18   9  14  1   
 19   9  27  1   
 20  10  28  1   
 21  10  29  1   
 22  10  30  1   
 23  11  15  ar  
 24  11  31  1   
 25  12  15  ar  
 26  12  32  1   
 27  13  16  1   
 28  14  17  1   
 29  14  33  1   
 30  14  34  1   
 31  15  18  1   
 32  16  17  1   
 33  16  35  1   
 34  16  36  1   
 35  17  37  1   
 36  17  38  1   
 37  18  19  1   
 38  18  20  1   
 39  18  39  1   
 40  19  21  1   
 41  19  40  1   
 42  19  41  1   
 43  20  42  1   
 44  20  43  1   
 45  20  44  1   
 46  21  45  1   
 47  21  46  1   
 48  21  47  1   
@<TRIPOS>SUBSTRUCTURE
  1 ****   3 GROUP 4 **** **** 0

# MOE 2024.06 (io_trps.svl 2023.06)
