@<TRIPOS>MOLECULE
NONAME
48 50 1 0 0 
SMALL
USER_CHARGES


@<TRIPOS>ATOM
  1 S        0.0580    -0.7750     1.5380 S.o2  1 <1>   1.4470 
  2 O        1.1350    -1.5630     2.0990 O.2   1 <1>  -0.6500 
  3 O       -0.2880     0.4880     2.1510 O.2   1 <1>  -0.6500 
  4 N        0.4600    -0.4680    -0.0800 N.am  1 <1>  -0.8490 
  5 C       -1.4450    -1.7890     1.4160 C.ar  1 <1>  -0.0090 
  6 C        0.9850    -1.6610    -0.7550 C.3   1 <1>   0.1960 
  7 C        1.3970     0.6530    -0.1940 C.3   1 <1>   0.1960 
  8 C       -2.4130    -1.5290     0.4540 C.ar  1 <1>  -0.1500 
  9 C       -1.6700    -2.8400     2.2960 C.ar  1 <1>  -0.1500 
 10 C        1.1710    -1.3830    -2.2490 C.3   1 <1>  -0.1600 
 11 C        1.6190     1.0140    -1.6670 C.3   1 <1>  -0.1600 
 12 C       -3.5820    -2.2810     0.3410 C.ar  1 <1>   0.0860 
 13 C       -2.8160    -3.6090     2.2090 C.ar  1 <1>  -0.1500 
 14 C        2.1090    -0.1920    -2.4780 C.3   1 <1>  -0.1600 
 15 C       -4.5660    -1.9740    -0.6780 C.2   1 <1>   0.5440 
 16 C       -3.7600    -3.3330     1.2380 C.ar  1 <1>  -0.1500 
 17 O       -4.2100    -1.6610    -1.7960 O.2   1 <1>  -0.5700 
 18 N       -5.9020    -2.0280    -0.3610 N.am  1 <1>  -0.5470 
 19 C       -7.1070    -1.8930    -1.0910 C.ar  1 <1>   0.1170 
 20 C       -7.2560    -2.0060    -2.4830 C.ar  1 <1>   0.0820 
 21 C       -8.2580    -1.6610    -0.3450 C.ar  1 <1>  -0.1500 
 22 O       -6.2060    -2.2070    -3.2990 O.3   1 <1>  -0.5330 
 23 C       -8.4990    -1.9080    -3.0780 C.ar  1 <1>  -0.1500 
 24 C       -9.5080    -1.5540    -0.9350 C.ar  1 <1>  -0.1430 
 25 C       -9.6260    -1.6820    -2.3080 C.ar  1 <1>  -0.1500 
 26 C      -10.7420    -1.3020    -0.0880 C.3   1 <1>  -0.0970 
 27 H        0.2960    -2.4810    -0.6370 H     1 <1>   0.0800 
 28 H        1.9280    -1.9480    -0.3170 H     1 <1>   0.0800 
 29 H        2.3350     0.3940     0.2710 H     1 <1>   0.0800 
 30 H        0.9980     1.5170     0.3130 H     1 <1>   0.0800 
 31 H       -2.2570    -0.7150    -0.2350 H     1 <1>   0.1500 
 32 H       -0.9370    -3.0600     3.0560 H     1 <1>   0.1500 
 33 H        0.2090    -1.1800    -2.6870 H     1 <1>   0.0800 
 34 H        1.5740    -2.2570    -2.7280 H     1 <1>   0.0800 
 35 H        2.3370     1.8120    -1.7350 H     1 <1>   0.0800 
 36 H        0.6900     1.3730    -2.0760 H     1 <1>   0.0800 
 37 H       -2.9680    -4.4250     2.8960 H     1 <1>   0.1500 
 38 H        2.1410     0.0560    -3.5250 H     1 <1>   0.0800 
 39 H        3.1050    -0.4540    -2.1630 H     1 <1>   0.0800 
 40 H       -4.6390    -3.9500     1.1710 H     1 <1>   0.1500 
 41 H       -6.0640    -2.1430     0.6380 H     1 <1>   0.3700 
 42 H       -8.1810    -1.5630     0.7220 H     1 <1>   0.1500 
 43 H       -5.3510    -2.0280    -2.8160 H     1 <1>   0.4500 
 44 H       -8.5800    -2.0060    -4.1460 H     1 <1>   0.1500 
 45 H      -10.5880    -1.6070    -2.7840 H     1 <1>   0.1500 
 46 H      -11.2030    -2.2380     0.1700 H     1 <1>   0.0800 
 47 H      -11.4520    -0.7040    -0.6310 H     1 <1>   0.0800 
 48 H      -10.4830    -0.7810     0.8150 H     1 <1>   0.0800 
@<TRIPOS>BOND
  1   1   2  2   
  2   1   3  2   
  3   1   4  am  
  4   1   5  1   
  5   4   6  1   
  6   4   7  1   
  7   5   8  ar  
  8   5   9  ar  
  9   6  10  1   
 10   6  27  1   
 11   6  28  1   
 12   7  11  1   
 13   7  29  1   
 14   7  30  1   
 15   8  12  ar  
 16   8  31  1   
 17   9  13  ar  
 18   9  32  1   
 19  10  14  1   
 20  10  33  1   
 21  10  34  1   
 22  11  14  1   
 23  11  35  1   
 24  11  36  1   
 25  12  15  1   
 26  12  16  ar  
 27  13  16  ar  
 28  13  37  1   
 29  14  38  1   
 30  14  39  1   
 31  15  17  2   
 32  15  18  am  
 33  16  40  1   
 34  18  19  1   
 35  18  41  1   
 36  19  20  ar  
 37  19  21  ar  
 38  20  22  1   
 39  20  23  ar  
 40  21  24  ar  
 41  21  42  1   
 42  22  43  1   
 43  23  25  ar  
 44  23  44  1   
 45  24  25  ar  
 46  24  26  1   
 47  25  45  1   
 48  26  46  1   
 49  26  47  1   
 50  26  48  1   
@<TRIPOS>SUBSTRUCTURE
  1 ****  12 GROUP 4 **** **** 0

# MOE 2024.06 (io_trps.svl 2023.06)
