@<TRIPOS>MOLECULE
NONAME
57 59 1 0 0 
SMALL
USER_CHARGES


@<TRIPOS>ATOM
  1 O        0.0230    -0.8040    -0.7290 O.2   1 <1>  -0.5700 
  2 C        0.2690    -1.9420    -0.4070 C.2   1 <1>   0.5690 
  3 N        1.4540    -2.3560     0.1100 N.am  1 <1>  -0.4200 
  4 C       -0.6830    -3.1380    -0.6090 C.3   1 <1>   0.2510 
  5 C        1.4990    -3.7070     0.2100 C.2   1 <1>   0.5690 
  6 C        2.5730    -1.4560     0.4720 C.3   1 <1>   0.1400 
  7 N       -1.9030    -3.1880     0.2540 N.3   1 <1>  -0.8100 
  8 C        0.2190    -4.3400    -0.2710 C.3   1 <1>  -0.0990 
  9 O        2.4380    -4.3490     0.5990 O.2   1 <1>  -0.5700 
 10 C        3.5100    -1.2640    -0.7210 C.3   1 <1>  -0.0170 
 11 C       -2.8420    -4.2400    -0.2180 C.3   1 <1>   0.1100 
 12 C       -2.6060    -1.8800     0.3170 C.3   1 <1>   0.1100 
 13 C        4.6620    -0.3530    -0.3330 C.ar  1 <1>  -0.1440 
 14 C       -4.0890    -4.3480     0.6730 C.3   1 <1>   0.1400 
 15 C       -3.8670    -1.9320     1.1980 C.3   1 <1>   0.1400 
 16 C        4.5730     1.0150    -0.5370 C.ar  1 <1>  -0.1500 
 17 C        5.8100    -0.8840     0.2360 C.ar  1 <1>  -0.1500 
 18 N       -4.7700    -3.0290     0.7530 N.am  1 <1>  -0.6600 
 19 C        5.6210     1.8450    -0.1770 C.ar  1 <1>  -0.1500 
 20 C        6.8580    -0.0550     0.5960 C.ar  1 <1>  -0.1500 
 21 C       -6.0390    -2.8320     0.2820 C.2   1 <1>   0.7800 
 22 C        6.7650     1.3100     0.3900 C.ar  1 <1>  -0.1500 
 23 O       -6.7050    -3.7420    -0.1730 O.2   1 <1>  -0.5700 
 24 O       -6.5180    -1.5860     0.3280 O.3   1 <1>  -0.4300 
 25 C       -7.7770    -1.1340    -0.1170 C.3   1 <1>   0.2800 
 26 C       -7.7850     0.3680     0.1740 C.3   1 <1>  -0.2400 
 27 C       -7.9170    -1.3560    -1.6280 C.3   1 <1>  -0.2400 
 28 C       -8.8980    -1.8090     0.6820 C.3   1 <1>  -0.2400 
 29 H       -0.9700    -3.1590    -1.6460 H     1 <1>   0.0800 
 30 H        3.1190    -1.8800     1.2980 H     1 <1>   0.0800 
 31 H        2.1800    -0.5020     0.7820 H     1 <1>   0.0800 
 32 H        0.4220    -4.9290    -1.1450 H     1 <1>   0.0800 
 33 H       -0.1820    -4.9570     0.5120 H     1 <1>   0.0800 
 34 H        2.9680    -0.8300    -1.5420 H     1 <1>   0.0800 
 35 H        3.8990    -2.2170    -1.0340 H     1 <1>   0.0800 
 36 H       -2.3510    -5.1970    -0.2230 H     1 <1>   0.0800 
 37 H       -3.1590    -4.0240    -1.2250 H     1 <1>   0.0800 
 38 H       -2.8820    -1.5600    -0.6740 H     1 <1>   0.0800 
 39 H       -1.9540    -1.1350     0.7380 H     1 <1>   0.0800 
 40 H       -3.7980    -4.6580     1.6610 H     1 <1>   0.0800 
 41 H       -4.7520    -5.0940     0.2730 H     1 <1>   0.0800 
 42 H       -4.3660    -0.9800     1.1580 H     1 <1>   0.0800 
 43 H       -3.5770    -2.1080     2.2190 H     1 <1>   0.0800 
 44 H        3.6880     1.4420    -0.9760 H     1 <1>   0.1500 
 45 H        5.8920    -1.9440     0.4010 H     1 <1>   0.1500 
 46 H        5.5470     2.9060    -0.3390 H     1 <1>   0.1500 
 47 H        7.7460    -0.4730     1.0370 H     1 <1>   0.1500 
 48 H        7.5800     1.9540     0.6690 H     1 <1>   0.1500 
 49 H       -7.6640     0.5440     1.2270 H     1 <1>   0.0800 
 50 H       -8.7160     0.8050    -0.1380 H     1 <1>   0.0800 
 51 H       -6.9870     0.8540    -0.3570 H     1 <1>   0.0800 
 52 H       -7.0770    -0.9320    -2.1470 H     1 <1>   0.0800 
 53 H       -8.8130    -0.8840    -1.9860 H     1 <1>   0.0800 
 54 H       -7.9870    -2.4020    -1.8610 H     1 <1>   0.0800 
 55 H       -8.7270    -1.6940     1.7370 H     1 <1>   0.0800 
 56 H       -8.9660    -2.8550     0.4470 H     1 <1>   0.0800 
 57 H       -9.8440    -1.3600     0.4390 H     1 <1>   0.0800 
@<TRIPOS>BOND
  1   1   2  2   
  2   2   3  am  
  3   2   4  1   
  4   3   5  am  
  5   3   6  1   
  6   4   7  1   
  7   4   8  1   
  8   4  29  1   
  9   5   8  1   
 10   5   9  2   
 11   6  10  1   
 12   6  30  1   
 13   6  31  1   
 14   7  11  1   
 15   7  12  1   
 16   8  32  1   
 17   8  33  1   
 18  10  13  1   
 19  10  34  1   
 20  10  35  1   
 21  11  14  1   
 22  11  36  1   
 23  11  37  1   
 24  12  15  1   
 25  12  38  1   
 26  12  39  1   
 27  13  16  ar  
 28  13  17  ar  
 29  14  18  1   
 30  14  40  1   
 31  14  41  1   
 32  15  18  1   
 33  15  42  1   
 34  15  43  1   
 35  16  19  ar  
 36  16  44  1   
 37  17  20  ar  
 38  17  45  1   
 39  18  21  am  
 40  19  22  ar  
 41  19  46  1   
 42  20  22  ar  
 43  20  47  1   
 44  21  23  2   
 45  21  24  1   
 46  22  48  1   
 47  24  25  1   
 48  25  26  1   
 49  25  27  1   
 50  25  28  1   
 51  26  49  1   
 52  26  50  1   
 53  26  51  1   
 54  27  52  1   
 55  27  53  1   
 56  27  54  1   
 57  28  55  1   
 58  28  56  1   
 59  28  57  1   
@<TRIPOS>SUBSTRUCTURE
  1 ****   2 GROUP 4 **** **** 0

# MOE 2024.06 (io_trps.svl 2023.06)
