@<TRIPOS>MOLECULE
NONAME
49 53 1 0 0 
SMALL
USER_CHARGES


@<TRIPOS>ATOM
  1 O       -0.0080     1.3880     1.3860 O.2   1 <1>  -0.5700 
  2 C        0.0940     2.3360     0.6500 C.2   1 <1>   0.5690 
  3 N        1.1900     2.7360    -0.1000 N.am  1 <1>  -0.2370 
  4 C       -0.9880     3.3450     0.4110 C.3   1 <1>  -0.0190 
  5 C        2.5120     2.2620     0.0580 C.ar  1 <1>   0.1170 
  6 C        0.7730     3.6920    -1.0160 C.2   1 <1>   0.5690 
  7 C       -2.5050     3.5440     0.5400 C.3   1 <1>   0.1960 
  8 C       -0.7250     3.6330    -1.0690 C.3   1 <1>  -0.0190 
  9 C        3.5830     3.1440     0.1220 C.ar  1 <1>  -0.1500 
 10 C        2.7710     0.8980     0.1580 C.ar  1 <1>  -0.1500 
 11 O        1.4430     4.4310    -1.6890 O.2   1 <1>  -0.5700 
 12 C       -2.4650     4.9390    -0.0770 C.2   1 <1>  -0.2760 
 13 C       -3.3100     2.8970    -0.5780 C.2   1 <1>  -0.2880 
 14 C       -1.9220     4.5380    -1.4400 C.3   1 <1>   0.1960 
 15 C        4.8800     2.6880     0.2830 C.ar  1 <1>   0.0830 
 16 C        4.0630     0.4310     0.3170 C.ar  1 <1>  -0.1500 
 17 C       -2.7950     6.1420     0.4190 C.2   1 <1>  -0.2760 
 18 C       -3.0140     3.5160    -1.7250 C.2   1 <1>  -0.2880 
 19 O        5.8550     3.6300     0.3370 O.3   1 <1>  -0.3630 
 20 C        5.1210     1.3200     0.3800 C.ar  1 <1>  -0.1500 
 21 C       -3.3380     6.3790     1.8250 C.3   1 <1>  -0.0220 
 22 C       -2.6880     7.4500    -0.3590 C.3   1 <1>  -0.0220 
 23 C        7.2140     3.2730     0.4600 C.3   1 <1>   0.0400 
 24 C       -4.7160     7.0490     1.7510 C.3   1 <1>  -0.1600 
 25 C       -4.0620     8.1260    -0.4450 C.3   1 <1>  -0.1600 
 26 C       -4.6590     8.3590     0.9500 C.3   1 <1>  -0.1600 
 27 H       -0.6010     4.1620     1.0040 H     1 <1>   0.0800 
 28 H       -2.9210     3.4840     1.5290 H     1 <1>   0.0800 
 29 H       -0.8660     2.7290    -1.6420 H     1 <1>   0.0800 
 30 H        3.4180     4.2030     0.0440 H     1 <1>   0.1500 
 31 H        1.9570     0.1950     0.1160 H     1 <1>   0.1500 
 32 H       -3.9910     2.0920    -0.3620 H     1 <1>   0.1500 
 33 H       -1.7720     5.2930    -2.1900 H     1 <1>   0.0800 
 34 H        4.2440    -0.6280     0.3940 H     1 <1>   0.1500 
 35 H       -3.3840     3.3720    -2.7260 H     1 <1>   0.1500 
 36 H        6.1140     0.9340     0.5050 H     1 <1>   0.1500 
 37 H       -3.4270     5.4610     2.3730 H     1 <1>   0.0800 
 38 H       -2.6590     7.0150     2.3650 H     1 <1>   0.0800 
 39 H       -1.9950     8.1040     0.1400 H     1 <1>   0.0800 
 40 H       -2.3170     7.2860    -1.3530 H     1 <1>   0.0800 
 41 H        7.7970     4.1760     0.4660 H     1 <1>   0.0800 
 42 H        7.4920     2.6650    -0.3830 H     1 <1>   0.0800 
 43 H        7.3530     2.7410     1.3840 H     1 <1>   0.0800 
 44 H       -5.4050     6.3730     1.2760 H     1 <1>   0.0800 
 45 H       -5.0760     7.2480     2.7450 H     1 <1>   0.0800 
 46 H       -3.9710     9.0660    -0.9620 H     1 <1>   0.0800 
 47 H       -4.7240     7.4960    -1.0140 H     1 <1>   0.0800 
 48 H       -4.0560     9.0750     1.4810 H     1 <1>   0.0800 
 49 H       -5.6510     8.7670     0.8550 H     1 <1>   0.0800 
@<TRIPOS>BOND
  1   1   2  2   
  2   2   3  am  
  3   2   4  1   
  4   3   5  1   
  5   3   6  am  
  6   4   7  1   
  7   4   8  1   
  8   4  27  1   
  9   5   9  ar  
 10   5  10  ar  
 11   6   8  1   
 12   6  11  2   
 13   7  12  1   
 14   7  13  1   
 15   7  28  1   
 16   8  14  1   
 17   8  29  1   
 18   9  15  ar  
 19   9  30  1   
 20  10  16  ar  
 21  10  31  1   
 22  12  14  1   
 23  12  17  2   
 24  13  18  2   
 25  13  32  1   
 26  14  18  1   
 27  14  33  1   
 28  15  19  1   
 29  15  20  ar  
 30  16  20  ar  
 31  16  34  1   
 32  17  21  1   
 33  17  22  1   
 34  18  35  1   
 35  19  23  1   
 36  20  36  1   
 37  21  24  1   
 38  21  37  1   
 39  21  38  1   
 40  22  25  1   
 41  22  39  1   
 42  22  40  1   
 43  23  41  1   
 44  23  42  1   
 45  23  43  1   
 46  24  26  1   
 47  24  44  1   
 48  24  45  1   
 49  25  26  1   
 50  25  46  1   
 51  25  47  1   
 52  26  48  1   
 53  26  49  1   
@<TRIPOS>SUBSTRUCTURE
  1 ****   4 GROUP 4 **** **** 0

# MOE 2024.06 (io_trps.svl 2023.06)
