@<TRIPOS>MOLECULE
NONAME
47 49 1 0 0 
SMALL
USER_CHARGES


@<TRIPOS>ATOM
  1 CL      -1.8560     4.1900    -1.8450 Cl    1 <1>  -0.1770 
  2 C       -2.4540     2.9950    -0.7270 C.ar  1 <1>   0.1770 
  3 C       -3.5750     2.2610    -1.0660 C.ar  1 <1>  -0.1500 
  4 C       -1.8040     2.8020     0.4760 C.ar  1 <1>  -0.1500 
  5 C       -4.0680     1.3130    -0.1780 C.ar  1 <1>  -0.1440 
  6 C       -2.2880     1.8510     1.3580 C.ar  1 <1>  -0.1500 
  7 C       -3.4130     1.1100     1.0310 C.ar  1 <1>  -0.1500 
  8 C       -5.3110     0.5140    -0.5210 C.3   1 <1>   0.4870 
  9 N       -6.4910     1.4110    -0.4120 N.4   1 <1>  -0.9590 
 10 C       -6.6910     1.9160     0.9970 C.3   1 <1>   0.3430 
 11 C       -7.7510     0.7600    -0.9220 C.3   1 <1>   0.3430 
 12 C       -7.8960     2.8700     1.1090 C.3   1 <1>   0.2090 
 13 C       -8.9690     1.7000    -0.8360 C.3   1 <1>   0.2090 
 14 N       -9.1330     2.2510     0.5430 N.pl3 1 <1>  -0.8380 
 15 C      -10.2880     3.0280     0.7130 C.ar  1 <1>   0.1000 
 16 C      -10.4980     4.2700     0.0850 C.ar  1 <1>   0.0830 
 17 C      -11.2740     2.5290     1.5520 C.ar  1 <1>  -0.1500 
 18 O       -9.5160     4.7540    -0.7410 O.3   1 <1>  -0.3630 
 19 C      -11.6810     4.9660     0.3160 C.ar  1 <1>  -0.1500 
 20 C      -12.4460     3.2270     1.7760 C.ar  1 <1>  -0.1500 
 21 C       -9.6220     6.0270    -1.3360 C.3   1 <1>   0.1200 
 22 C      -12.6500     4.4460     1.1580 C.ar  1 <1>  -0.1500 
 23 C       -8.3500     6.2780    -2.1400 C.3   1 <1>  -0.2400 
 24 H       -4.0370     2.4440    -2.0200 H     1 <1>   0.1500 
 25 H       -0.9320     3.3860     0.7140 H     1 <1>   0.1500 
 26 H       -1.7840     1.6880     2.2970 H     1 <1>   0.1500 
 27 H       -3.7650     0.3730     1.7340 H     1 <1>   0.1500 
 28 H       -5.4130    -0.3210     0.1520 H     1 <1>   0.0800 
 29 H       -5.2230     0.1350    -1.5270 H     1 <1>   0.0800 
 30 H       -6.3070     2.2390    -0.9920 H     1 <1>   0.4500 
 31 H       -5.8070     2.4350     1.3310 H     1 <1>   0.0800 
 32 H       -6.8590     1.0850     1.6600 H     1 <1>   0.0800 
 33 H       -7.9670    -0.1190    -0.3370 H     1 <1>   0.0800 
 34 H       -7.6200     0.4540    -1.9470 H     1 <1>   0.0800 
 35 H       -7.6730     3.7890     0.5960 H     1 <1>   0.0800 
 36 H       -8.0670     3.1080     2.1450 H     1 <1>   0.0800 
 37 H       -9.8600     1.1570    -1.1020 H     1 <1>   0.0800 
 38 H       -8.8540     2.5030    -1.5430 H     1 <1>   0.0800 
 39 H      -11.1160     1.5810     2.0330 H     1 <1>   0.1500 
 40 H      -11.8790     5.9140    -0.1460 H     1 <1>   0.1500 
 41 H      -13.1980     2.8210     2.4310 H     1 <1>   0.1500 
 42 H       -9.7300     6.7620    -0.5570 H     1 <1>   0.0800 
 43 H      -10.4850     6.0330    -1.9800 H     1 <1>   0.0800 
 44 H      -13.5620     4.9900     1.3310 H     1 <1>   0.1500 
 45 H       -7.4920     6.2590    -1.4930 H     1 <1>   0.0800 
 46 H       -8.4030     7.2450    -2.6060 H     1 <1>   0.0800 
 47 H       -8.2440     5.5340    -2.9090 H     1 <1>   0.0800 
@<TRIPOS>BOND
  1   1   2  1   
  2   2   3  ar  
  3   2   4  ar  
  4   3   5  ar  
  5   3  24  1   
  6   4   6  ar  
  7   4  25  1   
  8   5   7  ar  
  9   5   8  1   
 10   6   7  ar  
 11   6  26  1   
 12   7  27  1   
 13   8   9  1   
 14   8  28  1   
 15   8  29  1   
 16   9  10  1   
 17   9  11  1   
 18   9  30  1   
 19  10  12  1   
 20  10  31  1   
 21  10  32  1   
 22  11  13  1   
 23  11  33  1   
 24  11  34  1   
 25  12  14  1   
 26  12  35  1   
 27  12  36  1   
 28  13  14  1   
 29  13  37  1   
 30  13  38  1   
 31  14  15  1   
 32  15  16  ar  
 33  15  17  ar  
 34  16  18  1   
 35  16  19  ar  
 36  17  20  ar  
 37  17  39  1   
 38  18  21  1   
 39  19  22  ar  
 40  19  40  1   
 41  20  22  ar  
 42  20  41  1   
 43  21  23  1   
 44  21  42  1   
 45  21  43  1   
 46  22  44  1   
 47  23  45  1   
 48  23  46  1   
 49  23  47  1   
@<TRIPOS>SUBSTRUCTURE
  1 ****  12 GROUP 4 **** **** 0

# MOE 2024.06 (io_trps.svl 2023.06)
