@<TRIPOS>MOLECULE
NONAME
29 29 1 0 0 
SMALL
USER_CHARGES


@<TRIPOS>ATOM
  1 O       -8.2600     0.3610    -0.7050 O.2   1 <1>  -0.5700 
  2 C       -9.0700    -0.5060    -0.4750 C.2   1 <1>   0.5690 
  3 N       -8.9440    -1.4380     0.5010 N.am  1 <1>  -0.6600 
  4 C      -10.3320    -0.6970    -1.2680 C.3   1 <1>  -0.0990 
  5 C      -10.1130    -2.3460     0.5350 C.3   1 <1>   0.1400 
  6 C       -8.0290    -1.3950     1.6840 C.3   1 <1>   0.1400 
  7 C      -10.8630    -2.0500    -0.7700 C.3   1 <1>  -0.1600 
  8 C       -6.5620    -1.6830     1.3070 C.3   1 <1>   0.3430 
  9 N       -6.0010    -0.5950     0.4560 N.4   1 <1>  -0.9060 
 10 C       -4.8780    -1.0190    -0.4240 C.3   1 <1>   0.3430 
 11 C       -4.5310     0.0740    -1.4340 C.3   1 <1>   0.0400 
 12 C       -3.4150    -0.4230    -2.2720 C.1   1 <1>   0.3570 
 13 N       -2.5580    -0.8650    -2.8690 N.1   1 <1>  -0.5570 
 14 H      -10.1280    -0.7100    -2.3230 H     1 <1>   0.0800 
 15 H      -11.0170     0.0980    -1.0350 H     1 <1>   0.0800 
 16 H      -10.7310    -2.1110     1.3860 H     1 <1>   0.0800 
 17 H       -9.8040    -3.3770     0.5810 H     1 <1>   0.0800 
 18 H       -8.3510    -2.1340     2.3980 H     1 <1>   0.0800 
 19 H       -8.1060    -0.4320     2.1590 H     1 <1>   0.0800 
 20 H      -10.6330    -2.8180    -1.4880 H     1 <1>   0.0800 
 21 H      -11.9290    -2.0340    -0.6170 H     1 <1>   0.0800 
 22 H       -6.5300    -2.6220     0.7780 H     1 <1>   0.0800 
 23 H       -5.9720    -1.7830     2.2040 H     1 <1>   0.0800 
 24 H       -5.7560     0.2220     1.0280 H     1 <1>   0.4500 
 25 H       -6.7920    -0.2650    -0.1360 H     1 <1>   0.4500 
 26 H       -5.1590    -1.9110    -0.9620 H     1 <1>   0.0800 
 27 H       -4.0090    -1.2470     0.1730 H     1 <1>   0.0800 
 28 H       -4.2150     0.9720    -0.9350 H     1 <1>   0.0800 
 29 H       -5.3730     0.2870    -2.0690 H     1 <1>   0.0800 
@<TRIPOS>BOND
  1   1   2  2   
  2   2   3  am  
  3   2   4  1   
  4   3   5  1   
  5   3   6  1   
  6   4   7  1   
  7   4  14  1   
  8   4  15  1   
  9   5   7  1   
 10   5  16  1   
 11   5  17  1   
 12   6   8  1   
 13   6  18  1   
 14   6  19  1   
 15   7  20  1   
 16   7  21  1   
 17   8   9  1   
 18   8  22  1   
 19   8  23  1   
 20   9  10  1   
 21   9  24  1   
 22   9  25  1   
 23  10  11  1   
 24  10  26  1   
 25  10  27  1   
 26  11  12  1   
 27  11  28  1   
 28  11  29  1   
 29  12  13  3   
@<TRIPOS>SUBSTRUCTURE
  1 ****   9 GROUP 4 **** **** 0

# MOE 2024.06 (io_trps.svl 2023.06)
