@<TRIPOS>MOLECULE
NONAME
46 48 1 0 0 
SMALL
USER_CHARGES


@<TRIPOS>ATOM
  1 S       -1.0120     1.0700    -1.6550 S.o2  1 <1>   1.5010 
  2 O       -1.9240     1.8670    -2.4490 O.2   1 <1>  -0.6500 
  3 O       -0.3060    -0.0300    -2.2760 O.2   1 <1>  -0.6500 
  4 N       -1.9150     0.4130    -0.3820 N.am  1 <1>  -0.8490 
  5 C        0.1600     2.1460    -0.8090 C.2   1 <1>  -0.0630 
  6 C       -2.7970    -0.6630    -0.8690 C.3   1 <1>   0.1960 
  7 C       -2.7370     1.4330     0.2980 C.3   1 <1>   0.1960 
  8 C        1.0760     1.7520     0.1630 C.2   1 <1>   0.1080 
  9 C        0.3710     3.4820    -0.9210 C.2   1 <1>  -0.3020 
 10 C       -3.6190    -1.3290     0.2540 C.3   1 <1>   0.2090 
 11 C       -3.5290     0.8620     1.4910 C.3   1 <1>   0.2090 
 12 N        1.7790     2.7420     0.6160 N.2   1 <1>  -0.7070 
 13 C        1.2680     0.3390     0.6720 C.3   1 <1>  -0.0590 
 14 N        1.3470     3.8130    -0.0600 N.pl3 1 <1>   0.3140 
 15 N       -4.3230    -0.3540     1.1430 N.pl3 1 <1>  -0.8380 
 16 C        1.9210     5.1440     0.1650 C.3   1 <1>   0.0160 
 17 C       -5.7120    -0.2110     1.0030 C.ar  1 <1>   0.1000 
 18 C       -6.3440     0.3950    -0.0980 C.ar  1 <1>   0.0830 
 19 C       -6.5030    -0.7040     2.0310 C.ar  1 <1>  -0.1500 
 20 O       -5.5610     0.8810    -1.1080 O.3   1 <1>  -0.3630 
 21 C       -7.7320     0.4860    -0.1350 C.ar  1 <1>  -0.1500 
 22 C       -7.8820    -0.6100     1.9900 C.ar  1 <1>  -0.1500 
 23 C       -6.1020     1.5740    -2.2090 C.3   1 <1>   0.0400 
 24 C       -8.4970    -0.0140     0.9050 C.ar  1 <1>  -0.1500 
 25 H       -2.2010    -1.4260    -1.3400 H     1 <1>   0.0800 
 26 H       -3.4670    -0.2760    -1.6160 H     1 <1>   0.0800 
 27 H       -3.4290     1.8750    -0.3980 H     1 <1>   0.0800 
 28 H       -2.1030     2.2200     0.6660 H     1 <1>   0.0800 
 29 H       -0.1210     4.1900    -1.5630 H     1 <1>   0.1500 
 30 H       -2.9580    -1.9240     0.8590 H     1 <1>   0.0800 
 31 H       -4.3420    -1.9920    -0.1880 H     1 <1>   0.0800 
 32 H       -4.1900     1.6220     1.8700 H     1 <1>   0.0800 
 33 H       -2.8390     0.6080     2.2760 H     1 <1>   0.0800 
 34 H        1.4310    -0.3330    -0.1510 H     1 <1>   0.0800 
 35 H        0.3990     0.0240     1.2200 H     1 <1>   0.0800 
 36 H        2.1220     0.2980     1.3230 H     1 <1>   0.0800 
 37 H        1.3710     5.8760    -0.3960 H     1 <1>   0.0800 
 38 H        2.9480     5.1370    -0.1480 H     1 <1>   0.0800 
 39 H        1.8670     5.3720     1.2130 H     1 <1>   0.0800 
 40 H       -6.0180    -1.1660     2.8710 H     1 <1>   0.1500 
 41 H       -8.2420     0.9400    -0.9620 H     1 <1>   0.1500 
 42 H       -8.4720    -1.0000     2.8010 H     1 <1>   0.1500 
 43 H       -5.2870     1.8820    -2.8400 H     1 <1>   0.0800 
 44 H       -6.6340     2.4380    -1.8510 H     1 <1>   0.0800 
 45 H       -6.7550     0.9140    -2.7520 H     1 <1>   0.0800 
 46 H       -9.5700     0.0600     0.8700 H     1 <1>   0.1500 
@<TRIPOS>BOND
  1   1   2  2   
  2   1   3  2   
  3   1   4  am  
  4   1   5  1   
  5   4   6  1   
  6   4   7  1   
  7   5   8  1   
  8   5   9  2   
  9   6  10  1   
 10   6  25  1   
 11   6  26  1   
 12   7  11  1   
 13   7  27  1   
 14   7  28  1   
 15   8  12  2   
 16   8  13  1   
 17   9  14  1   
 18   9  29  1   
 19  10  15  1   
 20  10  30  1   
 21  10  31  1   
 22  11  15  1   
 23  11  32  1   
 24  11  33  1   
 25  12  14  1   
 26  13  34  1   
 27  13  35  1   
 28  13  36  1   
 29  14  16  1   
 30  15  17  1   
 31  16  37  1   
 32  16  38  1   
 33  16  39  1   
 34  17  18  ar  
 35  17  19  ar  
 36  18  20  1   
 37  18  21  ar  
 38  19  22  ar  
 39  19  40  1   
 40  20  23  1   
 41  21  24  ar  
 42  21  41  1   
 43  22  24  ar  
 44  22  42  1   
 45  23  43  1   
 46  23  44  1   
 47  23  45  1   
 48  24  46  1   
@<TRIPOS>SUBSTRUCTURE
  1 ****   7 GROUP 4 **** **** 0

# MOE 2024.06 (io_trps.svl 2023.06)
