@<TRIPOS>MOLECULE
NONAME
43 44 1 0 0 
SMALL
USER_CHARGES


@<TRIPOS>ATOM
  1 S       -0.0610     0.3110     0.6980 S.o2  1 <1>   1.3330 
  2 O       -1.0160     1.3560     0.9870 O.2   1 <1>  -0.6500 
  3 O       -0.0320    -0.8940     1.4920 O.2   1 <1>  -0.6500 
  4 N        1.5120     1.0470     0.7710 N.am  1 <1>  -0.6930 
  5 C       -0.1920    -0.1090    -1.0450 C.3   1 <1>  -0.0550 
  6 C        2.6760     0.3930     0.3920 C.ar  1 <1>   0.1990 
  7 C        1.5760     2.4350     1.2910 C.3   1 <1>   0.1160 
  8 C       -1.5270    -0.7610    -1.4450 C.3   1 <1>  -0.2400 
  9 C        3.0230    -0.8520     0.9090 C.ar  1 <1>  -0.1500 
 10 C        3.5330     0.9710    -0.5390 C.ar  1 <1>  -0.1500 
 11 C        4.1770    -1.4940     0.5040 C.ar  1 <1>  -0.1500 
 12 C        4.6890     0.3290    -0.9400 C.ar  1 <1>  -0.1500 
 13 C        5.0430    -0.9190    -0.4250 C.ar  1 <1>   0.0860 
 14 C        6.2510    -1.5990    -0.8420 C.2   1 <1>   0.5440 
 15 O        6.1650    -2.7330    -1.2780 O.2   1 <1>  -0.5700 
 16 N        7.4950    -1.0030    -0.7610 N.am  1 <1>  -0.6600 
 17 C        7.7930     0.1780     0.0980 C.3   1 <1>   0.1400 
 18 C        8.6980    -1.6150    -1.3950 C.3   1 <1>   0.1400 
 19 C        8.7970    -0.2140     1.1880 C.3   1 <1>  -0.1600 
 20 C        9.7030    -2.0240    -0.3140 C.3   1 <1>  -0.1600 
 21 C       10.0660    -0.8420     0.5960 C.3   1 <1>  -0.1600 
 22 H        0.6050    -0.7820    -1.2990 H     1 <1>   0.0800 
 23 H       -0.0590     0.7830    -1.6260 H     1 <1>   0.0800 
 24 H        1.0880     2.4830     2.2490 H     1 <1>   0.0800 
 25 H        1.0740     3.1030     0.6120 H     1 <1>   0.0800 
 26 H        2.5990     2.7480     1.4080 H     1 <1>   0.0800 
 27 H       -1.6720    -1.6750    -0.8950 H     1 <1>   0.0800 
 28 H       -1.5330    -0.9850    -2.4970 H     1 <1>   0.0800 
 29 H       -2.3440    -0.0950    -1.2270 H     1 <1>   0.0800 
 30 H        2.3870    -1.3200     1.6390 H     1 <1>   0.1500 
 31 H        3.2830     1.9300    -0.9560 H     1 <1>   0.1500 
 32 H        4.4230    -2.4610     0.9070 H     1 <1>   0.1500 
 33 H        5.3350     0.7890    -1.6690 H     1 <1>   0.1500 
 34 H        6.9000     0.5530     0.5640 H     1 <1>   0.0800 
 35 H        8.2080     0.9600    -0.5150 H     1 <1>   0.0800 
 36 H        9.1460    -0.8950    -2.0580 H     1 <1>   0.0800 
 37 H        8.4250    -2.4770    -1.9810 H     1 <1>   0.0800 
 38 H        8.3260    -0.9150     1.8550 H     1 <1>   0.0800 
 39 H        9.0590     0.6580     1.7600 H     1 <1>   0.0800 
 40 H       10.5910    -2.4090    -0.7820 H     1 <1>   0.0800 
 41 H        9.2710    -2.8170     0.2720 H     1 <1>   0.0800 
 42 H       10.7110    -1.1790     1.3890 H     1 <1>   0.0800 
 43 H       10.5990    -0.1020     0.0230 H     1 <1>   0.0800 
@<TRIPOS>BOND
  1   1   2  2   
  2   1   3  2   
  3   1   4  am  
  4   1   5  1   
  5   4   6  1   
  6   4   7  1   
  7   5   8  1   
  8   5  22  1   
  9   5  23  1   
 10   6   9  ar  
 11   6  10  ar  
 12   7  24  1   
 13   7  25  1   
 14   7  26  1   
 15   8  27  1   
 16   8  28  1   
 17   8  29  1   
 18   9  11  ar  
 19   9  30  1   
 20  10  12  ar  
 21  10  31  1   
 22  11  13  ar  
 23  11  32  1   
 24  12  13  ar  
 25  12  33  1   
 26  13  14  1   
 27  14  15  2   
 28  14  16  am  
 29  16  17  1   
 30  16  18  1   
 31  17  19  1   
 32  17  34  1   
 33  17  35  1   
 34  18  20  1   
 35  18  36  1   
 36  18  37  1   
 37  19  21  1   
 38  19  38  1   
 39  19  39  1   
 40  20  21  1   
 41  20  40  1   
 42  20  41  1   
 43  21  42  1   
 44  21  43  1   
@<TRIPOS>SUBSTRUCTURE
  1 ****  13 GROUP 4 **** **** 0

# MOE 2024.06 (io_trps.svl 2023.06)
