@<TRIPOS>MOLECULE
NONAME
53 55 1 0 0 
SMALL
USER_CHARGES


@<TRIPOS>ATOM
  1 O       -2.1590     5.9680     1.0900 O.3   1 <1>  -0.2860 
  2 C       -2.6860     5.1250     0.2210 C.2   1 <1>  -0.0480 
  3 C       -2.0460     7.1390     0.4970 C.2   1 <1>  -0.0180 
  4 C       -2.9210     5.7510    -0.9560 C.2   1 <1>  -0.1570 
  5 C       -2.9100     3.6970     0.6860 C.3   1 <1>   0.3740 
  6 C       -2.5000     7.0740    -0.7720 C.2   1 <1>  -0.1570 
  7 O       -1.6730     3.2240     1.1110 O.3   1 <1>  -0.6840 
  8 C       -3.4830     2.7870    -0.4240 C.3   1 <1>   0.3480 
  9 N       -3.7810     1.3780     0.0090 N.pl3 1 <1>  -0.7670 
 10 C       -2.9210     0.3980     0.2790 C.cat 1 <1>   1.0690 
 11 C       -5.0590     0.8380     0.0770 C.ar  1 <1>   0.3030 
 12 N       -1.6240     0.5660     0.3600 N.pl3 1 <1>  -0.8390 
 13 N       -3.5490    -0.7690     0.4630 N.pl3 1 <1>  -0.7670 
 14 C       -4.9140    -0.5080     0.3690 C.ar  1 <1>   0.3030 
 15 C       -6.3230     1.3960    -0.0850 C.ar  1 <1>  -0.1160 
 16 C       -2.9770    -2.1070     0.7810 C.3   1 <1>   0.3480 
 17 C       -6.0310    -1.3260     0.5190 C.ar  1 <1>  -0.1160 
 18 C       -7.4300     0.5820     0.0540 C.ar  1 <1>  -0.1570 
 19 C       -3.0780    -3.0660    -0.4340 C.3   1 <1>   0.3370 
 20 C       -7.2850    -0.7720     0.3560 C.ar  1 <1>  -0.1570 
 21 N       -2.5300    -4.4530    -0.1900 N.4   1 <1>  -0.9610 
 22 C       -1.1720    -4.6590    -0.7810 C.3   1 <1>   0.3370 
 23 C       -3.4670    -5.4690    -0.7490 C.3   1 <1>   0.3370 
 24 C       -0.1400    -3.7900    -0.0750 C.3   1 <1>  -0.2460 
 25 C       -3.2400    -6.8040    -0.0510 C.3   1 <1>  -0.2460 
 26 H       -1.6340     7.9660     1.0490 H     1 <1>   0.1430 
 27 H       -3.3360     5.3780    -1.8750 H     1 <1>   0.1430 
 28 H       -3.5740     3.7070     1.5340 H     1 <1>   0.0730 
 29 H       -2.5430     7.8560    -1.5100 H     1 <1>   0.1430 
 30 H       -1.2270     3.9840     1.5550 H     1 <1>   0.3950 
 31 H       -2.7870     2.7680    -1.2450 H     1 <1>   0.0730 
 32 H       -4.3860     3.2400    -0.7910 H     1 <1>   0.0730 
 33 H       -0.9500    -0.1310     0.6480 H     1 <1>   0.4450 
 34 H       -1.2830     1.5350     0.4440 H     1 <1>   0.4450 
 35 H       -6.4440     2.4400    -0.3110 H     1 <1>   0.1430 
 36 H       -3.5230    -2.5240     1.6110 H     1 <1>   0.0730 
 37 H       -1.9510    -1.9990     1.0800 H     1 <1>   0.0730 
 38 H       -5.9310    -2.3670     0.7620 H     1 <1>   0.1430 
 39 H       -8.4210     0.9920    -0.0670 H     1 <1>   0.1430 
 40 H       -2.5630    -2.6270    -1.2720 H     1 <1>   0.0730 
 41 H       -4.1190    -3.1460    -0.6980 H     1 <1>   0.0730 
 42 H       -8.1690    -1.3810     0.4650 H     1 <1>   0.1430 
 43 H       -2.4650    -4.6610     0.8160 H     1 <1>   0.4450 
 44 H       -1.1860    -4.4320    -1.8360 H     1 <1>   0.0730 
 45 H       -0.8820    -5.6920    -0.6690 H     1 <1>   0.0730 
 46 H       -3.3200    -5.5730    -1.8130 H     1 <1>   0.0730 
 47 H       -4.4860    -5.1630    -0.5770 H     1 <1>   0.0730 
 48 H       -0.2700    -2.7510    -0.3150 H     1 <1>   0.0730 
 49 H        0.8400    -4.0740    -0.4190 H     1 <1>   0.0730 
 50 H       -0.1690    -3.9410     0.9900 H     1 <1>   0.0730 
 51 H       -2.2610    -7.1990    -0.2550 H     1 <1>   0.0730 
 52 H       -3.9580    -7.5160    -0.4180 H     1 <1>   0.0730 
 53 H       -3.3820    -6.7130     1.0110 H     1 <1>   0.0730 
@<TRIPOS>BOND
  1   1   2  1   
  2   1   3  1   
  3   2   4  2   
  4   2   5  1   
  5   3   6  2   
  6   3  26  1   
  7   4   6  1   
  8   4  27  1   
  9   5   7  1   
 10   5   8  1   
 11   5  28  1   
 12   6  29  1   
 13   7  30  1   
 14   8   9  1   
 15   8  31  1   
 16   8  32  1   
 17   9  10  ar  
 18   9  11  1   
 19  10  12  ar  
 20  10  13  ar  
 21  11  14  ar  
 22  11  15  ar  
 23  12  33  1   
 24  12  34  1   
 25  13  14  1   
 26  13  16  1   
 27  14  17  ar  
 28  15  18  ar  
 29  15  35  1   
 30  16  19  1   
 31  16  36  1   
 32  16  37  1   
 33  17  20  ar  
 34  17  38  1   
 35  18  20  ar  
 36  18  39  1   
 37  19  21  1   
 38  19  40  1   
 39  19  41  1   
 40  20  42  1   
 41  21  22  1   
 42  21  23  1   
 43  21  43  1   
 44  22  24  1   
 45  22  44  1   
 46  22  45  1   
 47  23  25  1   
 48  23  46  1   
 49  23  47  1   
 50  24  48  1   
 51  24  49  1   
 52  24  50  1   
 53  25  51  1   
 54  25  52  1   
 55  25  53  1   
@<TRIPOS>SUBSTRUCTURE
  1 ****  10 GROUP 4 **** **** 0

# MOE 2024.06 (io_trps.svl 2023.06)
