@<TRIPOS>MOLECULE
NONAME
35 36 1 0 0 
SMALL
USER_CHARGES


@<TRIPOS>ATOM
  1 O       -0.0090    -1.6910    -0.3390 O.3   1 <1>  -0.3630 
  2 C       -1.2650    -1.4950     0.1430 C.ar  1 <1>   0.0830 
  3 C        1.1250    -1.1860     0.3250 C.3   1 <1>   0.1200 
  4 C       -2.3260    -2.0270    -0.5860 C.ar  1 <1>  -0.1440 
  5 C       -1.5230    -0.7930     1.3190 C.ar  1 <1>  -0.1500 
  6 C        2.3600    -1.5840    -0.4830 C.3   1 <1>  -0.1600 
  7 C       -3.6240    -1.8520    -0.1350 C.ar  1 <1>  -0.1500 
  8 C       -2.0710    -2.7970    -1.8740 C.3   1 <1>  -0.0970 
  9 C       -2.8230    -0.6250     1.7600 C.ar  1 <1>  -0.1500 
 10 C        3.6460    -1.0680     0.1770 C.3   1 <1>  -0.1600 
 11 C       -3.8740    -1.1540     1.0340 C.ar  1 <1>  -0.1500 
 12 C        4.8840    -1.4700    -0.6340 C.3   1 <1>   0.0960 
 13 N        6.1070    -0.9670     0.0180 N.pl3 1 <1>   0.0480 
 14 C        6.8930    -1.6070     0.9140 C.2   1 <1>   0.0360 
 15 C        6.6820     0.2390    -0.1380 C.2   1 <1>  -0.3020 
 16 N        7.9000    -0.9080     1.3250 N.2   1 <1>  -0.5650 
 17 C        7.7700     0.2560     0.6630 C.2   1 <1>   0.0770 
 18 H        1.1580    -1.6140     1.3120 H     1 <1>   0.0800 
 19 H        1.0330    -0.1150     0.3820 H     1 <1>   0.0800 
 20 H       -0.7300    -0.3710     1.9050 H     1 <1>   0.1500 
 21 H        2.2720    -1.1740    -1.4750 H     1 <1>   0.0800 
 22 H        2.3950    -2.6580    -0.5550 H     1 <1>   0.0800 
 23 H       -4.4500    -2.2590    -0.6910 H     1 <1>   0.1500 
 24 H       -1.4530    -3.6520    -1.6680 H     1 <1>   0.0800 
 25 H       -1.5640    -2.1660    -2.5800 H     1 <1>   0.0800 
 26 H       -2.9910    -3.1350    -2.3140 H     1 <1>   0.0800 
 27 H       -3.0190    -0.0820     2.6690 H     1 <1>   0.1500 
 28 H        3.7250    -1.4750     1.1710 H     1 <1>   0.0800 
 29 H        3.6040     0.0060     0.2490 H     1 <1>   0.0800 
 30 H       -4.8860    -1.0240     1.3760 H     1 <1>   0.1500 
 31 H        4.8300    -1.0580    -1.6260 H     1 <1>   0.0800 
 32 H        4.9480    -2.5410    -0.7110 H     1 <1>   0.0800 
 33 H        6.6820    -2.6090     1.2440 H     1 <1>   0.1500 
 34 H        6.3000     1.0010    -0.7910 H     1 <1>   0.1500 
 35 H        8.4770     1.0570     0.8010 H     1 <1>   0.1500 
@<TRIPOS>BOND
  1   1   2  1   
  2   1   3  1   
  3   2   4  ar  
  4   2   5  ar  
  5   3   6  1   
  6   3  18  1   
  7   3  19  1   
  8   4   7  ar  
  9   4   8  1   
 10   5   9  ar  
 11   5  20  1   
 12   6  10  1   
 13   6  21  1   
 14   6  22  1   
 15   7  11  ar  
 16   7  23  1   
 17   8  24  1   
 18   8  25  1   
 19   8  26  1   
 20   9  11  ar  
 21   9  27  1   
 22  10  12  1   
 23  10  28  1   
 24  10  29  1   
 25  11  30  1   
 26  12  13  1   
 27  12  31  1   
 28  12  32  1   
 29  13  14  1   
 30  13  15  1   
 31  14  16  2   
 32  14  33  1   
 33  15  17  2   
 34  15  34  1   
 35  16  17  1   
 36  17  35  1   
@<TRIPOS>SUBSTRUCTURE
  1 ****   3 GROUP 4 **** **** 0

# MOE 2024.06 (io_trps.svl 2023.06)
