@<TRIPOS>MOLECULE
NONAME
47 49 1 0 0 
SMALL
USER_CHARGES


@<TRIPOS>ATOM
  1 O       -0.7640     0.0140     0.9960 O.3   1 <1>  -0.5600 
  2 C       -0.4240     1.3760     1.0810 C.3   1 <1>   0.2000 
  3 C       -1.3130    -0.4110    -0.2170 C.3   1 <1>   0.2000 
  4 C       -1.4280     2.3170     0.3530 C.3   1 <1>   0.0580 
  5 C        1.0320     1.5460     0.6120 C.3   1 <1>  -0.1600 
  6 C       -2.7060     0.2480    -0.4440 C.3   1 <1>   0.0580 
  7 C       -1.2850    -1.9490    -0.2380 C.3   1 <1>  -0.1600 
  8 C       -2.7820     1.6370     0.1980 C.2   1 <1>  -0.2760 
  9 C       -0.8940     2.8360    -0.9940 C.3   1 <1>  -0.1600 
 10 C        1.3400     3.0160     0.2940 C.3   1 <1>  -0.1600 
 11 C       -3.9170    -0.5860     0.0250 C.3   1 <1>  -0.1600 
 12 C        0.1430    -2.5090    -0.1470 C.3   1 <1>  -0.1600 
 13 C       -3.9250     2.1770     0.6350 C.2   1 <1>  -0.2880 
 14 C        0.4560     3.5630    -0.8430 C.3   1 <1>  -0.1600 
 15 C       -5.2280     0.1790    -0.2230 C.3   1 <1>  -0.1600 
 16 C        0.1430    -4.0420    -0.2080 C.3   1 <1>  -0.1600 
 17 C       -5.2810     1.4930     0.5700 C.3   1 <1>  -0.0220 
 18 C        1.5650    -4.5920    -0.1020 C.3   1 <1>   0.1200 
 19 O        1.5060    -5.9690    -0.1790 O.3   1 <1>  -0.6800 
 20 H       -0.4680     1.6170     2.1290 H     1 <1>   0.0800 
 21 H       -0.6550    -0.0730    -0.9960 H     1 <1>   0.0800 
 22 H       -1.5560     3.1820     0.9790 H     1 <1>   0.0800 
 23 H        1.2120     0.9590    -0.2700 H     1 <1>   0.0800 
 24 H        1.6900     1.1970     1.3880 H     1 <1>   0.0800 
 25 H       -2.8060     0.3750    -1.5070 H     1 <1>   0.0800 
 26 H       -1.7340    -2.2880    -1.1550 H     1 <1>   0.0800 
 27 H       -1.8690    -2.3250     0.5830 H     1 <1>   0.0800 
 28 H       -1.6160     3.5040    -1.4320 H     1 <1>   0.0800 
 29 H       -0.7700     2.0140    -1.6740 H     1 <1>   0.0800 
 30 H        2.3770     3.1250     0.0280 H     1 <1>   0.0800 
 31 H        1.1720     3.6010     1.1830 H     1 <1>   0.0800 
 32 H       -3.8170    -0.7970     1.0760 H     1 <1>   0.0800 
 33 H       -3.9570    -1.5180    -0.5080 H     1 <1>   0.0800 
 34 H        0.5910    -2.1880     0.7790 H     1 <1>   0.0800 
 35 H        0.7350    -2.1160    -0.9560 H     1 <1>   0.0800 
 36 H       -3.9730     3.1470     1.1000 H     1 <1>   0.1500 
 37 H        0.2790     4.6100    -0.6630 H     1 <1>   0.0800 
 38 H        0.9880     3.4870    -1.7770 H     1 <1>   0.0800 
 39 H       -6.0690    -0.4350     0.0450 H     1 <1>   0.0800 
 40 H       -5.3050     0.4040    -1.2720 H     1 <1>   0.0800 
 41 H       -0.2890    -4.3610    -1.1400 H     1 <1>   0.0800 
 42 H       -0.4510    -4.4260     0.6030 H     1 <1>   0.0800 
 43 H       -6.0020     2.1530     0.1230 H     1 <1>   0.0800 
 44 H       -5.5990     1.2850     1.5770 H     1 <1>   0.0800 
 45 H        2.0210    -4.3210     0.8350 H     1 <1>   0.0800 
 46 H        2.1780    -4.2400    -0.9150 H     1 <1>   0.0800 
 47 H        0.9450    -6.3250     0.5370 H     1 <1>   0.4000 
@<TRIPOS>BOND
  1   1   2  1   
  2   1   3  1   
  3   2   4  1   
  4   2   5  1   
  5   2  20  1   
  6   3   6  1   
  7   3   7  1   
  8   3  21  1   
  9   4   8  1   
 10   4   9  1   
 11   4  22  1   
 12   5  10  1   
 13   5  23  1   
 14   5  24  1   
 15   6   8  1   
 16   6  11  1   
 17   6  25  1   
 18   7  12  1   
 19   7  26  1   
 20   7  27  1   
 21   8  13  2   
 22   9  14  1   
 23   9  28  1   
 24   9  29  1   
 25  10  14  1   
 26  10  30  1   
 27  10  31  1   
 28  11  15  1   
 29  11  32  1   
 30  11  33  1   
 31  12  16  1   
 32  12  34  1   
 33  12  35  1   
 34  13  17  1   
 35  13  36  1   
 36  14  37  1   
 37  14  38  1   
 38  15  17  1   
 39  15  39  1   
 40  15  40  1   
 41  16  18  1   
 42  16  41  1   
 43  16  42  1   
 44  17  43  1   
 45  17  44  1   
 46  18  19  1   
 47  18  45  1   
 48  18  46  1   
 49  19  47  1   
@<TRIPOS>SUBSTRUCTURE
  1 ****   3 GROUP 4 **** **** 0

# MOE 2024.06 (io_trps.svl 2023.06)
