@<TRIPOS>MOLECULE
NONAME
59 60 1 0 0 
SMALL
USER_CHARGES


@<TRIPOS>ATOM
  1 O       -1.2960    -1.7850     2.0610 O.2   1 <1>  -0.5700 
  2 C       -2.1890    -2.2920     1.4320 C.2   1 <1>   0.6590 
  3 O       -1.9510    -3.2690     0.5680 O.3   1 <1>  -0.4300 
  4 C       -3.6210    -1.8340     1.5910 C.3   1 <1>  -0.0990 
  5 C       -0.6840    -3.8510     0.3380 C.3   1 <1>   0.2000 
  6 C       -4.3120    -1.4040     0.2690 C.3   1 <1>   0.1440 
  7 C        0.2040    -2.9170    -0.5210 C.3   1 <1>   0.3430 
  8 C       -0.9470    -5.1770    -0.3760 C.3   1 <1>  -0.2400 
  9 C       -3.3010    -0.5790    -0.5720 C.ar  1 <1>  -0.1440 
 10 C       -4.8920    -2.6180    -0.5120 C.3   1 <1>  -0.1600 
 11 C       -5.5370    -0.5210     0.5920 C.3   1 <1>  -0.1600 
 12 N        0.7440    -1.7400     0.2350 N.4   1 <1>  -0.9590 
 13 C       -2.8280    -0.9890    -1.8180 C.ar  1 <1>  -0.1500 
 14 C       -2.8340     0.6360    -0.0770 C.ar  1 <1>  -0.1500 
 15 C       -6.1970    -3.2330     0.0620 C.3   1 <1>   0.2800 
 16 C       -6.6500    -1.2600     1.3550 C.3   1 <1>   0.1200 
 17 C        1.1210    -0.6250    -0.6760 C.3   1 <1>   0.2630 
 18 C        1.8610    -2.1010     1.1570 C.3   1 <1>   0.2630 
 19 C       -1.9670    -0.1950    -2.5570 C.ar  1 <1>  -0.1500 
 20 C       -1.9680     1.4290    -0.8090 C.ar  1 <1>  -0.1500 
 21 O       -6.4980    -2.6490     1.2920 O.3   1 <1>  -0.5600 
 22 C       -6.0660    -4.7530     0.3070 C.3   1 <1>  -0.1600 
 23 C       -7.3910    -3.0080    -0.8830 C.3   1 <1>  -0.2400 
 24 C       -1.5420     1.0210    -2.0580 C.ar  1 <1>  -0.1500 
 25 C       -5.0500    -5.1880     1.3770 C.3   1 <1>  -0.2400 
 26 H       -3.6090    -1.0000     2.2670 H     1 <1>   0.0800 
 27 H       -4.1650    -2.6150     2.0810 H     1 <1>   0.0800 
 28 H       -0.2230    -4.0510     1.2900 H     1 <1>   0.0800 
 29 H       -0.3870    -2.5760    -1.3550 H     1 <1>   0.0800 
 30 H        1.0290    -3.4860    -0.9160 H     1 <1>   0.0800 
 31 H       -1.4440    -5.0130    -1.3160 H     1 <1>   0.0800 
 32 H       -1.5630    -5.8090     0.2400 H     1 <1>   0.0800 
 33 H       -0.0220    -5.6940    -0.5610 H     1 <1>   0.0800 
 34 H       -4.1480    -3.3790    -0.6320 H     1 <1>   0.0800 
 35 H       -5.1290    -2.2910    -1.5070 H     1 <1>   0.0800 
 36 H       -5.9500    -0.1540    -0.3310 H     1 <1>   0.0800 
 37 H       -5.2630     0.3450     1.1630 H     1 <1>   0.0800 
 38 H       -0.0400    -1.4070     0.8410 H     1 <1>   0.4500 
 39 H       -3.1260    -1.9240    -2.2540 H     1 <1>   0.1500 
 40 H       -3.1470     0.9910     0.8890 H     1 <1>   0.1500 
 41 H       -7.6210    -1.0010     0.9720 H     1 <1>   0.0800 
 42 H       -6.6190    -0.9960     2.3980 H     1 <1>   0.0800 
 43 H        1.9540    -0.9100    -1.2970 H     1 <1>   0.0800 
 44 H        1.3940     0.2470    -0.1050 H     1 <1>   0.0800 
 45 H        0.2890    -0.3700    -1.3090 H     1 <1>   0.0800 
 46 H        2.6990    -2.4890     0.6020 H     1 <1>   0.0800 
 47 H        1.5340    -2.8440     1.8660 H     1 <1>   0.0800 
 48 H        2.1820    -1.2310     1.7070 H     1 <1>   0.0800 
 49 H       -1.6400    -0.5200    -3.5300 H     1 <1>   0.1500 
 50 H       -1.6400     2.3740    -0.4090 H     1 <1>   0.1500 
 51 H       -5.8120    -5.2340    -0.6220 H     1 <1>   0.0800 
 52 H       -7.0310    -5.1310     0.5980 H     1 <1>   0.0800 
 53 H       -7.4940    -1.9740    -1.1510 H     1 <1>   0.0800 
 54 H       -8.3010    -3.3430    -0.4170 H     1 <1>   0.0800 
 55 H       -7.2520    -3.5670    -1.7900 H     1 <1>   0.0800 
 56 H       -0.8900     1.6500    -2.6400 H     1 <1>   0.1500 
 57 H       -4.0510    -4.9030     1.1070 H     1 <1>   0.0800 
 58 H       -5.0770    -6.2570     1.4890 H     1 <1>   0.0800 
 59 H       -5.2980    -4.7470     2.3270 H     1 <1>   0.0800 
@<TRIPOS>BOND
  1   1   2  2   
  2   2   3  1   
  3   2   4  1   
  4   3   5  1   
  5   4   6  1   
  6   4  26  1   
  7   4  27  1   
  8   5   7  1   
  9   5   8  1   
 10   5  28  1   
 11   6   9  1   
 12   6  10  1   
 13   6  11  1   
 14   7  12  1   
 15   7  29  1   
 16   7  30  1   
 17   8  31  1   
 18   8  32  1   
 19   8  33  1   
 20   9  13  ar  
 21   9  14  ar  
 22  10  15  1   
 23  10  34  1   
 24  10  35  1   
 25  11  16  1   
 26  11  36  1   
 27  11  37  1   
 28  12  17  1   
 29  12  18  1   
 30  12  38  1   
 31  13  19  ar  
 32  13  39  1   
 33  14  20  ar  
 34  14  40  1   
 35  15  21  1   
 36  15  22  1   
 37  15  23  1   
 38  16  21  1   
 39  16  41  1   
 40  16  42  1   
 41  17  43  1   
 42  17  44  1   
 43  17  45  1   
 44  18  46  1   
 45  18  47  1   
 46  18  48  1   
 47  19  24  ar  
 48  19  49  1   
 49  20  24  ar  
 50  20  50  1   
 51  22  25  1   
 52  22  51  1   
 53  22  52  1   
 54  23  53  1   
 55  23  54  1   
 56  23  55  1   
 57  24  56  1   
 58  25  57  1   
 59  25  58  1   
 60  25  59  1   
@<TRIPOS>SUBSTRUCTURE
  1 ****   6 GROUP 4 **** **** 0

# MOE 2024.06 (io_trps.svl 2023.06)
