@<TRIPOS>MOLECULE
NONAME
37 38 1 0 0 
SMALL
USER_CHARGES


@<TRIPOS>ATOM
  1 CL       0.1240     0.5040    -0.4980 Cl    1 <1>  -0.1770 
  2 C       -1.4970     1.1210    -0.2960 C.ar  1 <1>   0.1770 
  3 C       -1.6920     2.3010     0.3970 C.ar  1 <1>  -0.1500 
  4 C       -2.5620     0.4230    -0.8290 C.ar  1 <1>  -0.1500 
  5 C       -2.9790     2.7870     0.5550 C.ar  1 <1>  -0.1500 
  6 C       -3.8450     0.9150    -0.6650 C.ar  1 <1>  -0.1500 
  7 C       -4.0720     2.1050     0.0250 C.ar  1 <1>   0.1170 
  8 N       -5.3550     2.6380     0.2250 N.am  1 <1>  -0.5470 
  9 C       -6.5200     2.4540    -0.4700 C.2   1 <1>   0.5690 
 10 O       -6.6050     1.7650    -1.4560 O.2   1 <1>  -0.5700 
 11 C       -7.7590     3.1800     0.0380 C.3   1 <1>  -0.0190 
 12 C       -9.0450     2.4720    -0.4160 C.3   1 <1>   0.1960 
 13 C       -7.7770     4.6500    -0.4180 C.3   1 <1>  -0.1600 
 14 N      -10.2280     3.1490     0.1420 N.am  1 <1>  -0.8490 
 15 C       -9.0750     5.3270     0.0430 C.3   1 <1>  -0.1600 
 16 S      -11.6610     2.2980    -0.1650 S.o2  1 <1>   1.3330 
 17 C      -10.3150     4.5230    -0.3680 C.3   1 <1>   0.1960 
 18 O      -11.5580     1.7160    -1.4820 O.2   1 <1>  -0.6500 
 19 O      -12.7740     3.1610     0.1580 O.2   1 <1>  -0.6500 
 20 C      -11.6230     1.0010     1.0540 C.3   1 <1>  -0.1350 
 21 H       -0.8460     2.8260     0.8030 H     1 <1>   0.1500 
 22 H       -2.3890    -0.4930    -1.3650 H     1 <1>   0.1500 
 23 H       -3.1300     3.7060     1.0920 H     1 <1>   0.1500 
 24 H       -4.6700     0.3640    -1.0790 H     1 <1>   0.1500 
 25 H       -5.4140     3.3120     0.9860 H     1 <1>   0.3700 
 26 H       -7.7410     3.1460     1.1130 H     1 <1>   0.0800 
 27 H       -9.0160     1.4490    -0.0830 H     1 <1>   0.0800 
 28 H       -9.0990     2.4650    -1.4940 H     1 <1>   0.0800 
 29 H       -7.7200     4.6870    -1.4940 H     1 <1>   0.0800 
 30 H       -6.9290     5.1790    -0.0210 H     1 <1>   0.0800 
 31 H       -9.1380     6.3140    -0.3800 H     1 <1>   0.0800 
 32 H       -9.0740     5.4300     1.1140 H     1 <1>   0.0800 
 33 H      -11.1860     5.0110     0.0380 H     1 <1>   0.0800 
 34 H      -10.4110     4.5080    -1.4420 H     1 <1>   0.0800 
 35 H      -10.7780     0.3620     0.8980 H     1 <1>   0.0800 
 36 H      -12.5170     0.4120     0.9860 H     1 <1>   0.0800 
 37 H      -11.5650     1.4250     2.0380 H     1 <1>   0.0800 
@<TRIPOS>BOND
  1   1   2  1   
  2   2   3  ar  
  3   2   4  ar  
  4   3   5  ar  
  5   3  21  1   
  6   4   6  ar  
  7   4  22  1   
  8   5   7  ar  
  9   5  23  1   
 10   6   7  ar  
 11   6  24  1   
 12   7   8  1   
 13   8   9  am  
 14   8  25  1   
 15   9  10  2   
 16   9  11  1   
 17  11  12  1   
 18  11  13  1   
 19  11  26  1   
 20  12  14  1   
 21  12  27  1   
 22  12  28  1   
 23  13  15  1   
 24  13  29  1   
 25  13  30  1   
 26  14  16  am  
 27  14  17  1   
 28  15  17  1   
 29  15  31  1   
 30  15  32  1   
 31  16  18  2   
 32  16  19  2   
 33  16  20  1   
 34  17  33  1   
 35  17  34  1   
 36  20  35  1   
 37  20  36  1   
 38  20  37  1   
@<TRIPOS>SUBSTRUCTURE
  1 ****   9 GROUP 4 **** **** 0

# MOE 2024.06 (io_trps.svl 2023.06)
