@<TRIPOS>MOLECULE
NONAME
35 36 1 0 0 
SMALL
USER_CHARGES


@<TRIPOS>ATOM
  1 O       -0.7780    -1.0990     0.1840 O.3   1 <1>  -0.5600 
  2 C        0.3720    -1.7080    -0.3060 C.3   1 <1>   0.1200 
  3 C       -1.7030    -0.7360    -0.7930 C.3   1 <1>   0.0400 
  4 C        1.2670    -2.0920     0.8910 C.3   1 <1>   0.4230 
  5 N        2.5800    -2.6300     0.4610 N.4   1 <1>  -0.9060 
  6 C        0.6190    -3.1630     1.7650 C.3   1 <1>  -0.2400 
  7 C        3.4730    -1.6340    -0.1820 C.3   1 <1>   0.4230 
  8 C        4.8520    -2.3240    -0.7280 C.3   1 <1>  -0.0800 
  9 C        3.9040    -0.4300     0.8950 C.3   1 <1>  -0.1600 
 10 C        5.1870    -1.2750     0.0330 C.3   1 <1>  -0.1600 
 11 C        6.4740    -2.1360    -0.8220 C.3   1 <1>  -0.1600 
 12 C        5.5300    -0.2550     0.8260 C.3   1 <1>  -0.0800 
 13 C        6.9070    -0.9170     0.2380 C.3   1 <1>  -0.1600 
 14 H        0.8650    -1.0000    -0.9470 H     1 <1>   0.0800 
 15 H        0.0820    -2.5810    -0.8640 H     1 <1>   0.0800 
 16 H       -1.2540    -0.0310    -1.4710 H     1 <1>   0.0800 
 17 H       -2.5440    -0.2760    -0.3030 H     1 <1>   0.0800 
 18 H       -2.0330    -1.6140    -1.3210 H     1 <1>   0.0800 
 19 H        1.4240    -1.2060     1.4860 H     1 <1>   0.0800 
 20 H        2.4320    -3.4230    -0.1720 H     1 <1>   0.4500 
 21 H        3.0610    -2.9970     1.2890 H     1 <1>   0.4500 
 22 H        0.4250    -4.0600     1.2050 H     1 <1>   0.0800 
 23 H       -0.3230    -2.7980     2.1380 H     1 <1>   0.0800 
 24 H        1.2350    -3.3910     2.6160 H     1 <1>   0.0800 
 25 H        2.9710    -1.1810    -1.0230 H     1 <1>   0.0800 
 26 H        4.7950    -3.3240    -0.3200 H     1 <1>   0.0800 
 27 H        3.6140    -0.6770     1.9050 H     1 <1>   0.0800 
 28 H        3.4170     0.4960     0.6300 H     1 <1>   0.0800 
 29 H        5.1180    -0.5400    -0.8860 H     1 <1>   0.0800 
 30 H        5.2800    -2.0010     0.9590 H     1 <1>   0.0800 
 31 H        6.7630    -1.8690    -1.8290 H     1 <1>   0.0800 
 32 H        6.9910    -3.0500    -0.5740 H     1 <1>   0.0800 
 33 H        5.6150     0.7560     0.4490 H     1 <1>   0.0800 
 34 H        7.5110    -0.1760    -0.2650 H     1 <1>   0.0800 
 35 H        7.5010    -1.3180     1.0460 H     1 <1>   0.0800 
@<TRIPOS>BOND
  1   1   2  1   
  2   1   3  1   
  3   2   4  1   
  4   2  14  1   
  5   2  15  1   
  6   3  16  1   
  7   3  17  1   
  8   3  18  1   
  9   4   5  1   
 10   4   6  1   
 11   4  19  1   
 12   5   7  1   
 13   5  20  1   
 14   5  21  1   
 15   6  22  1   
 16   6  23  1   
 17   6  24  1   
 18   7   8  1   
 19   7   9  1   
 20   7  25  1   
 21   8  10  1   
 22   8  11  1   
 23   8  26  1   
 24   9  12  1   
 25   9  27  1   
 26   9  28  1   
 27  10  12  1   
 28  10  29  1   
 29  10  30  1   
 30  11  13  1   
 31  11  31  1   
 32  11  32  1   
 33  12  13  1   
 34  12  33  1   
 35  13  34  1   
 36  13  35  1   
@<TRIPOS>SUBSTRUCTURE
  1 ****   7 GROUP 4 **** **** 0

# MOE 2024.06 (io_trps.svl 2023.06)
