@<TRIPOS>MOLECULE
NONAME
33 34 1 0 0 
SMALL
USER_CHARGES


@<TRIPOS>ATOM
  1 S        0.0780    -0.0560    -1.5110 S.o2  1 <1>   1.4470 
  2 O        0.5310     1.1960    -2.0630 O.2   1 <1>  -0.6500 
  3 O        0.4720    -1.3120    -2.1010 O.2   1 <1>  -0.6500 
  4 N        0.8270    -0.0930    -0.0380 N.am  1 <1>  -0.9780 
  5 C       -1.6890    -0.0260    -1.1120 C.ar  1 <1>  -0.0090 
  6 C       -2.3720    -1.2040    -0.8370 C.ar  1 <1>  -0.1500 
  7 C       -2.3910     1.1830    -1.0480 C.ar  1 <1>  -0.1500 
  8 C       -3.7200    -1.1640    -0.5130 C.ar  1 <1>   0.1170 
  9 C       -3.7370     1.2290    -0.7250 C.ar  1 <1>  -0.1500 
 10 N       -4.6210    -2.1750    -0.2010 N.am  1 <1>  -0.4770 
 11 C       -4.3980     0.0410    -0.4570 C.ar  1 <1>   0.1170 
 12 C       -5.8300    -1.5830     0.0360 C.2   1 <1>   0.6900 
 13 C       -4.3500    -3.6240    -0.1500 C.3   1 <1>   0.1400 
 14 N       -5.7160    -0.2280    -0.1100 N.am  1 <1>  -0.4770 
 15 O       -6.8590    -2.1760     0.3300 O.2   1 <1>  -0.5700 
 16 C       -3.6720    -3.9730     1.1740 C.3   1 <1>  -0.2400 
 17 C       -6.8080     0.7470     0.0650 C.3   1 <1>   0.1400 
 18 C       -6.6990     1.3980     1.4420 C.3   1 <1>  -0.2400 
 19 H        1.3830     0.7590    -0.0370 H     1 <1>   0.4200 
 20 H        1.4870    -0.8610    -0.1310 H     1 <1>   0.4200 
 21 H       -1.8620    -2.1500    -0.8730 H     1 <1>   0.1500 
 22 H       -1.8690     2.1030    -1.2570 H     1 <1>   0.1500 
 23 H       -4.2680     2.1630    -0.6800 H     1 <1>   0.1500 
 24 H       -3.7210    -3.8980    -0.9790 H     1 <1>   0.0800 
 25 H       -5.2800    -4.1610    -0.2360 H     1 <1>   0.0800 
 26 H       -2.7380    -3.4500     1.2700 H     1 <1>   0.0800 
 27 H       -3.4810    -5.0300     1.2160 H     1 <1>   0.0800 
 28 H       -4.3150    -3.7100     1.9950 H     1 <1>   0.0800 
 29 H       -7.7540     0.2400    -0.0260 H     1 <1>   0.0800 
 30 H       -6.7470     1.4920    -0.7090 H     1 <1>   0.0800 
 31 H       -6.7760     0.6470     2.2090 H     1 <1>   0.0800 
 32 H       -7.4990     2.1030     1.5750 H     1 <1>   0.0800 
 33 H       -5.7630     1.9160     1.5430 H     1 <1>   0.0800 
@<TRIPOS>BOND
  1   1   2  2   
  2   1   3  2   
  3   1   4  am  
  4   1   5  1   
  5   4  19  1   
  6   4  20  1   
  7   5   6  ar  
  8   5   7  ar  
  9   6   8  ar  
 10   6  21  1   
 11   7   9  ar  
 12   7  22  1   
 13   8  10  1   
 14   8  11  ar  
 15   9  11  ar  
 16   9  23  1   
 17  10  12  am  
 18  10  13  1   
 19  11  14  1   
 20  12  14  am  
 21  12  15  2   
 22  13  16  1   
 23  13  24  1   
 24  13  25  1   
 25  14  17  1   
 26  16  26  1   
 27  16  27  1   
 28  16  28  1   
 29  17  18  1   
 30  17  29  1   
 31  17  30  1   
 32  18  31  1   
 33  18  32  1   
 34  18  33  1   
@<TRIPOS>SUBSTRUCTURE
  1 ****   8 GROUP 4 **** **** 0

# MOE 2024.06 (io_trps.svl 2023.06)
