@<TRIPOS>MOLECULE
NONAME
59 61 1 0 0 
SMALL
USER_CHARGES


@<TRIPOS>ATOM
  1 O        0.8950    -0.9540     0.4040 O.2   1 <1>  -0.5700 
  2 C        1.8630    -1.4610    -0.1000 C.2   1 <1>   0.5690 
  3 N        3.0500    -0.8190    -0.0580 N.am  1 <1>  -0.7300 
  4 C        1.7060    -2.8330    -0.7610 C.3   1 <1>  -0.0190 
  5 C        4.3930    -1.2640    -0.4650 C.3   1 <1>   0.2840 
  6 C        0.4750    -2.8660    -1.6900 C.3   1 <1>  -0.1600 
  7 C        1.5870    -3.9290     0.3140 C.3   1 <1>  -0.1600 
  8 C        5.4110    -0.3690     0.2120 C.ar  1 <1>  -0.1440 
  9 C        0.2110    -4.2600    -2.2530 C.3   1 <1>   0.3430 
 10 C        1.2910    -5.3010    -0.2870 C.3   1 <1>   0.3430 
 11 C        5.7380    -0.5650     1.5450 C.ar  1 <1>  -0.1500 
 12 C        6.0220     0.6580    -0.4900 C.ar  1 <1>  -0.1500 
 13 N        0.0630    -5.2260    -1.1330 N.4   1 <1>  -0.9590 
 14 C        6.6680     0.2510     2.1650 C.ar  1 <1>  -0.1500 
 15 C        6.9520     1.4730     0.1310 C.ar  1 <1>  -0.1500 
 16 C       -0.3260    -6.5770    -1.6280 C.3   1 <1>   0.4860 
 17 C        7.2820     1.2730     1.4610 C.ar  1 <1>  -0.1430 
 18 C       -0.7090    -7.4470    -0.4480 C.ar  1 <1>  -0.1430 
 19 C        8.3010     2.1690     2.1410 C.3   1 <1>  -0.0970 
 20 C        0.2270    -8.3190     0.0940 C.ar  1 <1>   0.0830 
 21 C       -1.9860    -7.3690     0.0860 C.ar  1 <1>  -0.1500 
 22 O        1.4470    -8.3370    -0.5210 O.3   1 <1>  -0.3630 
 23 C       -0.1090    -9.0930     1.2170 C.ar  1 <1>   0.0830 
 24 C       -2.3280    -8.1510     1.1730 C.ar  1 <1>  -0.1500 
 25 C        2.1620    -9.5500    -0.6630 C.3   1 <1>   0.0400 
 26 O        0.8360    -9.8910     1.7910 O.3   1 <1>  -0.3630 
 27 C       -1.3980    -9.0040     1.7370 C.ar  1 <1>  -0.1500 
 28 C        0.5660   -10.6850     2.9270 C.3   1 <1>   0.0400 
 29 H        3.0520     0.0890     0.4170 H     1 <1>   0.3700 
 30 H        2.5740    -3.0350    -1.3610 H     1 <1>   0.0800 
 31 H        4.4890    -1.1910    -1.5350 H     1 <1>   0.0800 
 32 H        4.5520    -2.2860    -0.1670 H     1 <1>   0.0800 
 33 H        0.6260    -2.1780    -2.5040 H     1 <1>   0.0800 
 34 H       -0.4010    -2.5370    -1.1570 H     1 <1>   0.0800 
 35 H        0.8050    -3.6740     1.0090 H     1 <1>   0.0800 
 36 H        2.5040    -3.9820     0.8740 H     1 <1>   0.0800 
 37 H        1.0320    -4.5570    -2.8850 H     1 <1>   0.0800 
 38 H       -0.6890    -4.2410    -2.8480 H     1 <1>   0.0800 
 39 H        1.1500    -6.0110     0.5130 H     1 <1>   0.0800 
 40 H        2.1270    -5.6320    -0.8820 H     1 <1>   0.0800 
 41 H        5.2690    -1.3520     2.1100 H     1 <1>   0.1500 
 42 H        5.7780     0.8340    -1.5240 H     1 <1>   0.1500 
 43 H       -0.6970    -4.9070    -0.5190 H     1 <1>   0.4500 
 44 H        6.9120     0.0880     3.2000 H     1 <1>   0.1500 
 45 H        7.4180     2.2670    -0.4260 H     1 <1>   0.1500 
 46 H        0.4910    -7.0260    -2.1680 H     1 <1>   0.0800 
 47 H       -1.1690    -6.4980    -2.2950 H     1 <1>   0.0800 
 48 H        8.8120     1.6330     2.9200 H     1 <1>   0.0800 
 49 H        7.8060     3.0200     2.5720 H     1 <1>   0.0800 
 50 H        9.0320     2.5130     1.4320 H     1 <1>   0.0800 
 51 H       -2.7270    -6.7090    -0.3330 H     1 <1>   0.1500 
 52 H       -3.3220    -8.0960     1.5860 H     1 <1>   0.1500 
 53 H        2.7260    -9.7300     0.2350 H     1 <1>   0.0800 
 54 H        1.4690   -10.3540    -0.8410 H     1 <1>   0.0800 
 55 H        2.8340    -9.4530    -1.4960 H     1 <1>   0.0800 
 56 H       -1.7020    -9.5860     2.5860 H     1 <1>   0.1500 
 57 H        1.4640   -11.2180     3.1840 H     1 <1>   0.0800 
 58 H        0.2790   -10.0450     3.7430 H     1 <1>   0.0800 
 59 H       -0.2160   -11.3840     2.6890 H     1 <1>   0.0800 
@<TRIPOS>BOND
  1   1   2  2   
  2   2   3  am  
  3   2   4  1   
  4   3   5  1   
  5   3  29  1   
  6   4   6  1   
  7   4   7  1   
  8   4  30  1   
  9   5   8  1   
 10   5  31  1   
 11   5  32  1   
 12   6   9  1   
 13   6  33  1   
 14   6  34  1   
 15   7  10  1   
 16   7  35  1   
 17   7  36  1   
 18   8  11  ar  
 19   8  12  ar  
 20   9  13  1   
 21   9  37  1   
 22   9  38  1   
 23  10  13  1   
 24  10  39  1   
 25  10  40  1   
 26  11  14  ar  
 27  11  41  1   
 28  12  15  ar  
 29  12  42  1   
 30  13  16  1   
 31  13  43  1   
 32  14  17  ar  
 33  14  44  1   
 34  15  17  ar  
 35  15  45  1   
 36  16  18  1   
 37  16  46  1   
 38  16  47  1   
 39  17  19  1   
 40  18  20  ar  
 41  18  21  ar  
 42  19  48  1   
 43  19  49  1   
 44  19  50  1   
 45  20  22  1   
 46  20  23  ar  
 47  21  24  ar  
 48  21  51  1   
 49  22  25  1   
 50  23  26  1   
 51  23  27  ar  
 52  24  27  ar  
 53  24  52  1   
 54  25  53  1   
 55  25  54  1   
 56  25  55  1   
 57  26  28  1   
 58  27  56  1   
 59  28  57  1   
 60  28  58  1   
 61  28  59  1   
@<TRIPOS>SUBSTRUCTURE
  1 ****   7 GROUP 4 **** **** 0

# MOE 2024.06 (io_trps.svl 2023.06)
