@<TRIPOS>MOLECULE
NONAME
35 36 1 0 0 
SMALL
USER_CHARGES


@<TRIPOS>ATOM
  1 BR      -1.1600     0.0680     2.8420 Br    1 <1>  -0.0580 
  2 C       -2.0890    -0.7640     1.3800 C.2   1 <1>   0.1980 
  3 O       -3.0040    -1.6550     1.6590 O.3   1 <1>  -0.2800 
  4 C       -1.9360    -0.5600     0.0580 C.2   1 <1>  -0.1500 
  5 C       -3.5000    -2.0860     0.4980 C.2   1 <1>   0.0550 
  6 C       -2.8630    -1.4290    -0.5210 C.2   1 <1>  -0.1500 
  7 C       -4.5460    -3.0830     0.4630 C.2   1 <1>   0.7150 
  8 O       -4.7500    -3.8450     1.3930 O.2   1 <1>  -0.5700 
  9 N       -5.4100    -3.1710    -0.6090 N.am  1 <1>  -0.6600 
 10 C       -6.0960    -4.4700    -0.8730 C.3   1 <1>   0.1400 
 11 C       -6.2480    -1.9870    -0.9480 C.3   1 <1>   0.1400 
 12 C       -7.4170    -4.5370    -0.0820 C.3   1 <1>   0.3430 
 13 C       -7.5890    -2.0500    -0.1830 C.3   1 <1>   0.3430 
 14 N       -8.3150    -3.3610    -0.3830 N.4   1 <1>  -0.9590 
 15 C       -9.5480    -3.4450     0.4490 C.3   1 <1>   0.3430 
 16 C      -10.6210    -2.4920    -0.0830 C.3   1 <1>  -0.1600 
 17 C      -11.9310    -2.6580     0.6950 C.3   1 <1>  -0.2400 
 18 H       -1.2610     0.1070    -0.4480 H     1 <1>   0.1500 
 19 H       -3.0210    -1.5480    -1.5790 H     1 <1>   0.1500 
 20 H       -5.4590    -5.2860    -0.5710 H     1 <1>   0.0800 
 21 H       -6.2850    -4.5750    -1.9270 H     1 <1>   0.0800 
 22 H       -6.4270    -1.9640    -2.0090 H     1 <1>   0.0800 
 23 H       -5.7330    -1.0780    -0.6830 H     1 <1>   0.0800 
 24 H       -7.1750    -4.5500     0.9690 H     1 <1>   0.0800 
 25 H       -7.9230    -5.4580    -0.3160 H     1 <1>   0.0800 
 26 H       -8.2130    -1.2320    -0.5040 H     1 <1>   0.0800 
 27 H       -7.3840    -1.9130     0.8660 H     1 <1>   0.0800 
 28 H       -8.5960    -3.4270    -1.3700 H     1 <1>   0.4500 
 29 H       -9.3210    -3.2070     1.4760 H     1 <1>   0.0800 
 30 H       -9.9370    -4.4510     0.4180 H     1 <1>   0.0800 
 31 H      -10.8130    -2.7000    -1.1220 H     1 <1>   0.0800 
 32 H      -10.3000    -1.4700     0.0140 H     1 <1>   0.0800 
 33 H      -12.3100    -3.6620     0.6020 H     1 <1>   0.0800 
 34 H      -12.6770    -1.9830     0.3100 H     1 <1>   0.0800 
 35 H      -11.7880    -2.4370     1.7400 H     1 <1>   0.0800 
@<TRIPOS>BOND
  1   1   2  1   
  2   2   3  1   
  3   2   4  2   
  4   3   5  1   
  5   4   6  1   
  6   4  18  1   
  7   5   6  2   
  8   5   7  1   
  9   6  19  1   
 10   7   8  2   
 11   7   9  am  
 12   9  10  1   
 13   9  11  1   
 14  10  12  1   
 15  10  20  1   
 16  10  21  1   
 17  11  13  1   
 18  11  22  1   
 19  11  23  1   
 20  12  14  1   
 21  12  24  1   
 22  12  25  1   
 23  13  14  1   
 24  13  26  1   
 25  13  27  1   
 26  14  15  1   
 27  14  28  1   
 28  15  16  1   
 29  15  29  1   
 30  15  30  1   
 31  16  17  1   
 32  16  31  1   
 33  16  32  1   
 34  17  33  1   
 35  17  34  1   
 36  17  35  1   
@<TRIPOS>SUBSTRUCTURE
  1 ****   9 GROUP 4 **** **** 0

# MOE 2024.06 (io_trps.svl 2023.06)
