@<TRIPOS>MOLECULE
NONAME
52 55 1 0 0 
SMALL
USER_CHARGES


@<TRIPOS>ATOM
  1 O        1.0550    -0.9900     0.7250 O.2   1 <1>  -0.5700 
  2 C        1.8370    -1.9100     0.6160 C.2   1 <1>   0.5690 
  3 N        2.8760    -1.8330    -0.2850 N.am  1 <1>  -0.6600 
  4 C        1.6560    -3.1540     1.5280 C.3   1 <1>   0.2610 
  5 C        3.0490    -0.6660    -1.1970 C.3   1 <1>   0.1400 
  6 C        3.9010    -2.8930    -0.5210 C.3   1 <1>   0.1400 
  7 O        1.4970    -4.3280     0.7750 O.3   1 <1>  -0.5600 
  8 C        0.4090    -3.1530     2.4140 C.3   1 <1>  -0.1600 
  9 C        4.4810    -0.1140    -1.1050 C.3   1 <1>   0.1100 
 10 C        5.3230    -2.3080    -0.4560 C.3   1 <1>   0.1100 
 11 C        0.1570    -4.4900     0.4330 C.3   1 <1>   0.1200 
 12 C       -0.6480    -3.7980     1.5310 C.3   1 <1>  -0.1600 
 13 N        5.4990    -1.1550    -1.3690 N.3   1 <1>  -0.8100 
 14 C        6.8660    -0.5570    -1.3460 C.3   1 <1>   0.1710 
 15 C        8.0250    -1.4660    -1.7820 C.2   1 <1>   0.5690 
 16 O        8.5110    -1.3040    -2.8760 O.2   1 <1>  -0.5700 
 17 N        8.4950    -2.3840    -0.8770 N.am  1 <1>  -0.5470 
 18 C        9.4890    -3.3710    -0.9680 C.ar  1 <1>   0.1170 
 19 C       10.0610    -3.8850     0.2320 C.ar  1 <1>   0.0000 
 20 C        9.8940    -3.8760    -2.1830 C.ar  1 <1>  -0.1500 
 21 C       11.0100    -4.9310     0.1420 C.ar  1 <1>   0.0000 
 22 C        9.7410    -3.4050     1.5250 C.ar  1 <1>  -0.1500 
 23 C       10.8450    -4.8920    -2.2660 C.ar  1 <1>  -0.1500 
 24 C       11.3880    -5.4110    -1.1250 C.ar  1 <1>  -0.1500 
 25 C       11.5620    -5.4670     1.3230 C.ar  1 <1>  -0.1500 
 26 C       10.2960    -3.9400     2.6540 C.ar  1 <1>  -0.1500 
 27 C       11.2150    -4.9870     2.5540 C.ar  1 <1>  -0.1500 
 28 H        2.5380    -3.2620     2.1310 H     1 <1>   0.0800 
 29 H        2.3520     0.1170    -0.9520 H     1 <1>   0.0800 
 30 H        2.8540    -0.9760    -2.2090 H     1 <1>   0.0800 
 31 H        3.7420    -3.3220    -1.4950 H     1 <1>   0.0800 
 32 H        3.8180    -3.6840     0.2010 H     1 <1>   0.0800 
 33 H        0.1310    -2.1690     2.7490 H     1 <1>   0.0800 
 34 H        0.5960    -3.7710     3.2740 H     1 <1>   0.0800 
 35 H        4.6270     0.3050    -0.1240 H     1 <1>   0.0800 
 36 H        4.5860     0.6780    -1.8260 H     1 <1>   0.0800 
 37 H        6.0060    -3.0910    -0.7310 H     1 <1>   0.0800 
 38 H        5.5310    -2.0090     0.5570 H     1 <1>   0.0800 
 39 H       -0.0580    -5.5420     0.3700 H     1 <1>   0.0800 
 40 H       -0.0050    -4.0190    -0.5230 H     1 <1>   0.0800 
 41 H       -1.2880    -3.0520     1.0920 H     1 <1>   0.0800 
 42 H       -1.2500    -4.5010     2.0790 H     1 <1>   0.0800 
 43 H        7.0770    -0.1860    -0.3600 H     1 <1>   0.0800 
 44 H        6.8750     0.2880    -2.0130 H     1 <1>   0.0800 
 45 H        8.0300    -2.3540     0.0250 H     1 <1>   0.3700 
 46 H        9.4780    -3.5040    -3.1010 H     1 <1>   0.1500 
 47 H        9.0500    -2.5920     1.6320 H     1 <1>   0.1500 
 48 H       11.1380    -5.2580    -3.2360 H     1 <1>   0.1500 
 49 H       12.1180    -6.1980    -1.1830 H     1 <1>   0.1500 
 50 H       12.2730    -6.2690     1.2370 H     1 <1>   0.1500 
 51 H       10.0410    -3.5650     3.6310 H     1 <1>   0.1500 
 52 H       11.6410    -5.4010     3.4510 H     1 <1>   0.1500 
@<TRIPOS>BOND
  1   1   2  2   
  2   2   3  am  
  3   2   4  1   
  4   3   5  1   
  5   3   6  1   
  6   4   7  1   
  7   4   8  1   
  8   4  28  1   
  9   5   9  1   
 10   5  29  1   
 11   5  30  1   
 12   6  10  1   
 13   6  31  1   
 14   6  32  1   
 15   7  11  1   
 16   8  12  1   
 17   8  33  1   
 18   8  34  1   
 19   9  13  1   
 20   9  35  1   
 21   9  36  1   
 22  10  13  1   
 23  10  37  1   
 24  10  38  1   
 25  11  12  1   
 26  11  39  1   
 27  11  40  1   
 28  12  41  1   
 29  12  42  1   
 30  13  14  1   
 31  14  15  1   
 32  14  43  1   
 33  14  44  1   
 34  15  16  2   
 35  15  17  am  
 36  17  18  1   
 37  17  45  1   
 38  18  19  ar  
 39  18  20  ar  
 40  19  21  ar  
 41  19  22  ar  
 42  20  23  ar  
 43  20  46  1   
 44  21  24  ar  
 45  21  25  ar  
 46  22  26  ar  
 47  22  47  1   
 48  23  24  ar  
 49  23  48  1   
 50  24  49  1   
 51  25  27  ar  
 52  25  50  1   
 53  26  27  ar  
 54  26  51  1   
 55  27  52  1   
@<TRIPOS>SUBSTRUCTURE
  1 ****  10 GROUP 4 **** **** 0

# MOE 2024.06 (io_trps.svl 2023.06)
