@<TRIPOS>MOLECULE
NONAME
37 39 1 0 0 
SMALL
USER_CHARGES


@<TRIPOS>ATOM
  1 CL      -0.7950    -2.2290     2.7880 Cl    1 <1>  -0.1770 
  2 C       -1.6530    -1.9410     1.2850 C.ar  1 <1>   0.1770 
  3 C       -1.1240    -2.3830     0.0640 C.ar  1 <1>   0.1000 
  4 C       -2.8580    -1.2690     1.3550 C.ar  1 <1>  -0.1500 
  5 N        0.0900    -3.0690    -0.0730 N.pl3 1 <1>  -0.8380 
  6 C       -1.8590    -2.1190    -1.0850 C.ar  1 <1>  -0.1500 
  7 C       -3.5700    -1.0200     0.1940 C.ar  1 <1>  -0.1500 
  8 C        0.1200    -4.4630     0.4620 C.3   1 <1>   0.2090 
  9 C        1.3260    -2.2700     0.1870 C.3   1 <1>   0.2090 
 10 C       -3.0680    -1.4460    -1.0240 C.ar  1 <1>  -0.1500 
 11 C        1.3940    -5.2050     0.0060 C.3   1 <1>   0.3430 
 12 C        2.5860    -3.0370    -0.2640 C.3   1 <1>   0.3430 
 13 N        2.6520    -4.4320     0.3160 N.4   1 <1>  -0.9590 
 14 C        3.8710    -5.1530    -0.1290 C.3   1 <1>   0.5240 
 15 C        5.0770    -4.3990     0.3840 C.2   1 <1>  -0.1810 
 16 C        6.0100    -3.7280    -0.3270 C.2   1 <1>  -0.0100 
 17 C        5.4520    -4.2520     1.7300 C.2   1 <1>  -0.1500 
 18 O        6.8980    -3.1820     0.4750 O.3   1 <1>  -0.2800 
 19 C        6.5710    -3.4970     1.7120 C.2   1 <1>  -0.0100 
 20 H       -3.2360    -0.9440     2.3070 H     1 <1>   0.1500 
 21 H       -1.4760    -2.4460    -2.0340 H     1 <1>   0.1500 
 22 H       -4.5110    -0.4970     0.2370 H     1 <1>   0.1500 
 23 H       -0.7480    -4.9940     0.1100 H     1 <1>   0.0800 
 24 H        0.0790    -4.4450     1.5370 H     1 <1>   0.0800 
 25 H        1.4030    -2.0390     1.2350 H     1 <1>   0.0800 
 26 H        1.2650    -1.3390    -0.3500 H     1 <1>   0.0800 
 27 H       -3.6210    -1.2530    -1.9280 H     1 <1>   0.1500 
 28 H        1.3200    -5.3640    -1.0580 H     1 <1>   0.0800 
 29 H        1.4250    -6.1700     0.4840 H     1 <1>   0.0800 
 30 H        3.4580    -2.4740     0.0290 H     1 <1>   0.0800 
 31 H        2.5750    -3.0920    -1.3400 H     1 <1>   0.0800 
 32 H        2.7220    -4.3230     1.3340 H     1 <1>   0.4500 
 33 H        3.9010    -5.2060    -1.2060 H     1 <1>   0.0800 
 34 H        3.8810    -6.1560     0.2670 H     1 <1>   0.0800 
 35 H        6.1280    -3.5790    -1.3880 H     1 <1>   0.1500 
 36 H        4.9560    -4.6630     2.5920 H     1 <1>   0.1500 
 37 H        7.1940    -3.1440     2.5170 H     1 <1>   0.1500 
@<TRIPOS>BOND
  1   1   2  1   
  2   2   3  ar  
  3   2   4  ar  
  4   3   5  1   
  5   3   6  ar  
  6   4   7  ar  
  7   4  20  1   
  8   5   8  1   
  9   5   9  1   
 10   6  10  ar  
 11   6  21  1   
 12   7  10  ar  
 13   7  22  1   
 14   8  11  1   
 15   8  23  1   
 16   8  24  1   
 17   9  12  1   
 18   9  25  1   
 19   9  26  1   
 20  10  27  1   
 21  11  13  1   
 22  11  28  1   
 23  11  29  1   
 24  12  13  1   
 25  12  30  1   
 26  12  31  1   
 27  13  14  1   
 28  13  32  1   
 29  14  15  1   
 30  14  33  1   
 31  14  34  1   
 32  15  16  2   
 33  15  17  1   
 34  16  18  1   
 35  16  35  1   
 36  17  19  2   
 37  17  36  1   
 38  18  19  1   
 39  19  37  1   
@<TRIPOS>SUBSTRUCTURE
  1 ****   9 GROUP 4 **** **** 0

# MOE 2024.06 (io_trps.svl 2023.06)
