@<TRIPOS>MOLECULE
NONAME
44 45 1 0 0 
SMALL
USER_CHARGES


@<TRIPOS>ATOM
  1 CL       0.1700     0.0050     0.2010 Cl    1 <1>  -0.1770 
  2 C        1.7590     0.7060     0.0220 C.ar  1 <1>   0.1770 
  3 C        2.8650    -0.0050     0.4500 C.ar  1 <1>  -0.1500 
  4 C        1.8860     1.9610    -0.5440 C.ar  1 <1>  -0.1500 
  5 C        4.1270     0.5500     0.3100 C.ar  1 <1>  -0.1500 
  6 C        3.1480     2.5130    -0.6830 C.ar  1 <1>  -0.1500 
  7 C        4.2710     1.8150    -0.2600 C.ar  1 <1>   0.0830 
  8 O        5.4670     2.4300    -0.4340 O.3   1 <1>  -0.3630 
  9 C        6.6730     1.8100    -0.0370 C.3   1 <1>   0.1200 
 10 C        7.8280     2.7490    -0.3670 C.3   1 <1>   0.1200 
 11 O        9.0160     2.1400     0.0330 O.3   1 <1>  -0.5600 
 12 C       10.1530     2.9000    -0.2230 C.3   1 <1>   0.1200 
 13 C       11.3730     2.0840     0.2140 C.3   1 <1>   0.1100 
 14 N       12.6400     2.8050    -0.0400 N.3   1 <1>  -0.8100 
 15 C       12.8720     3.8960     0.9420 C.3   1 <1>   0.1100 
 16 C       13.7850     1.8610    -0.0300 C.3   1 <1>   0.1100 
 17 C       14.2340     4.6070     0.7350 C.3   1 <1>   0.3430 
 18 C       15.1390     2.5640    -0.3020 C.3   1 <1>   0.3430 
 19 N       14.9610     4.0460    -0.4510 N.4   1 <1>  -0.9590 
 20 C       16.2260     4.7670    -0.7720 C.3   1 <1>   0.2630 
 21 H        2.7350    -0.9790     0.8870 H     1 <1>   0.1500 
 22 H        1.0110     2.4940    -0.8690 H     1 <1>   0.1500 
 23 H        4.9760    -0.0140     0.6460 H     1 <1>   0.1500 
 24 H        3.2700     3.4870    -1.1210 H     1 <1>   0.1500 
 25 H        6.7760     0.8880    -0.5810 H     1 <1>   0.0800 
 26 H        6.6300     1.6300     1.0220 H     1 <1>   0.0800 
 27 H        7.7160     3.6760     0.1690 H     1 <1>   0.0800 
 28 H        7.8690     2.9270    -1.4280 H     1 <1>   0.0800 
 29 H       10.0790     3.8160     0.3350 H     1 <1>   0.0800 
 30 H       10.2030     3.1030    -1.2790 H     1 <1>   0.0800 
 31 H       11.3640     1.1690    -0.3540 H     1 <1>   0.0800 
 32 H       11.2870     1.8360     1.2590 H     1 <1>   0.0800 
 33 H       12.8320     3.5030     1.9440 H     1 <1>   0.0800 
 34 H       12.0900     4.6310     0.8560 H     1 <1>   0.0800 
 35 H       13.6320     1.1070    -0.7850 H     1 <1>   0.0800 
 36 H       13.8350     1.3570     0.9210 H     1 <1>   0.0800 
 37 H       14.8320     4.4890     1.6230 H     1 <1>   0.0800 
 38 H       14.0590     5.6610     0.5950 H     1 <1>   0.0800 
 39 H       15.5670     2.1550    -1.2020 H     1 <1>   0.0800 
 40 H       15.8160     2.3510     0.5090 H     1 <1>   0.0800 
 41 H       14.2780     4.1340    -1.2220 H     1 <1>   0.4500 
 42 H       16.9300     4.6680     0.0380 H     1 <1>   0.0800 
 43 H       16.0280     5.8150    -0.9320 H     1 <1>   0.0800 
 44 H       16.6690     4.3620    -1.6670 H     1 <1>   0.0800 
@<TRIPOS>BOND
  1   1   2  1   
  2   2   3  ar  
  3   2   4  ar  
  4   3   5  ar  
  5   3  21  1   
  6   4   6  ar  
  7   4  22  1   
  8   5   7  ar  
  9   5  23  1   
 10   6   7  ar  
 11   6  24  1   
 12   7   8  1   
 13   8   9  1   
 14   9  10  1   
 15   9  25  1   
 16   9  26  1   
 17  10  11  1   
 18  10  27  1   
 19  10  28  1   
 20  11  12  1   
 21  12  13  1   
 22  12  29  1   
 23  12  30  1   
 24  13  14  1   
 25  13  31  1   
 26  13  32  1   
 27  14  15  1   
 28  14  16  1   
 29  15  17  1   
 30  15  33  1   
 31  15  34  1   
 32  16  18  1   
 33  16  35  1   
 34  16  36  1   
 35  17  19  1   
 36  17  37  1   
 37  17  38  1   
 38  18  19  1   
 39  18  39  1   
 40  18  40  1   
 41  19  20  1   
 42  19  41  1   
 43  20  42  1   
 44  20  43  1   
 45  20  44  1   
@<TRIPOS>SUBSTRUCTURE
  1 ****  11 GROUP 4 **** **** 0

# MOE 2024.06 (io_trps.svl 2023.06)
