@<TRIPOS>MOLECULE
NONAME
43 44 1 0 0 
SMALL
USER_CHARGES


@<TRIPOS>ATOM
  1 O        0.4200    -0.4530    -1.5830 O.2   1 <1>  -0.5700 
  2 C        0.6990    -1.2140    -0.6900 C.2   1 <1>   0.5690 
  3 N       -0.2160    -1.9360     0.0220 N.am  1 <1>  -0.5470 
  4 C        2.1600    -1.3820    -0.3180 C.3   1 <1>  -0.0990 
  5 C       -1.6180    -2.0170    -0.0790 C.ar  1 <1>   0.1170 
  6 C        2.5160    -0.6520     0.9880 C.3   1 <1>  -0.1600 
  7 C       -2.3350    -2.4970     1.0110 C.ar  1 <1>  -0.1500 
  8 C       -2.3220    -1.6560    -1.2240 C.ar  1 <1>  -0.1500 
  9 C        3.9960    -0.8290     1.3390 C.3   1 <1>  -0.2400 
 10 C       -3.7130    -2.6110     0.9620 C.ar  1 <1>  -0.1500 
 11 C       -3.7000    -1.7690    -1.2710 C.ar  1 <1>  -0.1500 
 12 C       -4.4130    -2.2460    -0.1810 C.ar  1 <1>   0.1000 
 13 N       -5.8020    -2.3520    -0.2590 N.pl3 1 <1>  -0.8380 
 14 C       -6.6210    -1.5030     0.6540 C.3   1 <1>   0.2890 
 15 C       -6.2850    -3.7550    -0.3590 C.3   1 <1>   0.2090 
 16 C       -8.0860    -1.5220     0.1890 C.3   1 <1>  -0.1600 
 17 C       -6.1030    -0.0630     0.6590 C.3   1 <1>  -0.2400 
 18 C       -7.7350    -3.7800    -0.8460 C.3   1 <1>  -0.1600 
 19 C       -8.6420    -2.9470     0.0670 C.3   1 <1>  -0.1600 
 20 H        0.1770    -2.4810     0.7850 H     1 <1>   0.3700 
 21 H        2.7600    -0.9910    -1.1200 H     1 <1>   0.0800 
 22 H        2.3780    -2.4310    -0.2280 H     1 <1>   0.0800 
 23 H        1.9120    -1.0270     1.7960 H     1 <1>   0.0800 
 24 H        2.3000     0.3980     0.8740 H     1 <1>   0.0800 
 25 H       -1.8170    -2.7820     1.9070 H     1 <1>   0.1500 
 26 H       -1.8000    -1.2870    -2.0860 H     1 <1>   0.1500 
 27 H        4.2320    -1.8690     1.4770 H     1 <1>   0.0800 
 28 H        4.2220    -0.3040     2.2510 H     1 <1>   0.0800 
 29 H        4.6180    -0.4320     0.5560 H     1 <1>   0.0800 
 30 H       -4.2560    -2.9810     1.8100 H     1 <1>   0.1500 
 31 H       -4.2420    -1.4870    -2.1540 H     1 <1>   0.1500 
 32 H       -6.5630    -1.9050     1.6520 H     1 <1>   0.0800 
 33 H       -6.2130    -4.2280     0.6050 H     1 <1>   0.0800 
 34 H       -5.6620    -4.2970    -1.0510 H     1 <1>   0.0800 
 35 H       -8.1490    -1.0340    -0.7680 H     1 <1>   0.0800 
 36 H       -8.6880    -0.9640     0.8820 H     1 <1>   0.0800 
 37 H       -6.0710     0.3210    -0.3450 H     1 <1>   0.0800 
 38 H       -5.1180    -0.0170     1.0850 H     1 <1>   0.0800 
 39 H       -6.7480     0.5610     1.2490 H     1 <1>   0.0800 
 40 H       -8.0830    -4.7970    -0.8760 H     1 <1>   0.0800 
 41 H       -7.7670    -3.3890    -1.8480 H     1 <1>   0.0800 
 42 H       -9.6390    -2.9170    -0.3360 H     1 <1>   0.0800 
 43 H       -8.6850    -3.4000     1.0430 H     1 <1>   0.0800 
@<TRIPOS>BOND
  1   1   2  2   
  2   2   3  am  
  3   2   4  1   
  4   3   5  1   
  5   3  20  1   
  6   4   6  1   
  7   4  21  1   
  8   4  22  1   
  9   5   7  ar  
 10   5   8  ar  
 11   6   9  1   
 12   6  23  1   
 13   6  24  1   
 14   7  10  ar  
 15   7  25  1   
 16   8  11  ar  
 17   8  26  1   
 18   9  27  1   
 19   9  28  1   
 20   9  29  1   
 21  10  12  ar  
 22  10  30  1   
 23  11  12  ar  
 24  11  31  1   
 25  12  13  1   
 26  13  14  1   
 27  13  15  1   
 28  14  16  1   
 29  14  17  1   
 30  14  32  1   
 31  15  18  1   
 32  15  33  1   
 33  15  34  1   
 34  16  19  1   
 35  16  35  1   
 36  16  36  1   
 37  17  37  1   
 38  17  38  1   
 39  17  39  1   
 40  18  19  1   
 41  18  40  1   
 42  18  41  1   
 43  19  42  1   
 44  19  43  1   
@<TRIPOS>SUBSTRUCTURE
  1 ****  11 GROUP 4 **** **** 0

# MOE 2024.06 (io_trps.svl 2023.06)
