@<TRIPOS>MOLECULE
NONAME
56 58 1 0 0 
SMALL
USER_CHARGES


@<TRIPOS>ATOM
  1 S       -0.1010     0.5910    -0.6960 S.3   1 <1>  -0.0800 
  2 C       -0.3280    -1.1340    -0.4490 C.2   1 <1>   0.1040 
  3 C        1.6210     0.4470    -0.4350 C.2   1 <1>  -0.1400 
  4 N       -1.5980    -1.6900    -0.5220 N.am  1 <1>  -0.4940 
  5 C        0.8660    -1.7590    -0.1880 C.2   1 <1>  -0.0860 
  6 C        1.9700    -0.8200    -0.1650 C.2   1 <1>  -0.1810 
  7 C        2.4960     1.6770    -0.5230 C.3   1 <1>   0.0200 
  8 C       -2.8300    -1.1790    -0.8520 C.2   1 <1>   0.5690 
  9 C        0.9600    -3.1830     0.0230 C.2   1 <1>   0.8060 
 10 C        3.4290    -1.1570     0.1280 C.3   1 <1>   0.0210 
 11 C        3.9720     1.2420    -0.6040 C.3   1 <1>  -0.0800 
 12 O       -3.0020    -0.0500    -1.2460 O.2   1 <1>  -0.5700 
 13 C       -4.0400    -2.1210    -0.6980 C.3   1 <1>   0.1710 
 14 O       -0.0250    -3.8940     0.1430 O.2   1 <1>  -0.5700 
 15 O        2.1640    -3.7670     0.0760 O.3   1 <1>  -0.4300 
 16 C        4.2690     0.1080     0.3990 C.3   1 <1>  -0.1600 
 17 C        4.9060     2.4360    -0.3690 C.3   1 <1>  -0.2400 
 18 N       -5.3530    -1.4630    -0.4280 N.3   1 <1>  -0.8100 
 19 C        2.3160    -5.1610     0.2640 C.3   1 <1>   0.0400 
 20 C       -6.4960    -2.4010    -0.4240 C.3   1 <1>   0.1100 
 21 C       -5.3500    -0.6230     0.7960 C.3   1 <1>   0.1100 
 22 C       -7.8460    -1.6650    -0.2180 C.3   1 <1>   0.3430 
 23 C       -6.6770     0.1570     0.9640 C.3   1 <1>   0.3430 
 24 N       -7.6470    -0.1800    -0.1340 N.4   1 <1>  -0.9590 
 25 C       -8.9170     0.5840    -0.1060 C.3   1 <1>   0.3430 
 26 C       -8.6430     2.0500    -0.4170 C.3   1 <1>  -0.2400 
 27 H       -1.5910    -2.6900    -0.2910 H     1 <1>   0.3700 
 28 H        2.3250     2.2830     0.3490 H     1 <1>   0.0800 
 29 H        2.2350     2.2500    -1.3960 H     1 <1>   0.0800 
 30 H        3.8370    -1.6870    -0.7150 H     1 <1>   0.0800 
 31 H        3.4930    -1.7950     0.9920 H     1 <1>   0.0800 
 32 H        4.1520     0.8620    -1.5960 H     1 <1>   0.0800 
 33 H       -3.8300    -2.8200     0.0930 H     1 <1>   0.0800 
 34 H       -4.1200    -2.6780    -1.6150 H     1 <1>   0.0800 
 35 H        5.3130    -0.1520     0.3630 H     1 <1>   0.0800 
 36 H        4.0530     0.4590     1.3940 H     1 <1>   0.0800 
 37 H        4.7690     2.8370     0.6200 H     1 <1>   0.0800 
 38 H        4.7050     3.2120    -1.0860 H     1 <1>   0.0800 
 39 H        5.9320     2.1330    -0.4780 H     1 <1>   0.0800 
 40 H        3.3670    -5.3910     0.2730 H     1 <1>   0.0800 
 41 H        1.8320    -5.6790    -0.5460 H     1 <1>   0.0800 
 42 H        1.8690    -5.4380     1.2040 H     1 <1>   0.0800 
 43 H       -6.3680    -3.1360     0.3530 H     1 <1>   0.0800 
 44 H       -6.5280    -2.9250    -1.3650 H     1 <1>   0.0800 
 45 H       -4.5480     0.0940     0.7490 H     1 <1>   0.0800 
 46 H       -5.1820    -1.2370     1.6650 H     1 <1>   0.0800 
 47 H       -8.3110    -2.0260     0.6840 H     1 <1>   0.0800 
 48 H       -8.4990    -1.9020    -1.0420 H     1 <1>   0.0800 
 49 H       -6.4550     1.2110     0.9470 H     1 <1>   0.0800 
 50 H       -7.1070    -0.0720     1.9240 H     1 <1>   0.0800 
 51 H       -7.1170     0.0470    -0.9920 H     1 <1>   0.4500 
 52 H       -9.3880     0.4900     0.8600 H     1 <1>   0.0800 
 53 H       -9.5910     0.1900    -0.8510 H     1 <1>   0.0800 
 54 H       -8.0600     2.5150     0.3560 H     1 <1>   0.0800 
 55 H       -9.5790     2.5770    -0.4810 H     1 <1>   0.0800 
 56 H       -8.1400     2.1520    -1.3620 H     1 <1>   0.0800 
@<TRIPOS>BOND
  1   1   2  1   
  2   1   3  1   
  3   2   4  1   
  4   2   5  2   
  5   3   6  2   
  6   3   7  1   
  7   4   8  am  
  8   4  27  1   
  9   5   6  1   
 10   5   9  1   
 11   6  10  1   
 12   7  11  1   
 13   7  28  1   
 14   7  29  1   
 15   8  12  2   
 16   8  13  1   
 17   9  14  2   
 18   9  15  1   
 19  10  16  1   
 20  10  30  1   
 21  10  31  1   
 22  11  16  1   
 23  11  17  1   
 24  11  32  1   
 25  13  18  1   
 26  13  33  1   
 27  13  34  1   
 28  15  19  1   
 29  16  35  1   
 30  16  36  1   
 31  17  37  1   
 32  17  38  1   
 33  17  39  1   
 34  18  20  1   
 35  18  21  1   
 36  19  40  1   
 37  19  41  1   
 38  19  42  1   
 39  20  22  1   
 40  20  43  1   
 41  20  44  1   
 42  21  23  1   
 43  21  45  1   
 44  21  46  1   
 45  22  24  1   
 46  22  47  1   
 47  22  48  1   
 48  23  24  1   
 49  23  49  1   
 50  23  50  1   
 51  24  25  1   
 52  24  51  1   
 53  25  26  1   
 54  25  52  1   
 55  25  53  1   
 56  26  54  1   
 57  26  55  1   
 58  26  56  1   
@<TRIPOS>SUBSTRUCTURE
  1 ****   4 GROUP 4 **** **** 0

# MOE 2024.06 (io_trps.svl 2023.06)
