@<TRIPOS>MOLECULE
NONAME
57 59 1 0 0 
SMALL
USER_CHARGES


@<TRIPOS>ATOM
  1 O        5.6410     0.1980     0.2820 O.co2 1 <1>  -0.9000 
  2 C        5.2540    -0.5330     1.2040 C.2   1 <1>   0.9060 
  3 O        5.8830    -0.5830     2.2670 O.co2 1 <1>  -0.9000 
  4 C        4.1060    -1.5020     1.0120 C.3   1 <1>  -0.1860 
  5 C        4.6200    -2.9440     0.8000 C.3   1 <1>  -0.0190 
  6 C        3.1570    -1.0800    -0.1210 C.3   1 <1>  -0.0220 
  7 C        5.5170    -3.0790    -0.4490 C.2   1 <1>   0.5690 
  8 C        3.4170    -3.9130     0.7940 C.3   1 <1>  -0.0220 
  9 C        2.0770    -2.1280    -0.3830 C.2   1 <1>  -0.2760 
 10 O        5.0340    -3.5260    -1.4660 O.2   1 <1>  -0.5700 
 11 N        6.8480    -2.7100    -0.4540 N.am  1 <1>  -0.6600 
 12 C        2.1870    -3.3970     0.0430 C.2   1 <1>  -0.2760 
 13 C        0.9270    -1.5300    -1.1840 C.3   1 <1>  -0.1020 
 14 C        7.4390    -2.2230    -1.7340 C.3   1 <1>   0.1400 
 15 C        7.7280    -2.4970     0.7470 C.3   1 <1>   0.1400 
 16 C        1.1590    -4.5070    -0.1410 C.3   1 <1>  -0.1020 
 17 C        7.9260    -0.7730    -1.5820 C.3   1 <1>   0.3430 
 18 C        8.3700    -1.0890     0.7980 C.3   1 <1>   0.3430 
 19 N        8.9770    -0.6540    -0.5130 N.4   1 <1>  -0.9590 
 20 C        9.5220     0.7320    -0.4680 C.3   1 <1>   0.4230 
 21 C       10.7950     0.7630     0.3890 C.3   1 <1>  -0.1600 
 22 C        8.5090     1.7850     0.0190 C.3   1 <1>  -0.1600 
 23 C       11.4280     2.1630     0.3780 C.3   1 <1>  -0.1600 
 24 C        9.1340     3.1880     0.0060 C.3   1 <1>  -0.1600 
 25 C       10.4230     3.2280     0.8380 C.3   1 <1>  -0.1600 
 26 H        3.5440    -1.4820     1.9270 H     1 <1>   0.0800 
 27 H        5.2040    -3.2180     1.6550 H     1 <1>   0.0800 
 28 H        3.7120    -0.9230    -1.0300 H     1 <1>   0.0800 
 29 H        2.7060    -0.1430     0.1540 H     1 <1>   0.0800 
 30 H        3.1230    -4.0950     1.8120 H     1 <1>   0.0800 
 31 H        3.7320    -4.8530     0.3760 H     1 <1>   0.0800 
 32 H        0.4310    -0.7760    -0.6010 H     1 <1>   0.0800 
 33 H        0.2010    -2.2600    -1.4790 H     1 <1>   0.0800 
 34 H        1.3110    -1.0760    -2.0790 H     1 <1>   0.0800 
 35 H        6.7050    -2.2460    -2.5210 H     1 <1>   0.0800 
 36 H        8.2510    -2.8650    -2.0240 H     1 <1>   0.0800 
 37 H        8.5110    -3.2320     0.7270 H     1 <1>   0.0800 
 38 H        7.1850    -2.6470     1.6600 H     1 <1>   0.0800 
 39 H        1.5630    -5.2680    -0.7860 H     1 <1>   0.0800 
 40 H        0.2420    -4.1580    -0.5690 H     1 <1>   0.0800 
 41 H        0.9260    -4.9500     0.8100 H     1 <1>   0.0800 
 42 H        7.0790    -0.1530    -1.3370 H     1 <1>   0.0800 
 43 H        8.3220    -0.4350    -2.5240 H     1 <1>   0.0800 
 44 H        9.1140    -1.0770     1.5740 H     1 <1>   0.0800 
 45 H        7.6240    -0.3740     1.0800 H     1 <1>   0.0800 
 46 H        9.7350    -1.2990    -0.7380 H     1 <1>   0.4500 
 47 H        9.8080     1.0090    -1.4690 H     1 <1>   0.0800 
 48 H       11.5100     0.0560     0.0100 H     1 <1>   0.0800 
 49 H       10.5610     0.5080     1.4080 H     1 <1>   0.0800 
 50 H        8.1860     1.5720     1.0230 H     1 <1>   0.0800 
 51 H        7.6370     1.7910    -0.6100 H     1 <1>   0.0800 
 52 H       11.7660     2.4010    -0.6170 H     1 <1>   0.0800 
 53 H       12.2860     2.1780     1.0280 H     1 <1>   0.0800 
 54 H        8.4260     3.8950     0.4060 H     1 <1>   0.0800 
 55 H        9.3500     3.4790    -1.0080 H     1 <1>   0.0800 
 56 H       10.8700     4.2040     0.7610 H     1 <1>   0.0800 
 57 H       10.1790     3.0650     1.8750 H     1 <1>   0.0800 
@<TRIPOS>BOND
  1   1   2  ar  
  2   2   3  ar  
  3   2   4  1   
  4   4   5  1   
  5   4   6  1   
  6   4  26  1   
  7   5   7  1   
  8   5   8  1   
  9   5  27  1   
 10   6   9  1   
 11   6  28  1   
 12   6  29  1   
 13   7  10  2   
 14   7  11  am  
 15   8  12  1   
 16   8  30  1   
 17   8  31  1   
 18   9  12  2   
 19   9  13  1   
 20  11  14  1   
 21  11  15  1   
 22  12  16  1   
 23  13  32  1   
 24  13  33  1   
 25  13  34  1   
 26  14  17  1   
 27  14  35  1   
 28  14  36  1   
 29  15  18  1   
 30  15  37  1   
 31  15  38  1   
 32  16  39  1   
 33  16  40  1   
 34  16  41  1   
 35  17  19  1   
 36  17  42  1   
 37  17  43  1   
 38  18  19  1   
 39  18  44  1   
 40  18  45  1   
 41  19  20  1   
 42  19  46  1   
 43  20  21  1   
 44  20  22  1   
 45  20  47  1   
 46  21  23  1   
 47  21  48  1   
 48  21  49  1   
 49  22  24  1   
 50  22  50  1   
 51  22  51  1   
 52  23  25  1   
 53  23  52  1   
 54  23  53  1   
 55  24  25  1   
 56  24  54  1   
 57  24  55  1   
 58  25  56  1   
 59  25  57  1   
@<TRIPOS>SUBSTRUCTURE
  1 ****   1 GROUP 4 **** **** 0

# MOE 2024.06 (io_trps.svl 2023.06)
