@<TRIPOS>MOLECULE
NONAME
37 38 1 0 0 
SMALL
USER_CHARGES


@<TRIPOS>ATOM
  1 CL      -0.7560     0.2130     2.0130 Cl    1 <1>  -0.1770 
  2 C       -2.0070    -0.6710     1.1800 C.ar  1 <1>   0.1770 
  3 C       -2.2760    -0.3820    -0.1430 C.ar  1 <1>  -0.1500 
  4 C       -2.7110    -1.6490     1.8550 C.ar  1 <1>  -0.1500 
  5 C       -3.2740    -1.0810    -0.8020 C.ar  1 <1>  -0.1500 
  6 C       -3.7090    -2.3470     1.1950 C.ar  1 <1>  -0.1500 
  7 C       -4.0020    -2.0590    -0.1330 C.ar  1 <1>  -0.1430 
  8 C       -5.1100    -2.8080    -0.8490 C.3   1 <1>   0.4870 
  9 N       -6.4200    -2.2980    -0.3300 N.4   1 <1>  -0.9590 
 10 C       -7.5370    -3.2390    -0.7210 C.3   1 <1>   0.3430 
 11 C       -6.6510    -0.9060    -0.8160 C.3   1 <1>   0.3430 
 12 C       -8.9140    -3.0050    -0.0280 C.3   1 <1>   0.3430 
 13 C       -7.4200    -0.0640     0.2020 C.3   1 <1>  -0.1600 
 14 N       -9.4150    -1.5780     0.0320 N.4   1 <1>  -0.9590 
 15 C       -8.5940    -0.7180     0.9340 C.3   1 <1>   0.3430 
 16 C      -10.8350    -1.5790     0.5280 C.3   1 <1>   0.2630 
 17 H       -1.7030     0.3790    -0.6450 H     1 <1>   0.1500 
 18 H       -2.4680    -1.8580     2.8830 H     1 <1>   0.1500 
 19 H       -3.4620    -0.8510    -1.8380 H     1 <1>   0.1500 
 20 H       -4.2350    -3.1170     1.7340 H     1 <1>   0.1500 
 21 H       -5.0060    -3.8620    -0.6430 H     1 <1>   0.0800 
 22 H       -5.0340    -2.6590    -1.9150 H     1 <1>   0.0800 
 23 H       -6.2810    -2.2700     0.6890 H     1 <1>   0.4500 
 24 H       -7.2340    -4.2510    -0.5050 H     1 <1>   0.0800 
 25 H       -7.6830    -3.1830    -1.7870 H     1 <1>   0.0800 
 26 H       -7.1880    -0.9330    -1.7510 H     1 <1>   0.0800 
 27 H       -5.7080    -0.4150    -1.0040 H     1 <1>   0.0800 
 28 H       -8.8540    -3.3940     0.9760 H     1 <1>   0.0800 
 29 H       -9.6430    -3.6090    -0.5450 H     1 <1>   0.0800 
 30 H       -7.7810     0.8160    -0.3020 H     1 <1>   0.0800 
 31 H       -6.7240     0.2910     0.9430 H     1 <1>   0.0800 
 32 H       -9.4450    -1.1560    -0.9100 H     1 <1>   0.4500 
 33 H       -9.2080     0.0670     1.3500 H     1 <1>   0.0800 
 34 H       -8.2290    -1.3070     1.7600 H     1 <1>   0.0800 
 35 H      -10.8910    -1.9930     1.5220 H     1 <1>   0.0800 
 36 H      -11.4640    -2.1650    -0.1240 H     1 <1>   0.0800 
 37 H      -11.2250    -0.5730     0.5550 H     1 <1>   0.0800 
@<TRIPOS>BOND
  1   1   2  1   
  2   2   3  ar  
  3   2   4  ar  
  4   3   5  ar  
  5   3  17  1   
  6   4   6  ar  
  7   4  18  1   
  8   5   7  ar  
  9   5  19  1   
 10   6   7  ar  
 11   6  20  1   
 12   7   8  1   
 13   8   9  1   
 14   8  21  1   
 15   8  22  1   
 16   9  10  1   
 17   9  11  1   
 18   9  23  1   
 19  10  12  1   
 20  10  24  1   
 21  10  25  1   
 22  11  13  1   
 23  11  26  1   
 24  11  27  1   
 25  12  14  1   
 26  12  28  1   
 27  12  29  1   
 28  13  15  1   
 29  13  30  1   
 30  13  31  1   
 31  14  15  1   
 32  14  16  1   
 33  14  32  1   
 34  15  33  1   
 35  15  34  1   
 36  16  35  1   
 37  16  36  1   
 38  16  37  1   
@<TRIPOS>SUBSTRUCTURE
  1 ****   9 GROUP 4 **** **** 0

# MOE 2024.06 (io_trps.svl 2023.06)
