@<TRIPOS>MOLECULE
NONAME
32 33 1 0 0 
SMALL
USER_CHARGES


@<TRIPOS>ATOM
  1 CL       0.5650    -1.1200     0.5460 Cl    1 <1>  -0.1770 
  2 C        2.2070    -0.6230     0.2270 C.ar  1 <1>   0.1770 
  3 C        2.4710     0.1840    -0.8630 C.ar  1 <1>  -0.1500 
  4 C        3.2180    -1.0420     1.0690 C.ar  1 <1>  -0.1500 
  5 C        3.7750     0.5770    -1.1150 C.ar  1 <1>  -0.1500 
  6 C        4.5190    -0.6450     0.8110 C.ar  1 <1>  -0.1500 
  7 C        4.8090     0.1660    -0.2810 C.ar  1 <1>  -0.1430 
  8 C        6.2420     0.6040    -0.5730 C.3   1 <1>   0.3640 
  9 N        7.0770    -0.5840    -0.8520 N.am  1 <1>  -0.7300 
 10 C        6.8090     1.5060     0.5230 C.3   1 <1>  -0.2400 
 11 C        7.7900    -1.3740    -0.0030 C.2   1 <1>   0.5770 
 12 O        7.8850    -1.1530     1.1800 O.2   1 <1>  -0.5700 
 13 C        8.4760    -2.6000    -0.5950 C.3   1 <1>   0.0530 
 14 C        8.1180    -3.9500     0.0830 C.3   1 <1>   0.0000 
 15 C        9.9400    -2.8460    -0.1370 C.3   1 <1>   0.0000 
 16 C        9.5980    -4.3590    -0.1310 C.3   1 <1>   0.0000 
 17 H        1.6650     0.4970    -1.5020 H     1 <1>   0.1500 
 18 H        2.9910    -1.6690     1.9120 H     1 <1>   0.1500 
 19 H        3.9760     1.2060    -1.9650 H     1 <1>   0.1500 
 20 H        5.3100    -0.9710     1.4670 H     1 <1>   0.1500 
 21 H        6.2340     1.1920    -1.4750 H     1 <1>   0.0800 
 22 H        6.9620    -0.9210    -1.8070 H     1 <1>   0.3700 
 23 H        6.7330     1.0420     1.4890 H     1 <1>   0.0800 
 24 H        6.2500     2.4230     0.5570 H     1 <1>   0.0800 
 25 H        7.8380     1.7370     0.3190 H     1 <1>   0.0800 
 26 H        8.3830    -2.6620    -1.6670 H     1 <1>   0.0000 
 27 H        7.4170    -4.5450    -0.4750 H     1 <1>   0.0000 
 28 H        7.8650    -3.8550     1.1260 H     1 <1>   0.0000 
 29 H       10.1560    -2.4720     0.8490 H     1 <1>   0.0000 
 30 H       10.6760    -2.5700    -0.8710 H     1 <1>   0.0000 
 31 H        9.7660    -4.8270    -1.0860 H     1 <1>   0.0000 
 32 H       10.0250    -4.8980     0.6960 H     1 <1>   0.0000 
@<TRIPOS>BOND
  1   1   2  1   
  2   2   3  ar  
  3   2   4  ar  
  4   3   5  ar  
  5   3  17  1   
  6   4   6  ar  
  7   4  18  1   
  8   5   7  ar  
  9   5  19  1   
 10   6   7  ar  
 11   6  20  1   
 12   7   8  1   
 13   8   9  1   
 14   8  10  1   
 15   8  21  1   
 16   9  11  am  
 17   9  22  1   
 18  10  23  1   
 19  10  24  1   
 20  10  25  1   
 21  11  12  2   
 22  11  13  1   
 23  13  14  1   
 24  13  15  1   
 25  13  26  1   
 26  14  16  1   
 27  14  27  1   
 28  14  28  1   
 29  15  16  1   
 30  15  29  1   
 31  15  30  1   
 32  16  31  1   
 33  16  32  1   
@<TRIPOS>SUBSTRUCTURE
  1 ****   9 GROUP 4 **** **** 0

# MOE 2024.06 (io_trps.svl 2023.06)
