@<TRIPOS>MOLECULE
NONAME
37 37 1 0 0 
SMALL
USER_CHARGES


@<TRIPOS>ATOM
  1 O        0.4760     0.2550    -0.4730 O.2   1 <1>  -0.5700 
  2 C        1.2350     1.0830    -0.0070 C.2   1 <1>   0.7800 
  3 O        0.9630     2.3820    -0.1560 O.3   1 <1>  -0.4300 
  4 N        2.3830     0.7490     0.6640 N.am  1 <1>  -0.6600 
  5 C       -0.1940     2.8040    -0.8390 C.3   1 <1>   0.1200 
  6 C        3.2880     1.7940     1.2260 C.3   1 <1>   0.1400 
  7 C        2.8120    -0.6710     0.8020 C.3   1 <1>   0.1400 
  8 C       -0.2130     4.3300    -0.8390 C.3   1 <1>  -0.2400 
  9 C        4.2720     2.2970     0.1610 C.3   1 <1>   0.1400 
 10 C        4.2590    -0.9230     0.3480 C.3   1 <1>  -0.1600 
 11 N        5.2810     1.2570    -0.2000 N.am  1 <1>  -0.6600 
 12 C        4.7520    -0.0090    -0.7800 C.3   1 <1>   0.1400 
 13 C        6.6140     1.4440     0.0590 C.2   1 <1>   0.7800 
 14 O        7.0500     2.4640     0.5570 O.2   1 <1>  -0.5700 
 15 O        7.4520     0.4480    -0.2390 O.3   1 <1>  -0.4300 
 16 C        8.8330     0.5670     0.0090 C.3   1 <1>   0.1200 
 17 C        9.5040    -0.7310    -0.4310 C.3   1 <1>  -0.2400 
 18 H       -1.0550     2.4060    -0.3290 H     1 <1>   0.0800 
 19 H       -0.1580     2.4170    -1.8430 H     1 <1>   0.0800 
 20 H        3.8310     1.4030     2.0690 H     1 <1>   0.0800 
 21 H        2.6990     2.6230     1.5770 H     1 <1>   0.0800 
 22 H        2.1620    -1.2960     0.2140 H     1 <1>   0.0800 
 23 H        2.6990    -0.9730     1.8290 H     1 <1>   0.0800 
 24 H       -0.2370     4.7000     0.1700 H     1 <1>   0.0800 
 25 H       -1.0890     4.6810    -1.3540 H     1 <1>   0.0800 
 26 H        0.6570     4.7110    -1.3440 H     1 <1>   0.0800 
 27 H        4.7670     3.1720     0.5440 H     1 <1>   0.0800 
 28 H        3.7300     2.5950    -0.7200 H     1 <1>   0.0800 
 29 H        4.3140    -1.9410     0.0070 H     1 <1>   0.0800 
 30 H        4.9240    -0.8460     1.1890 H     1 <1>   0.0800 
 31 H        3.9560     0.2050    -1.4740 H     1 <1>   0.0800 
 32 H        5.5320    -0.5090    -1.3280 H     1 <1>   0.0800 
 33 H        8.9770     0.7400     1.0620 H     1 <1>   0.0800 
 34 H        9.2080     1.4070    -0.5510 H     1 <1>   0.0800 
 35 H        9.1090    -1.5600     0.1280 H     1 <1>   0.0800 
 36 H       10.5620    -0.6700    -0.2510 H     1 <1>   0.0800 
 37 H        9.3430    -0.8930    -1.4820 H     1 <1>   0.0800 
@<TRIPOS>BOND
  1   1   2  2   
  2   2   3  1   
  3   2   4  am  
  4   3   5  1   
  5   4   6  1   
  6   4   7  1   
  7   5   8  1   
  8   5  18  1   
  9   5  19  1   
 10   6   9  1   
 11   6  20  1   
 12   6  21  1   
 13   7  10  1   
 14   7  22  1   
 15   7  23  1   
 16   8  24  1   
 17   8  25  1   
 18   8  26  1   
 19   9  11  1   
 20   9  27  1   
 21   9  28  1   
 22  10  12  1   
 23  10  29  1   
 24  10  30  1   
 25  11  12  1   
 26  11  13  am  
 27  12  31  1   
 28  12  32  1   
 29  13  14  2   
 30  13  15  1   
 31  15  16  1   
 32  16  17  1   
 33  16  33  1   
 34  16  34  1   
 35  17  35  1   
 36  17  36  1   
 37  17  37  1   
@<TRIPOS>SUBSTRUCTURE
  1 ****   9 GROUP 4 **** **** 0

# MOE 2024.06 (io_trps.svl 2023.06)
