@<TRIPOS>MOLECULE
NONAME
41 42 1 0 0 
SMALL
USER_CHARGES


@<TRIPOS>ATOM
  1 S        0.8960    -1.4610    -0.4930 S.3   1 <1>  -0.0800 
  2 C        1.4610    -0.6150     0.9100 C.2   1 <1>   0.4420 
  3 C       -0.6620    -1.5220     0.2570 C.2   1 <1>   0.1980 
  4 N        0.5330    -0.4440     1.7780 N.2   1 <1>  -0.3380 
  5 N        2.7890    -0.2460     0.9130 N.am  1 <1>  -0.4940 
  6 N       -0.6750    -0.9640     1.3990 N.2   1 <1>  -0.3380 
  7 C       -1.7790    -2.2090    -0.5120 C.3   1 <1>   0.0200 
  8 C        3.5160     0.4200     1.8590 C.2   1 <1>   0.5690 
  9 C       -3.1160    -2.2040     0.2460 C.3   1 <1>  -0.1600 
 10 O        3.0560     0.8060     2.9020 O.2   1 <1>  -0.5700 
 11 C        4.9880     0.6940     1.5890 C.3   1 <1>   0.1310 
 12 C       -4.2230    -2.9030    -0.5540 C.3   1 <1>  -0.1600 
 13 S        5.5180     0.0250    -0.0660 S.3   1 <1>  -0.3310 
 14 C       -5.5470    -2.8890     0.2160 C.3   1 <1>  -0.2400 
 15 C        7.2460     0.4520    -0.1700 C.ar  1 <1>   0.7220 
 16 N        7.7390     1.1030     0.8710 N.ar  1 <1>  -0.6200 
 17 N        7.8400     0.0680    -1.2840 N.ar  1 <1>  -0.6200 
 18 C        9.0120     1.4040     0.7670 C.ar  1 <1>   0.1670 
 19 C        9.1120     0.3830    -1.3590 C.ar  1 <1>   0.1670 
 20 C        9.7500     1.0610    -0.3440 C.ar  1 <1>  -0.1500 
 21 C        9.6380     2.1500     1.9270 C.3   1 <1>  -0.0970 
 22 C        9.8480    -0.0320    -2.6150 C.3   1 <1>  -0.0970 
 23 H        3.3170    -0.5100     0.0810 H     1 <1>   0.3700 
 24 H       -1.4840    -3.2240    -0.7080 H     1 <1>   0.0800 
 25 H       -1.9020    -1.7070    -1.4550 H     1 <1>   0.0800 
 26 H       -3.4030    -1.1850     0.4460 H     1 <1>   0.0800 
 27 H       -2.9860    -2.7010     1.1930 H     1 <1>   0.0800 
 28 H        5.5970     0.2220     2.3370 H     1 <1>   0.0800 
 29 H        5.1730     1.7520     1.5830 H     1 <1>   0.0800 
 30 H       -3.9410    -3.9240    -0.7510 H     1 <1>   0.0800 
 31 H       -4.3600    -2.4050    -1.4990 H     1 <1>   0.0800 
 32 H       -5.4410    -3.4000     1.1560 H     1 <1>   0.0800 
 33 H       -6.3120    -3.3820    -0.3570 H     1 <1>   0.0800 
 34 H       -5.8600    -1.8770     0.4060 H     1 <1>   0.0800 
 35 H       10.7910     1.3130    -0.4170 H     1 <1>   0.1500 
 36 H        9.5490     1.5630     2.8230 H     1 <1>   0.0800 
 37 H        9.1280     3.0840     2.0730 H     1 <1>   0.0800 
 38 H       10.6780     2.3480     1.7440 H     1 <1>   0.0800 
 39 H        9.8030    -1.1010    -2.7220 H     1 <1>   0.0800 
 40 H       10.8780     0.2710    -2.5800 H     1 <1>   0.0800 
 41 H        9.3820     0.4200    -3.4710 H     1 <1>   0.0800 
@<TRIPOS>BOND
  1   1   2  1   
  2   1   3  1   
  3   2   4  2   
  4   2   5  1   
  5   3   6  2   
  6   3   7  1   
  7   4   6  1   
  8   5   8  am  
  9   5  23  1   
 10   7   9  1   
 11   7  24  1   
 12   7  25  1   
 13   8  10  2   
 14   8  11  1   
 15   9  12  1   
 16   9  26  1   
 17   9  27  1   
 18  11  13  1   
 19  11  28  1   
 20  11  29  1   
 21  12  14  1   
 22  12  30  1   
 23  12  31  1   
 24  13  15  1   
 25  14  32  1   
 26  14  33  1   
 27  14  34  1   
 28  15  16  ar  
 29  15  17  ar  
 30  16  18  ar  
 31  17  19  ar  
 32  18  20  ar  
 33  18  21  1   
 34  19  20  ar  
 35  19  22  1   
 36  20  35  1   
 37  21  36  1   
 38  21  37  1   
 39  21  38  1   
 40  22  39  1   
 41  22  40  1   
 42  22  41  1   
@<TRIPOS>SUBSTRUCTURE
  1 ****   5 GROUP 4 **** **** 0

# MOE 2024.06 (io_trps.svl 2023.06)
