@<TRIPOS>MOLECULE
NONAME
36 36 1 0 0 
SMALL
USER_CHARGES


@<TRIPOS>ATOM
  1 S        0.5020    -0.2310     0.7010 S.3   1 <1>  -0.0800 
  2 C        1.7020    -0.8470    -0.3930 C.2   1 <1>   0.4420 
  3 C       -0.6680    -0.5120    -0.5430 C.2   1 <1>   0.1980 
  4 N        1.1960    -1.2050    -1.5160 N.2   1 <1>  -0.3380 
  5 N        3.0360    -0.9260    -0.0580 N.am  1 <1>  -0.4940 
  6 N       -0.1560    -1.0130    -1.5940 N.2   1 <1>  -0.3380 
  7 C       -2.1210    -0.1770    -0.2600 C.3   1 <1>   0.0200 
  8 C        3.7090    -0.6070     1.0850 C.2   1 <1>   0.5690 
  9 C       -2.3250     1.2570     0.2390 C.3   1 <1>   0.1200 
 10 O        3.1820    -0.1840     2.0810 O.2   1 <1>  -0.5700 
 11 C        5.2130    -0.8070     1.0880 C.3   1 <1>  -0.0990 
 12 O       -1.8720     2.1440    -0.7300 O.3   1 <1>  -0.5600 
 13 C        5.9430     0.2510     0.2440 C.3   1 <1>  -0.1600 
 14 C       -1.8980     3.4780    -0.3400 C.3   1 <1>   0.0400 
 15 C        7.4620     0.0350     0.2740 C.3   1 <1>  -0.1600 
 16 C        8.1860     1.0940    -0.5660 C.3   1 <1>  -0.1600 
 17 C        9.7010     0.8790    -0.5350 C.3   1 <1>  -0.2400 
 18 H        3.6060    -1.2770    -0.8220 H     1 <1>   0.3700 
 19 H       -2.4890    -0.8610     0.4810 H     1 <1>   0.0800 
 20 H       -2.6980    -0.3210    -1.1560 H     1 <1>   0.0800 
 21 H       -1.7730     1.4230     1.1490 H     1 <1>   0.0800 
 22 H       -3.3700     1.4470     0.4120 H     1 <1>   0.0800 
 23 H        5.4350    -1.7920     0.7210 H     1 <1>   0.0800 
 24 H        5.5590    -0.7520     2.1050 H     1 <1>   0.0800 
 25 H        5.7130     1.2290     0.6330 H     1 <1>   0.0800 
 26 H        5.5970     0.2100    -0.7740 H     1 <1>   0.0800 
 27 H       -1.5410     4.0720    -1.1620 H     1 <1>   0.0800 
 28 H       -1.2530     3.6120     0.5110 H     1 <1>   0.0800 
 29 H       -2.9090     3.7590    -0.1000 H     1 <1>   0.0800 
 30 H        7.6960    -0.9440    -0.1090 H     1 <1>   0.0800 
 31 H        7.8120     0.0890     1.2910 H     1 <1>   0.0800 
 32 H        7.9610     2.0750    -0.1840 H     1 <1>   0.0800 
 33 H        7.8430     1.0460    -1.5860 H     1 <1>   0.0800 
 34 H       10.0710     0.9460     0.4730 H     1 <1>   0.0800 
 35 H       10.1910     1.6310    -1.1280 H     1 <1>   0.0800 
 36 H        9.9540    -0.0880    -0.9340 H     1 <1>   0.0800 
@<TRIPOS>BOND
  1   1   2  1   
  2   1   3  1   
  3   2   4  2   
  4   2   5  1   
  5   3   6  2   
  6   3   7  1   
  7   4   6  1   
  8   5   8  am  
  9   5  18  1   
 10   7   9  1   
 11   7  19  1   
 12   7  20  1   
 13   8  10  2   
 14   8  11  1   
 15   9  12  1   
 16   9  21  1   
 17   9  22  1   
 18  11  13  1   
 19  11  23  1   
 20  11  24  1   
 21  12  14  1   
 22  13  15  1   
 23  13  25  1   
 24  13  26  1   
 25  14  27  1   
 26  14  28  1   
 27  14  29  1   
 28  15  16  1   
 29  15  30  1   
 30  15  31  1   
 31  16  17  1   
 32  16  32  1   
 33  16  33  1   
 34  17  34  1   
 35  17  35  1   
 36  17  36  1   
@<TRIPOS>SUBSTRUCTURE
  1 ****   5 GROUP 4 **** **** 0

# MOE 2024.06 (io_trps.svl 2023.06)
