@<TRIPOS>MOLECULE
NONAME
43 44 1 0 0 
SMALL
USER_CHARGES


@<TRIPOS>ATOM
  1 O       -0.4820    -0.8980    -0.5680 O.3   1 <1>  -0.3630 
  2 C       -1.7390    -1.0650    -0.0850 C.ar  1 <1>   0.0830 
  3 C        0.5500    -1.8350    -0.3460 C.3   1 <1>   0.0400 
  4 C       -2.6640    -0.0170    -0.3230 C.ar  1 <1>   0.0000 
  5 C       -2.1220    -2.1890     0.6070 C.ar  1 <1>  -0.1500 
  6 C       -3.9850    -0.1330     0.1760 C.ar  1 <1>   0.0000 
  7 C       -2.3170     1.1490    -1.0410 C.ar  1 <1>  -0.1500 
  8 C       -3.4310    -2.3190     1.0710 C.ar  1 <1>  -0.1500 
  9 C       -4.3480    -1.3250     0.8530 C.ar  1 <1>  -0.1440 
 10 C       -4.8730     0.9520    -0.0320 C.ar  1 <1>  -0.1500 
 11 C       -3.2070     2.1650    -1.2430 C.ar  1 <1>  -0.1500 
 12 C       -5.7700    -1.5270     1.3180 C.3   1 <1>   0.4860 
 13 C       -4.4990     2.0670    -0.7260 C.ar  1 <1>  -0.1500 
 14 N       -6.5460    -1.8840     0.1110 N.4   1 <1>  -0.9060 
 15 C       -7.9960    -2.0530     0.3140 C.3   1 <1>   0.4230 
 16 C       -8.5600    -2.7950    -0.9120 C.3   1 <1>  -0.1600 
 17 C       -8.6380    -0.6710     0.5370 C.3   1 <1>  -0.1600 
 18 C       -9.5700    -3.8800    -0.5120 C.3   1 <1>  -0.2400 
 19 C      -10.1450    -0.7280     0.8270 C.3   1 <1>  -0.2400 
 20 H        1.4460    -1.4590    -0.8080 H     1 <1>   0.0800 
 21 H        0.2750    -2.7730    -0.7950 H     1 <1>   0.0800 
 22 H        0.7040    -1.9420     0.7130 H     1 <1>   0.0800 
 23 H       -1.4370    -2.9920     0.8060 H     1 <1>   0.1500 
 24 H       -1.3190     1.2340    -1.4340 H     1 <1>   0.1500 
 25 H       -3.6850    -3.2250     1.5970 H     1 <1>   0.1500 
 26 H       -5.8680     0.9270     0.3670 H     1 <1>   0.1500 
 27 H       -2.9220     3.0470    -1.7920 H     1 <1>   0.1500 
 28 H       -6.1420    -0.6230     1.7700 H     1 <1>   0.0800 
 29 H       -5.8150    -2.3230     2.0440 H     1 <1>   0.0800 
 30 H       -5.1800     2.8870    -0.8810 H     1 <1>   0.1500 
 31 H       -6.1480    -2.7510    -0.2650 H     1 <1>   0.4500 
 32 H       -6.3690    -1.1700    -0.6050 H     1 <1>   0.4500 
 33 H       -8.1580    -2.6660     1.1870 H     1 <1>   0.0800 
 34 H       -7.7740    -3.2820    -1.4620 H     1 <1>   0.0800 
 35 H       -9.0380    -2.1010    -1.5830 H     1 <1>   0.0800 
 36 H       -8.4840    -0.0500    -0.3290 H     1 <1>   0.0800 
 37 H       -8.1780    -0.1880     1.3800 H     1 <1>   0.0800 
 38 H       -9.1080    -4.6220     0.1170 H     1 <1>   0.0800 
 39 H       -9.9420    -4.3760    -1.3930 H     1 <1>   0.0800 
 40 H      -10.4120    -3.4630     0.0120 H     1 <1>   0.0800 
 41 H      -10.6950    -1.0800    -0.0280 H     1 <1>   0.0800 
 42 H      -10.5100     0.2570     1.0660 H     1 <1>   0.0800 
 43 H      -10.3530    -1.3720     1.6650 H     1 <1>   0.0800 
@<TRIPOS>BOND
  1   1   2  1   
  2   1   3  1   
  3   2   4  ar  
  4   2   5  ar  
  5   3  20  1   
  6   3  21  1   
  7   3  22  1   
  8   4   6  ar  
  9   4   7  ar  
 10   5   8  ar  
 11   5  23  1   
 12   6   9  ar  
 13   6  10  ar  
 14   7  11  ar  
 15   7  24  1   
 16   8   9  ar  
 17   8  25  1   
 18   9  12  1   
 19  10  13  ar  
 20  10  26  1   
 21  11  13  ar  
 22  11  27  1   
 23  12  14  1   
 24  12  28  1   
 25  12  29  1   
 26  13  30  1   
 27  14  15  1   
 28  14  31  1   
 29  14  32  1   
 30  15  16  1   
 31  15  17  1   
 32  15  33  1   
 33  16  18  1   
 34  16  34  1   
 35  16  35  1   
 36  17  19  1   
 37  17  36  1   
 38  17  37  1   
 39  18  38  1   
 40  18  39  1   
 41  18  40  1   
 42  19  41  1   
 43  19  42  1   
 44  19  43  1   
@<TRIPOS>SUBSTRUCTURE
  1 ****   9 GROUP 4 **** **** 0

# MOE 2024.06 (io_trps.svl 2023.06)
