@<TRIPOS>MOLECULE
NONAME
38 40 1 0 0 
SMALL
USER_CHARGES


@<TRIPOS>ATOM
  1 F        1.4390     0.2070    -2.3230 F     1 <1>  -0.1900 
  2 C        2.5400    -0.0120    -1.6520 C.ar  1 <1>   0.1900 
  3 C        2.7190    -1.2420    -1.0480 C.ar  1 <1>  -0.1500 
  4 C        3.4820     0.9940    -1.5700 C.ar  1 <1>  -0.1500 
  5 C        3.8830    -1.4830    -0.3320 C.ar  1 <1>  -0.1440 
  6 C        4.6420     0.7490    -0.8590 C.ar  1 <1>  -0.1500 
  7 C        4.8580    -0.4810    -0.2440 C.ar  1 <1>   0.1170 
  8 C        4.0650    -2.8350     0.3430 C.3   1 <1>  -0.0960 
  9 N        6.0570    -0.6340     0.4570 N.am  1 <1>  -0.5470 
 10 C        7.1160    -1.4380     0.1480 C.2   1 <1>   0.5690 
 11 O        7.0210    -2.3360    -0.6580 O.2   1 <1>  -0.5700 
 12 C        8.4510    -1.2530     0.8980 C.3   1 <1>  -0.0190 
 13 C        9.1000     0.3060     0.9920 C.3   1 <1>  -0.1860 
 14 C        9.6230    -2.2170     0.2640 C.3   1 <1>  -0.0800 
 15 C        8.1280     1.4200     0.6310 C.2   1 <1>   0.9060 
 16 C       10.5450     0.2940     0.2090 C.3   1 <1>  -0.0800 
 17 C       10.0890    -0.9650     0.2550 C.3   1 <1>  -0.1600 
 18 C       11.0770    -2.2290    -0.4830 C.3   1 <1>  -0.1600 
 19 O        7.2180     1.6400     1.4390 O.co2 1 <1>  -0.9000 
 20 O        8.1930     2.0150    -0.4450 O.co2 1 <1>  -0.9000 
 21 C       11.7030    -0.6810    -0.4030 C.3   1 <1>  -0.1600 
 22 H        1.9560    -1.9920    -1.1400 H     1 <1>   0.1500 
 23 H        3.3170     1.9420    -2.0480 H     1 <1>   0.1500 
 24 H        5.4030     1.5110    -0.7760 H     1 <1>   0.1500 
 25 H        3.1190    -3.3210     0.4920 H     1 <1>   0.0800 
 26 H        4.5380    -2.7140     1.3010 H     1 <1>   0.0800 
 27 H        4.6850    -3.4640    -0.2700 H     1 <1>   0.0800 
 28 H        6.3290     0.2220     0.9820 H     1 <1>   0.3700 
 29 H        8.2460    -1.5750     1.9050 H     1 <1>   0.0800 
 30 H        9.3100     0.5000     2.0330 H     1 <1>   0.0800 
 31 H        9.8090    -2.8860     1.0920 H     1 <1>   0.0800 
 32 H       10.3530     0.9350    -0.6420 H     1 <1>   0.0800 
 33 H        9.5860    -0.7940    -0.7970 H     1 <1>   0.0800 
 34 H       10.5790    -1.1400     1.3080 H     1 <1>   0.0800 
 35 H       10.9530    -2.5230    -1.5150 H     1 <1>   0.0800 
 36 H       11.7480    -2.9340    -0.0200 H     1 <1>   0.0800 
 37 H       12.5750    -0.6620     0.2320 H     1 <1>   0.0800 
 38 H       12.0040    -0.3460    -1.3830 H     1 <1>   0.0800 
@<TRIPOS>BOND
  1   1   2  1   
  2   2   3  ar  
  3   2   4  ar  
  4   3   5  ar  
  5   3  22  1   
  6   4   6  ar  
  7   4  23  1   
  8   5   7  ar  
  9   5   8  1   
 10   6   7  ar  
 11   6  24  1   
 12   7   9  1   
 13   8  25  1   
 14   8  26  1   
 15   8  27  1   
 16   9  10  am  
 17   9  28  1   
 18  10  11  2   
 19  10  12  1   
 20  12  13  1   
 21  12  14  1   
 22  12  29  1   
 23  13  15  1   
 24  13  16  1   
 25  13  30  1   
 26  14  17  1   
 27  14  18  1   
 28  14  31  1   
 29  15  19  ar  
 30  15  20  ar  
 31  16  17  1   
 32  16  21  1   
 33  16  32  1   
 34  17  33  1   
 35  17  34  1   
 36  18  21  1   
 37  18  35  1   
 38  18  36  1   
 39  21  37  1   
 40  21  38  1   
@<TRIPOS>SUBSTRUCTURE
  1 ****   9 GROUP 4 **** **** 0

# MOE 2024.06 (io_trps.svl 2023.06)
