@<TRIPOS>MOLECULE
NONAME
39 40 1 0 0 
SMALL
USER_CHARGES


@<TRIPOS>ATOM
  1 O       -1.5460     0.4200    -1.9060 O.2   1 <1>  -0.5700 
  2 C       -2.0400    -0.4500    -1.2140 C.2   1 <1>   0.7060 
  3 O       -3.3660    -0.5120    -1.1790 O.3   1 <1>  -0.2330 
  4 C       -1.2880    -1.4150    -0.4580 C.2   1 <1>  -0.1240 
  5 C       -4.0440    -1.3860    -0.4110 C.ar  1 <1>   0.0820 
  6 C       -1.9260    -2.3560     0.2930 C.2   1 <1>  -0.1670 
  7 C        0.2380    -1.3100    -0.5760 C.3   1 <1>  -0.1020 
  8 C       -3.3760    -2.3230     0.3970 C.ar  1 <1>   0.0280 
  9 C       -5.4250    -1.2960    -0.4620 C.ar  1 <1>  -0.1500 
 10 C       -1.1480    -3.4720     0.9980 C.3   1 <1>  -0.1020 
 11 C       -4.2040    -3.1260     1.2200 C.ar  1 <1>   0.0830 
 12 C       -6.2090    -2.1180     0.3170 C.ar  1 <1>  -0.1430 
 13 O       -3.6470    -3.9970     2.0970 O.3   1 <1>  -0.3630 
 14 C       -5.5900    -3.0190     1.1610 C.ar  1 <1>  -0.1500 
 15 C       -7.7240    -2.0360     0.2680 C.3   1 <1>  -0.0970 
 16 C       -4.2630    -5.2310     2.4510 C.3   1 <1>   0.1810 
 17 C       -4.6240    -6.0670     1.2310 C.2   1 <1>   0.6590 
 18 O       -5.7540    -6.4410     1.0380 O.2   1 <1>  -0.5700 
 19 O       -3.6300    -6.3620     0.4010 O.3   1 <1>  -0.4300 
 20 C       -3.8530    -7.0730    -0.7930 C.3   1 <1>   0.1200 
 21 C       -2.5290    -7.1510    -1.5460 C.3   1 <1>  -0.2400 
 22 H        0.5420    -0.3000    -0.7870 H     1 <1>   0.0800 
 23 H        0.5870    -1.9400    -1.3740 H     1 <1>   0.0800 
 24 H        0.7260    -1.5880     0.3390 H     1 <1>   0.0800 
 25 H       -5.8760    -0.5710    -1.1160 H     1 <1>   0.1500 
 26 H       -1.5900    -4.4240     0.7670 H     1 <1>   0.0800 
 27 H       -1.1700    -3.3210     2.0630 H     1 <1>   0.0800 
 28 H       -0.1240    -3.5410     0.6900 H     1 <1>   0.0800 
 29 H       -6.2180    -3.6310     1.7800 H     1 <1>   0.1500 
 30 H       -8.0490    -1.4140    -0.5470 H     1 <1>   0.0800 
 31 H       -8.0980    -1.6230     1.1870 H     1 <1>   0.0800 
 32 H       -8.1410    -3.0180     0.1330 H     1 <1>   0.0800 
 33 H       -5.1360    -5.0260     3.0410 H     1 <1>   0.0800 
 34 H       -3.5620    -5.7770     3.0530 H     1 <1>   0.0800 
 35 H       -4.5940    -6.5460    -1.3710 H     1 <1>   0.0800 
 36 H       -4.2190    -8.0550    -0.5430 H     1 <1>   0.0800 
 37 H       -2.1760    -6.1620    -1.7750 H     1 <1>   0.0800 
 38 H       -2.6680    -7.6870    -2.4680 H     1 <1>   0.0800 
 39 H       -1.7950    -7.6690    -0.9550 H     1 <1>   0.0800 
@<TRIPOS>BOND
  1   1   2  2   
  2   2   3  1   
  3   2   4  1   
  4   3   5  1   
  5   4   6  2   
  6   4   7  1   
  7   5   8  ar  
  8   5   9  ar  
  9   6   8  1   
 10   6  10  1   
 11   7  22  1   
 12   7  23  1   
 13   7  24  1   
 14   8  11  ar  
 15   9  12  ar  
 16   9  25  1   
 17  10  26  1   
 18  10  27  1   
 19  10  28  1   
 20  11  13  1   
 21  11  14  ar  
 22  12  14  ar  
 23  12  15  1   
 24  13  16  1   
 25  14  29  1   
 26  15  30  1   
 27  15  31  1   
 28  15  32  1   
 29  16  17  1   
 30  16  33  1   
 31  16  34  1   
 32  17  18  2   
 33  17  19  1   
 34  19  20  1   
 35  20  21  1   
 36  20  35  1   
 37  20  36  1   
 38  21  37  1   
 39  21  38  1   
 40  21  39  1   
@<TRIPOS>SUBSTRUCTURE
  1 ****   8 GROUP 4 **** **** 0

# MOE 2024.06 (io_trps.svl 2023.06)
