@<TRIPOS>MOLECULE
NONAME
33 34 1 0 0 
SMALL
USER_CHARGES


@<TRIPOS>ATOM
  1 O        0.1310     0.1980    -0.2630 O.2   1 <1>  -0.5700 
  2 C        0.3760     1.3340     0.0090 C.2   1 <1>   0.4480 
  3 C       -0.4190     2.2110     0.9490 C.3   1 <1>   0.2300 
  4 C        1.5920     2.0980    -0.4740 C.3   1 <1>   0.3910 
  5 C       -1.8160     2.5520     0.4300 C.ar  1 <1>  -0.1440 
  6 C        0.4640     3.4500     1.0440 C.cat 1 <1>   0.6040 
  7 N        1.5420     3.3810     0.2870 N.pl3 1 <1>  -0.8330 
  8 C       -1.9920     3.3620    -0.6860 C.ar  1 <1>  -0.1500 
  9 C       -2.9330     2.0510     1.0840 C.ar  1 <1>  -0.1500 
 10 N        0.1440     4.4710     1.8010 N.pl3 1 <1>  -0.7540 
 11 C        2.6570     4.3340     0.0500 C.3   1 <1>   0.4100 
 12 C       -3.2650     3.6740    -1.1290 C.ar  1 <1>  -0.1500 
 13 C       -4.2050     2.3640     0.6390 C.ar  1 <1>  -0.1500 
 14 C        3.3990     4.6080     1.3550 C.3   1 <1>  -0.2400 
 15 C        2.1200     5.6110    -0.5910 C.3   1 <1>  -0.2400 
 16 C       -4.3720     3.1770    -0.4660 C.ar  1 <1>  -0.1500 
 17 H       -0.4710     1.7330     1.9090 H     1 <1>   0.0800 
 18 H        1.5220     2.2750    -1.5340 H     1 <1>   0.0800 
 19 H        2.4890     1.5470    -0.2470 H     1 <1>   0.0800 
 20 H       -1.1540     3.7630    -1.2290 H     1 <1>   0.1500 
 21 H       -2.8330     1.4070     1.9420 H     1 <1>   0.1500 
 22 H        0.7190     5.3110     1.8710 H     1 <1>   0.4500 
 23 H       -0.7220     4.5280     2.3470 H     1 <1>   0.4500 
 24 H        3.3590     3.8890    -0.6390 H     1 <1>   0.0800 
 25 H       -3.4010     4.3020    -1.9940 H     1 <1>   0.1500 
 26 H       -5.0680     1.9710     1.1490 H     1 <1>   0.1500 
 27 H        2.7850     5.1280     2.0650 H     1 <1>   0.0800 
 28 H        4.2620     5.2190     1.1550 H     1 <1>   0.0800 
 29 H        3.7420     3.6850     1.7880 H     1 <1>   0.0800 
 30 H        1.4640     6.1460     0.0680 H     1 <1>   0.0800 
 31 H        1.5980     5.3780    -1.5020 H     1 <1>   0.0800 
 32 H        2.9410     6.2600    -0.8390 H     1 <1>   0.0800 
 33 H       -5.3630     3.4190    -0.8130 H     1 <1>   0.1500 
@<TRIPOS>BOND
  1   1   2  2   
  2   2   3  1   
  3   2   4  1   
  4   3   5  1   
  5   3   6  1   
  6   3  17  1   
  7   4   7  1   
  8   4  18  1   
  9   4  19  1   
 10   5   8  ar  
 11   5   9  ar  
 12   6   7  ar  
 13   6  10  ar  
 14   7  11  1   
 15   8  12  ar  
 16   8  20  1   
 17   9  13  ar  
 18   9  21  1   
 19  10  22  1   
 20  10  23  1   
 21  11  14  1   
 22  11  15  1   
 23  11  24  1   
 24  12  16  ar  
 25  12  25  1   
 26  13  16  ar  
 27  13  26  1   
 28  14  27  1   
 29  14  28  1   
 30  14  29  1   
 31  15  30  1   
 32  15  31  1   
 33  15  32  1   
 34  16  33  1   
@<TRIPOS>SUBSTRUCTURE
  1 ****   3 GROUP 4 **** **** 0

# MOE 2024.06 (io_trps.svl 2023.06)
