@<TRIPOS>MOLECULE
NONAME
38 38 1 0 0 
SMALL
USER_CHARGES


@<TRIPOS>ATOM
  1 S        0.3190     0.0310    -0.6260 S.o2  1 <1>   1.4470 
  2 O        0.5540     0.2940    -2.0290 O.2   1 <1>  -0.6500 
  3 O        0.5780     1.1120     0.3030 O.2   1 <1>  -0.6500 
  4 N        1.4330    -1.1660    -0.1680 N.am  1 <1>  -0.8490 
  5 C       -1.3290    -0.7550    -0.4050 C.ar  1 <1>  -0.0090 
  6 C        2.8050    -0.7720    -0.5900 C.3   1 <1>   0.2570 
  7 C        1.3710    -1.4700     1.2680 C.3   1 <1>   0.1160 
  8 C       -2.3510    -0.1520     0.3450 C.ar  1 <1>  -0.1440 
  9 C       -1.6150    -1.9970    -0.9950 C.ar  1 <1>  -0.1440 
 10 C        3.9210    -1.7930    -0.3380 C.2   1 <1>   0.6590 
 11 C       -3.5730    -0.7840     0.5210 C.ar  1 <1>  -0.1500 
 12 C       -2.2060     1.2180     1.0000 C.3   1 <1>  -0.0970 
 13 C       -2.8420    -2.6110    -0.8040 C.ar  1 <1>  -0.1500 
 14 C       -0.6180    -2.7460    -1.8770 C.3   1 <1>  -0.0960 
 15 O        4.3210    -2.5330    -1.2020 O.2   1 <1>  -0.5700 
 16 O        4.4480    -1.8020     0.8850 O.3   1 <1>  -0.4300 
 17 C       -3.8260    -2.0140    -0.0460 C.ar  1 <1>  -0.1430 
 18 C        5.4950    -2.6830     1.2360 C.3   1 <1>   0.0400 
 19 C       -5.1660    -2.6980     0.1590 C.3   1 <1>  -0.0970 
 20 H        3.0780     0.1480    -0.1030 H     1 <1>   0.0800 
 21 H        2.8030    -0.5850    -1.6490 H     1 <1>   0.0800 
 22 H        0.3580    -1.7030     1.5530 H     1 <1>   0.0800 
 23 H        1.7100    -0.6300     1.8510 H     1 <1>   0.0800 
 24 H        1.9810    -2.3270     1.4960 H     1 <1>   0.0800 
 25 H       -4.3440    -0.3150     1.1070 H     1 <1>   0.1500 
 26 H       -1.8700     1.9450     0.2810 H     1 <1>   0.0800 
 27 H       -1.5030     1.1700     1.8120 H     1 <1>   0.0800 
 28 H       -3.1430     1.5660     1.3950 H     1 <1>   0.0800 
 29 H       -3.0400    -3.5690    -1.2530 H     1 <1>   0.1500 
 30 H       -0.1550    -2.0870    -2.5880 H     1 <1>   0.0800 
 31 H       -1.1060    -3.5220    -2.4380 H     1 <1>   0.0800 
 32 H        0.1440    -3.2050    -1.2740 H     1 <1>   0.0800 
 33 H        5.7550    -2.5130     2.2650 H     1 <1>   0.0800 
 34 H        6.3430    -2.4870     0.6020 H     1 <1>   0.0800 
 35 H        5.1580    -3.6960     1.1000 H     1 <1>   0.0800 
 36 H       -5.9490    -1.9680     0.2640 H     1 <1>   0.0800 
 37 H       -5.1340    -3.3030     1.0470 H     1 <1>   0.0800 
 38 H       -5.4010    -3.3260    -0.6820 H     1 <1>   0.0800 
@<TRIPOS>BOND
  1   1   2  2   
  2   1   3  2   
  3   1   4  am  
  4   1   5  1   
  5   4   6  1   
  6   4   7  1   
  7   5   8  ar  
  8   5   9  ar  
  9   6  10  1   
 10   6  20  1   
 11   6  21  1   
 12   7  22  1   
 13   7  23  1   
 14   7  24  1   
 15   8  11  ar  
 16   8  12  1   
 17   9  13  ar  
 18   9  14  1   
 19  10  15  2   
 20  10  16  1   
 21  11  17  ar  
 22  11  25  1   
 23  12  26  1   
 24  12  27  1   
 25  12  28  1   
 26  13  17  ar  
 27  13  29  1   
 28  14  30  1   
 29  14  31  1   
 30  14  32  1   
 31  16  18  1   
 32  17  19  1   
 33  18  33  1   
 34  18  34  1   
 35  18  35  1   
 36  19  36  1   
 37  19  37  1   
 38  19  38  1   
@<TRIPOS>SUBSTRUCTURE
  1 ****   4 GROUP 4 **** **** 0

# MOE 2024.06 (io_trps.svl 2023.06)
