@<TRIPOS>MOLECULE
NONAME
28 28 1 0 0 
SMALL
USER_CHARGES


@<TRIPOS>ATOM
  1 BR      -1.1310     0.6420    -2.7410 Br    1 <1>  -0.1110 
  2 C       -2.1100     1.1820    -1.1770 C.ar  1 <1>   0.1110 
  3 C       -3.2450     0.4730    -0.8300 C.ar  1 <1>  -0.1500 
  4 C       -1.6560     2.2610    -0.4440 C.ar  1 <1>  -0.1500 
  5 C       -3.9580     0.8630     0.2960 C.ar  1 <1>  -0.1440 
  6 C       -2.3690     2.6400     0.6800 C.ar  1 <1>  -0.1500 
  7 C       -3.5110     1.9440     1.0480 C.ar  1 <1>  -0.1500 
  8 C       -5.2140     0.1210     0.6950 C.3   1 <1>   0.4870 
  9 N       -6.3330     0.7830    -0.0050 N.4   1 <1>  -0.9060 
 10 C       -7.6550     0.1610     0.2980 C.3   1 <1>   0.3430 
 11 C       -8.8000     0.8630    -0.4380 C.3   1 <1>   0.1200 
 12 O       -9.9650     0.2050    -0.0820 O.3   1 <1>  -0.5600 
 13 C      -11.1220     0.7200    -0.6660 C.3   1 <1>   0.0400 
 14 H       -3.5400    -0.3630    -1.4400 H     1 <1>   0.1500 
 15 H       -0.7670     2.7870    -0.7450 H     1 <1>   0.1500 
 16 H       -2.0290     3.4760     1.2700 H     1 <1>   0.1500 
 17 H       -4.0390     2.2610     1.9320 H     1 <1>   0.1500 
 18 H       -5.3490     0.1730     1.7640 H     1 <1>   0.0800 
 19 H       -5.1410    -0.9140     0.4020 H     1 <1>   0.0800 
 20 H       -6.1350     0.7530    -1.0120 H     1 <1>   0.4500 
 21 H       -6.3240     1.7760     0.2600 H     1 <1>   0.4500 
 22 H       -7.8490     0.2130     1.3570 H     1 <1>   0.0800 
 23 H       -7.6460    -0.8760     0.0030 H     1 <1>   0.0800 
 24 H       -8.6800     0.7880    -1.5050 H     1 <1>   0.0800 
 25 H       -8.8840     1.8920    -0.1320 H     1 <1>   0.0800 
 26 H      -11.9600     0.1370    -0.3220 H     1 <1>   0.0800 
 27 H      -11.0500     0.6440    -1.7380 H     1 <1>   0.0800 
 28 H      -11.2520     1.7460    -0.3660 H     1 <1>   0.0800 
@<TRIPOS>BOND
  1   1   2  1   
  2   2   3  ar  
  3   2   4  ar  
  4   3   5  ar  
  5   3  14  1   
  6   4   6  ar  
  7   4  15  1   
  8   5   7  ar  
  9   5   8  1   
 10   6   7  ar  
 11   6  16  1   
 12   7  17  1   
 13   8   9  1   
 14   8  18  1   
 15   8  19  1   
 16   9  10  1   
 17   9  20  1   
 18   9  21  1   
 19  10  11  1   
 20  10  22  1   
 21  10  23  1   
 22  11  12  1   
 23  11  24  1   
 24  11  25  1   
 25  12  13  1   
 26  13  26  1   
 27  13  27  1   
 28  13  28  1   
@<TRIPOS>SUBSTRUCTURE
  1 ****   9 GROUP 4 **** **** 0

# MOE 2024.06 (io_trps.svl 2023.06)
