@<TRIPOS>MOLECULE
NONAME
41 43 1 0 0 
SMALL
USER_CHARGES


@<TRIPOS>ATOM
  1 O       -0.7190     0.5300    -1.7800 O.2   1 <1>  -0.5700 
  2 C       -1.1880     0.9240    -0.7400 C.2   1 <1>   0.6590 
  3 O       -0.4070     1.3930     0.2310 O.3   1 <1>  -0.4300 
  4 C       -2.7020     0.9180    -0.4520 C.3   1 <1>   0.0610 
  5 C        0.9970     1.4520     0.0940 C.3   1 <1>   0.0400 
  6 C       -3.1990     2.3580    -0.1750 C.3   1 <1>  -0.1600 
  7 C       -3.5080     0.3530    -1.6500 C.3   1 <1>  -0.1600 
  8 C       -3.0080     0.0450     0.7890 C.3   1 <1>  -0.1600 
  9 C       -4.7090     2.3760     0.1360 C.3   1 <1>   0.0000 
 10 C       -5.0210     0.3490    -1.3570 C.3   1 <1>   0.0000 
 11 C       -4.5160     0.0400     1.1100 C.3   1 <1>   0.0000 
 12 C       -5.4740     1.7950    -1.0690 C.3   1 <1>  -0.1600 
 13 C       -4.9740     1.4890     1.3690 C.3   1 <1>  -0.1600 
 14 C       -5.1730     3.8130     0.4100 C.3   1 <1>  -0.2400 
 15 C       -5.2820    -0.5140    -0.1070 C.3   1 <1>  -0.1600 
 16 C       -5.7890    -0.2150    -2.5580 C.3   1 <1>  -0.2400 
 17 C       -4.7880    -0.8280     2.3440 C.3   1 <1>  -0.2400 
 18 H        1.2380     2.0810    -0.7450 H     1 <1>   0.0800 
 19 H        1.3720     0.4570    -0.0690 H     1 <1>   0.0800 
 20 H        1.4110     1.8630     0.9970 H     1 <1>   0.0800 
 21 H       -2.9970     2.9760    -1.0320 H     1 <1>   0.0800 
 22 H       -2.6580     2.7720     0.6580 H     1 <1>   0.0800 
 23 H       -3.3100     0.9460    -2.5260 H     1 <1>   0.0800 
 24 H       -3.1780    -0.6500    -1.8610 H     1 <1>   0.0800 
 25 H       -2.4640     0.4210     1.6380 H     1 <1>   0.0800 
 26 H       -2.6710    -0.9610     0.6080 H     1 <1>   0.0800 
 27 H       -5.3010     2.4070    -1.9370 H     1 <1>   0.0800 
 28 H       -6.5300     1.8080    -0.8670 H     1 <1>   0.0800 
 29 H       -4.4490     1.8880     2.2210 H     1 <1>   0.0800 
 30 H       -6.0240     1.4990     1.6010 H     1 <1>   0.0800 
 31 H       -4.6430     4.2250     1.2510 H     1 <1>   0.0800 
 32 H       -6.2260     3.8330     0.6280 H     1 <1>   0.0800 
 33 H       -4.9900     4.4370    -0.4460 H     1 <1>   0.0800 
 34 H       -4.9750    -1.5280    -0.2980 H     1 <1>   0.0800 
 35 H       -6.3370    -0.5290     0.1070 H     1 <1>   0.0800 
 36 H       -5.6090     0.3830    -3.4340 H     1 <1>   0.0800 
 37 H       -6.8460    -0.2200    -2.3610 H     1 <1>   0.0800 
 38 H       -5.4760    -1.2230    -2.7650 H     1 <1>   0.0800 
 39 H       -4.2570    -0.4470     3.1980 H     1 <1>   0.0800 
 40 H       -4.4710    -1.8410     2.1700 H     1 <1>   0.0800 
 41 H       -5.8390    -0.8360     2.5740 H     1 <1>   0.0800 
@<TRIPOS>BOND
  1   1   2  2   
  2   2   3  1   
  3   2   4  1   
  4   3   5  1   
  5   4   6  1   
  6   4   7  1   
  7   4   8  1   
  8   5  18  1   
  9   5  19  1   
 10   5  20  1   
 11   6   9  1   
 12   6  21  1   
 13   6  22  1   
 14   7  10  1   
 15   7  23  1   
 16   7  24  1   
 17   8  11  1   
 18   8  25  1   
 19   8  26  1   
 20   9  12  1   
 21   9  13  1   
 22   9  14  1   
 23  10  12  1   
 24  10  15  1   
 25  10  16  1   
 26  11  13  1   
 27  11  15  1   
 28  11  17  1   
 29  12  27  1   
 30  12  28  1   
 31  13  29  1   
 32  13  30  1   
 33  14  31  1   
 34  14  32  1   
 35  14  33  1   
 36  15  34  1   
 37  15  35  1   
 38  16  36  1   
 39  16  37  1   
 40  16  38  1   
 41  17  39  1   
 42  17  40  1   
 43  17  41  1   
@<TRIPOS>SUBSTRUCTURE
  1 ****   4 GROUP 4 **** **** 0

# MOE 2024.06 (io_trps.svl 2023.06)
