@<TRIPOS>MOLECULE
NONAME
58 59 1 0 0 
SMALL
USER_CHARGES


@<TRIPOS>ATOM
  1 O        4.0810    -1.5600     0.9070 O.2   1 <1>  -0.5700 
  2 C        2.9940    -1.6090     0.3700 C.2   1 <1>   0.5690 
  3 N        1.8530    -1.9010     1.0740 N.am  1 <1>  -0.6600 
  4 C        2.9640    -1.3080    -1.1290 C.3   1 <1>  -0.0190 
  5 C        0.4710    -1.8720     0.5210 C.3   1 <1>   0.1400 
  6 C        1.9290    -2.2090     2.5300 C.3   1 <1>   0.1400 
  7 C        4.2460    -1.8670    -1.7700 C.3   1 <1>   0.3430 
  8 C        2.8000     0.2150    -1.3770 C.3   1 <1>  -0.1600 
  9 C        0.0720    -3.2730     0.0630 C.3   1 <1>  -0.2400 
 10 C        1.7690    -0.9210     3.3350 C.3   1 <1>  -0.2400 
 11 N        5.3670    -0.9330    -1.4780 N.4   1 <1>  -0.9590 
 12 C        3.7700     0.7410    -2.4510 C.3   1 <1>  -0.1600 
 13 C        5.2380     0.3990    -2.1470 C.3   1 <1>   0.3430 
 14 C        6.7100    -1.5440    -1.6210 C.3   1 <1>   0.4860 
 15 C        7.7290    -0.5880    -1.0330 C.ar  1 <1>  -0.1440 
 16 C        7.6960    -0.2820     0.3200 C.ar  1 <1>  -0.1500 
 17 C        8.6890     0.0050    -1.8420 C.ar  1 <1>  -0.1500 
 18 C        8.6010     0.6190     0.8560 C.ar  1 <1>   0.0820 
 19 C        9.5960     0.9070    -1.3100 C.ar  1 <1>  -0.1500 
 20 O        8.5190     0.9220     2.1740 O.3   1 <1>  -0.3630 
 21 C        9.5570     1.2300     0.0430 C.ar  1 <1>   0.0820 
 22 C        8.9580    -0.0480     3.1000 C.3   1 <1>   0.1200 
 23 O       10.4170     2.1180     0.6180 O.3   1 <1>  -0.3630 
 24 C       10.4850    -0.0300     3.1750 C.3   1 <1>  -0.2400 
 25 C       11.4090     2.7830    -0.1300 C.3   1 <1>   0.0400 
 26 H        2.1450    -1.8350    -1.5800 H     1 <1>   0.0800 
 27 H        0.4060    -1.1790    -0.2990 H     1 <1>   0.0800 
 28 H       -0.2150    -1.5320     1.2800 H     1 <1>   0.0800 
 29 H        2.8790    -2.6610     2.7610 H     1 <1>   0.0800 
 30 H        1.1580    -2.9110     2.7990 H     1 <1>   0.0800 
 31 H        4.1170    -1.9600    -2.8350 H     1 <1>   0.0800 
 32 H        4.4510    -2.8420    -1.3580 H     1 <1>   0.0800 
 33 H        2.9900     0.7530    -0.4620 H     1 <1>   0.0800 
 34 H        1.7840     0.4310    -1.6650 H     1 <1>   0.0800 
 35 H        0.7400    -3.6340    -0.6970 H     1 <1>   0.0800 
 36 H       -0.9230    -3.2490    -0.3420 H     1 <1>   0.0800 
 37 H        0.0790    -3.9560     0.8940 H     1 <1>   0.0800 
 38 H        2.5520    -0.2290     3.0850 H     1 <1>   0.0800 
 39 H        1.8370    -1.1430     4.3850 H     1 <1>   0.0800 
 40 H        0.8140    -0.4670     3.1460 H     1 <1>   0.0800 
 41 H        5.2660    -0.7570    -0.4580 H     1 <1>   0.4500 
 42 H        3.6720     1.8100    -2.5390 H     1 <1>   0.0800 
 43 H        3.5060     0.3260    -3.4080 H     1 <1>   0.0800 
 44 H        5.8000     0.4090    -3.0670 H     1 <1>   0.0800 
 45 H        5.6570     1.1550    -1.4990 H     1 <1>   0.0800 
 46 H        6.9290    -1.7300    -2.6590 H     1 <1>   0.0800 
 47 H        6.7510    -2.4790    -1.0840 H     1 <1>   0.0800 
 48 H        6.9670    -0.7250     0.9770 H     1 <1>   0.1500 
 49 H        8.7430    -0.2230    -2.8930 H     1 <1>   0.1500 
 50 H       10.3240     1.3490    -1.9630 H     1 <1>   0.1500 
 51 H        8.5920    -1.0150     2.8020 H     1 <1>   0.0800 
 52 H        8.5370     0.2090     4.0560 H     1 <1>   0.0800 
 53 H       10.9110    -0.3230     2.2320 H     1 <1>   0.0800 
 54 H       10.8220    -0.7160     3.9300 H     1 <1>   0.0800 
 55 H       10.8270     0.9580     3.4290 H     1 <1>   0.0800 
 56 H       11.9520     3.4280     0.5380 H     1 <1>   0.0800 
 57 H       10.9350     3.3700    -0.8960 H     1 <1>   0.0800 
 58 H       12.0760     2.0540    -0.5540 H     1 <1>   0.0800 
@<TRIPOS>BOND
  1   1   2  2   
  2   2   3  am  
  3   2   4  1   
  4   3   5  1   
  5   3   6  1   
  6   4   7  1   
  7   4   8  1   
  8   4  26  1   
  9   5   9  1   
 10   5  27  1   
 11   5  28  1   
 12   6  10  1   
 13   6  29  1   
 14   6  30  1   
 15   7  11  1   
 16   7  31  1   
 17   7  32  1   
 18   8  12  1   
 19   8  33  1   
 20   8  34  1   
 21   9  35  1   
 22   9  36  1   
 23   9  37  1   
 24  10  38  1   
 25  10  39  1   
 26  10  40  1   
 27  11  13  1   
 28  11  14  1   
 29  11  41  1   
 30  12  13  1   
 31  12  42  1   
 32  12  43  1   
 33  13  44  1   
 34  13  45  1   
 35  14  15  1   
 36  14  46  1   
 37  14  47  1   
 38  15  16  ar  
 39  15  17  ar  
 40  16  18  ar  
 41  16  48  1   
 42  17  19  ar  
 43  17  49  1   
 44  18  20  1   
 45  18  21  ar  
 46  19  21  ar  
 47  19  50  1   
 48  20  22  1   
 49  21  23  1   
 50  22  24  1   
 51  22  51  1   
 52  22  52  1   
 53  23  25  1   
 54  24  53  1   
 55  24  54  1   
 56  24  55  1   
 57  25  56  1   
 58  25  57  1   
 59  25  58  1   
@<TRIPOS>SUBSTRUCTURE
  1 ****  11 GROUP 4 **** **** 0

# MOE 2024.06 (io_trps.svl 2023.06)
