@<TRIPOS>MOLECULE
NONAME
27 27 1 0 0 
SMALL
USER_CHARGES


@<TRIPOS>ATOM
  1 S        0.2720    -0.5030    -0.8720 S.o2  1 <1>   1.2570 
  2 O        0.1020    -1.7410    -0.1370 O.2   1 <1>  -0.6500 
  3 O        0.8070    -0.5670    -2.2170 O.2   1 <1>  -0.6500 
  4 C       -1.3060     0.3740    -0.9520 C.2   1 <1>  -0.0220 
  5 C        1.3530     0.6140     0.1110 C.3   1 <1>   0.1050 
  6 S       -2.4930     0.0900     0.3200 S.3   1 <1>  -0.0800 
  7 C       -1.7990     1.2810    -1.8210 C.2   1 <1>  -0.1500 
  8 C        0.8230     0.8390     1.5440 C.3   1 <1>  -0.2400 
  9 C        1.5070     2.0040    -0.5450 C.3   1 <1>  -0.2400 
 10 C        2.7700     0.0180     0.2440 C.3   1 <1>  -0.2400 
 11 C       -3.6240     1.2280    -0.3870 C.2   1 <1>  -0.1400 
 12 C       -3.1080     1.7650    -1.5060 C.2   1 <1>  -0.1500 
 13 C       -4.9460     1.4260     0.3250 C.3   1 <1>  -0.0600 
 14 H       -1.2810     1.6340    -2.6970 H     1 <1>   0.1500 
 15 H        0.6930    -0.1050     2.0450 H     1 <1>   0.0800 
 16 H       -0.1250     1.3460     1.5280 H     1 <1>   0.0800 
 17 H        1.5090     1.4350     2.1200 H     1 <1>   0.0800 
 18 H        0.5590     2.5090    -0.6000 H     1 <1>   0.0800 
 19 H        1.8940     1.9030    -1.5450 H     1 <1>   0.0800 
 20 H        2.1830     2.6230     0.0180 H     1 <1>   0.0800 
 21 H        2.7250    -0.9410     0.7320 H     1 <1>   0.0800 
 22 H        3.4160     0.6620     0.8140 H     1 <1>   0.0800 
 23 H        3.2050    -0.1270    -0.7300 H     1 <1>   0.0800 
 24 H       -3.5950     2.4900    -2.1350 H     1 <1>   0.1500 
 25 H       -4.7750     1.7840     1.3240 H     1 <1>   0.0800 
 26 H       -5.4770     0.4920     0.3750 H     1 <1>   0.0800 
 27 H       -5.5490     2.1410    -0.2040 H     1 <1>   0.0800 
@<TRIPOS>BOND
  1   1   2  2   
  2   1   3  2   
  3   1   4  1   
  4   1   5  1   
  5   4   6  1   
  6   4   7  2   
  7   5   8  1   
  8   5   9  1   
  9   5  10  1   
 10   6  11  1   
 11   7  12  1   
 12   7  14  1   
 13   8  15  1   
 14   8  16  1   
 15   8  17  1   
 16   9  18  1   
 17   9  19  1   
 18   9  20  1   
 19  10  21  1   
 20  10  22  1   
 21  10  23  1   
 22  11  12  2   
 23  11  13  1   
 24  12  24  1   
 25  13  25  1   
 26  13  26  1   
 27  13  27  1   
@<TRIPOS>SUBSTRUCTURE
  1 ****   4 GROUP 4 **** **** 0

# MOE 2024.06 (io_trps.svl 2023.06)
