@<TRIPOS>MOLECULE
NONAME
38 38 1 0 0 
SMALL
USER_CHARGES


@<TRIPOS>ATOM
  1 CL       0.4920    -0.1960    -1.8960 Cl    1 <1>  -0.1770 
  2 C       -0.3490     0.6950    -0.6460 C.ar  1 <1>   0.1770 
  3 C        0.2090     1.8500    -0.1140 C.ar  1 <1>   0.0820 
  4 C       -1.5710     0.2190    -0.2030 C.ar  1 <1>  -0.1500 
  5 O        1.3980     2.3180    -0.5620 O.3   1 <1>  -0.3630 
  6 C       -0.4950     2.5250     0.8760 C.ar  1 <1>   0.1770 
  7 C       -2.2580     0.9040     0.7890 C.ar  1 <1>  -0.1500 
  8 C        2.5430     1.8420     0.1070 C.3   1 <1>   0.1200 
  9 CL       0.1590     3.9870     1.5830 Cl    1 <1>  -0.1770 
 10 C       -1.7180     2.0610     1.3290 C.ar  1 <1>  -0.1500 
 11 C        3.7680     2.4730    -0.5460 C.3   1 <1>   0.1200 
 12 O        4.9140     2.0090     0.1060 O.3   1 <1>  -0.5600 
 13 C        6.1010     2.5140    -0.4010 C.3   1 <1>   0.1200 
 14 C        7.2390     1.9010     0.4210 C.3   1 <1>   0.3430 
 15 N        8.5780     2.3850    -0.0350 N.4   1 <1>  -0.9060 
 16 C        9.6920     1.8360     0.7500 C.3   1 <1>   0.4230 
 17 C       10.9280     2.6630     0.4240 C.3   1 <1>  -0.2400 
 18 C        9.9050     0.3730     0.3720 C.3   1 <1>  -0.2400 
 19 H       -1.9790    -0.6790    -0.6320 H     1 <1>   0.1500 
 20 H       -3.2100     0.5380     1.1370 H     1 <1>   0.1500 
 21 H        2.5720     0.7700     0.0110 H     1 <1>   0.0800 
 22 H        2.4750     2.1270     1.1420 H     1 <1>   0.0800 
 23 H       -2.2400     2.6030     2.0980 H     1 <1>   0.1500 
 24 H        3.7220     3.5450    -0.4490 H     1 <1>   0.0800 
 25 H        3.8160     2.1890    -1.5830 H     1 <1>   0.0800 
 26 H        6.0840     3.5860    -0.2980 H     1 <1>   0.0800 
 27 H        6.1760     2.2300    -1.4370 H     1 <1>   0.0800 
 28 H        7.1860     0.8280     0.3270 H     1 <1>   0.0800 
 29 H        7.0920     2.1600     1.4570 H     1 <1>   0.0800 
 30 H        8.6150     3.4080     0.0330 H     1 <1>   0.4500 
 31 H        8.7290     2.1390    -1.0190 H     1 <1>   0.4500 
 32 H        9.4790     1.9150     1.8060 H     1 <1>   0.0800 
 33 H       11.1750     2.6070    -0.6220 H     1 <1>   0.0800 
 34 H       11.7680     2.2870     0.9820 H     1 <1>   0.0800 
 35 H       10.7870     3.6910     0.7070 H     1 <1>   0.0800 
 36 H       10.1000     0.2640    -0.6810 H     1 <1>   0.0800 
 37 H        9.0570    -0.2290     0.6440 H     1 <1>   0.0800 
 38 H       10.7550    -0.0150     0.9060 H     1 <1>   0.0800 
@<TRIPOS>BOND
  1   1   2  1   
  2   2   3  ar  
  3   2   4  ar  
  4   3   5  1   
  5   3   6  ar  
  6   4   7  ar  
  7   4  19  1   
  8   5   8  1   
  9   6   9  1   
 10   6  10  ar  
 11   7  10  ar  
 12   7  20  1   
 13   8  11  1   
 14   8  21  1   
 15   8  22  1   
 16  10  23  1   
 17  11  12  1   
 18  11  24  1   
 19  11  25  1   
 20  12  13  1   
 21  13  14  1   
 22  13  26  1   
 23  13  27  1   
 24  14  15  1   
 25  14  28  1   
 26  14  29  1   
 27  15  16  1   
 28  15  30  1   
 29  15  31  1   
 30  16  17  1   
 31  16  18  1   
 32  16  32  1   
 33  17  33  1   
 34  17  34  1   
 35  17  35  1   
 36  18  36  1   
 37  18  37  1   
 38  18  38  1   
@<TRIPOS>SUBSTRUCTURE
  1 ****   8 GROUP 4 **** **** 0

# MOE 2024.06 (io_trps.svl 2023.06)
