@<TRIPOS>MOLECULE
NONAME
46 47 1 0 0 
SMALL
USER_CHARGES


@<TRIPOS>ATOM
  1 O       -0.6490    -0.4690     0.0190 O.2   1 <1>  -0.5700 
  2 C       -1.7520    -0.7030    -0.4210 C.2   1 <1>   0.5690 
  3 N       -2.1100    -1.9750    -0.6850 N.am  1 <1>  -0.8000 
  4 C       -2.7280     0.4450    -0.6710 C.3   1 <1>   0.1810 
  5 O       -2.0140     1.6690    -0.7550 O.3   1 <1>  -0.3630 
  6 C       -2.4140     2.6870     0.0440 C.ar  1 <1>   0.0830 
  7 C       -3.6280     3.3330    -0.2110 C.ar  1 <1>   0.0830 
  8 C       -1.5890     3.0960     1.0920 C.ar  1 <1>  -0.1430 
  9 O       -4.3920     2.8800    -1.2460 O.3   1 <1>  -0.3630 
 10 C       -4.0050     4.4040     0.5900 C.ar  1 <1>  -0.1500 
 11 C       -1.9900     4.1700     1.8740 C.ar  1 <1>  -0.1500 
 12 C       -0.2780     2.4070     1.4510 C.3   1 <1>   0.4860 
 13 C       -5.5490     3.5730    -1.6650 C.3   1 <1>   0.0400 
 14 C       -3.1860     4.8190     1.6240 C.ar  1 <1>  -0.1500 
 15 N        0.5010     2.0850     0.2430 N.4   1 <1>  -0.9060 
 16 C        1.9550     1.9670     0.4100 C.3   1 <1>   0.4230 
 17 C        2.5730     1.7600    -0.9760 C.3   1 <1>  -0.1600 
 18 C        2.2970     0.7970     1.3440 C.3   1 <1>  -0.1600 
 19 C        4.0930     1.5630    -0.8830 C.3   1 <1>  -0.1600 
 20 C        3.8160     0.5940     1.4440 C.3   1 <1>  -0.1600 
 21 C        4.4430     0.4020     0.0570 C.3   1 <1>  -0.1600 
 22 H       -1.4470    -2.7350    -0.5160 H     1 <1>   0.3700 
 23 H       -3.0150    -2.2600    -1.0660 H     1 <1>   0.3700 
 24 H       -3.4410     0.5010     0.1330 H     1 <1>   0.0800 
 25 H       -3.2480     0.3050    -1.6010 H     1 <1>   0.0800 
 26 H       -4.9290     4.9280     0.4290 H     1 <1>   0.1500 
 27 H       -1.3810     4.5170     2.6930 H     1 <1>   0.1500 
 28 H       -0.4840     1.5010     1.9990 H     1 <1>   0.0800 
 29 H        0.2950     3.0630     2.0850 H     1 <1>   0.0800 
 30 H       -5.9460     3.0700    -2.5290 H     1 <1>   0.0800 
 31 H       -5.2790     4.5820    -1.9240 H     1 <1>   0.0800 
 32 H       -6.2740     3.5590    -0.8710 H     1 <1>   0.0800 
 33 H       -3.4850     5.6520     2.2400 H     1 <1>   0.1500 
 34 H        0.2520     2.7580    -0.4860 H     1 <1>   0.4500 
 35 H        0.1270     1.1760    -0.0930 H     1 <1>   0.4500 
 36 H        2.3480     2.8790     0.8290 H     1 <1>   0.0800 
 37 H        2.3730     2.6150    -1.5980 H     1 <1>   0.0800 
 38 H        2.1410     0.8890    -1.4400 H     1 <1>   0.0800 
 39 H        1.8550    -0.1100     0.9680 H     1 <1>   0.0800 
 40 H        1.9150     0.9790     2.3320 H     1 <1>   0.0800 
 41 H        4.5560     2.4660    -0.5230 H     1 <1>   0.0800 
 42 H        4.4920     1.3610    -1.8630 H     1 <1>   0.0800 
 43 H        4.0260    -0.2700     2.0520 H     1 <1>   0.0800 
 44 H        4.2680     1.4470     1.9230 H     1 <1>   0.0800 
 45 H        5.5130     0.3260     0.1520 H     1 <1>   0.0800 
 46 H        4.0900    -0.5230    -0.3700 H     1 <1>   0.0800 
@<TRIPOS>BOND
  1   1   2  2   
  2   2   3  am  
  3   2   4  1   
  4   3  22  1   
  5   3  23  1   
  6   4   5  1   
  7   4  24  1   
  8   4  25  1   
  9   5   6  1   
 10   6   7  ar  
 11   6   8  ar  
 12   7   9  1   
 13   7  10  ar  
 14   8  11  ar  
 15   8  12  1   
 16   9  13  1   
 17  10  14  ar  
 18  10  26  1   
 19  11  14  ar  
 20  11  27  1   
 21  12  15  1   
 22  12  28  1   
 23  12  29  1   
 24  13  30  1   
 25  13  31  1   
 26  13  32  1   
 27  14  33  1   
 28  15  16  1   
 29  15  34  1   
 30  15  35  1   
 31  16  17  1   
 32  16  18  1   
 33  16  36  1   
 34  17  19  1   
 35  17  37  1   
 36  17  38  1   
 37  18  20  1   
 38  18  39  1   
 39  18  40  1   
 40  19  21  1   
 41  19  41  1   
 42  19  42  1   
 43  20  21  1   
 44  20  43  1   
 45  20  44  1   
 46  21  45  1   
 47  21  46  1   
@<TRIPOS>SUBSTRUCTURE
  1 ****  15 GROUP 4 **** **** 0

# MOE 2024.06 (io_trps.svl 2023.06)
