@<TRIPOS>MOLECULE
NONAME
32 33 1 0 0 
SMALL
USER_CHARGES


@<TRIPOS>ATOM
  1 O       -0.2050     0.8330    -1.7550 O.2   1 <1>  -0.5700 
  2 C       -0.1110     1.7340    -0.9420 C.2   1 <1>   0.5440 
  3 N        1.1400     2.1280    -0.5320 N.am  1 <1>  -0.6600 
  4 C       -1.2990     2.3790    -0.4130 C.ar  1 <1>   0.0860 
  5 C        1.4120     3.0770     0.5670 C.3   1 <1>   0.1400 
  6 C        2.3820     1.4900    -1.0130 C.3   1 <1>   0.1400 
  7 C       -2.1590     1.7440     0.4890 C.ar  1 <1>  -0.1440 
  8 C       -1.5980     3.6860    -0.7970 C.ar  1 <1>  -0.1500 
  9 C        2.8600     2.8050     0.9580 C.3   1 <1>  -0.1600 
 10 C        3.5040     2.2460    -0.3090 C.3   1 <1>  -0.1600 
 11 C       -3.2680     2.4120     0.9820 C.ar  1 <1>  -0.1500 
 12 C       -1.8870     0.3140     0.9370 C.3   1 <1>  -0.0970 
 13 C       -2.7040     4.3550    -0.3040 C.ar  1 <1>  -0.1430 
 14 C       -3.5390     3.7100     0.5900 C.ar  1 <1>  -0.1500 
 15 C       -3.0100     5.7780    -0.7360 C.3   1 <1>  -0.0970 
 16 H        0.7410     2.9190     1.3950 H     1 <1>   0.0800 
 17 H        1.3050     4.0830     0.1970 H     1 <1>   0.0800 
 18 H        2.4570     1.5630    -2.0840 H     1 <1>   0.0800 
 19 H        2.3780     0.4530    -0.7220 H     1 <1>   0.0800 
 20 H       -0.9430     4.1710    -1.4970 H     1 <1>   0.1500 
 21 H        2.8770     2.0610     1.7350 H     1 <1>   0.0800 
 22 H        3.3530     3.6930     1.3130 H     1 <1>   0.0800 
 23 H        3.8290     3.0530    -0.9420 H     1 <1>   0.0800 
 24 H        4.3430     1.6070    -0.0970 H     1 <1>   0.0800 
 25 H       -3.9320     1.9250     1.6750 H     1 <1>   0.1500 
 26 H       -0.9050     0.2420     1.3700 H     1 <1>   0.0800 
 27 H       -1.9380    -0.3490     0.0910 H     1 <1>   0.0800 
 28 H       -2.6060    -0.0100     1.6670 H     1 <1>   0.0800 
 29 H       -4.4050     4.2150     0.9820 H     1 <1>   0.1500 
 30 H       -2.1890     6.1970    -1.2880 H     1 <1>   0.0800 
 31 H       -3.1920     6.3940     0.1270 H     1 <1>   0.0800 
 32 H       -3.8850     5.7870    -1.3600 H     1 <1>   0.0800 
@<TRIPOS>BOND
  1   1   2  2   
  2   2   3  am  
  3   2   4  1   
  4   3   5  1   
  5   3   6  1   
  6   4   7  ar  
  7   4   8  ar  
  8   5   9  1   
  9   5  16  1   
 10   5  17  1   
 11   6  10  1   
 12   6  18  1   
 13   6  19  1   
 14   7  11  ar  
 15   7  12  1   
 16   8  13  ar  
 17   8  20  1   
 18   9  10  1   
 19   9  21  1   
 20   9  22  1   
 21  10  23  1   
 22  10  24  1   
 23  11  14  ar  
 24  11  25  1   
 25  12  26  1   
 26  12  27  1   
 27  12  28  1   
 28  13  14  ar  
 29  13  15  1   
 30  14  29  1   
 31  15  30  1   
 32  15  31  1   
 33  15  32  1   
@<TRIPOS>SUBSTRUCTURE
  1 ****   4 GROUP 4 **** **** 0

# MOE 2024.06 (io_trps.svl 2023.06)
