@<TRIPOS>MOLECULE
NONAME
45 46 1 0 0 
SMALL
USER_CHARGES


@<TRIPOS>ATOM
  1 S       -0.1400     0.5290     0.5450 S.3   1 <1>  -0.0800 
  2 C       -1.0070     1.2970    -0.7700 C.2   1 <1>   0.0600 
  3 C        1.4340     0.7940    -0.2100 C.2   1 <1>  -0.0450 
  4 C       -2.4290     1.3770    -0.6810 C.1   1 <1>  -0.0200 
  5 C       -0.1260     1.7090    -1.7050 C.2   1 <1>  -0.1500 
  6 C        2.6150     0.3350     0.4790 C.2   1 <1>   0.7150 
  7 C        1.2340     1.4270    -1.3960 C.2   1 <1>  -0.1500 
  8 C       -3.6170     1.4390    -0.5960 C.1   1 <1>  -0.2000 
  9 O        2.5780    -0.5810     1.2740 O.2   1 <1>  -0.5700 
 10 N        3.8400     0.8930     0.2880 N.am  1 <1>  -0.7300 
 11 C       -5.1060     1.5120    -0.4730 C.3   1 <1>   0.4800 
 12 C        4.1430     2.2860    -0.1140 C.3   1 <1>   0.1400 
 13 O       -5.1690     0.1550    -0.6220 O.3   1 <1>  -0.6800 
 14 C       -5.5130     1.3600     1.0350 C.3   1 <1>  -0.2400 
 15 C       -5.1090     3.0640    -0.4120 C.3   1 <1>  -0.2400 
 16 C        4.9250     2.9890     0.9940 C.3   1 <1>  -0.0170 
 17 C        5.1840     4.4320     0.6000 C.ar  1 <1>  -0.1430 
 18 C        6.3340     4.7730    -0.0960 C.ar  1 <1>  -0.1500 
 19 C        4.2670     5.4200     0.9240 C.ar  1 <1>  -0.1500 
 20 C        6.5610     6.0870    -0.4650 C.ar  1 <1>  -0.1500 
 21 C        4.4920     6.7360     0.5570 C.ar  1 <1>  -0.1500 
 22 C        5.6460     7.0760    -0.1430 C.ar  1 <1>   0.0830 
 23 O        5.9440     8.3370    -0.5430 O.3   1 <1>  -0.3630 
 24 C        5.0880     9.4190    -0.2510 C.3   1 <1>   0.0400 
 25 H       -0.3990     2.2100    -2.6170 H     1 <1>   0.1500 
 26 H        2.0180     1.7030    -2.0800 H     1 <1>   0.1500 
 27 H        4.5870     0.4030     0.7830 H     1 <1>   0.3700 
 28 H        3.2320     2.8300    -0.2960 H     1 <1>   0.0800 
 29 H        4.7220     2.2780    -1.0220 H     1 <1>   0.0800 
 30 H       -4.2540    -0.1720    -0.5400 H     1 <1>   0.4000 
 31 H       -5.0820     0.5000     1.5290 H     1 <1>   0.0800 
 32 H       -6.5830     1.2680     1.0900 H     1 <1>   0.0800 
 33 H       -5.2440     2.1720     1.6880 H     1 <1>   0.0800 
 34 H       -4.8690     3.4590    -1.3840 H     1 <1>   0.0800 
 35 H       -4.4150     3.5100     0.2850 H     1 <1>   0.0800 
 36 H       -6.0950     3.4300    -0.1820 H     1 <1>   0.0800 
 37 H        5.8610     2.4860     1.1590 H     1 <1>   0.0800 
 38 H        4.3590     2.9630     1.9090 H     1 <1>   0.0800 
 39 H        7.0580     4.0210    -0.3560 H     1 <1>   0.1500 
 40 H        3.3710     5.1700     1.4650 H     1 <1>   0.1500 
 41 H        7.4500     6.3560    -1.0040 H     1 <1>   0.1500 
 42 H        3.7640     7.4770     0.8240 H     1 <1>   0.1500 
 43 H        5.5300    10.3120    -0.6560 H     1 <1>   0.0800 
 44 H        4.9930     9.5100     0.8160 H     1 <1>   0.0800 
 45 H        4.1320     9.2420    -0.7120 H     1 <1>   0.0800 
@<TRIPOS>BOND
  1   1   2  1   
  2   1   3  1   
  3   2   4  1   
  4   2   5  2   
  5   3   6  1   
  6   3   7  2   
  7   4   8  3   
  8   5   7  1   
  9   5  25  1   
 10   6   9  2   
 11   6  10  am  
 12   7  26  1   
 13   8  11  1   
 14  10  12  1   
 15  10  27  1   
 16  11  13  1   
 17  11  14  1   
 18  11  15  1   
 19  12  16  1   
 20  12  28  1   
 21  12  29  1   
 22  13  30  1   
 23  14  31  1   
 24  14  32  1   
 25  14  33  1   
 26  15  34  1   
 27  15  35  1   
 28  15  36  1   
 29  16  17  1   
 30  16  37  1   
 31  16  38  1   
 32  17  18  ar  
 33  17  19  ar  
 34  18  20  ar  
 35  18  39  1   
 36  19  21  ar  
 37  19  40  1   
 38  20  22  ar  
 39  20  41  1   
 40  21  22  ar  
 41  21  42  1   
 42  22  23  1   
 43  23  24  1   
 44  24  43  1   
 45  24  44  1   
 46  24  45  1   
@<TRIPOS>SUBSTRUCTURE
  1 ****   7 GROUP 4 **** **** 0

# MOE 2024.06 (io_trps.svl 2023.06)
