@<TRIPOS>MOLECULE
NONAME
33 34 1 0 0 
SMALL
USER_CHARGES


@<TRIPOS>ATOM
  1 O        0.5320     0.5410     0.2400 O.3   1 <1>  -0.3630 
  2 C       -0.6910     1.1160     0.0960 C.ar  1 <1>   0.0830 
  3 C        1.7050     1.2280    -0.1220 C.3   1 <1>   0.1200 
  4 C       -0.8930     2.3960    -0.4160 C.ar  1 <1>  -0.1500 
  5 C       -1.7830     0.3610     0.4910 C.ar  1 <1>  -0.1500 
  6 C        2.8930     0.3130     0.1710 C.3   1 <1>  -0.1600 
  7 C       -2.1770     2.8990    -0.5260 C.ar  1 <1>  -0.1500 
  8 C       -3.0670     0.8640     0.3820 C.ar  1 <1>  -0.1500 
  9 C        4.2150     0.9980    -0.1910 C.3   1 <1>   0.0960 
 10 C       -3.2690     2.1430    -0.1300 C.ar  1 <1>   0.0830 
 11 N        5.3520     0.1040     0.0950 N.pl3 1 <1>   0.0480 
 12 O       -4.4920     2.7170    -0.2730 O.3   1 <1>  -0.3630 
 13 C        6.0880     0.0340     1.2270 C.2   1 <1>   0.0360 
 14 C        5.8900    -0.8230    -0.7180 C.2   1 <1>  -0.3020 
 15 C       -5.6650     2.0300     0.0990 C.3   1 <1>   0.0400 
 16 N        7.0320    -0.8490     1.1880 N.2   1 <1>  -0.5650 
 17 C        6.9090    -1.3920    -0.0370 C.2   1 <1>   0.0770 
 18 H        1.7610     2.1310     0.4620 H     1 <1>   0.0800 
 19 H        1.6480     1.4610    -1.1720 H     1 <1>   0.0800 
 20 H       -0.0730     3.0110    -0.7330 H     1 <1>   0.1500 
 21 H       -1.6180    -0.6260     0.8860 H     1 <1>   0.1500 
 22 H        2.7890    -0.5900    -0.4050 H     1 <1>   0.0800 
 23 H        2.8930     0.0650     1.2180 H     1 <1>   0.0800 
 24 H       -2.3440     3.8850    -0.9200 H     1 <1>   0.1500 
 25 H       -3.8890     0.2510     0.6980 H     1 <1>   0.1500 
 26 H        4.3360     1.9010     0.3790 H     1 <1>   0.0800 
 27 H        4.2320     1.2470    -1.2380 H     1 <1>   0.0800 
 28 H        5.8910     0.6650     2.0760 H     1 <1>   0.1500 
 29 H        5.5310    -1.0260    -1.7100 H     1 <1>   0.1500 
 30 H       -6.5050     2.6700    -0.1010 H     1 <1>   0.0800 
 31 H       -5.6190     1.8050     1.1500 H     1 <1>   0.0800 
 32 H       -5.7440     1.1310    -0.4860 H     1 <1>   0.0800 
 33 H        7.5700    -2.1750    -0.3690 H     1 <1>   0.1500 
@<TRIPOS>BOND
  1   1   2  1   
  2   1   3  1   
  3   2   4  ar  
  4   2   5  ar  
  5   3   6  1   
  6   3  18  1   
  7   3  19  1   
  8   4   7  ar  
  9   4  20  1   
 10   5   8  ar  
 11   5  21  1   
 12   6   9  1   
 13   6  22  1   
 14   6  23  1   
 15   7  10  ar  
 16   7  24  1   
 17   8  10  ar  
 18   8  25  1   
 19   9  11  1   
 20   9  26  1   
 21   9  27  1   
 22  10  12  1   
 23  11  13  1   
 24  11  14  1   
 25  12  15  1   
 26  13  16  2   
 27  13  28  1   
 28  14  17  2   
 29  14  29  1   
 30  15  30  1   
 31  15  31  1   
 32  15  32  1   
 33  16  17  1   
 34  17  33  1   
@<TRIPOS>SUBSTRUCTURE
  1 ****   1 GROUP 4 **** **** 0

# MOE 2024.06 (io_trps.svl 2023.06)
