@<TRIPOS>MOLECULE
NONAME
37 39 1 0 0 
SMALL
USER_CHARGES


@<TRIPOS>ATOM
  1 S       -7.9020    -2.7120     0.1450 S.3   1 <1>  -0.0800 
  2 C       -6.3550    -1.8880     0.3360 C.ar  1 <1>   0.2970 
  3 C       -8.7380    -1.1890    -0.1760 C.2   1 <1>  -0.1400 
  4 N       -5.2300    -2.5190     0.5980 N.ar  1 <1>  -0.5670 
  5 C       -6.5100    -0.5350     0.1720 C.ar  1 <1>   0.0000 
  6 C       -7.8680    -0.1630    -0.1270 C.2   1 <1>  -0.1500 
  7 C      -10.2290    -1.2870    -0.4470 C.3   1 <1>   0.0200 
  8 C       -4.2060    -1.6930     0.6900 C.ar  1 <1>   0.4700 
  9 C       -5.3430     0.2190     0.3160 C.ar  1 <1>   0.4100 
 10 C      -10.8580     0.0840    -0.7110 C.3   1 <1>  -0.2400 
 11 N       -4.1850    -0.3730     0.5660 N.ar  1 <1>  -0.6200 
 12 N       -5.3420     1.5960     0.2260 N.pl3 1 <1>  -0.8380 
 13 C       -6.0730     2.3620     1.2700 C.3   1 <1>   0.2090 
 14 C       -4.1570     2.2630    -0.3810 C.3   1 <1>   0.2090 
 15 C       -6.9760     3.4130     0.6190 C.3   1 <1>  -0.1600 
 16 C       -4.5120     3.5800    -1.0820 C.3   1 <1>  -0.1600 
 17 C       -6.3020     4.7710     0.3560 C.3   1 <1>  -0.1600 
 18 C       -4.8370     4.7210    -0.1040 C.3   1 <1>  -0.1600 
 19 H       -8.1100     0.8690    -0.2960 H     1 <1>   0.1500 
 20 H      -10.7100    -1.7430     0.4010 H     1 <1>   0.0800 
 21 H      -10.3880    -1.9220    -1.3010 H     1 <1>   0.0800 
 22 H       -3.2540    -2.1530     0.8970 H     1 <1>   0.1500 
 23 H      -10.7240     0.7250     0.1430 H     1 <1>   0.0800 
 24 H      -11.9110    -0.0240    -0.8990 H     1 <1>   0.0800 
 25 H      -10.4000     0.5440    -1.5690 H     1 <1>   0.0800 
 26 H       -5.3760     2.8220     1.9500 H     1 <1>   0.0800 
 27 H       -6.6830     1.6820     1.8410 H     1 <1>   0.0800 
 28 H       -3.7250     1.5990    -1.1100 H     1 <1>   0.0800 
 29 H       -3.4160     2.4340     0.3820 H     1 <1>   0.0800 
 30 H       -7.8200     3.5820     1.2630 H     1 <1>   0.0800 
 31 H       -7.3570     3.0210    -0.3060 H     1 <1>   0.0800 
 32 H       -5.3150     3.4230    -1.7810 H     1 <1>   0.0800 
 33 H       -3.6490     3.8730    -1.6510 H     1 <1>   0.0800 
 34 H       -6.3480     5.3630     1.2540 H     1 <1>   0.0800 
 35 H       -6.8820     5.2880    -0.3890 H     1 <1>   0.0800 
 36 H       -4.6100     5.6600    -0.5800 H     1 <1>   0.0800 
 37 H       -4.1930     4.6440     0.7550 H     1 <1>   0.0800 
@<TRIPOS>BOND
  1   1   2  1   
  2   1   3  1   
  3   2   4  ar  
  4   2   5  ar  
  5   3   6  2   
  6   3   7  1   
  7   4   8  ar  
  8   5   6  1   
  9   5   9  ar  
 10   6  19  1   
 11   7  10  1   
 12   7  20  1   
 13   7  21  1   
 14   8  11  ar  
 15   8  22  1   
 16   9  11  ar  
 17   9  12  1   
 18  10  23  1   
 19  10  24  1   
 20  10  25  1   
 21  12  13  1   
 22  12  14  1   
 23  13  15  1   
 24  13  26  1   
 25  13  27  1   
 26  14  16  1   
 27  14  28  1   
 28  14  29  1   
 29  15  17  1   
 30  15  30  1   
 31  15  31  1   
 32  16  18  1   
 33  16  32  1   
 34  16  33  1   
 35  17  18  1   
 36  17  34  1   
 37  17  35  1   
 38  18  36  1   
 39  18  37  1   
@<TRIPOS>SUBSTRUCTURE
  1 ****   5 GROUP 4 **** **** 0

# MOE 2024.06 (io_trps.svl 2023.06)
