@<TRIPOS>MOLECULE
NONAME
42 43 1 0 0 
SMALL
USER_CHARGES


@<TRIPOS>ATOM
  1 S        0.4180     0.4690     0.5640 S.o2  1 <1>   1.4470 
  2 O        0.8500    -0.0830     1.8270 O.2   1 <1>  -0.6500 
  3 O        0.7180     1.8530     0.2830 O.2   1 <1>  -0.6500 
  4 N        1.2700    -0.3560    -0.6220 N.am  1 <1>  -0.9140 
  5 C       -1.3370     0.1440     0.2380 C.ar  1 <1>  -0.0090 
  6 C        1.3930    -1.7980    -0.3790 C.3   1 <1>   0.3390 
  7 C       -2.0840    -0.6890     1.0640 C.ar  1 <1>  -0.1500 
  8 C       -1.9730     0.7010    -0.8660 C.ar  1 <1>  -0.1500 
  9 C        0.0910    -2.5620    -0.6210 C.ar  1 <1>   0.1660 
 10 C       -3.4140    -0.9660     0.8000 C.ar  1 <1>  -0.1500 
 11 C       -3.3020     0.4300    -1.1400 C.ar  1 <1>  -0.1500 
 12 N       -0.2810    -3.4170     0.3230 N.ar  1 <1>  -0.6200 
 13 C       -0.6280    -2.3400    -1.7880 C.ar  1 <1>  -0.1500 
 14 C       -4.0320    -0.4080    -0.3150 C.ar  1 <1>   0.0830 
 15 C       -1.4140    -4.0640     0.0980 C.ar  1 <1>   0.1600 
 16 C       -1.8080    -3.0180    -2.0060 C.ar  1 <1>  -0.1500 
 17 O       -5.3220    -0.6360    -0.6570 O.3   1 <1>  -0.3630 
 18 C       -2.2030    -3.9040    -1.0280 C.ar  1 <1>  -0.1500 
 19 C       -6.1450    -1.4860     0.1080 C.3   1 <1>   0.1200 
 20 C       -7.5200    -1.5510    -0.5570 C.3   1 <1>  -0.1600 
 21 C       -8.4690    -2.4700     0.2210 C.3   1 <1>  -0.1600 
 22 C       -9.8450    -2.5320    -0.4480 C.3   1 <1>  -0.2400 
 23 H        2.1980     0.0500    -0.5430 H     1 <1>   0.4200 
 24 H        1.7410    -1.9870     0.6230 H     1 <1>   0.0800 
 25 H        2.1310    -2.1980    -1.0510 H     1 <1>   0.0800 
 26 H       -1.6110    -1.1390     1.9220 H     1 <1>   0.1500 
 27 H       -1.4180     1.3540    -1.5180 H     1 <1>   0.1500 
 28 H       -3.9440    -1.6190     1.4670 H     1 <1>   0.1500 
 29 H       -3.7830     0.8650    -1.9980 H     1 <1>   0.1500 
 30 H       -0.2720    -1.6330    -2.5160 H     1 <1>   0.1500 
 31 H       -1.7320    -4.7610     0.8540 H     1 <1>   0.1500 
 32 H       -2.3940    -2.8590    -2.8950 H     1 <1>   0.1500 
 33 H       -3.1140    -4.4640    -1.1360 H     1 <1>   0.1500 
 34 H       -6.2220    -1.0780     1.1020 H     1 <1>   0.0800 
 35 H       -5.6910    -2.4610     0.1370 H     1 <1>   0.0800 
 36 H       -7.4060    -1.9200    -1.5610 H     1 <1>   0.0800 
 37 H       -7.9360    -0.5590    -0.5990 H     1 <1>   0.0800 
 38 H       -8.5830    -2.1050     1.2280 H     1 <1>   0.0800 
 39 H       -8.0560    -3.4630     0.2690 H     1 <1>   0.0800 
 40 H      -10.2890    -1.5530    -0.4870 H     1 <1>   0.0800 
 41 H      -10.4980    -3.1800     0.1110 H     1 <1>   0.0800 
 42 H       -9.7600    -2.9140    -1.4500 H     1 <1>   0.0800 
@<TRIPOS>BOND
  1   1   2  2   
  2   1   3  2   
  3   1   4  am  
  4   1   5  1   
  5   4   6  1   
  6   4  23  1   
  7   5   7  ar  
  8   5   8  ar  
  9   6   9  1   
 10   6  24  1   
 11   6  25  1   
 12   7  10  ar  
 13   7  26  1   
 14   8  11  ar  
 15   8  27  1   
 16   9  12  ar  
 17   9  13  ar  
 18  10  14  ar  
 19  10  28  1   
 20  11  14  ar  
 21  11  29  1   
 22  12  15  ar  
 23  13  16  ar  
 24  13  30  1   
 25  14  17  1   
 26  15  18  ar  
 27  15  31  1   
 28  16  18  ar  
 29  16  32  1   
 30  17  19  1   
 31  18  33  1   
 32  19  20  1   
 33  19  34  1   
 34  19  35  1   
 35  20  21  1   
 36  20  36  1   
 37  20  37  1   
 38  21  22  1   
 39  21  38  1   
 40  21  39  1   
 41  22  40  1   
 42  22  41  1   
 43  22  42  1   
@<TRIPOS>SUBSTRUCTURE
  1 ****  10 GROUP 4 **** **** 0

# MOE 2024.06 (io_trps.svl 2023.06)
