@<TRIPOS>MOLECULE
NONAME
34 34 1 0 0 
SMALL
USER_CHARGES


@<TRIPOS>ATOM
  1 O       -0.0690     0.0470    -0.0190 O.3   1 <1>  -0.3630 
  2 C        0.0490    -1.3000     0.1530 C.ar  1 <1>   0.0830 
  3 C        1.0690     0.8760    -0.0610 C.3   1 <1>   0.2580 
  4 C        1.1110    -2.0950    -0.3060 C.ar  1 <1>   0.0830 
  5 C       -0.9960    -1.8920     0.8420 C.ar  1 <1>  -0.1500 
  6 C        0.6330     2.2880     0.2830 C.2   1 <1>  -0.2880 
  7 O        2.1260    -1.5290    -1.0230 O.3   1 <1>  -0.3630 
  8 C        1.0960    -3.4610    -0.0300 C.ar  1 <1>  -0.1500 
  9 C       -1.0000    -3.2500     1.1010 C.ar  1 <1>  -0.1500 
 10 C        1.1170     3.0280     1.2860 C.2   1 <1>  -0.3000 
 11 C        3.0980    -2.3080    -1.6870 C.3   1 <1>   0.0400 
 12 C        0.0490    -4.0460     0.6710 C.ar  1 <1>  -0.1430 
 13 C        0.0390    -5.5420     0.9660 C.3   1 <1>   0.3430 
 14 O        1.2270    -5.8530     1.5900 O.3   1 <1>  -0.6800 
 15 C       -0.0810    -6.4170    -0.2880 C.3   1 <1>  -0.1600 
 16 C       -1.3910    -6.1800    -1.0550 C.3   1 <1>  -0.2400 
 17 H        1.4770     0.8410    -1.0560 H     1 <1>   0.0800 
 18 H        1.7900     0.5110     0.6490 H     1 <1>   0.0800 
 19 H       -1.8100    -1.2760     1.1790 H     1 <1>   0.1500 
 20 H       -0.1340     2.6420    -0.3840 H     1 <1>   0.1500 
 21 H        1.8970    -4.0990    -0.3520 H     1 <1>   0.1500 
 22 H       -1.8270    -3.6800     1.6400 H     1 <1>   0.1500 
 23 H        0.7860     4.0270     1.5070 H     1 <1>   0.1500 
 24 H        1.8810     2.6970     1.9690 H     1 <1>   0.1500 
 25 H        3.7270    -1.6460    -2.2540 H     1 <1>   0.0800 
 26 H        3.6860    -2.8320    -0.9550 H     1 <1>   0.0800 
 27 H        2.6010    -2.9960    -2.3490 H     1 <1>   0.0800 
 28 H       -0.7550    -5.7800     1.6530 H     1 <1>   0.0800 
 29 H        1.4350    -5.1390     2.2220 H     1 <1>   0.4000 
 30 H       -0.0360    -7.4510     0.0090 H     1 <1>   0.0800 
 31 H        0.7480    -6.2190    -0.9430 H     1 <1>   0.0800 
 32 H       -2.2390    -6.3730    -0.4220 H     1 <1>   0.0800 
 33 H       -1.4420    -6.8380    -1.9050 H     1 <1>   0.0800 
 34 H       -1.4450    -5.1650    -1.4080 H     1 <1>   0.0800 
@<TRIPOS>BOND
  1   1   2  1   
  2   1   3  1   
  3   2   4  ar  
  4   2   5  ar  
  5   3   6  1   
  6   3  17  1   
  7   3  18  1   
  8   4   7  1   
  9   4   8  ar  
 10   5   9  ar  
 11   5  19  1   
 12   6  10  2   
 13   6  20  1   
 14   7  11  1   
 15   8  12  ar  
 16   8  21  1   
 17   9  12  ar  
 18   9  22  1   
 19  10  23  1   
 20  10  24  1   
 21  11  25  1   
 22  11  26  1   
 23  11  27  1   
 24  12  13  1   
 25  13  14  1   
 26  13  15  1   
 27  13  28  1   
 28  14  29  1   
 29  15  16  1   
 30  15  30  1   
 31  15  31  1   
 32  16  32  1   
 33  16  33  1   
 34  16  34  1   
@<TRIPOS>SUBSTRUCTURE
  1 ****   4 GROUP 4 **** **** 0

# MOE 2024.06 (io_trps.svl 2023.06)
