@<TRIPOS>MOLECULE
NONAME
51 54 1 0 0 
SMALL
USER_CHARGES


@<TRIPOS>ATOM
  1 O        0.1760     3.8740     0.5950 O.2   1 <1>  -0.5700 
  2 C       -0.2500     2.7470     0.4680 C.2   1 <1>   0.5690 
  3 N        0.5820     1.6890     0.3000 N.am  1 <1>  -0.7300 
  4 C       -1.7760     2.5070     0.5030 C.3   1 <1>   0.0610 
  5 C        2.0270     1.6810     0.0550 C.3   1 <1>   0.1140 
  6 C       -2.1560     1.0570     0.0970 C.3   1 <1>  -0.1600 
  7 C       -2.4930     3.4730    -0.4700 C.3   1 <1>  -0.1600 
  8 C       -2.3140     2.7570     1.9310 C.3   1 <1>  -0.1600 
  9 C        2.4570     0.3820    -0.6950 C.2   1 <1>   0.9060 
 10 C        2.7400     1.8440     1.4040 C.3   1 <1>  -0.2400 
 11 C       -3.6830     0.8080     0.1320 C.3   1 <1>   0.1440 
 12 C       -4.0170     3.2670    -0.4250 C.3   1 <1>  -0.0800 
 13 C       -3.8370     2.5460     1.9860 C.3   1 <1>  -0.0800 
 14 O        3.6160     0.3280    -1.1630 O.co2 1 <1>  -0.9000 
 15 O        1.5940    -0.5310    -0.7820 O.co2 1 <1>  -0.9000 
 16 C       -4.0640    -0.6340    -0.2740 C.ar  1 <1>  -0.1440 
 17 C       -4.3450     1.8180    -0.8320 C.3   1 <1>  -0.1600 
 18 C       -4.1660     1.0990     1.5720 C.3   1 <1>  -0.1600 
 19 C       -4.5200     3.5190     1.0080 C.3   1 <1>  -0.1600 
 20 C       -3.1240    -1.5910    -0.6480 C.ar  1 <1>  -0.1500 
 21 C       -5.4020    -1.0160    -0.2740 C.ar  1 <1>  -0.1500 
 22 C       -3.5070    -2.8720    -1.0040 C.ar  1 <1>  -0.1500 
 23 C       -5.7880    -2.2970    -0.6300 C.ar  1 <1>  -0.1500 
 24 C       -4.8410    -3.2350    -0.9990 C.ar  1 <1>  -0.1440 
 25 C       -5.2510    -4.6430    -1.3900 C.3   1 <1>  -0.0970 
 26 H        0.1920     0.7720     0.1030 H     1 <1>   0.3700 
 27 H        2.2910     2.5200    -0.5880 H     1 <1>   0.0800 
 28 H       -1.6790     0.3660     0.7690 H     1 <1>   0.0800 
 29 H       -1.7870     0.8690    -0.8970 H     1 <1>   0.0800 
 30 H       -2.1300     3.3110    -1.4700 H     1 <1>   0.0800 
 31 H       -2.2620     4.4910    -0.2050 H     1 <1>   0.0800 
 32 H       -1.8260     2.0900     2.6210 H     1 <1>   0.0800 
 33 H       -2.0760     3.7630     2.2320 H     1 <1>   0.0800 
 34 H        2.4780     1.0110     2.0560 H     1 <1>   0.0800 
 35 H        2.4410     2.7850     1.8660 H     1 <1>   0.0800 
 36 H        3.8180     1.8460     1.2380 H     1 <1>   0.0800 
 37 H       -4.4950     3.9520    -1.1050 H     1 <1>   0.0800 
 38 H       -4.1910     2.7270     2.9860 H     1 <1>   0.0800 
 39 H       -3.9990     1.6340    -1.8340 H     1 <1>   0.0800 
 40 H       -5.4120     1.6910    -0.8320 H     1 <1>   0.0800 
 41 H       -3.6970     0.4100     2.2520 H     1 <1>   0.0800 
 42 H       -5.2280     0.9520     1.6480 H     1 <1>   0.0800 
 43 H       -5.5870     3.3890     1.0480 H     1 <1>   0.0800 
 44 H       -4.3040     4.5340     1.2950 H     1 <1>   0.0800 
 45 H       -2.0700    -1.3740    -0.6740 H     1 <1>   0.1500 
 46 H       -6.1680    -0.3160     0.0050 H     1 <1>   0.1500 
 47 H       -2.7520    -3.5850    -1.2860 H     1 <1>   0.1500 
 48 H       -6.8310    -2.5580    -0.6170 H     1 <1>   0.1500 
 49 H       -4.6690    -4.9770    -2.2300 H     1 <1>   0.0800 
 50 H       -6.2910    -4.6750    -1.6630 H     1 <1>   0.0800 
 51 H       -5.0870    -5.3100    -0.5640 H     1 <1>   0.0800 
@<TRIPOS>BOND
  1   1   2  2   
  2   2   3  am  
  3   2   4  1   
  4   3   5  1   
  5   3  26  1   
  6   4   6  1   
  7   4   7  1   
  8   4   8  1   
  9   5   9  1   
 10   5  10  1   
 11   5  27  1   
 12   6  11  1   
 13   6  28  1   
 14   6  29  1   
 15   7  12  1   
 16   7  30  1   
 17   7  31  1   
 18   8  13  1   
 19   8  32  1   
 20   8  33  1   
 21   9  14  ar  
 22   9  15  ar  
 23  10  34  1   
 24  10  35  1   
 25  10  36  1   
 26  11  16  1   
 27  11  17  1   
 28  11  18  1   
 29  12  17  1   
 30  12  19  1   
 31  12  37  1   
 32  13  18  1   
 33  13  19  1   
 34  13  38  1   
 35  16  20  ar  
 36  16  21  ar  
 37  17  39  1   
 38  17  40  1   
 39  18  41  1   
 40  18  42  1   
 41  19  43  1   
 42  19  44  1   
 43  20  22  ar  
 44  20  45  1   
 45  21  23  ar  
 46  21  46  1   
 47  22  24  ar  
 48  22  47  1   
 49  23  24  ar  
 50  23  48  1   
 51  24  25  1   
 52  25  49  1   
 53  25  50  1   
 54  25  51  1   
@<TRIPOS>SUBSTRUCTURE
  1 ****   6 GROUP 4 **** **** 0

# MOE 2024.06 (io_trps.svl 2023.06)
