@<TRIPOS>MOLECULE
NONAME
37 38 1 0 0 
SMALL
USER_CHARGES


@<TRIPOS>ATOM
  1 O       -0.0370    -0.1810     1.4130 O.2   1 <1>  -0.5700 
  2 C       -0.1100    -0.9780     0.4990 C.2   1 <1>   0.6900 
  3 N        0.9910    -1.4500    -0.1500 N.am  1 <1>  -0.5470 
  4 N       -1.3140    -1.4460     0.0920 N.am  1 <1>  -0.7300 
  5 C        2.3470    -1.1020    -0.0570 C.ar  1 <1>   0.1170 
  6 C       -2.6110    -1.0560     0.6690 C.3   1 <1>   0.2200 
  7 C        3.3280    -2.0330    -0.4090 C.ar  1 <1>  -0.1430 
  8 C        2.7510     0.1640     0.3550 C.ar  1 <1>  -0.1500 
  9 C       -3.4470    -2.3100     0.8840 C.3   1 <1>  -0.1600 
 10 C       -3.4020    -0.2830    -0.3790 C.3   1 <1>  -0.1600 
 11 C        4.6680    -1.6850    -0.3390 C.ar  1 <1>  -0.1500 
 12 C        2.9570    -3.4380    -0.8660 C.3   1 <1>  -0.0970 
 13 C        4.0890     0.5020     0.4230 C.ar  1 <1>  -0.1500 
 14 C       -4.0630    -2.6430    -0.4800 C.3   1 <1>  -0.1600 
 15 C       -4.0330    -1.3410    -1.2920 C.3   1 <1>  -0.1600 
 16 C        5.0580    -0.4230     0.0770 C.ar  1 <1>  -0.1430 
 17 C        6.5290    -0.0580     0.1490 C.3   1 <1>  -0.0970 
 18 H        0.8090    -2.2720    -0.7110 H     1 <1>   0.3700 
 19 H       -1.3880    -1.9630    -0.7780 H     1 <1>   0.3700 
 20 H       -2.4750    -0.4930     1.5790 H     1 <1>   0.0800 
 21 H        2.0130     0.8980     0.6240 H     1 <1>   0.1500 
 22 H       -4.2380    -2.0750     1.5760 H     1 <1>   0.0800 
 23 H       -2.8680    -3.1210     1.2910 H     1 <1>   0.0800 
 24 H       -2.7880     0.4210    -0.9140 H     1 <1>   0.0800 
 25 H       -4.1850     0.2590     0.1210 H     1 <1>   0.0800 
 26 H        5.4240    -2.4010    -0.6100 H     1 <1>   0.1500 
 27 H        2.3480    -3.9190    -0.1210 H     1 <1>   0.0800 
 28 H        3.8360    -4.0390    -1.0160 H     1 <1>   0.0800 
 29 H        2.4170    -3.3940    -1.7940 H     1 <1>   0.0800 
 30 H        4.3690     1.4880     0.7480 H     1 <1>   0.1500 
 31 H       -5.0690    -3.0120    -0.3660 H     1 <1>   0.0800 
 32 H       -3.4740    -3.3940    -0.9760 H     1 <1>   0.0800 
 33 H       -3.4270    -1.4750    -2.1710 H     1 <1>   0.0800 
 34 H       -5.0220    -1.0430    -1.5950 H     1 <1>   0.0800 
 35 H        7.1140    -0.9160     0.4280 H     1 <1>   0.0800 
 36 H        6.6900     0.7140     0.8790 H     1 <1>   0.0800 
 37 H        6.8620     0.2950    -0.8100 H     1 <1>   0.0800 
@<TRIPOS>BOND
  1   1   2  2   
  2   2   3  am  
  3   2   4  am  
  4   3   5  1   
  5   3  18  1   
  6   4   6  1   
  7   4  19  1   
  8   5   7  ar  
  9   5   8  ar  
 10   6   9  1   
 11   6  10  1   
 12   6  20  1   
 13   7  11  ar  
 14   7  12  1   
 15   8  13  ar  
 16   8  21  1   
 17   9  14  1   
 18   9  22  1   
 19   9  23  1   
 20  10  15  1   
 21  10  24  1   
 22  10  25  1   
 23  11  16  ar  
 24  11  26  1   
 25  12  27  1   
 26  12  28  1   
 27  12  29  1   
 28  13  16  ar  
 29  13  30  1   
 30  14  15  1   
 31  14  31  1   
 32  14  32  1   
 33  15  33  1   
 34  15  34  1   
 35  16  17  1   
 36  17  35  1   
 37  17  36  1   
 38  17  37  1   
@<TRIPOS>SUBSTRUCTURE
  1 ****   3 GROUP 4 **** **** 0

# MOE 2024.06 (io_trps.svl 2023.06)
