@<TRIPOS>MOLECULE
NONAME
41 43 1 0 0 
SMALL
USER_CHARGES


@<TRIPOS>ATOM
  1 O       -0.6540    -0.5600     1.3670 O.2   1 <1>  -0.5700 
  2 C       -1.6160    -1.1290     0.8740 C.2   1 <1>   0.8410 
  3 N       -2.8180    -0.5090     0.9310 N.2   1 <1>  -0.6610 
  4 N       -1.4650    -2.3810     0.2730 N.am  1 <1>  -0.2860 
  5 C       -3.8570    -1.1240     0.4690 C.2   1 <1>   0.4860 
  6 C       -0.1620    -2.9020     0.0990 C.ar  1 <1>   0.1170 
  7 C       -2.5840    -3.0740    -0.1230 C.2   1 <1>  -0.0290 
  8 N       -5.0320    -0.4070     0.4220 N.pl3 1 <1>  -0.7880 
  9 C       -3.8130    -2.4770    -0.0080 C.2   1 <1>   0.0290 
 10 C        0.4920    -2.7680    -1.1200 C.ar  1 <1>  -0.1500 
 11 C        0.4810    -3.5650     1.1380 C.ar  1 <1>  -0.1500 
 12 C       -2.3850    -4.5000    -0.6480 C.3   1 <1>  -0.1020 
 13 C       -5.6760    -0.1240    -0.8890 C.3   1 <1>   0.2090 
 14 C       -5.3310     0.6970     1.3770 C.3   1 <1>   0.2090 
 15 C       -5.0480    -3.1320    -0.3160 C.2   1 <1>   0.4950 
 16 C        1.7580    -3.2960    -1.3020 C.ar  1 <1>  -0.1500 
 17 C        1.7460    -4.0940     0.9590 C.ar  1 <1>  -0.1500 
 18 C       -6.5130     1.1310    -0.6720 C.3   1 <1>  -0.1600 
 19 C       -5.8600     1.8310     0.5120 C.3   1 <1>  -0.1600 
 20 O       -5.3200    -3.5540    -1.4130 O.2   1 <1>  -0.5700 
 21 C       -6.0800    -3.3370     0.7740 C.3   1 <1>  -0.1790 
 22 C        2.3850    -3.9620    -0.2620 C.ar  1 <1>  -0.1500 
 23 H        0.0050    -2.2470    -1.9240 H     1 <1>   0.1500 
 24 H       -0.0140    -3.6590     2.0870 H     1 <1>   0.1500 
 25 H       -1.8310    -4.4770    -1.5690 H     1 <1>   0.0800 
 26 H       -3.3120    -5.0070    -0.8360 H     1 <1>   0.0800 
 27 H       -1.8360    -5.0860     0.0680 H     1 <1>   0.0800 
 28 H       -6.2950    -0.9440    -1.2100 H     1 <1>   0.0800 
 29 H       -4.9130     0.0600    -1.6280 H     1 <1>   0.0800 
 30 H       -4.4660     1.0090     1.9390 H     1 <1>   0.0800 
 31 H       -6.0930     0.3650     2.0610 H     1 <1>   0.0800 
 32 H        2.2560    -3.1880    -2.2490 H     1 <1>   0.1500 
 33 H        2.2350    -4.6050     1.7700 H     1 <1>   0.1500 
 34 H       -7.5180     0.8410    -0.4180 H     1 <1>   0.0800 
 35 H       -6.5390     1.7490    -1.5520 H     1 <1>   0.0800 
 36 H       -5.0270     2.4240     0.1750 H     1 <1>   0.0800 
 37 H       -6.5450     2.4600     1.0510 H     1 <1>   0.0800 
 38 H       -5.6840    -3.0510     1.7310 H     1 <1>   0.0800 
 39 H       -6.3670    -4.3720     0.8070 H     1 <1>   0.0800 
 40 H       -6.9470    -2.7400     0.5620 H     1 <1>   0.0800 
 41 H        3.3710    -4.3720    -0.4020 H     1 <1>   0.1500 
@<TRIPOS>BOND
  1   1   2  2   
  2   2   3  1   
  3   2   4  am  
  4   3   5  2   
  5   4   6  1   
  6   4   7  1   
  7   5   8  1   
  8   5   9  1   
  9   6  10  ar  
 10   6  11  ar  
 11   7   9  2   
 12   7  12  1   
 13   8  13  1   
 14   8  14  1   
 15   9  15  1   
 16  10  16  ar  
 17  10  23  1   
 18  11  17  ar  
 19  11  24  1   
 20  12  25  1   
 21  12  26  1   
 22  12  27  1   
 23  13  18  1   
 24  13  28  1   
 25  13  29  1   
 26  14  19  1   
 27  14  30  1   
 28  14  31  1   
 29  15  20  2   
 30  15  21  1   
 31  16  22  ar  
 32  16  32  1   
 33  17  22  ar  
 34  17  33  1   
 35  18  19  1   
 36  18  34  1   
 37  18  35  1   
 38  19  36  1   
 39  19  37  1   
 40  21  38  1   
 41  21  39  1   
 42  21  40  1   
 43  22  41  1   
@<TRIPOS>SUBSTRUCTURE
  1 ****   7 GROUP 4 **** **** 0

# MOE 2024.06 (io_trps.svl 2023.06)
