@<TRIPOS>MOLECULE
NONAME
39 40 1 0 0 
SMALL
USER_CHARGES


@<TRIPOS>ATOM
  1 I       -0.6100     0.5280     2.8340 I     1 <1>  -0.0810 
  2 C       -0.1820     2.0070     1.3320 C.ar  1 <1>   0.0810 
  3 C        1.0690     2.6180     1.3670 C.ar  1 <1>   0.0830 
  4 C       -1.1100     2.2920     0.3340 C.ar  1 <1>   0.0830 
  5 O        1.9360     2.3380     2.3730 O.3   1 <1>  -0.2320 
  6 C        1.4370     3.5200     0.3530 C.ar  1 <1>   0.0280 
  7 O       -2.3530     1.7580     0.2540 O.3   1 <1>  -0.3630 
  8 C       -0.7240     3.1500    -0.6870 C.ar  1 <1>  -0.1500 
  9 C        3.1500     2.8840     2.4660 C.2   1 <1>   0.7060 
 10 C        2.7350     4.1330     0.4250 C.2   1 <1>  -0.1670 
 11 C        0.5160     3.7560    -0.6730 C.ar  1 <1>  -0.1500 
 12 C       -3.3620     2.1200     1.2020 C.3   1 <1>   0.2610 
 13 O        3.8580     2.5730     3.4010 O.2   1 <1>  -0.5700 
 14 C        3.5460     3.8090     1.4570 C.2   1 <1>  -0.1360 
 15 C        3.1810     5.1240    -0.6410 C.3   1 <1>  -0.1020 
 16 C       -4.0980     0.8900     1.7760 C.2   1 <1>   0.6590 
 17 C       -4.3670     3.1050     0.5650 C.3   1 <1>  -0.1600 
 18 O       -4.3310     0.8470     2.9560 O.2   1 <1>  -0.5700 
 19 O       -4.5480    -0.0950     0.9980 O.3   1 <1>  -0.4300 
 20 C       -3.7980     4.5020     0.2760 C.3   1 <1>  -0.2400 
 21 C       -4.1550    -0.3760    -0.3250 C.3   1 <1>   0.1200 
 22 C       -4.9670    -1.5720    -0.8090 C.3   1 <1>  -0.2400 
 23 H       -1.4050     3.3380    -1.4970 H     1 <1>   0.1500 
 24 H        0.7700     4.4210    -1.4790 H     1 <1>   0.1500 
 25 H       -2.8800     2.6120     2.0270 H     1 <1>   0.0800 
 26 H        4.5290     4.2230     1.5790 H     1 <1>   0.1500 
 27 H        3.1980     4.6500    -1.6060 H     1 <1>   0.0800 
 28 H        4.1700     5.4940    -0.4330 H     1 <1>   0.0800 
 29 H        2.5100     5.9640    -0.6730 H     1 <1>   0.0800 
 30 H       -5.1830     3.2270     1.2560 H     1 <1>   0.0800 
 31 H       -4.7760     2.6810    -0.3340 H     1 <1>   0.0800 
 32 H       -3.0910     4.4710    -0.5300 H     1 <1>   0.0800 
 33 H       -3.3170     4.9050     1.1500 H     1 <1>   0.0800 
 34 H       -4.5950     5.1660    -0.0100 H     1 <1>   0.0800 
 35 H       -3.1030    -0.6060    -0.3270 H     1 <1>   0.0800 
 36 H       -4.3470     0.4860    -0.9400 H     1 <1>   0.0800 
 37 H       -4.7760    -2.4250    -0.1830 H     1 <1>   0.0800 
 38 H       -4.6870    -1.8180    -1.8170 H     1 <1>   0.0800 
 39 H       -6.0170    -1.3400    -0.7910 H     1 <1>   0.0800 
@<TRIPOS>BOND
  1   1   2  1   
  2   2   3  ar  
  3   2   4  ar  
  4   3   5  1   
  5   3   6  ar  
  6   4   7  1   
  7   4   8  ar  
  8   5   9  1   
  9   6  10  1   
 10   6  11  ar  
 11   7  12  1   
 12   8  11  ar  
 13   8  23  1   
 14   9  13  2   
 15   9  14  1   
 16  10  14  2   
 17  10  15  1   
 18  11  24  1   
 19  12  16  1   
 20  12  17  1   
 21  12  25  1   
 22  14  26  1   
 23  15  27  1   
 24  15  28  1   
 25  15  29  1   
 26  16  18  2   
 27  16  19  1   
 28  17  20  1   
 29  17  30  1   
 30  17  31  1   
 31  19  21  1   
 32  20  32  1   
 33  20  33  1   
 34  20  34  1   
 35  21  22  1   
 36  21  35  1   
 37  21  36  1   
 38  22  37  1   
 39  22  38  1   
 40  22  39  1   
@<TRIPOS>SUBSTRUCTURE
  1 ****   4 GROUP 4 **** **** 0

# MOE 2024.06 (io_trps.svl 2023.06)
