@<TRIPOS>MOLECULE
NONAME
49 51 1 0 0 
SMALL
USER_CHARGES


@<TRIPOS>ATOM
  1 S       -0.1120     0.1050    -1.0000 S.3   1 <1>  -0.4600 
  2 C       -0.1690     1.9220    -1.1750 C.3   1 <1>   0.4320 
  3 C       -1.8460    -0.4850    -1.0300 C.3   1 <1>   0.1310 
  4 C        1.2320     2.4920    -0.9620 C.ar  1 <1>  -0.1440 
  5 C       -1.2750     2.4930    -0.3080 C.2   1 <1>  -0.1240 
  6 C       -2.7650     0.3130    -1.9510 C.2   1 <1>   0.5690 
  7 C        2.0210     2.1120     0.1150 C.ar  1 <1>  -0.1500 
  8 C        1.7390     3.4130    -1.8670 C.ar  1 <1>  -0.1500 
  9 C       -1.1810     3.2960     0.8330 C.2   1 <1>   0.6160 
 10 C       -2.6010     2.3370    -0.5900 C.2   1 <1>   0.2090 
 11 O       -3.2040    -0.1900    -2.9520 O.2   1 <1>  -0.5700 
 12 N       -3.1430     1.5710    -1.6030 N.am  1 <1>  -0.5390 
 13 C        3.2930     2.6340     0.3000 C.ar  1 <1>  -0.1440 
 14 C        3.0050     3.9430    -1.6970 C.ar  1 <1>  -0.1500 
 15 O       -0.2000     3.7730     1.4130 O.2   1 <1>  -0.5700 
 16 N       -2.4380     3.5980     1.2270 N.am  1 <1>  -0.4100 
 17 N       -3.3600     3.0230     0.2960 N.pl3 1 <1>  -0.4890 
 18 C        3.7900     3.5610    -0.6120 C.ar  1 <1>   0.0830 
 19 C        4.1260     2.2220     1.5100 C.3   1 <1>   0.2630 
 20 C       -4.7330     2.6400     0.7230 C.3   1 <1>   0.2890 
 21 O        5.0350     4.0660    -0.3940 O.3   1 <1>  -0.3630 
 22 O        3.9120     0.8750     1.8180 O.3   1 <1>  -0.5600 
 23 C       -5.4910     3.8860     1.1780 C.3   1 <1>  -0.2400 
 24 C       -4.6600     1.5960     1.8380 C.3   1 <1>  -0.2400 
 25 C        5.6180     5.0070    -1.2680 C.3   1 <1>   0.0400 
 26 C        4.6170     0.4320     2.9300 C.3   1 <1>   0.0400 
 27 H       -0.4400     2.0800    -2.2030 H     1 <1>   0.0800 
 28 H       -2.2060    -0.4370    -0.0190 H     1 <1>   0.0800 
 29 H       -1.8130    -1.5120    -1.3450 H     1 <1>   0.0800 
 30 H        1.6410     1.4020     0.8310 H     1 <1>   0.1500 
 31 H        1.1510     3.7260    -2.7110 H     1 <1>   0.1500 
 32 H       -3.8930     1.9720    -2.1660 H     1 <1>   0.3700 
 33 H        3.3590     4.6530    -2.4180 H     1 <1>   0.1500 
 34 H       -2.5820     4.5390     1.6030 H     1 <1>   0.3700 
 35 H        3.8410     2.8190     2.3580 H     1 <1>   0.0800 
 36 H        5.1750     2.3530     1.3140 H     1 <1>   0.0800 
 37 H       -5.2510     2.2130    -0.1190 H     1 <1>   0.0800 
 38 H       -5.0310     4.3150     2.0500 H     1 <1>   0.0800 
 39 H       -6.5050     3.6280     1.4220 H     1 <1>   0.0800 
 40 H       -5.5070     4.6150     0.3880 H     1 <1>   0.0800 
 41 H       -4.1660     1.9980     2.7040 H     1 <1>   0.0800 
 42 H       -4.1240     0.7290     1.4970 H     1 <1>   0.0800 
 43 H       -5.6510     1.2920     2.1210 H     1 <1>   0.0800 
 44 H        6.5940     5.2510    -0.8920 H     1 <1>   0.0800 
 45 H        5.0030     5.8890    -1.2900 H     1 <1>   0.0800 
 46 H        5.7020     4.5680    -2.2460 H     1 <1>   0.0800 
 47 H        4.3880    -0.6080     3.0770 H     1 <1>   0.0800 
 48 H        4.3100     0.9980     3.7930 H     1 <1>   0.0800 
 49 H        5.6720     0.5500     2.7520 H     1 <1>   0.0800 
@<TRIPOS>BOND
  1   1   2  1   
  2   1   3  1   
  3   2   4  1   
  4   2   5  1   
  5   2  27  1   
  6   3   6  1   
  7   3  28  1   
  8   3  29  1   
  9   4   7  ar  
 10   4   8  ar  
 11   5   9  1   
 12   5  10  2   
 13   6  11  2   
 14   6  12  am  
 15   7  13  ar  
 16   7  30  1   
 17   8  14  ar  
 18   8  31  1   
 19   9  15  2   
 20   9  16  am  
 21  10  12  1   
 22  10  17  1   
 23  12  32  1   
 24  13  18  ar  
 25  13  19  1   
 26  14  18  ar  
 27  14  33  1   
 28  16  17  1   
 29  16  34  1   
 30  17  20  1   
 31  18  21  1   
 32  19  22  1   
 33  19  35  1   
 34  19  36  1   
 35  20  23  1   
 36  20  24  1   
 37  20  37  1   
 38  21  25  1   
 39  22  26  1   
 40  23  38  1   
 41  23  39  1   
 42  23  40  1   
 43  24  41  1   
 44  24  42  1   
 45  24  43  1   
 46  25  44  1   
 47  25  45  1   
 48  25  46  1   
 49  26  47  1   
 50  26  48  1   
 51  26  49  1   
@<TRIPOS>SUBSTRUCTURE
  1 ****   2 GROUP 4 **** **** 0

# MOE 2024.06 (io_trps.svl 2023.06)
