@<TRIPOS>MOLECULE
NONAME
45 46 1 0 0 
SMALL
USER_CHARGES


@<TRIPOS>ATOM
  1 S       -0.0740    -0.5350     0.2850 S.3   1 <1>  -0.2860 
  2 C       -1.6580     0.0860     0.8610 C.2   1 <1>   0.2420 
  3 C        0.6430    -1.2930     1.8270 C.3   1 <1>   0.1310 
  4 N       -2.0430     0.0120     2.0840 N.2   1 <1>  -0.3380 
  5 N       -2.5450     0.6660     0.0530 N.pl3 1 <1>   0.0480 
  6 C        2.0430    -1.8360     1.5910 C.2   1 <1>   0.5690 
  7 N       -3.2580     0.5690     2.1130 N.2   1 <1>  -0.3380 
  8 C       -3.5420     0.9440     0.9080 C.2   1 <1>   0.0060 
  9 C       -2.4300     0.9140    -1.3980 C.3   1 <1>   0.0160 
 10 O        2.4490    -2.6880     2.3420 O.2   1 <1>  -0.5700 
 11 N        2.7750    -1.3340     0.5470 N.am  1 <1>  -0.5470 
 12 C       -4.8520     1.6190     0.5270 C.3   1 <1>   0.0200 
 13 C        4.0820    -1.6060     0.1070 C.ar  1 <1>   0.1170 
 14 C       -5.7750     0.7140    -0.3140 C.3   1 <1>  -0.0800 
 15 C        5.0540    -2.1850     0.9180 C.ar  1 <1>  -0.1500 
 16 C        4.4280    -1.2650    -1.1950 C.ar  1 <1>  -0.1500 
 17 C       -7.0410     1.4770    -0.7220 C.3   1 <1>  -0.2400 
 18 C       -6.1640    -0.5610     0.4490 C.3   1 <1>  -0.2400 
 19 C        6.3320    -2.4240     0.4420 C.ar  1 <1>  -0.1500 
 20 C        5.7040    -1.5000    -1.6760 C.ar  1 <1>  -0.1500 
 21 C        6.6640    -2.0800    -0.8650 C.ar  1 <1>   0.0830 
 22 O        7.8920    -2.2780    -1.4130 O.3   1 <1>  -0.3620 
 23 C        8.9260    -2.8880    -0.6730 C.3   1 <1>   0.0400 
 24 H       -0.0200    -2.0830     2.1290 H     1 <1>   0.0800 
 25 H        0.6610    -0.5280     2.5810 H     1 <1>   0.0800 
 26 H       -2.6610     0.0090    -1.9300 H     1 <1>   0.0800 
 27 H       -1.4270     1.2200    -1.6320 H     1 <1>   0.0800 
 28 H       -3.1120     1.6890    -1.6930 H     1 <1>   0.0800 
 29 H        2.2530    -0.6910    -0.0470 H     1 <1>   0.3700 
 30 H       -4.6350     2.5230    -0.0120 H     1 <1>   0.0800 
 31 H       -5.3650     1.9020     1.4310 H     1 <1>   0.0800 
 32 H       -5.2580     0.4230    -1.2110 H     1 <1>   0.0800 
 33 H        4.8190    -2.4520     1.9310 H     1 <1>   0.1500 
 34 H        3.6980    -0.8170    -1.8430 H     1 <1>   0.1500 
 35 H       -7.6000     1.7780     0.1480 H     1 <1>   0.0800 
 36 H       -7.6720     0.8540    -1.3320 H     1 <1>   0.0800 
 37 H       -6.7870     2.3550    -1.2880 H     1 <1>   0.0800 
 38 H       -6.6710    -0.3140     1.3660 H     1 <1>   0.0800 
 39 H       -5.2910    -1.1410     0.6920 H     1 <1>   0.0800 
 40 H       -6.8160    -1.1730    -0.1490 H     1 <1>   0.0800 
 41 H        7.0480    -2.8740     1.1020 H     1 <1>   0.1500 
 42 H        5.9660    -1.2370    -2.6850 H     1 <1>   0.1500 
 43 H        9.7940    -2.9520    -1.3030 H     1 <1>   0.0800 
 44 H        8.6120    -3.8740    -0.3820 H     1 <1>   0.0800 
 45 H        9.1430    -2.2810     0.1880 H     1 <1>   0.0800 
@<TRIPOS>BOND
  1   1   2  1   
  2   1   3  1   
  3   2   4  2   
  4   2   5  1   
  5   3   6  1   
  6   3  24  1   
  7   3  25  1   
  8   4   7  1   
  9   5   8  1   
 10   5   9  1   
 11   6  10  2   
 12   6  11  am  
 13   7   8  2   
 14   8  12  1   
 15   9  26  1   
 16   9  27  1   
 17   9  28  1   
 18  11  13  1   
 19  11  29  1   
 20  12  14  1   
 21  12  30  1   
 22  12  31  1   
 23  13  15  ar  
 24  13  16  ar  
 25  14  17  1   
 26  14  18  1   
 27  14  32  1   
 28  15  19  ar  
 29  15  33  1   
 30  16  20  ar  
 31  16  34  1   
 32  17  35  1   
 33  17  36  1   
 34  17  37  1   
 35  18  38  1   
 36  18  39  1   
 37  18  40  1   
 38  19  21  ar  
 39  19  41  1   
 40  20  21  ar  
 41  20  42  1   
 42  21  22  1   
 43  22  23  1   
 44  23  43  1   
 45  23  44  1   
 46  23  45  1   
@<TRIPOS>SUBSTRUCTURE
  1 ****   1 GROUP 4 **** **** 0

# MOE 2024.06 (io_trps.svl 2023.06)
