@<TRIPOS>MOLECULE
NONAME
37 37 1 0 0 
SMALL
USER_CHARGES


@<TRIPOS>ATOM
  1 S        0.0020    -0.0760     0.6540 S.o2  1 <1>   1.3330 
  2 O       -0.2380    -1.4990     0.7370 O.2   1 <1>  -0.6500 
  3 O       -0.1120     0.7380     1.8440 O.2   1 <1>  -0.6500 
  4 N        1.5560     0.1660     0.0190 N.am  1 <1>  -0.8490 
  5 C       -1.0560     0.5940    -0.6380 C.3   1 <1>  -0.0550 
  6 C        2.4980    -0.8670     0.4640 C.3   1 <1>   0.1960 
  7 C        2.0670     1.5140     0.2950 C.3   1 <1>   0.1960 
  8 C       -2.5630     0.5080    -0.3360 C.3   1 <1>  -0.2400 
  9 C        3.8450    -0.7090    -0.2480 C.3   1 <1>  -0.1600 
 10 C        3.3880     1.7460    -0.4400 C.3   1 <1>  -0.1600 
 11 C        4.4360     0.6940    -0.0400 C.3   1 <1>  -0.0190 
 12 C        5.7430     0.8730    -0.8090 C.2   1 <1>   0.5690 
 13 O        5.7320     0.8810    -2.0160 O.2   1 <1>  -0.5700 
 14 N        6.8970     1.0140    -0.1110 N.am  1 <1>  -0.7300 
 15 C        8.2190     1.2130    -0.7190 C.3   1 <1>   0.2780 
 16 C        9.0100     2.1060     0.2120 C.2   1 <1>  -0.2880 
 17 C       10.1160     1.7510     0.8740 C.2   1 <1>  -0.3000 
 18 H       -0.8590     0.0630    -1.5500 H     1 <1>   0.0800 
 19 H       -0.8000     1.6220    -0.8020 H     1 <1>   0.0800 
 20 H        2.1060    -1.8430     0.2300 H     1 <1>   0.0800 
 21 H        2.6270    -0.8050     1.5320 H     1 <1>   0.0800 
 22 H        2.2120     1.6400     1.3560 H     1 <1>   0.0800 
 23 H        1.3500     2.2490    -0.0320 H     1 <1>   0.0800 
 24 H       -2.8540    -0.5190    -0.1970 H     1 <1>   0.0800 
 25 H       -3.1310     0.9230    -1.1490 H     1 <1>   0.0800 
 26 H       -2.7920     1.0540     0.5640 H     1 <1>   0.0800 
 27 H        3.7020    -0.8900    -1.3000 H     1 <1>   0.0800 
 28 H        4.5310    -1.4510     0.1200 H     1 <1>   0.0800 
 29 H        3.7570     2.7300    -0.2120 H     1 <1>   0.0800 
 30 H        3.2090     1.7000    -1.5010 H     1 <1>   0.0800 
 31 H        4.6430     0.8160     1.0080 H     1 <1>   0.0800 
 32 H        6.9050     0.9910     0.9080 H     1 <1>   0.3700 
 33 H        8.1220     1.6720    -1.6890 H     1 <1>   0.0800 
 34 H        8.7050     0.2590    -0.8340 H     1 <1>   0.0800 
 35 H        8.5800     3.0900     0.2870 H     1 <1>   0.1500 
 36 H       10.6600     2.4100     1.5290 H     1 <1>   0.1500 
 37 H       10.5720     0.7770     0.8200 H     1 <1>   0.1500 
@<TRIPOS>BOND
  1   1   2  2   
  2   1   3  2   
  3   1   4  am  
  4   1   5  1   
  5   4   6  1   
  6   4   7  1   
  7   5   8  1   
  8   5  18  1   
  9   5  19  1   
 10   6   9  1   
 11   6  20  1   
 12   6  21  1   
 13   7  10  1   
 14   7  22  1   
 15   7  23  1   
 16   8  24  1   
 17   8  25  1   
 18   8  26  1   
 19   9  11  1   
 20   9  27  1   
 21   9  28  1   
 22  10  11  1   
 23  10  29  1   
 24  10  30  1   
 25  11  12  1   
 26  11  31  1   
 27  12  13  2   
 28  12  14  am  
 29  14  15  1   
 30  14  32  1   
 31  15  16  1   
 32  15  33  1   
 33  15  34  1   
 34  16  17  2   
 35  16  35  1   
 36  17  36  1   
 37  17  37  1   
@<TRIPOS>SUBSTRUCTURE
  1 ****  11 GROUP 4 **** **** 0

# MOE 2024.06 (io_trps.svl 2023.06)
