@<TRIPOS>MOLECULE
NONAME
40 41 1 0 0 
SMALL
USER_CHARGES


@<TRIPOS>ATOM
  1 S       -0.0040    -0.0160     0.9460 S.o2  1 <1>   1.4470 
  2 O       -0.7310     0.5780     2.0460 O.2   1 <1>  -0.6500 
  3 O        0.3800    -1.4090     1.0190 O.2   1 <1>  -0.6500 
  4 N       -0.9780     0.0440    -0.4200 N.am  1 <1>  -0.7890 
  5 C        1.4320     1.0080     0.4910 C.ar  1 <1>  -0.0090 
  6 C       -2.3370    -0.3670    -0.1710 C.3   1 <1>   0.1310 
  7 C        1.3540     2.3820     0.2540 C.ar  1 <1>  -0.1430 
  8 C        2.6770     0.4010     0.3580 C.ar  1 <1>  -0.1500 
  9 C       -3.3520    -0.0540    -1.2160 C.3   1 <1>  -0.2000 
 10 C       -3.3590     0.6850     0.0910 C.3   1 <1>  -0.2000 
 11 C        2.4890     3.0930    -0.1020 C.ar  1 <1>  -0.1500 
 12 C        0.0380     3.1420     0.3780 C.3   1 <1>  -0.0970 
 13 C        3.8230     1.0980     0.0040 C.ar  1 <1>  -0.1430 
 14 C        3.7250     2.4670    -0.2310 C.ar  1 <1>   0.0830 
 15 C        5.1560     0.3470    -0.1180 C.3   1 <1>   0.0630 
 16 O        4.8490     3.1480    -0.5800 O.3   1 <1>  -0.3630 
 17 C        5.0840    -0.7260    -1.2100 C.3   1 <1>  -0.2400 
 18 C        5.5600    -0.2730     1.2250 C.3   1 <1>  -0.2400 
 19 C        4.8490     4.5380    -0.8150 C.3   1 <1>   0.0400 
 20 H       -0.5710    -0.6620    -1.0270 H     1 <1>   0.4200 
 21 H       -2.4160    -1.3040     0.3600 H     1 <1>   0.1000 
 22 H        2.7510    -0.6560     0.5420 H     1 <1>   0.1500 
 23 H       -4.1450    -0.7560    -1.4030 H     1 <1>   0.1000 
 24 H       -3.0430     0.4740    -2.1020 H     1 <1>   0.1000 
 25 H       -3.0340     1.7090     0.1240 H     1 <1>   0.1000 
 26 H       -4.1390     0.4730     0.8000 H     1 <1>   0.1000 
 27 H        2.3980     4.1470    -0.2770 H     1 <1>   0.1500 
 28 H       -0.6890     2.7500    -0.3090 H     1 <1>   0.0800 
 29 H        0.1680     4.1860     0.1590 H     1 <1>   0.0800 
 30 H       -0.3470     3.0630     1.3800 H     1 <1>   0.0800 
 31 H        5.9390     1.0300    -0.3980 H     1 <1>   0.0800 
 32 H        4.3700    -1.4890    -0.9570 H     1 <1>   0.0800 
 33 H        6.0470    -1.1860    -1.3410 H     1 <1>   0.0800 
 34 H        4.7910    -0.2750    -2.1420 H     1 <1>   0.0800 
 35 H        4.8560    -1.0240     1.5330 H     1 <1>   0.0800 
 36 H        5.5990     0.4930     1.9790 H     1 <1>   0.0800 
 37 H        6.5320    -0.7250     1.1470 H     1 <1>   0.0800 
 38 H        5.8520     4.8330    -1.0640 H     1 <1>   0.0800 
 39 H        4.5310     5.0430     0.0800 H     1 <1>   0.0800 
 40 H        4.1900     4.7530    -1.6370 H     1 <1>   0.0800 
@<TRIPOS>BOND
  1   1   2  2   
  2   1   3  2   
  3   1   4  am  
  4   1   5  1   
  5   4   6  1   
  6   4  20  1   
  7   5   7  ar  
  8   5   8  ar  
  9   6   9  1   
 10   6  10  1   
 11   6  21  1   
 12   7  11  ar  
 13   7  12  1   
 14   8  13  ar  
 15   8  22  1   
 16   9  10  1   
 17   9  23  1   
 18   9  24  1   
 19  10  25  1   
 20  10  26  1   
 21  11  14  ar  
 22  11  27  1   
 23  12  28  1   
 24  12  29  1   
 25  12  30  1   
 26  13  14  ar  
 27  13  15  1   
 28  14  16  1   
 29  15  17  1   
 30  15  18  1   
 31  15  31  1   
 32  16  19  1   
 33  17  32  1   
 34  17  33  1   
 35  17  34  1   
 36  18  35  1   
 37  18  36  1   
 38  18  37  1   
 39  19  38  1   
 40  19  39  1   
 41  19  40  1   
@<TRIPOS>SUBSTRUCTURE
  1 ****   5 GROUP 4 **** **** 0

# MOE 2024.06 (io_trps.svl 2023.06)
