@<TRIPOS>MOLECULE
NONAME
41 43 1 0 0 
SMALL
USER_CHARGES


@<TRIPOS>ATOM
  1 O       -0.1000     1.1360     2.2180 O.2   1 <1>  -0.5700 
  2 C       -0.2460     1.7270     1.1780 C.2   1 <1>   0.5690 
  3 N        0.7130     1.7710     0.2210 N.am  1 <1>  -0.7300 
  4 C       -1.5570     2.4250     0.9200 C.3   1 <1>  -0.0990 
  5 C        2.0290     1.1190     0.3120 C.3   1 <1>   0.2200 
  6 C       -2.5710     1.4510     0.3200 C.3   1 <1>   0.2000 
  7 C        3.1210     2.1850     0.1760 C.3   1 <1>  -0.1600 
  8 C        2.1370     0.0660    -0.7950 C.3   1 <1>  -0.1600 
  9 O       -3.7090     2.2060    -0.0530 O.3   1 <1>  -0.3630 
 10 C       -2.9810     0.3210     1.2850 C.3   1 <1>   0.1200 
 11 C        4.5190     1.5480     0.1570 C.3   1 <1>  -0.1600 
 12 C        3.5330    -0.5750    -0.8160 C.3   1 <1>  -0.1600 
 13 C       -4.8480     1.5190    -0.3240 C.ar  1 <1>   0.0820 
 14 O       -4.0040    -0.4720     0.7120 O.3   1 <1>  -0.3630 
 15 C        4.6310     0.4900    -0.9490 C.3   1 <1>  -0.1600 
 16 C       -4.9890     0.1800     0.0450 C.ar  1 <1>   0.0820 
 17 C       -5.8790     2.1670    -0.9820 C.ar  1 <1>  -0.1500 
 18 C       -6.1520    -0.5030    -0.2650 C.ar  1 <1>  -0.1500 
 19 C       -7.0440     1.4810    -1.2850 C.ar  1 <1>  -0.1500 
 20 C       -7.1800     0.1480    -0.9300 C.ar  1 <1>  -0.1500 
 21 H        0.5550     2.2910    -0.6420 H     1 <1>   0.3700 
 22 H       -1.3950     3.2420     0.2420 H     1 <1>   0.0800 
 23 H       -1.9310     2.8170     1.8480 H     1 <1>   0.0800 
 24 H        2.1300     0.6340     1.2700 H     1 <1>   0.0800 
 25 H       -2.1670     1.0160    -0.5780 H     1 <1>   0.0800 
 26 H        3.0550     2.8690     1.0040 H     1 <1>   0.0800 
 27 H        2.9770     2.7370    -0.7360 H     1 <1>   0.0800 
 28 H        1.9490     0.5240    -1.7500 H     1 <1>   0.0800 
 29 H        1.3990    -0.6990    -0.6300 H     1 <1>   0.0800 
 30 H       -3.3520     0.7300     2.2080 H     1 <1>   0.0800 
 31 H       -2.1490    -0.3250     1.5000 H     1 <1>   0.0800 
 32 H        4.7120     1.0880     1.1110 H     1 <1>   0.0800 
 33 H        5.2620     2.3120     0.0030 H     1 <1>   0.0800 
 34 H        3.6000    -1.2680    -1.6370 H     1 <1>   0.0800 
 35 H        3.6840    -1.1290     0.0950 H     1 <1>   0.0800 
 36 H        5.5980     0.0180    -0.8990 H     1 <1>   0.0800 
 37 H        4.5490     0.9680    -1.9100 H     1 <1>   0.0800 
 38 H       -5.7650     3.2000    -1.2560 H     1 <1>   0.1500 
 39 H       -6.2490    -1.5350     0.0180 H     1 <1>   0.1500 
 40 H       -7.8450     1.9840    -1.7990 H     1 <1>   0.1500 
 41 H       -8.0850    -0.3830    -1.1690 H     1 <1>   0.1500 
@<TRIPOS>BOND
  1   1   2  2   
  2   2   3  am  
  3   2   4  1   
  4   3   5  1   
  5   3  21  1   
  6   4   6  1   
  7   4  22  1   
  8   4  23  1   
  9   5   7  1   
 10   5   8  1   
 11   5  24  1   
 12   6   9  1   
 13   6  10  1   
 14   6  25  1   
 15   7  11  1   
 16   7  26  1   
 17   7  27  1   
 18   8  12  1   
 19   8  28  1   
 20   8  29  1   
 21   9  13  1   
 22  10  14  1   
 23  10  30  1   
 24  10  31  1   
 25  11  15  1   
 26  11  32  1   
 27  11  33  1   
 28  12  15  1   
 29  12  34  1   
 30  12  35  1   
 31  13  16  ar  
 32  13  17  ar  
 33  14  16  1   
 34  15  36  1   
 35  15  37  1   
 36  16  18  ar  
 37  17  19  ar  
 38  17  38  1   
 39  18  20  ar  
 40  18  39  1   
 41  19  20  ar  
 42  19  40  1   
 43  20  41  1   
@<TRIPOS>SUBSTRUCTURE
  1 ****   6 GROUP 4 **** **** 0

# MOE 2024.06 (io_trps.svl 2023.06)
