@<TRIPOS>MOLECULE
NONAME
42 44 1 0 0 
SMALL
USER_CHARGES


@<TRIPOS>ATOM
  1 O       -0.1660    -0.7290    -1.7180 O.2   1 <1>  -0.5700 
  2 C       -0.4340    -1.0680    -0.5830 C.2   1 <1>   0.6900 
  3 N        0.5290    -1.3540     0.3170 N.am  1 <1>  -0.7300 
  4 N       -1.7160    -1.1690    -0.1850 N.am  1 <1>  -0.7300 
  5 C        1.9750    -1.3010     0.0550 C.3   1 <1>   0.2200 
  6 C       -2.8790    -0.9740    -1.0870 C.3   1 <1>   0.3200 
  7 C        2.5660    -2.7010     0.2520 C.3   1 <1>  -0.1600 
  8 C        2.6150    -0.2880     1.0100 C.3   1 <1>  -0.1600 
  9 C       -3.9340    -2.0460    -0.8640 C.2   1 <1>   0.2980 
 10 C        4.0940    -2.6850     0.0970 C.3   1 <1>  -0.1600 
 11 C        4.1430    -0.2670     0.8560 C.3   1 <1>  -0.1600 
 12 O       -3.6840    -3.2620    -1.2720 O.3   1 <1>  -0.0190 
 13 N       -5.0610    -1.8820    -0.3010 N.2   1 <1>  -0.5650 
 14 C        4.7380    -1.6690     1.0500 C.3   1 <1>  -0.1600 
 15 N       -4.7440    -3.9300    -0.9420 N.2   1 <1>  -0.4100 
 16 C       -5.5630    -3.1200    -0.3690 C.2   1 <1>   0.4620 
 17 C       -6.8740    -3.4680     0.1540 C.ar  1 <1>   0.0540 
 18 C       -7.3620    -4.7740     0.0750 C.ar  1 <1>  -0.1500 
 19 C       -7.7020    -2.5170     0.7570 C.ar  1 <1>  -0.1500 
 20 C       -8.6080    -5.1150     0.5700 C.ar  1 <1>  -0.1500 
 21 C       -8.9490    -2.8510     1.2540 C.ar  1 <1>  -0.1500 
 22 C       -9.4050    -4.1530     1.1610 C.ar  1 <1>  -0.1500 
 23 H        0.2660    -1.6450     1.2530 H     1 <1>   0.3700 
 24 H       -1.9290    -1.4720     0.7620 H     1 <1>   0.3700 
 25 H        2.1520    -0.9850    -0.9610 H     1 <1>   0.0800 
 26 H       -2.5650    -1.0010    -2.1160 H     1 <1>   0.0800 
 27 H       -3.3120    -0.0090    -0.8930 H     1 <1>   0.0800 
 28 H        2.1430    -3.3690    -0.4770 H     1 <1>   0.0800 
 29 H        2.3190    -3.0630     1.2340 H     1 <1>   0.0800 
 30 H        2.3690    -0.5430     2.0260 H     1 <1>   0.0800 
 31 H        2.2240     0.6920     0.7990 H     1 <1>   0.0800 
 32 H        4.3460    -2.4300    -0.9180 H     1 <1>   0.0800 
 33 H        4.4880    -3.6670     0.2960 H     1 <1>   0.0800 
 34 H        4.5690     0.4100     1.5770 H     1 <1>   0.0800 
 35 H        4.3960     0.0950    -0.1260 H     1 <1>   0.0800 
 36 H        5.8000    -1.6350     0.8760 H     1 <1>   0.0800 
 37 H        4.5830    -1.9850     2.0670 H     1 <1>   0.0800 
 38 H       -6.7550    -5.5360    -0.3820 H     1 <1>   0.1500 
 39 H       -7.3640    -1.4980     0.8380 H     1 <1>   0.1500 
 40 H       -8.9570    -6.1310     0.4950 H     1 <1>   0.1500 
 41 H       -9.5650    -2.0970     1.7130 H     1 <1>   0.1500 
 42 H      -10.3750    -4.4160     1.5470 H     1 <1>   0.1500 
@<TRIPOS>BOND
  1   1   2  2   
  2   2   3  am  
  3   2   4  am  
  4   3   5  1   
  5   3  23  1   
  6   4   6  1   
  7   4  24  1   
  8   5   7  1   
  9   5   8  1   
 10   5  25  1   
 11   6   9  1   
 12   6  26  1   
 13   6  27  1   
 14   7  10  1   
 15   7  28  1   
 16   7  29  1   
 17   8  11  1   
 18   8  30  1   
 19   8  31  1   
 20   9  12  1   
 21   9  13  2   
 22  10  14  1   
 23  10  32  1   
 24  10  33  1   
 25  11  14  1   
 26  11  34  1   
 27  11  35  1   
 28  12  15  1   
 29  13  16  1   
 30  14  36  1   
 31  14  37  1   
 32  15  16  2   
 33  16  17  1   
 34  17  18  ar  
 35  17  19  ar  
 36  18  20  ar  
 37  18  38  1   
 38  19  21  ar  
 39  19  39  1   
 40  20  22  ar  
 41  20  40  1   
 42  21  22  ar  
 43  21  41  1   
 44  22  42  1   
@<TRIPOS>SUBSTRUCTURE
  1 ****   4 GROUP 4 **** **** 0

# MOE 2024.06 (io_trps.svl 2023.06)
