@<TRIPOS>MOLECULE
NONAME
38 39 1 0 0 
SMALL
USER_CHARGES


@<TRIPOS>ATOM
  1 S        0.7990    -2.0060    -0.7950 S.o2  1 <1>   1.4470 
  2 O        1.3440    -0.6700    -0.9200 O.2   1 <1>  -0.6500 
  3 O        1.3980    -3.0940    -1.5260 O.2   1 <1>  -0.6500 
  4 N        0.9860    -2.4530     0.8090 N.am  1 <1>  -0.9140 
  5 C       -0.9990    -1.9830    -1.0190 C.ar  1 <1>  -0.0090 
  6 C        2.1570    -1.8620     1.4640 C.3   1 <1>   0.3370 
  7 C       -1.6440    -2.9470    -1.7870 C.ar  1 <1>  -0.1500 
  8 C       -1.7810    -1.0050    -0.4140 C.ar  1 <1>  -0.1500 
  9 C        3.5170    -2.2390     0.8180 C.2   1 <1>   0.5690 
 10 C        2.0720    -2.2650     2.9390 C.3   1 <1>  -0.2400 
 11 C       -3.0180    -2.9330    -1.9470 C.ar  1 <1>  -0.1500 
 12 C       -3.1570    -0.9820    -0.5670 C.ar  1 <1>  -0.1500 
 13 O        4.1160    -3.2140     1.2150 O.2   1 <1>  -0.5700 
 14 N        3.9930    -1.4660    -0.1980 N.am  1 <1>  -0.5790 
 15 C       -3.7850    -1.9530    -1.3400 C.ar  1 <1>   0.0830 
 16 C        5.2130    -1.7220    -0.9710 C.3   1 <1>   0.0490 
 17 O       -5.1230    -2.0090    -1.5440 O.3   1 <1>  -0.3620 
 18 C        5.8210    -0.5810    -1.7160 C.3   1 <1>  -0.2000 
 19 C        5.1080    -1.6720    -2.4580 C.3   1 <1>  -0.2000 
 20 C       -5.9950    -1.0580    -0.9750 C.3   1 <1>   0.0400 
 21 H        1.1750    -3.4550     0.7550 H     1 <1>   0.4200 
 22 H        2.0680    -0.7890     1.4290 H     1 <1>   0.0800 
 23 H       -1.0660    -3.7190    -2.2680 H     1 <1>   0.1500 
 24 H       -1.3040    -0.2500     0.1880 H     1 <1>   0.1500 
 25 H        2.1410    -3.3330     3.0430 H     1 <1>   0.0800 
 26 H        1.1480    -1.9220     3.3680 H     1 <1>   0.0800 
 27 H        2.8870    -1.8220     3.4820 H     1 <1>   0.0800 
 28 H       -3.5060    -3.6820    -2.5440 H     1 <1>   0.1500 
 29 H       -3.7190    -0.2070    -0.0810 H     1 <1>   0.1500 
 30 H        3.3620    -0.7680    -0.6140 H     1 <1>   0.3700 
 31 H        5.8580    -2.4630    -0.5240 H     1 <1>   0.1000 
 32 H        6.8930    -0.5300    -1.7960 H     1 <1>   0.1000 
 33 H        5.3630     0.3900    -1.6500 H     1 <1>   0.1000 
 34 H        4.1460    -1.4760    -2.8970 H     1 <1>   0.1000 
 35 H        5.6930    -2.3660    -3.0360 H     1 <1>   0.1000 
 36 H       -6.9980    -1.3050    -1.2740 H     1 <1>   0.0800 
 37 H       -5.7340    -0.0810    -1.3410 H     1 <1>   0.0800 
 38 H       -5.9110    -1.1050     0.0970 H     1 <1>   0.0800 
@<TRIPOS>BOND
  1   1   2  2   
  2   1   3  2   
  3   1   4  am  
  4   1   5  1   
  5   4   6  1   
  6   4  21  1   
  7   5   7  ar  
  8   5   8  ar  
  9   6   9  1   
 10   6  10  1   
 11   6  22  1   
 12   7  11  ar  
 13   7  23  1   
 14   8  12  ar  
 15   8  24  1   
 16   9  13  2   
 17   9  14  am  
 18  10  25  1   
 19  10  26  1   
 20  10  27  1   
 21  11  15  ar  
 22  11  28  1   
 23  12  15  ar  
 24  12  29  1   
 25  14  16  1   
 26  14  30  1   
 27  15  17  1   
 28  16  18  1   
 29  16  19  1   
 30  16  31  1   
 31  17  20  1   
 32  18  19  1   
 33  18  32  1   
 34  18  33  1   
 35  19  34  1   
 36  19  35  1   
 37  20  36  1   
 38  20  37  1   
 39  20  38  1   
@<TRIPOS>SUBSTRUCTURE
  1 ****   1 GROUP 4 **** **** 0

# MOE 2024.06 (io_trps.svl 2023.06)
