@<TRIPOS>MOLECULE
NONAME
45 46 1 0 0 
SMALL
USER_CHARGES


@<TRIPOS>ATOM
  1 BR       0.2470    -0.4520     1.8670 Br    1 <1>  -0.1110 
  2 C       -0.8530     0.5680     0.6520 C.ar  1 <1>   0.1110 
  3 C       -0.4260     1.8150     0.2120 C.ar  1 <1>   0.0830 
  4 C       -2.0550     0.0220     0.2440 C.ar  1 <1>  -0.1500 
  5 O        0.7490     2.3430     0.6160 O.3   1 <1>  -0.3630 
  6 C       -1.2400     2.5350    -0.6480 C.ar  1 <1>  -0.1500 
  7 C       -2.8560     0.7480    -0.6240 C.ar  1 <1>  -0.1500 
  8 C        1.8760     1.9870    -0.1510 C.3   1 <1>   0.1200 
  9 C       -2.4490     1.9990    -1.0660 C.ar  1 <1>  -0.1500 
 10 C        3.1190     2.4900     0.5750 C.3   1 <1>   0.1200 
 11 O        4.2460     2.1580    -0.1810 O.3   1 <1>  -0.5600 
 12 C        5.4510     2.5330     0.3950 C.3   1 <1>   0.1200 
 13 C        6.5680     2.0700    -0.5480 C.3   1 <1>   0.3430 
 14 N        7.9410     2.3580    -0.0160 N.4   1 <1>  -0.9590 
 15 C        8.2320     3.8230     0.0410 C.3   1 <1>   0.3430 
 16 C        8.9620     1.6380    -0.8320 C.3   1 <1>   0.3430 
 17 C        9.6000     4.0510     0.6850 C.3   1 <1>  -0.1600 
 18 C       10.3450     1.8190    -0.2070 C.3   1 <1>  -0.1600 
 19 C       10.7110     3.3030    -0.0650 C.3   1 <1>  -0.0800 
 20 C       12.0530     3.4630     0.6580 C.3   1 <1>  -0.2400 
 21 H       -2.3570    -0.9470     0.5990 H     1 <1>   0.1500 
 22 H       -0.9270     3.5070    -0.9860 H     1 <1>   0.1500 
 23 H       -3.7960     0.3410    -0.9540 H     1 <1>   0.1500 
 24 H        1.7830     2.4470    -1.1190 H     1 <1>   0.0800 
 25 H        1.9040     0.9160    -0.2450 H     1 <1>   0.0800 
 26 H       -3.0780     2.5590    -1.7370 H     1 <1>   0.1500 
 27 H        3.1940     2.0170     1.5400 H     1 <1>   0.0800 
 28 H        3.0750     3.5610     0.6820 H     1 <1>   0.0800 
 29 H        5.5340     2.0480     1.3530 H     1 <1>   0.0800 
 30 H        5.4510     3.6030     0.5080 H     1 <1>   0.0800 
 31 H        6.4400     2.5530    -1.5020 H     1 <1>   0.0800 
 32 H        6.4580     1.0070    -0.6910 H     1 <1>   0.0800 
 33 H        8.0110     1.9860     0.9400 H     1 <1>   0.4500 
 34 H        7.4790     4.3320     0.6190 H     1 <1>   0.0800 
 35 H        8.2310     4.2340    -0.9560 H     1 <1>   0.0800 
 36 H        8.9690     2.0280    -1.8380 H     1 <1>   0.0800 
 37 H        8.7260     0.5860    -0.8780 H     1 <1>   0.0800 
 38 H        9.5660     3.7370     1.7140 H     1 <1>   0.0800 
 39 H        9.8140     5.1060     0.6790 H     1 <1>   0.0800 
 40 H       11.0740     1.3310    -0.8300 H     1 <1>   0.0800 
 41 H       10.3680     1.3350     0.7540 H     1 <1>   0.0800 
 42 H       10.8100     3.7300    -1.0510 H     1 <1>   0.0800 
 43 H       12.0100     3.0510     1.6510 H     1 <1>   0.0800 
 44 H       12.3180     4.5030     0.7320 H     1 <1>   0.0800 
 45 H       12.8340     2.9590     0.1150 H     1 <1>   0.0800 
@<TRIPOS>BOND
  1   1   2  1   
  2   2   3  ar  
  3   2   4  ar  
  4   3   5  1   
  5   3   6  ar  
  6   4   7  ar  
  7   4  21  1   
  8   5   8  1   
  9   6   9  ar  
 10   6  22  1   
 11   7   9  ar  
 12   7  23  1   
 13   8  10  1   
 14   8  24  1   
 15   8  25  1   
 16   9  26  1   
 17  10  11  1   
 18  10  27  1   
 19  10  28  1   
 20  11  12  1   
 21  12  13  1   
 22  12  29  1   
 23  12  30  1   
 24  13  14  1   
 25  13  31  1   
 26  13  32  1   
 27  14  15  1   
 28  14  16  1   
 29  14  33  1   
 30  15  17  1   
 31  15  34  1   
 32  15  35  1   
 33  16  18  1   
 34  16  36  1   
 35  16  37  1   
 36  17  19  1   
 37  17  38  1   
 38  17  39  1   
 39  18  19  1   
 40  18  40  1   
 41  18  41  1   
 42  19  20  1   
 43  19  42  1   
 44  20  43  1   
 45  20  44  1   
 46  20  45  1   
@<TRIPOS>SUBSTRUCTURE
  1 ****  11 GROUP 4 **** **** 0

# MOE 2024.06 (io_trps.svl 2023.06)
