@<TRIPOS>MOLECULE
NONAME
48 50 1 0 0 
SMALL
USER_CHARGES


@<TRIPOS>ATOM
  1 S       -5.8930    -0.4750     0.7310 S.3   1 <1>  -0.4600 
  2 C       -6.3140     0.5580    -0.6900 C.3   1 <1>   0.5940 
  3 C       -4.6820     0.6330     1.4850 C.3   1 <1>   0.1310 
  4 N       -5.4520     1.7540    -0.5440 N.am  1 <1>  -0.6600 
  5 C       -7.7880     0.9470    -0.6270 C.ar  1 <1>  -0.1440 
  6 C       -4.6780     1.8390     0.5730 C.2   1 <1>   0.5690 
  7 C       -5.3620     2.7150    -1.6750 C.3   1 <1>   0.1400 
  8 C       -8.3300     1.5070     0.5290 C.ar  1 <1>  -0.1500 
  9 C       -8.5970     0.7700    -1.7520 C.ar  1 <1>  -0.1500 
 10 O       -4.0530     2.8340     0.8540 O.2   1 <1>  -0.5700 
 11 C       -6.3890     3.8440    -1.5320 C.3   1 <1>  -0.1600 
 12 C       -9.6570     1.8870     0.5150 C.ar  1 <1>   0.0830 
 13 C       -9.9330     1.1530    -1.7440 C.ar  1 <1>  -0.1500 
 14 C       -6.2340     4.5630    -0.1900 C.3   1 <1>   0.3430 
 15 O      -10.3640     2.4660     1.4910 O.3   1 <1>  -0.3630 
 16 C      -10.4360     1.7150    -0.5890 C.ar  1 <1>   0.0830 
 17 N       -7.2390     5.6530    -0.0400 N.4   1 <1>  -0.9590 
 18 C      -11.7110     2.5430     1.0230 C.3   1 <1>   0.4000 
 19 O      -11.6730     2.1620    -0.3500 O.3   1 <1>  -0.3620 
 20 C       -6.8110     6.5610     1.0560 C.3   1 <1>   0.3430 
 21 C       -8.6010     5.1000     0.1980 C.3   1 <1>   0.3430 
 22 C       -7.5860     7.8710     0.9770 C.3   1 <1>  -0.2400 
 23 C       -9.5040     5.5040    -0.9580 C.3   1 <1>  -0.2400 
 24 H       -6.0710     0.0000    -1.5780 H     1 <1>   0.0800 
 25 H       -3.7280     0.1390     1.4970 H     1 <1>   0.0800 
 26 H       -5.0130     0.8780     2.4770 H     1 <1>   0.0800 
 27 H       -5.5150     2.1940    -2.6060 H     1 <1>   0.0800 
 28 H       -4.3680     3.1340    -1.6980 H     1 <1>   0.0800 
 29 H       -7.7460     1.6460     1.4210 H     1 <1>   0.1500 
 30 H       -8.1930     0.3280    -2.6480 H     1 <1>   0.1500 
 31 H       -7.3740     3.4310    -1.6350 H     1 <1>   0.0800 
 32 H       -6.2320     4.5440    -2.3330 H     1 <1>   0.0800 
 33 H      -10.5670     1.0190    -2.6020 H     1 <1>   0.1500 
 34 H       -5.2360     4.9690    -0.1300 H     1 <1>   0.0800 
 35 H       -6.3460     3.8550     0.6150 H     1 <1>   0.0800 
 36 H       -7.2610     6.1970    -0.9110 H     1 <1>   0.4500 
 37 H      -12.0780     3.5500     1.1140 H     1 <1>   0.0800 
 38 H      -12.3210     1.8460     1.5700 H     1 <1>   0.0800 
 39 H       -5.7570     6.7740     0.9590 H     1 <1>   0.0800 
 40 H       -6.9700     6.0890     2.0140 H     1 <1>   0.0800 
 41 H       -9.0050     5.4760     1.1250 H     1 <1>   0.0800 
 42 H       -8.5570     4.0270     0.2650 H     1 <1>   0.0800 
 43 H       -7.4410     8.3440     0.0220 H     1 <1>   0.0800 
 44 H       -7.2210     8.5400     1.7360 H     1 <1>   0.0800 
 45 H       -8.6350     7.7190     1.1520 H     1 <1>   0.0800 
 46 H       -9.5970     6.5730    -1.0190 H     1 <1>   0.0800 
 47 H      -10.4840     5.0920    -0.7970 H     1 <1>   0.0800 
 48 H       -9.1350     5.1160    -1.8910 H     1 <1>   0.0800 
@<TRIPOS>BOND
  1   1   2  1   
  2   1   3  1   
  3   2   4  1   
  4   2   5  1   
  5   2  24  1   
  6   3   6  1   
  7   3  25  1   
  8   3  26  1   
  9   4   6  am  
 10   4   7  1   
 11   5   8  ar  
 12   5   9  ar  
 13   6  10  2   
 14   7  11  1   
 15   7  27  1   
 16   7  28  1   
 17   8  12  ar  
 18   8  29  1   
 19   9  13  ar  
 20   9  30  1   
 21  11  14  1   
 22  11  31  1   
 23  11  32  1   
 24  12  15  1   
 25  12  16  ar  
 26  13  16  ar  
 27  13  33  1   
 28  14  17  1   
 29  14  34  1   
 30  14  35  1   
 31  15  18  1   
 32  16  19  1   
 33  17  20  1   
 34  17  21  1   
 35  17  36  1   
 36  18  19  1   
 37  18  37  1   
 38  18  38  1   
 39  20  22  1   
 40  20  39  1   
 41  20  40  1   
 42  21  23  1   
 43  21  41  1   
 44  21  42  1   
 45  22  43  1   
 46  22  44  1   
 47  22  45  1   
 48  23  46  1   
 49  23  47  1   
 50  23  48  1   
@<TRIPOS>SUBSTRUCTURE
  1 ****   8 GROUP 4 **** **** 0

# MOE 2024.06 (io_trps.svl 2023.06)
