@<TRIPOS>MOLECULE
NONAME
50 51 1 0 0 
SMALL
USER_CHARGES


@<TRIPOS>ATOM
  1 S        0.3120    -0.0690     0.6800 S.o2  1 <1>   1.4470 
  2 O        0.4470     0.2120     2.0930 O.2   1 <1>  -0.6500 
  3 O       -0.9030     0.3140    -0.0040 O.2   1 <1>  -0.6500 
  4 N        1.5890     0.7330    -0.0980 N.am  1 <1>  -0.8490 
  5 C        0.6590    -1.8190     0.3470 C.ar  1 <1>  -0.0090 
  6 C        2.8840     0.4630     0.5490 C.3   1 <1>   0.1960 
  7 C        1.3380     2.1750    -0.1610 C.3   1 <1>   0.1960 
  8 C        0.5750    -2.3280    -0.9440 C.ar  1 <1>  -0.1500 
  9 C        1.0380    -2.6890     1.3640 C.ar  1 <1>  -0.1500 
 10 C        4.0300     1.0650    -0.2770 C.3   1 <1>  -0.0190 
 11 C        2.4250     2.8700    -0.9910 C.3   1 <1>  -0.1600 
 12 C        0.8610    -3.6560    -1.2110 C.ar  1 <1>  -0.1500 
 13 C        1.3260    -4.0190     1.1080 C.ar  1 <1>  -0.1500 
 14 C        5.3760     0.7480     0.3600 C.2   1 <1>   0.5690 
 15 C        3.8290     2.5820    -0.4410 C.3   1 <1>  -0.1600 
 16 C        1.2390    -4.5110    -0.1900 C.ar  1 <1>   0.0830 
 17 O        5.4580     0.6420     1.5600 O.2   1 <1>  -0.5700 
 18 N        6.4540     0.5990    -0.4530 N.am  1 <1>  -0.7300 
 19 O        1.5050    -5.7940    -0.5340 O.3   1 <1>  -0.3630 
 20 C        7.8300     0.3140     0.0050 C.3   1 <1>   0.1400 
 21 C        1.8890    -6.7490     0.4280 C.3   1 <1>   0.1200 
 22 C        8.7750     1.3700    -0.5670 C.3   1 <1>  -0.1600 
 23 C        2.1050    -8.0800    -0.2870 C.3   1 <1>  -0.2400 
 24 C       10.2210     1.1210    -0.1240 C.3   1 <1>  -0.2400 
 25 H        3.0410    -0.6000     0.6290 H     1 <1>   0.0800 
 26 H        2.8930     0.8770     1.5450 H     1 <1>   0.0800 
 27 H        1.3120     2.5860     0.8350 H     1 <1>   0.0800 
 28 H        0.3810     2.3590    -0.6240 H     1 <1>   0.0800 
 29 H        0.2830    -1.6740    -1.7480 H     1 <1>   0.1500 
 30 H        1.1100    -2.3190     2.3740 H     1 <1>   0.1500 
 31 H        4.0060     0.6000    -1.2450 H     1 <1>   0.0800 
 32 H        2.2470     3.9300    -0.9910 H     1 <1>   0.0800 
 33 H        2.3520     2.5250    -2.0080 H     1 <1>   0.0800 
 34 H        0.7910    -4.0380    -2.2140 H     1 <1>   0.1500 
 35 H        1.6150    -4.6510     1.9260 H     1 <1>   0.1500 
 36 H        4.5740     2.9850    -1.1050 H     1 <1>   0.0800 
 37 H        3.9420     3.0590     0.5180 H     1 <1>   0.0800 
 38 H        6.3440     0.7000    -1.4620 H     1 <1>   0.3700 
 39 H        8.1200    -0.6680    -0.3310 H     1 <1>   0.0800 
 40 H        7.8710     0.3300     1.0830 H     1 <1>   0.0800 
 41 H        1.1030    -6.8330     1.1580 H     1 <1>   0.0800 
 42 H        2.8010    -6.4160     0.8940 H     1 <1>   0.0800 
 43 H        8.4670     2.3430    -0.2240 H     1 <1>   0.0800 
 44 H        8.7300     1.3520    -1.6420 H     1 <1>   0.0800 
 45 H        1.1930    -8.3950    -0.7630 H     1 <1>   0.0800 
 46 H        2.3990    -8.8320     0.4220 H     1 <1>   0.0800 
 47 H        2.8800    -7.9820    -1.0260 H     1 <1>   0.0800 
 48 H       10.2960     1.1540     0.9490 H     1 <1>   0.0800 
 49 H       10.8670     1.8780    -0.5330 H     1 <1>   0.0800 
 50 H       10.5620     0.1600    -0.4660 H     1 <1>   0.0800 
@<TRIPOS>BOND
  1   1   2  2   
  2   1   3  2   
  3   1   4  am  
  4   1   5  1   
  5   4   6  1   
  6   4   7  1   
  7   5   8  ar  
  8   5   9  ar  
  9   6  10  1   
 10   6  25  1   
 11   6  26  1   
 12   7  11  1   
 13   7  27  1   
 14   7  28  1   
 15   8  12  ar  
 16   8  29  1   
 17   9  13  ar  
 18   9  30  1   
 19  10  14  1   
 20  10  15  1   
 21  10  31  1   
 22  11  15  1   
 23  11  32  1   
 24  11  33  1   
 25  12  16  ar  
 26  12  34  1   
 27  13  16  ar  
 28  13  35  1   
 29  14  17  2   
 30  14  18  am  
 31  15  36  1   
 32  15  37  1   
 33  16  19  1   
 34  18  20  1   
 35  18  38  1   
 36  19  21  1   
 37  20  22  1   
 38  20  39  1   
 39  20  40  1   
 40  21  23  1   
 41  21  41  1   
 42  21  42  1   
 43  22  24  1   
 44  22  43  1   
 45  22  44  1   
 46  23  45  1   
 47  23  46  1   
 48  23  47  1   
 49  24  48  1   
 50  24  49  1   
 51  24  50  1   
@<TRIPOS>SUBSTRUCTURE
  1 ****   6 GROUP 4 **** **** 0

# MOE 2024.06 (io_trps.svl 2023.06)
