@<TRIPOS>MOLECULE
NONAME
51 53 1 0 0 
SMALL
USER_CHARGES


@<TRIPOS>ATOM
  1 O        0.0620     0.4460     1.6180 O.2   1 <1>  -0.5700 
  2 C       -0.2430     1.0270     0.5950 C.2   1 <1>   0.5440 
  3 N        0.7220     1.6630    -0.1450 N.am  1 <1>  -0.5470 
  4 C       -1.6220     1.0420     0.1420 C.ar  1 <1>   0.0860 
  5 C        2.0900     1.8120     0.1260 C.ar  1 <1>   0.1170 
  6 C       -2.4680    -0.0380     0.3990 C.ar  1 <1>  -0.1500 
  7 C       -2.1600     2.1220    -0.5640 C.ar  1 <1>  -0.1500 
  8 C        2.9850     0.7390     0.1200 C.ar  1 <1>  -0.1440 
  9 C        2.5740     3.0910     0.3690 C.ar  1 <1>  -0.1500 
 10 C       -3.7790    -0.0520    -0.0390 C.ar  1 <1>  -0.1500 
 11 C       -3.4710     2.1130    -1.0060 C.ar  1 <1>  -0.1500 
 12 C        4.3310     0.9710     0.3560 C.ar  1 <1>  -0.1500 
 13 C        2.5250    -0.6880    -0.1460 C.3   1 <1>  -0.0970 
 14 C        3.9180     3.3090     0.5980 C.ar  1 <1>  -0.1500 
 15 C       -4.2830     1.0240    -0.7460 C.ar  1 <1>  -0.1500 
 16 C        4.8140     2.2520     0.5920 C.ar  1 <1>   0.1170 
 17 N        6.1640     2.5280     0.8340 N.am  1 <1>  -0.5470 
 18 C        7.2980     1.9880     0.3030 C.2   1 <1>   0.5690 
 19 O        7.2620     1.0160    -0.4210 O.2   1 <1>  -0.5700 
 20 C        8.6580     2.6090     0.7040 C.3   1 <1>  -0.0190 
 21 C        8.9050     4.0850     0.2490 C.3   1 <1>  -0.1860 
 22 C        9.8570     1.6900     0.3210 C.3   1 <1>  -0.1600 
 23 C        7.6670     4.9710     0.3270 C.2   1 <1>   0.9060 
 24 C        9.6480     4.1240    -1.1030 C.3   1 <1>  -0.1600 
 25 C       11.1700     2.4630     0.1470 C.3   1 <1>  -0.1600 
 26 O        7.0760     5.0230     1.4140 O.co2 1 <1>  -0.9000 
 27 O        7.2530     5.5770    -0.6620 O.co2 1 <1>  -0.9000 
 28 C       11.0480     3.4860    -0.9970 C.3   1 <1>  -0.1600 
 29 H        0.4080     2.1190    -0.9970 H     1 <1>   0.3700 
 30 H       -2.0830    -0.8780     0.9530 H     1 <1>   0.1500 
 31 H       -1.5530     2.9860    -0.7630 H     1 <1>   0.1500 
 32 H        1.8980     3.9250     0.3800 H     1 <1>   0.1500 
 33 H       -4.4090    -0.9000     0.1710 H     1 <1>   0.1500 
 34 H       -3.8650     2.9550    -1.5490 H     1 <1>   0.1500 
 35 H        5.0290     0.1540     0.3560 H     1 <1>   0.1500 
 36 H        2.0440    -1.0820     0.7310 H     1 <1>   0.0800 
 37 H        3.3600    -1.3180    -0.3920 H     1 <1>   0.0800 
 38 H        1.8320    -0.7120    -0.9660 H     1 <1>   0.0800 
 39 H        4.2920     4.3050     0.7760 H     1 <1>   0.1500 
 40 H       -5.3040     1.0150    -1.0890 H     1 <1>   0.1500 
 41 H        6.3270     3.4650     1.2540 H     1 <1>   0.3700 
 42 H        8.6340     2.6470     1.7790 H     1 <1>   0.0800 
 43 H        9.5680     4.5290     0.9670 H     1 <1>   0.0800 
 44 H        9.6620     1.2000    -0.6160 H     1 <1>   0.0800 
 45 H        9.9700     0.9230     1.0670 H     1 <1>   0.0800 
 46 H        9.7390     5.1420    -1.4420 H     1 <1>   0.0800 
 47 H        9.0540     3.5960    -1.8300 H     1 <1>   0.0800 
 48 H       11.9750     1.7800    -0.0630 H     1 <1>   0.0800 
 49 H       11.4030     2.9720     1.0670 H     1 <1>   0.0800 
 50 H       11.7800     4.2600    -0.8450 H     1 <1>   0.0800 
 51 H       11.2720     3.0070    -1.9340 H     1 <1>   0.0800 
@<TRIPOS>BOND
  1   1   2  2   
  2   2   3  am  
  3   2   4  1   
  4   3   5  1   
  5   3  29  1   
  6   4   6  ar  
  7   4   7  ar  
  8   5   8  ar  
  9   5   9  ar  
 10   6  10  ar  
 11   6  30  1   
 12   7  11  ar  
 13   7  31  1   
 14   8  12  ar  
 15   8  13  1   
 16   9  14  ar  
 17   9  32  1   
 18  10  15  ar  
 19  10  33  1   
 20  11  15  ar  
 21  11  34  1   
 22  12  16  ar  
 23  12  35  1   
 24  13  36  1   
 25  13  37  1   
 26  13  38  1   
 27  14  16  ar  
 28  14  39  1   
 29  15  40  1   
 30  16  17  1   
 31  17  18  am  
 32  17  41  1   
 33  18  19  2   
 34  18  20  1   
 35  20  21  1   
 36  20  22  1   
 37  20  42  1   
 38  21  23  1   
 39  21  24  1   
 40  21  43  1   
 41  22  25  1   
 42  22  44  1   
 43  22  45  1   
 44  23  26  ar  
 45  23  27  ar  
 46  24  28  1   
 47  24  46  1   
 48  24  47  1   
 49  25  28  1   
 50  25  48  1   
 51  25  49  1   
 52  28  50  1   
 53  28  51  1   
@<TRIPOS>SUBSTRUCTURE
  1 ****  16 GROUP 4 **** **** 0

# MOE 2024.06 (io_trps.svl 2023.06)
