@<TRIPOS>MOLECULE
NONAME
45 48 1 0 0 
SMALL
USER_CHARGES


@<TRIPOS>ATOM
  1 O        1.6100     1.4500    -1.3130 O.2   1 <1>  -0.5700 
  2 C        0.7470     1.9720    -0.6590 C.2   1 <1>   0.4230 
  3 C        0.9350     3.1180     0.1850 C.ar  1 <1>   0.0860 
  4 C       -0.6510     1.4040    -0.7370 C.3   1 <1>  -0.0990 
  5 C       -0.1840     3.7850     0.6970 C.ar  1 <1>   0.0820 
  6 C        2.1980     3.6010     0.5280 C.ar  1 <1>  -0.1500 
  7 C       -1.6860     2.5380    -0.7380 C.3   1 <1>   0.2800 
  8 O       -1.4390     3.4020     0.3660 O.3   1 <1>  -0.3630 
  9 C       -0.0380     4.8660     1.5520 C.ar  1 <1>  -0.1500 
 10 C        2.3430     4.6880     1.3680 C.ar  1 <1>  -0.1500 
 11 C       -1.6380     3.3890    -2.0220 C.3   1 <1>  -0.1600 
 12 C       -3.1120     1.9850    -0.5630 C.3   1 <1>  -0.1600 
 13 C        1.2240     5.3190     1.8870 C.ar  1 <1>  -0.1500 
 14 C       -2.6210     4.5670    -1.9950 C.3   1 <1>   0.3430 
 15 C       -4.2220     2.9590    -0.9790 C.3   1 <1>   0.3430 
 16 N       -3.7020     4.3540    -0.9890 N.4   1 <1>  -0.9590 
 17 C       -4.7770     5.3790    -1.0720 C.3   1 <1>   0.4860 
 18 C       -5.6620     5.2440     0.1510 C.ar  1 <1>  -0.1430 
 19 C       -6.9440     4.7260     0.0310 C.ar  1 <1>  -0.1500 
 20 C       -5.1930     5.6280     1.4000 C.ar  1 <1>  -0.1500 
 21 C       -7.7430     4.5810     1.1520 C.ar  1 <1>  -0.1500 
 22 C       -5.9940     5.4810     2.5190 C.ar  1 <1>  -0.1500 
 23 C       -7.2670     4.9560     2.3950 C.ar  1 <1>  -0.1500 
 24 H       -0.8060     0.7590     0.1090 H     1 <1>   0.0800 
 25 H       -0.7450     0.8090    -1.6270 H     1 <1>   0.0800 
 26 H        3.0710     3.1080     0.1320 H     1 <1>   0.1500 
 27 H       -0.9060     5.3520     1.9570 H     1 <1>   0.1500 
 28 H        3.3270     5.0440     1.6250 H     1 <1>   0.1500 
 29 H       -1.8790     2.7640    -2.8640 H     1 <1>   0.0800 
 30 H       -0.6460     3.7650    -2.2010 H     1 <1>   0.0800 
 31 H       -3.2580     1.6910     0.4630 H     1 <1>   0.0800 
 32 H       -3.2310     1.0950    -1.1560 H     1 <1>   0.0800 
 33 H        1.3420     6.1610     2.5490 H     1 <1>   0.1500 
 34 H       -3.0440     4.6980    -2.9780 H     1 <1>   0.0800 
 35 H       -2.0800     5.4660    -1.7420 H     1 <1>   0.0800 
 36 H       -5.0480     2.8680    -0.2900 H     1 <1>   0.0800 
 37 H       -4.5770     2.7040    -1.9650 H     1 <1>   0.0800 
 38 H       -3.2610     4.4700    -0.0620 H     1 <1>   0.4500 
 39 H       -5.3600     5.2400    -1.9680 H     1 <1>   0.0800 
 40 H       -4.3480     6.3680    -1.0910 H     1 <1>   0.0800 
 41 H       -7.3390     4.4320    -0.9270 H     1 <1>   0.1500 
 42 H       -4.2080     6.0460     1.5220 H     1 <1>   0.1500 
 43 H       -8.7380     4.1790     1.0600 H     1 <1>   0.1500 
 44 H       -5.6320     5.7780     3.4890 H     1 <1>   0.1500 
 45 H       -7.8900     4.8430     3.2660 H     1 <1>   0.1500 
@<TRIPOS>BOND
  1   1   2  2   
  2   2   3  1   
  3   2   4  1   
  4   3   5  ar  
  5   3   6  ar  
  6   4   7  1   
  7   4  24  1   
  8   4  25  1   
  9   5   8  1   
 10   5   9  ar  
 11   6  10  ar  
 12   6  26  1   
 13   7   8  1   
 14   7  11  1   
 15   7  12  1   
 16   9  13  ar  
 17   9  27  1   
 18  10  13  ar  
 19  10  28  1   
 20  11  14  1   
 21  11  29  1   
 22  11  30  1   
 23  12  15  1   
 24  12  31  1   
 25  12  32  1   
 26  13  33  1   
 27  14  16  1   
 28  14  34  1   
 29  14  35  1   
 30  15  16  1   
 31  15  36  1   
 32  15  37  1   
 33  16  17  1   
 34  16  38  1   
 35  17  18  1   
 36  17  39  1   
 37  17  40  1   
 38  18  19  ar  
 39  18  20  ar  
 40  19  21  ar  
 41  19  41  1   
 42  20  22  ar  
 43  20  42  1   
 44  21  23  ar  
 45  21  43  1   
 46  22  23  ar  
 47  22  44  1   
 48  23  45  1   
@<TRIPOS>SUBSTRUCTURE
  1 ****   8 GROUP 4 **** **** 0

# MOE 2024.06 (io_trps.svl 2023.06)
