@<TRIPOS>MOLECULE
NONAME
45 47 1 0 0 
SMALL
USER_CHARGES


@<TRIPOS>ATOM
  1 O       -0.9540    -0.0430    -0.1010 O.2   1 <1>  -0.5700 
  2 C       -1.7940     0.7770     0.1550 C.2   1 <1>   0.6590 
  3 O       -3.0460     0.3800     0.3190 O.3   1 <1>  -0.4300 
  4 C       -1.4280     2.2640     0.3040 C.3   1 <1>   0.1220 
  5 C       -4.1240     1.2390     0.5920 C.3   1 <1>   0.3810 
  6 C       -2.6680     3.1540     0.1490 C.2   1 <1>   0.4480 
  7 C       -0.3850     2.6760    -0.7630 C.3   1 <1>  -0.2400 
  8 C       -0.7980     2.4820     1.6990 C.3   1 <1>  -0.2400 
  9 C       -5.4050     0.4450     0.3600 C.2   1 <1>  -0.1810 
 10 C       -4.0000     2.5170    -0.2680 C.3   1 <1>   0.0610 
 11 O       -2.5910     4.3290     0.3700 O.2   1 <1>  -0.5700 
 12 C       -6.5880     0.5880     1.1220 C.ar  1 <1>   0.0000 
 13 C       -5.6460    -0.5050    -0.5700 C.2   1 <1>  -0.3020 
 14 C       -5.1840     3.4760     0.0140 C.3   1 <1>  -0.2400 
 15 C       -4.0040     2.2270    -1.7880 C.3   1 <1>  -0.2400 
 16 C       -7.5220    -0.2950     0.5840 C.ar  1 <1>  -0.1520 
 17 C       -6.9280     1.3970     2.2090 C.ar  1 <1>  -0.1500 
 18 N       -6.9300    -1.0060    -0.4660 N.pl3 1 <1>   0.2940 
 19 C       -8.8210    -0.3310     1.1070 C.ar  1 <1>  -0.1500 
 20 C       -8.2010     1.3380     2.7280 C.ar  1 <1>  -0.1500 
 21 C       -7.4300    -2.0650    -1.2420 C.2   1 <1>   0.5180 
 22 C       -9.1480     0.4770     2.1720 C.ar  1 <1>  -0.1500 
 23 O       -7.0470    -2.2940    -2.3630 O.2   1 <1>  -0.5700 
 24 C       -8.4690    -3.0080    -0.6670 C.3   1 <1>  -0.1790 
 25 H       -4.0600     1.4940     1.6370 H     1 <1>   0.0800 
 26 H       -0.7770     2.5170    -1.7520 H     1 <1>   0.0800 
 27 H        0.5160     2.0960    -0.6600 H     1 <1>   0.0800 
 28 H       -0.1320     3.7180    -0.6620 H     1 <1>   0.0800 
 29 H       -1.5010     2.2320     2.4740 H     1 <1>   0.0800 
 30 H       -0.5040     3.5100     1.8270 H     1 <1>   0.0800 
 31 H        0.0740     1.8620     1.8180 H     1 <1>   0.0800 
 32 H       -4.9750    -0.8840    -1.3230 H     1 <1>   0.1500 
 33 H       -6.1220     3.0320    -0.2690 H     1 <1>   0.0800 
 34 H       -5.2250     3.7340     1.0580 H     1 <1>   0.0800 
 35 H       -5.0680     4.3880    -0.5460 H     1 <1>   0.0800 
 36 H       -3.2380     1.5260    -2.0670 H     1 <1>   0.0800 
 37 H       -3.8410     3.1370    -2.3390 H     1 <1>   0.0800 
 38 H       -4.9520     1.8190    -2.0940 H     1 <1>   0.0800 
 39 H       -6.1990     2.0610     2.6340 H     1 <1>   0.1500 
 40 H       -9.5720    -0.9740     0.6890 H     1 <1>   0.1500 
 41 H       -8.4780     1.9570     3.5640 H     1 <1>   0.1500 
 42 H      -10.1420     0.4550     2.5860 H     1 <1>   0.1500 
 43 H       -8.3550    -3.0980     0.3980 H     1 <1>   0.0800 
 44 H       -8.3460    -3.9820    -1.1050 H     1 <1>   0.0800 
 45 H       -9.4540    -2.6520    -0.9030 H     1 <1>   0.0800 
@<TRIPOS>BOND
  1   1   2  2   
  2   2   3  1   
  3   2   4  1   
  4   3   5  1   
  5   4   6  1   
  6   4   7  1   
  7   4   8  1   
  8   5   9  1   
  9   5  10  1   
 10   5  25  1   
 11   6  10  1   
 12   6  11  2   
 13   7  26  1   
 14   7  27  1   
 15   7  28  1   
 16   8  29  1   
 17   8  30  1   
 18   8  31  1   
 19   9  12  1   
 20   9  13  2   
 21  10  14  1   
 22  10  15  1   
 23  12  16  ar  
 24  12  17  ar  
 25  13  18  1   
 26  13  32  1   
 27  14  33  1   
 28  14  34  1   
 29  14  35  1   
 30  15  36  1   
 31  15  37  1   
 32  15  38  1   
 33  16  18  1   
 34  16  19  ar  
 35  17  20  ar  
 36  17  39  1   
 37  18  21  1   
 38  19  22  ar  
 39  19  40  1   
 40  20  22  ar  
 41  20  41  1   
 42  21  23  2   
 43  21  24  1   
 44  22  42  1   
 45  24  43  1   
 46  24  44  1   
 47  24  45  1   
@<TRIPOS>SUBSTRUCTURE
  1 ****   9 GROUP 4 **** **** 0

# MOE 2024.06 (io_trps.svl 2023.06)
