@<TRIPOS>MOLECULE
NONAME
31 32 1 0 0 
SMALL
USER_CHARGES


@<TRIPOS>ATOM
  1 O       -0.0100     0.8550     1.0460 O.2   1 <1>  -0.5700 
  2 C       -0.5160     1.7660     0.4340 C.2   1 <1>   0.5690 
  3 N        0.1550     2.6020    -0.4010 N.am  1 <1>  -0.4200 
  4 C       -1.9930     2.1910     0.5580 C.3   1 <1>   0.2510 
  5 C       -0.6470     3.6070    -0.8360 C.2   1 <1>   0.5690 
  6 C        1.5810     2.4600    -0.7600 C.3   1 <1>   0.1400 
  7 N       -3.0200     1.2420     0.0270 N.3   1 <1>  -0.8100 
  8 C       -2.0360     3.4930    -0.2630 C.3   1 <1>  -0.0990 
  9 O       -0.3160     4.5020    -1.5690 O.2   1 <1>  -0.5700 
 10 C        2.4450     3.2300     0.2370 C.3   1 <1>  -0.2400 
 11 C       -4.3880     1.6570     0.4170 C.3   1 <1>   0.1100 
 12 C       -2.7960    -0.1500     0.4870 C.3   1 <1>   0.1100 
 13 C       -5.4440     0.6580    -0.0880 C.3   1 <1>   0.1200 
 14 C       -3.9100    -1.0970     0.0050 C.3   1 <1>   0.1200 
 15 O       -5.1660    -0.6230     0.3960 O.3   1 <1>  -0.5600 
 16 H       -2.1890     2.3930     1.5970 H     1 <1>   0.0800 
 17 H        1.7370     2.8430    -1.7550 H     1 <1>   0.0800 
 18 H        1.8490     1.4170    -0.7510 H     1 <1>   0.0800 
 19 H       -2.2320     4.3410     0.3660 H     1 <1>   0.0800 
 20 H       -2.7430     3.4530    -1.0700 H     1 <1>   0.0800 
 21 H        2.1940     4.2760     0.2190 H     1 <1>   0.0800 
 22 H        3.4820     3.1250    -0.0270 H     1 <1>   0.0800 
 23 H        2.3060     2.8410     1.2300 H     1 <1>   0.0800 
 24 H       -4.6120     2.6250     0.0060 H     1 <1>   0.0800 
 25 H       -4.4640     1.7220     1.4890 H     1 <1>   0.0800 
 26 H       -2.7460    -0.1840     1.5620 H     1 <1>   0.0800 
 27 H       -1.8630    -0.5170     0.0970 H     1 <1>   0.0800 
 28 H       -5.4540     0.6280    -1.1630 H     1 <1>   0.0800 
 29 H       -6.4210     0.9360     0.2640 H     1 <1>   0.0800 
 30 H       -3.7790    -2.0740     0.4340 H     1 <1>   0.0800 
 31 H       -3.8930    -1.1820    -1.0680 H     1 <1>   0.0800 
@<TRIPOS>BOND
  1   1   2  2   
  2   2   3  am  
  3   2   4  1   
  4   3   5  am  
  5   3   6  1   
  6   4   7  1   
  7   4   8  1   
  8   4  16  1   
  9   5   8  1   
 10   5   9  2   
 11   6  10  1   
 12   6  17  1   
 13   6  18  1   
 14   7  11  1   
 15   7  12  1   
 16   8  19  1   
 17   8  20  1   
 18  10  21  1   
 19  10  22  1   
 20  10  23  1   
 21  11  13  1   
 22  11  24  1   
 23  11  25  1   
 24  12  14  1   
 25  12  26  1   
 26  12  27  1   
 27  13  15  1   
 28  13  28  1   
 29  13  29  1   
 30  14  15  1   
 31  14  30  1   
 32  14  31  1   
@<TRIPOS>SUBSTRUCTURE
  1 ****   4 GROUP 4 **** **** 0

# MOE 2024.06 (io_trps.svl 2023.06)
