@<TRIPOS>MOLECULE
ka-07878
46 48 1 0 0 
SMALL
USER_CHARGES


@<TRIPOS>ATOM
  1 O        0.6120    -1.1740    -2.4430 O.2   1 <1>  -0.5700 
  2 C        1.3370    -1.7880    -1.6920 C.2   1 <1>   0.7800 
  3 O        2.6490    -1.5980    -1.7880 O.3   1 <1>  -0.4300 
  4 N        0.8410    -2.6440    -0.7580 N.am  1 <1>  -0.7300 
  5 C        3.6060    -2.2970    -1.0170 C.3   1 <1>   0.1200 
  6 C       -0.5920    -2.9550    -0.6120 C.3   1 <1>   0.1400 
  7 C        4.9920    -1.6790    -1.2270 C.3   1 <1>   0.2070 
  8 C       -1.2640    -1.8320     0.1850 C.3   1 <1>  -0.1600 
  9 C        6.0470    -2.4740    -0.4660 C.ar  1 <1>  -0.1430 
 10 C        5.1150    -0.3200    -0.5460 C.ar  1 <1>  -0.1430 
 11 C       -2.7950    -1.9220     0.1110 C.3   1 <1>  -0.1600 
 12 C        6.6360    -1.6840     0.5050 C.ar  1 <1>   0.0000 
 13 C        6.4300    -3.7910    -0.6460 C.ar  1 <1>  -0.1500 
 14 C        6.0680    -0.3680     0.4550 C.ar  1 <1>   0.0000 
 15 C        4.4200     0.8460    -0.8150 C.ar  1 <1>  -0.1500 
 16 C       -3.4310    -0.7030     0.7780 C.3   1 <1>   0.3430 
 17 C        7.6200    -2.2200     1.3250 C.ar  1 <1>  -0.1500 
 18 C        7.4140    -4.3230     0.1740 C.ar  1 <1>  -0.1500 
 19 C        6.3320     0.7660     1.2110 C.ar  1 <1>  -0.1500 
 20 C        4.6870     1.9770    -0.0590 C.ar  1 <1>  -0.1500 
 21 N       -4.8980    -0.7590     0.5960 N.4   1 <1>  -0.8530 
 22 C        8.0040    -3.5400     1.1560 C.ar  1 <1>  -0.1500 
 23 C        5.6380     1.9360     0.9500 C.ar  1 <1>  -0.1500 
 24 H        1.4840    -3.0930    -0.1090 H     1 <1>   0.3700 
 25 H        3.6010    -3.3250    -1.3310 H     1 <1>   0.0800 
 26 H        3.3390    -2.2250     0.0230 H     1 <1>   0.0800 
 27 H       -0.7120    -3.9050    -0.1180 H     1 <1>   0.0800 
 28 H       -1.0300    -3.0240    -1.5950 H     1 <1>   0.0800 
 29 H        5.2450    -1.6230    -2.2700 H     1 <1>   0.0800 
 30 H       -0.9540    -0.8870    -0.2300 H     1 <1>   0.0800 
 31 H       -0.9340    -1.8790     1.2090 H     1 <1>   0.0800 
 32 H       -3.1210    -2.8260     0.5970 H     1 <1>   0.0800 
 33 H       -3.0850    -1.9550    -0.9260 H     1 <1>   0.0800 
 34 H        5.9760    -4.3990    -1.4090 H     1 <1>   0.1500 
 35 H        3.6820     0.8750    -1.5980 H     1 <1>   0.1500 
 36 H       -3.0390     0.1970     0.3280 H     1 <1>   0.0800 
 37 H       -3.1840    -0.6920     1.8280 H     1 <1>   0.0800 
 38 H        8.0780    -1.6090     2.0810 H     1 <1>   0.1500 
 39 H        7.7220    -5.3460     0.0480 H     1 <1>   0.1500 
 40 H        7.0720     0.7310     1.9900 H     1 <1>   0.1500 
 41 H        4.1530     2.8900    -0.2580 H     1 <1>   0.1500 
 42 H       -5.1380    -0.7560    -0.4020 H     1 <1>   0.4500 
 43 H       -5.3540     0.0510     1.0330 H     1 <1>   0.4500 
 44 H       -5.2870    -1.6100     1.0160 H     1 <1>   0.4500 
 45 H        8.7670    -3.9610     1.7880 H     1 <1>   0.1500 
 46 H        5.8380     2.8190     1.5320 H     1 <1>   0.1500 
@<TRIPOS>BOND
  1   1   2  2   
  2   2   3  1   
  3   2   4  am  
  4   3   5  1   
  5   4   6  1   
  6   4  24  1   
  7   5   7  1   
  8   5  25  1   
  9   5  26  1   
 10   6   8  1   
 11   6  27  1   
 12   6  28  1   
 13   7   9  1   
 14   7  10  1   
 15   7  29  1   
 16   8  11  1   
 17   8  30  1   
 18   8  31  1   
 19   9  12  ar  
 20   9  13  ar  
 21  10  14  ar  
 22  10  15  ar  
 23  11  16  1   
 24  11  32  1   
 25  11  33  1   
 26  12  14  1   
 27  12  17  ar  
 28  13  18  ar  
 29  13  34  1   
 30  14  19  ar  
 31  15  20  ar  
 32  15  35  1   
 33  16  21  1   
 34  16  36  1   
 35  16  37  1   
 36  17  22  ar  
 37  17  38  1   
 38  18  22  ar  
 39  18  39  1   
 40  19  23  ar  
 41  19  40  1   
 42  20  23  ar  
 43  20  41  1   
 44  21  42  1   
 45  21  43  1   
 46  21  44  1   
 47  22  45  1   
 48  23  46  1   
@<TRIPOS>SUBSTRUCTURE
  1 ****   5 GROUP 4 **** **** 0

# MOE 2024.06 (io_trps.svl 2023.06)
