@<TRIPOS>MOLECULE
NONAME
34 34 1 0 0 
SMALL
USER_CHARGES


@<TRIPOS>ATOM
  1 O        0.1100     0.3790    -0.7900 O.2   1 <1>  -0.5700 
  2 C        0.0610     1.5020    -0.3320 C.2   1 <1>   0.6340 
  3 O       -1.1360     2.0350    -0.0650 O.3   1 <1>  -0.4300 
  4 C        1.2390     2.3010    -0.0570 C.ar  1 <1>   0.0860 
  5 C       -2.3310     1.3230    -0.3030 C.3   1 <1>   0.1200 
  6 C        2.5220     1.8070    -0.3160 C.ar  1 <1>  -0.1500 
  7 C        1.1610     3.5910     0.4770 C.ar  1 <1>  -0.1500 
  8 C       -3.5080     2.2080     0.1070 C.3   1 <1>  -0.1600 
  9 C        3.6550     2.5560    -0.0640 C.ar  1 <1>  -0.1500 
 10 C        2.2920     4.3420     0.7320 C.ar  1 <1>  -0.1500 
 11 C       -4.8450     1.4940    -0.1260 C.3   1 <1>  -0.1600 
 12 C        3.5590     3.8390     0.4570 C.ar  1 <1>   0.1170 
 13 C       -6.0230     2.3820     0.2840 C.3   1 <1>  -0.2400 
 14 N        4.7170     4.5720     0.7080 N.am  1 <1>  -0.5470 
 15 C        5.0540     5.8540     0.4030 C.2   1 <1>   0.5690 
 16 O        6.1140     6.2930     0.7620 O.2   1 <1>  -0.5700 
 17 C        4.1330     6.7390    -0.4040 C.3   1 <1>  -0.1790 
 18 H       -2.3080     0.4160     0.2780 H     1 <1>   0.0800 
 19 H       -2.3770     1.0780    -1.3510 H     1 <1>   0.0800 
 20 H        2.6230     0.8150    -0.7240 H     1 <1>   0.1500 
 21 H        0.1940     4.0110     0.6990 H     1 <1>   0.1500 
 22 H       -3.4820     3.1150    -0.4710 H     1 <1>   0.0800 
 23 H       -3.4130     2.4570     1.1490 H     1 <1>   0.0800 
 24 H        4.6250     2.1440    -0.2780 H     1 <1>   0.1500 
 25 H        2.1930     5.3240     1.1570 H     1 <1>   0.1500 
 26 H       -4.8740     0.5820     0.4460 H     1 <1>   0.0800 
 27 H       -4.9420     1.2370    -1.1680 H     1 <1>   0.0800 
 28 H       -5.9580     2.6330     1.3290 H     1 <1>   0.0800 
 29 H       -6.9510     1.8650     0.1140 H     1 <1>   0.0800 
 30 H       -6.0270     3.2910    -0.2910 H     1 <1>   0.0800 
 31 H        5.4880     4.0720     1.1510 H     1 <1>   0.3700 
 32 H        3.6260     6.1650    -1.1560 H     1 <1>   0.0800 
 33 H        4.7080     7.5070    -0.8860 H     1 <1>   0.0800 
 34 H        3.4160     7.2020     0.2460 H     1 <1>   0.0800 
@<TRIPOS>BOND
  1   1   2  2   
  2   2   3  1   
  3   2   4  1   
  4   3   5  1   
  5   4   6  ar  
  6   4   7  ar  
  7   5   8  1   
  8   5  18  1   
  9   5  19  1   
 10   6   9  ar  
 11   6  20  1   
 12   7  10  ar  
 13   7  21  1   
 14   8  11  1   
 15   8  22  1   
 16   8  23  1   
 17   9  12  ar  
 18   9  24  1   
 19  10  12  ar  
 20  10  25  1   
 21  11  13  1   
 22  11  26  1   
 23  11  27  1   
 24  12  14  1   
 25  13  28  1   
 26  13  29  1   
 27  13  30  1   
 28  14  15  am  
 29  14  31  1   
 30  15  16  2   
 31  15  17  1   
 32  17  32  1   
 33  17  33  1   
 34  17  34  1   
@<TRIPOS>SUBSTRUCTURE
  1 ****   7 GROUP 4 **** **** 0

# MOE 2024.06 (io_trps.svl 2023.06)
