@<TRIPOS>MOLECULE
NONAME
44 46 1 0 0 
SMALL
USER_CHARGES


@<TRIPOS>ATOM
  1 S       -0.2170    -0.0030    -0.0080 S.3   1 <1>  -0.3320 
  2 C       -1.8090    -0.7860     0.2940 C.ar  1 <1>   0.1020 
  3 C        0.6490    -1.0150    -1.2880 C.3   1 <1>  -0.0100 
  4 C       -2.2370    -1.8940    -0.4180 C.ar  1 <1>  -0.1500 
  5 C       -2.6020    -0.2300     1.2800 C.ar  1 <1>  -0.1500 
  6 C       -3.4780    -2.4430    -0.1380 C.ar  1 <1>  -0.1500 
  7 C       -3.8400    -0.7810     1.5580 C.ar  1 <1>  -0.1500 
  8 C       -4.2870    -1.8860     0.8450 C.ar  1 <1>  -0.1430 
  9 C       -5.6540    -2.4740     1.1360 C.3   1 <1>   0.4860 
 10 N       -6.5860    -2.0650     0.0520 N.4   1 <1>  -0.9590 
 11 C       -6.7650    -0.5650     0.0030 C.3   1 <1>   0.3430 
 12 C       -7.9190    -2.7620     0.1620 C.3   1 <1>   0.3430 
 13 C       -7.7090    -0.1160    -1.1300 C.3   1 <1>   0.2090 
 14 C       -8.9040    -2.3540    -0.9560 C.3   1 <1>   0.2090 
 15 N       -8.9970    -0.8690    -1.0890 N.pl3 1 <1>  -0.8380 
 16 C      -10.1390    -0.1900    -0.6660 C.ar  1 <1>   0.1000 
 17 C      -10.6710     0.8170    -1.4630 C.ar  1 <1>  -0.1500 
 18 C      -10.7660    -0.4790     0.5430 C.ar  1 <1>  -0.1500 
 19 C      -11.7920     1.5210    -1.0670 C.ar  1 <1>  -0.1500 
 20 C      -11.8890     0.2220     0.9430 C.ar  1 <1>  -0.1500 
 21 C      -12.4040     1.2250     0.1390 C.ar  1 <1>  -0.1500 
 22 H        1.6150    -0.5710    -1.4530 H     1 <1>   0.0800 
 23 H        0.0620    -0.9900    -2.1880 H     1 <1>   0.0800 
 24 H        0.7510    -2.0160    -0.9090 H     1 <1>   0.0800 
 25 H       -1.6210    -2.3320    -1.1800 H     1 <1>   0.1500 
 26 H       -2.2420     0.6270     1.8240 H     1 <1>   0.1500 
 27 H       -3.7940    -3.3100    -0.6940 H     1 <1>   0.1500 
 28 H       -4.4390    -0.3380     2.3360 H     1 <1>   0.1500 
 29 H       -6.0110    -2.1220     2.0900 H     1 <1>   0.0800 
 30 H       -5.5770    -3.5490     1.1760 H     1 <1>   0.0800 
 31 H       -6.1510    -2.3350    -0.8390 H     1 <1>   0.4500 
 32 H       -5.8090    -0.0840    -0.1340 H     1 <1>   0.0800 
 33 H       -7.1770    -0.2190     0.9360 H     1 <1>   0.0800 
 34 H       -8.3730    -2.5170     1.1080 H     1 <1>   0.0800 
 35 H       -7.7810    -3.8300     0.1300 H     1 <1>   0.0800 
 36 H       -7.2380    -0.2710    -2.0850 H     1 <1>   0.0800 
 37 H       -7.9030     0.9390    -1.0300 H     1 <1>   0.0800 
 38 H       -9.8790    -2.7610    -0.7480 H     1 <1>   0.0800 
 39 H       -8.5780    -2.7670    -1.8950 H     1 <1>   0.0800 
 40 H      -10.2030     1.0410    -2.4040 H     1 <1>   0.1500 
 41 H      -10.3800    -1.2480     1.1800 H     1 <1>   0.1500 
 42 H      -12.1930     2.2970    -1.6960 H     1 <1>   0.1500 
 43 H      -12.3680    -0.0080     1.8790 H     1 <1>   0.1500 
 44 H      -13.2780     1.7710     0.4490 H     1 <1>   0.1500 
@<TRIPOS>BOND
  1   1   2  1   
  2   1   3  1   
  3   2   4  ar  
  4   2   5  ar  
  5   3  22  1   
  6   3  23  1   
  7   3  24  1   
  8   4   6  ar  
  9   4  25  1   
 10   5   7  ar  
 11   5  26  1   
 12   6   8  ar  
 13   6  27  1   
 14   7   8  ar  
 15   7  28  1   
 16   8   9  1   
 17   9  10  1   
 18   9  29  1   
 19   9  30  1   
 20  10  11  1   
 21  10  12  1   
 22  10  31  1   
 23  11  13  1   
 24  11  32  1   
 25  11  33  1   
 26  12  14  1   
 27  12  34  1   
 28  12  35  1   
 29  13  15  1   
 30  13  36  1   
 31  13  37  1   
 32  14  15  1   
 33  14  38  1   
 34  14  39  1   
 35  15  16  1   
 36  16  17  ar  
 37  16  18  ar  
 38  17  19  ar  
 39  17  40  1   
 40  18  20  ar  
 41  18  41  1   
 42  19  21  ar  
 43  19  42  1   
 44  20  21  ar  
 45  20  43  1   
 46  21  44  1   
@<TRIPOS>SUBSTRUCTURE
  1 ****  11 GROUP 4 **** **** 0

# MOE 2024.06 (io_trps.svl 2023.06)
