@<TRIPOS>MOLECULE
NONAME
38 39 1 0 0 
SMALL
USER_CHARGES


@<TRIPOS>ATOM
  1 O       -1.8100    -1.0880     0.7550 O.2   1 <1>  -0.5700 
  2 C       -1.3690    -2.0730     0.1900 C.2   1 <1>   0.7160 
  3 N       -2.2920    -2.8830    -0.4300 N.am  1 <1>  -0.6600 
  4 C        0.0240    -2.4330     0.2890 C.2   1 <1>  -0.0860 
  5 C       -3.4970    -2.2840    -1.0850 C.3   1 <1>   0.1400 
  6 C       -2.4100    -4.3050    -0.0260 C.3   1 <1>   0.1400 
  7 C        0.8360    -3.1440    -0.5450 C.2   1 <1>  -0.0400 
  8 C        0.8640    -2.0840     1.3670 C.2   1 <1>  -0.1500 
  9 C       -4.7090    -2.1350    -0.1380 C.3   1 <1>   0.3430 
 10 C       -2.9190    -4.3930     1.4200 C.3   1 <1>  -0.1600 
 11 O        2.0400    -3.2580    -0.0430 O.3   1 <1>  -0.2800 
 12 C        0.5930    -3.7740    -1.9020 C.3   1 <1>  -0.0600 
 13 C        2.0710    -2.6200     1.1040 C.2   1 <1>  -0.0400 
 14 N       -4.3480    -2.3290     1.3030 N.4   1 <1>  -0.9590 
 15 C       -4.2960    -3.7710     1.6830 C.3   1 <1>   0.3430 
 16 C        3.3680    -2.5880     1.8820 C.3   1 <1>  -0.0600 
 17 C       -5.2390    -1.5440     2.2050 C.3   1 <1>   0.2630 
 18 H       -3.7760    -2.8740    -1.9410 H     1 <1>   0.0800 
 19 H       -3.2360    -1.3060    -1.4540 H     1 <1>   0.0800 
 20 H       -1.4440    -4.7790    -0.0920 H     1 <1>   0.0800 
 21 H       -3.0760    -4.8250    -0.6940 H     1 <1>   0.0800 
 22 H        0.5630    -1.4960     2.2160 H     1 <1>   0.1500 
 23 H       -5.4730    -2.8400    -0.4210 H     1 <1>   0.0800 
 24 H       -5.1160    -1.1480    -0.2800 H     1 <1>   0.0800 
 25 H       -2.1960    -3.9540     2.0860 H     1 <1>   0.0800 
 26 H       -2.9760    -5.4340     1.6840 H     1 <1>   0.0800 
 27 H        1.3110    -3.3920    -2.6050 H     1 <1>   0.0800 
 28 H        0.7140    -4.8400    -1.8340 H     1 <1>   0.0800 
 29 H       -0.3920    -3.5510    -2.2640 H     1 <1>   0.0800 
 30 H       -3.3820    -1.9380     1.3820 H     1 <1>   0.4500 
 31 H       -4.5090    -3.8690     2.7350 H     1 <1>   0.0800 
 32 H       -5.0530    -4.3170     1.1440 H     1 <1>   0.0800 
 33 H        3.2430    -2.0300     2.7920 H     1 <1>   0.0800 
 34 H        4.1340    -2.1230     1.2890 H     1 <1>   0.0800 
 35 H        3.6720    -3.5900     2.1220 H     1 <1>   0.0800 
 36 H       -6.2560    -1.8920     2.1280 H     1 <1>   0.0800 
 37 H       -5.2070    -0.4990     1.9400 H     1 <1>   0.0800 
 38 H       -4.9130    -1.6430     3.2280 H     1 <1>   0.0800 
@<TRIPOS>BOND
  1   1   2  2   
  2   2   3  am  
  3   2   4  1   
  4   3   5  1   
  5   3   6  1   
  6   4   7  2   
  7   4   8  1   
  8   5   9  1   
  9   5  18  1   
 10   5  19  1   
 11   6  10  1   
 12   6  20  1   
 13   6  21  1   
 14   7  11  1   
 15   7  12  1   
 16   8  13  2   
 17   8  22  1   
 18   9  14  1   
 19   9  23  1   
 20   9  24  1   
 21  10  15  1   
 22  10  25  1   
 23  10  26  1   
 24  11  13  1   
 25  12  27  1   
 26  12  28  1   
 27  12  29  1   
 28  13  16  1   
 29  14  15  1   
 30  14  17  1   
 31  14  30  1   
 32  15  31  1   
 33  15  32  1   
 34  16  33  1   
 35  16  34  1   
 36  16  35  1   
 37  17  36  1   
 38  17  37  1   
 39  17  38  1   
@<TRIPOS>SUBSTRUCTURE
  1 ****   2 GROUP 4 **** **** 0

# MOE 2024.06 (io_trps.svl 2023.06)
