@<TRIPOS>MOLECULE
NONAME
44 46 1 0 0 
SMALL
USER_CHARGES


@<TRIPOS>ATOM
  1 O       -0.8740     0.3370     0.0950 O.2   1 <1>  -0.5760 
  2 C       -2.0760     0.3090     0.2150 C.2   1 <1>   0.6850 
  3 N       -2.8790     1.3940    -0.1060 N.am  1 <1>  -0.4430 
  4 N       -2.6560    -0.8310     0.6870 N.am  1 <1>  -0.4960 
  5 C       -4.2460     1.2610     0.0870 C.2   1 <1>   0.4190 
  6 C       -2.2810     2.6560    -0.6350 C.3   1 <1>   0.0510 
  7 C       -3.9990    -0.9760     0.8820 C.2   1 <1>   0.6980 
  8 N       -5.2050     2.1950    -0.1470 N.pl3 1 <1>  -0.7050 
  9 C       -4.8410     0.1430     0.5570 C.2   1 <1>   0.2690 
 10 O       -4.4150    -2.0280     1.3220 O.2   1 <1>  -0.5760 
 11 C       -6.3950     1.6820     0.1760 C.cat 1 <1>   1.0680 
 12 N       -6.2270     0.4170     0.5950 N.pl3 1 <1>  -0.7680 
 13 N       -7.5440     2.4110     0.0850 N.pl3 1 <1>  -0.5970 
 14 C       -7.2190    -0.6810     0.7480 C.3   1 <1>   0.4860 
 15 C       -7.7400     3.4940    -0.9450 C.3   1 <1>   0.1590 
 16 C       -8.7770     2.1350     0.9020 C.3   1 <1>   0.1590 
 17 C       -8.0250    -0.7800    -0.5300 C.2   1 <1>  -0.2960 
 18 C       -8.4040     4.7670    -0.3670 C.3   1 <1>   0.3360 
 19 C       -9.4220     3.4210     1.4680 C.3   1 <1>   0.3360 
 20 C       -9.3590    -0.7850    -0.6210 C.2   1 <1>  -0.2960 
 21 N       -9.6460     4.4520     0.4060 N.4   1 <1>  -0.9090 
 22 C      -10.1230    -0.9040    -1.9260 C.3   1 <1>  -0.1110 
 23 H       -2.0400    -1.6100     0.9150 H     1 <1>   0.3630 
 24 H       -2.7950     2.9630    -1.5290 H     1 <1>   0.0710 
 25 H       -1.2420     2.5140    -0.8810 H     1 <1>   0.0710 
 26 H       -2.3500     3.4320     0.1080 H     1 <1>   0.0710 
 27 H       -5.0150     3.1370    -0.4720 H     1 <1>   0.4430 
 28 H       -6.7260    -1.6230     0.9080 H     1 <1>   0.0710 
 29 H       -7.8560    -0.5060     1.5960 H     1 <1>   0.0710 
 30 H       -6.8040     3.7680    -1.3990 H     1 <1>   0.0710 
 31 H       -8.3670     3.1070    -1.7320 H     1 <1>   0.0710 
 32 H       -9.5030     1.6330     0.2880 H     1 <1>   0.0710 
 33 H       -8.5380     1.4950     1.7330 H     1 <1>   0.0710 
 34 H       -7.3960    -0.8760    -1.4000 H     1 <1>   0.1410 
 35 H       -8.6400     5.4430    -1.1730 H     1 <1>   0.0710 
 36 H       -7.6980     5.2640     0.2790 H     1 <1>   0.0710 
 37 H       -8.7770     3.8260     2.2310 H     1 <1>   0.0710 
 38 H      -10.3610     3.1710     1.9360 H     1 <1>   0.0710 
 39 H      -10.0180    -0.7260     0.2310 H     1 <1>   0.1410 
 40 H      -10.3860     4.1330    -0.2360 H     1 <1>   0.4430 
 41 H      -10.0110     5.3160     0.8380 H     1 <1>   0.4430 
 42 H      -10.7340    -1.7900    -1.9120 H     1 <1>   0.0710 
 43 H       -9.4510    -0.9730    -2.7630 H     1 <1>   0.0710 
 44 H      -10.7630    -0.0510    -2.0670 H     1 <1>   0.0710 
@<TRIPOS>BOND
  1   1   2  2   
  2   2   3  am  
  3   2   4  am  
  4   3   5  1   
  5   3   6  1   
  6   4   7  am  
  7   4  23  1   
  8   5   8  1   
  9   5   9  2   
 10   6  24  1   
 11   6  25  1   
 12   6  26  1   
 13   7   9  1   
 14   7  10  2   
 15   8  11  ar  
 16   8  27  1   
 17   9  12  1   
 18  11  12  ar  
 19  11  13  ar  
 20  12  14  1   
 21  13  15  1   
 22  13  16  1   
 23  14  17  1   
 24  14  28  1   
 25  14  29  1   
 26  15  18  1   
 27  15  30  1   
 28  15  31  1   
 29  16  19  1   
 30  16  32  1   
 31  16  33  1   
 32  17  20  2   
 33  17  34  1   
 34  18  21  1   
 35  18  35  1   
 36  18  36  1   
 37  19  21  1   
 38  19  37  1   
 39  19  38  1   
 40  20  22  1   
 41  20  39  1   
 42  21  40  1   
 43  21  41  1   
 44  22  42  1   
 45  22  43  1   
 46  22  44  1   
@<TRIPOS>SUBSTRUCTURE
  1 ****  11 GROUP 4 **** **** 0

# MOE 2024.06 (io_trps.svl 2023.06)
