@<TRIPOS>MOLECULE
NONAME
37 37 1 0 0 
SMALL
USER_CHARGES


@<TRIPOS>ATOM
  1 CL       0.2680     0.3200     1.4020 Cl    1 <1>  -0.1770 
  2 C        0.1580     1.9250     0.7110 C.ar  1 <1>   0.1770 
  3 C        1.3090     2.5840     0.3040 C.ar  1 <1>   0.0820 
  4 C       -1.0890     2.5050     0.5870 C.ar  1 <1>  -0.1500 
  5 O        2.5020     1.9490     0.4590 O.3   1 <1>  -0.3630 
  6 C        1.1800     3.8580    -0.2390 C.ar  1 <1>  -0.1500 
  7 C       -1.2310     3.7780     0.0440 C.ar  1 <1>  -0.1440 
  8 C        3.7180     2.5360     0.0760 C.3   1 <1>   0.1200 
  9 C       -0.0730     4.4380    -0.3640 C.ar  1 <1>  -0.1500 
 10 C       -2.6430     4.3930    -0.0790 C.3   1 <1>   0.1440 
 11 C        4.8150     1.5220     0.4060 C.3   1 <1>   0.3430 
 12 C       -2.6390     5.8030    -0.6950 C.3   1 <1>  -0.2400 
 13 C       -3.2800     4.4990     1.3150 C.3   1 <1>  -0.2400 
 14 C       -3.5160     3.4990    -0.9720 C.3   1 <1>  -0.2400 
 15 N        6.1770     2.0250     0.0440 N.4   1 <1>  -0.9060 
 16 C        7.2390     1.0260     0.3710 C.3   1 <1>   0.2630 
 17 H       -1.9430     1.9450     0.9200 H     1 <1>   0.1500 
 18 H        2.0310     4.4190    -0.5730 H     1 <1>   0.1500 
 19 H        3.8420     3.4440     0.6400 H     1 <1>   0.0800 
 20 H        3.6740     2.7350    -0.9810 H     1 <1>   0.0800 
 21 H       -0.1190     5.4240    -0.7900 H     1 <1>   0.1500 
 22 H        4.6120     0.6100    -0.1330 H     1 <1>   0.0800 
 23 H        4.7780     1.3080     1.4620 H     1 <1>   0.0800 
 24 H       -2.0630     6.4790    -0.0900 H     1 <1>   0.0800 
 25 H       -3.6410     6.1890    -0.7610 H     1 <1>   0.0800 
 26 H       -2.2280     5.7800    -1.6890 H     1 <1>   0.0800 
 27 H       -2.6590     5.0960     1.9590 H     1 <1>   0.0800 
 28 H       -3.3980     3.5300     1.7630 H     1 <1>   0.0800 
 29 H       -4.2510     4.9580     1.2550 H     1 <1>   0.0800 
 30 H       -3.0620     3.3910    -1.9410 H     1 <1>   0.0800 
 31 H       -4.4930     3.9280    -1.0990 H     1 <1>   0.0800 
 32 H       -3.6360     2.5210    -0.5450 H     1 <1>   0.0800 
 33 H        6.3690     2.9030     0.5480 H     1 <1>   0.4500 
 34 H        6.2120     2.2420    -0.9620 H     1 <1>   0.4500 
 35 H        7.2370     0.8070     1.4270 H     1 <1>   0.0800 
 36 H        8.2110     1.4090     0.1020 H     1 <1>   0.0800 
 37 H        7.0710     0.1080    -0.1700 H     1 <1>   0.0800 
@<TRIPOS>BOND
  1   1   2  1   
  2   2   3  ar  
  3   2   4  ar  
  4   3   5  1   
  5   3   6  ar  
  6   4   7  ar  
  7   4  17  1   
  8   5   8  1   
  9   6   9  ar  
 10   6  18  1   
 11   7   9  ar  
 12   7  10  1   
 13   8  11  1   
 14   8  19  1   
 15   8  20  1   
 16   9  21  1   
 17  10  12  1   
 18  10  13  1   
 19  10  14  1   
 20  11  15  1   
 21  11  22  1   
 22  11  23  1   
 23  12  24  1   
 24  12  25  1   
 25  12  26  1   
 26  13  27  1   
 27  13  28  1   
 28  13  29  1   
 29  14  30  1   
 30  14  31  1   
 31  14  32  1   
 32  15  16  1   
 33  15  33  1   
 34  15  34  1   
 35  16  35  1   
 36  16  36  1   
 37  16  37  1   
@<TRIPOS>SUBSTRUCTURE
  1 ****   3 GROUP 4 **** **** 0

# MOE 2024.06 (io_trps.svl 2023.06)
