@<TRIPOS>MOLECULE
NONAME
43 44 1 0 0 
SMALL
USER_CHARGES


@<TRIPOS>ATOM
  1 S       -0.0520     0.2750    -0.3990 S.o2  1 <1>   1.3330 
  2 O       -1.3550     0.5950    -0.9310 O.2   1 <1>  -0.6500 
  3 O        1.1150     1.0230    -0.7940 O.2   1 <1>  -0.6500 
  4 N        0.2290    -1.4080    -0.7260 N.am  1 <1>  -0.6930 
  5 C       -0.1690     0.2760     1.3770 C.3   1 <1>  -0.1350 
  6 C        1.3960    -2.0600    -0.3540 C.ar  1 <1>   0.1990 
  7 C       -0.8870    -2.1730    -1.3350 C.3   1 <1>   0.1160 
  8 C        1.3520    -3.1710     0.4810 C.ar  1 <1>  -0.1500 
  9 C        2.6420    -1.6300    -0.7950 C.ar  1 <1>  -0.1500 
 10 C        2.5100    -3.8220     0.8610 C.ar  1 <1>  -0.1500 
 11 C        3.7990    -2.2790    -0.4120 C.ar  1 <1>  -0.1500 
 12 C        3.7680    -3.3990     0.4240 C.ar  1 <1>   0.0860 
 13 C        4.9720    -4.0980     0.8280 C.2   1 <1>   0.5440 
 14 O        4.9910    -4.7620     1.8470 O.2   1 <1>  -0.5700 
 15 N        6.1050    -4.0380     0.0640 N.am  1 <1>  -0.7300 
 16 C        7.3870    -4.6920     0.3730 C.3   1 <1>   0.2200 
 17 C        8.4960    -3.6350     0.3580 C.3   1 <1>  -0.1600 
 18 C        7.6470    -5.7870    -0.6660 C.3   1 <1>  -0.1600 
 19 C        9.8760    -4.2750     0.5660 C.3   1 <1>  -0.1600 
 20 C        9.0260    -6.4310    -0.4610 C.3   1 <1>  -0.1600 
 21 C       10.1400    -5.3740    -0.4720 C.3   1 <1>  -0.1600 
 22 H       -0.3650     1.2690     1.7300 H     1 <1>   0.0800 
 23 H        0.7510    -0.0670     1.8070 H     1 <1>   0.0800 
 24 H       -0.9640    -0.3680     1.6960 H     1 <1>   0.0800 
 25 H       -1.1880    -1.6980    -2.2540 H     1 <1>   0.0800 
 26 H       -1.7260    -2.1940    -0.6630 H     1 <1>   0.0800 
 27 H       -0.5780    -3.1800    -1.5540 H     1 <1>   0.0800 
 28 H        0.4020    -3.5230     0.8390 H     1 <1>   0.1500 
 29 H        2.7010    -0.7770    -1.4480 H     1 <1>   0.1500 
 30 H        2.4520    -4.6780     1.5120 H     1 <1>   0.1500 
 31 H        4.7430    -1.9020    -0.7620 H     1 <1>   0.1500 
 32 H        6.0690    -3.5810    -0.8450 H     1 <1>   0.3700 
 33 H        7.3430    -5.1400     1.3530 H     1 <1>   0.0800 
 34 H        8.3140    -2.9210     1.1420 H     1 <1>   0.0800 
 35 H        8.4890    -3.1170    -0.5850 H     1 <1>   0.0800 
 36 H        7.6010    -5.3650    -1.6550 H     1 <1>   0.0800 
 37 H        6.8860    -6.5420    -0.5800 H     1 <1>   0.0800 
 38 H        9.9260    -4.7000     1.5540 H     1 <1>   0.0800 
 39 H       10.6400    -3.5190     0.4940 H     1 <1>   0.0800 
 40 H        9.2060    -7.1550    -1.2370 H     1 <1>   0.0800 
 41 H        9.0380    -6.9500     0.4830 H     1 <1>   0.0800 
 42 H       11.0850    -5.8460    -0.2650 H     1 <1>   0.0800 
 43 H       10.2020    -4.9320    -1.4520 H     1 <1>   0.0800 
@<TRIPOS>BOND
  1   1   2  2   
  2   1   3  2   
  3   1   4  am  
  4   1   5  1   
  5   4   6  1   
  6   4   7  1   
  7   5  22  1   
  8   5  23  1   
  9   5  24  1   
 10   6   8  ar  
 11   6   9  ar  
 12   7  25  1   
 13   7  26  1   
 14   7  27  1   
 15   8  10  ar  
 16   8  28  1   
 17   9  11  ar  
 18   9  29  1   
 19  10  12  ar  
 20  10  30  1   
 21  11  12  ar  
 22  11  31  1   
 23  12  13  1   
 24  13  14  2   
 25  13  15  am  
 26  15  16  1   
 27  15  32  1   
 28  16  17  1   
 29  16  18  1   
 30  16  33  1   
 31  17  19  1   
 32  17  34  1   
 33  17  35  1   
 34  18  20  1   
 35  18  36  1   
 36  18  37  1   
 37  19  21  1   
 38  19  38  1   
 39  19  39  1   
 40  20  21  1   
 41  20  40  1   
 42  20  41  1   
 43  21  42  1   
 44  21  43  1   
@<TRIPOS>SUBSTRUCTURE
  1 ****  12 GROUP 4 **** **** 0

# MOE 2024.06 (io_trps.svl 2023.06)
