@<TRIPOS>MOLECULE
NONAME
40 41 1 0 0 
SMALL
USER_CHARGES


@<TRIPOS>ATOM
  1 BR      -0.5760     2.4580     2.5250 Br    1 <1>  -0.1110 
  2 C       -2.0720     1.7490     1.5440 C.ar  1 <1>   0.1110 
  3 C       -2.8730     0.7990     2.1440 C.ar  1 <1>  -0.1500 
  4 C       -2.3090     2.2080     0.2640 C.ar  1 <1>  -0.1500 
  5 C       -3.9470     0.2920     1.4320 C.ar  1 <1>  -0.1500 
  6 C       -3.3870     1.6940    -0.4360 C.ar  1 <1>  -0.1500 
  7 C       -4.2150     0.7270     0.1330 C.ar  1 <1>  -0.1430 
  8 C       -5.4210     0.1560    -0.6380 C.3   1 <1>   0.7240 
  9 O       -5.2270     0.2480    -1.9980 O.3   1 <1>  -0.6800 
 10 N       -5.6990    -1.2580    -0.3310 N.am  1 <1>  -0.2980 
 11 C       -6.7240     0.8600    -0.2680 C.3   1 <1>  -0.0990 
 12 N       -6.9600    -1.4100     0.2280 N.2   1 <1>  -0.5120 
 13 C       -4.7640    -2.2360    -0.6060 C.2   1 <1>   0.7800 
 14 C       -7.5350    -0.2930     0.2630 C.2   1 <1>   0.3280 
 15 O       -3.7810    -2.0110    -1.2920 O.2   1 <1>  -0.5700 
 16 O       -4.9780    -3.4510    -0.0910 O.3   1 <1>  -0.4300 
 17 C       -8.9290    -0.0370     0.7880 C.3   1 <1>  -0.1790 
 18 C       -4.1690    -4.5970    -0.2210 C.3   1 <1>   0.2800 
 19 C       -4.8920    -5.6870     0.5710 C.3   1 <1>  -0.2400 
 20 C       -4.0770    -5.0180    -1.6930 C.3   1 <1>  -0.2400 
 21 C       -2.7920    -4.3460     0.4040 C.3   1 <1>  -0.2400 
 22 H       -2.6600     0.4630     3.1430 H     1 <1>   0.1500 
 23 H       -1.6650     2.9510    -0.1730 H     1 <1>   0.1500 
 24 H       -4.5730    -0.4480     1.9030 H     1 <1>   0.1500 
 25 H       -3.5730     2.0550    -1.4340 H     1 <1>   0.1500 
 26 H       -4.5070    -0.3870    -2.2000 H     1 <1>   0.4000 
 27 H       -7.1950     1.3100    -1.1220 H     1 <1>   0.0800 
 28 H       -6.5660     1.5930     0.5000 H     1 <1>   0.0800 
 29 H       -9.5450     0.3710     0.0080 H     1 <1>   0.0800 
 30 H       -8.8910     0.6530     1.6110 H     1 <1>   0.0800 
 31 H       -9.3640    -0.9600     1.1270 H     1 <1>   0.0800 
 32 H       -4.3430    -6.6100     0.5290 H     1 <1>   0.0800 
 33 H       -5.8730    -5.8540     0.1620 H     1 <1>   0.0800 
 34 H       -4.9900    -5.3950     1.6010 H     1 <1>   0.0800 
 35 H       -5.0610    -5.1090    -2.1160 H     1 <1>   0.0800 
 36 H       -3.5830    -5.9690    -1.7720 H     1 <1>   0.0800 
 37 H       -3.5090    -4.3090    -2.2660 H     1 <1>   0.0800 
 38 H       -2.9000    -3.9850     1.4110 H     1 <1>   0.0800 
 39 H       -2.2280    -3.6340    -0.1690 H     1 <1>   0.0800 
 40 H       -2.2290    -5.2610     0.4290 H     1 <1>   0.0800 
@<TRIPOS>BOND
  1   1   2  1   
  2   2   3  ar  
  3   2   4  ar  
  4   3   5  ar  
  5   3  22  1   
  6   4   6  ar  
  7   4  23  1   
  8   5   7  ar  
  9   5  24  1   
 10   6   7  ar  
 11   6  25  1   
 12   7   8  1   
 13   8   9  1   
 14   8  10  1   
 15   8  11  1   
 16   9  26  1   
 17  10  12  1   
 18  10  13  am  
 19  11  14  1   
 20  11  27  1   
 21  11  28  1   
 22  12  14  2   
 23  13  15  2   
 24  13  16  1   
 25  14  17  1   
 26  16  18  1   
 27  17  29  1   
 28  17  30  1   
 29  17  31  1   
 30  18  19  1   
 31  18  20  1   
 32  18  21  1   
 33  19  32  1   
 34  19  33  1   
 35  19  34  1   
 36  20  35  1   
 37  20  36  1   
 38  20  37  1   
 39  21  38  1   
 40  21  39  1   
 41  21  40  1   
@<TRIPOS>SUBSTRUCTURE
  1 ****  10 GROUP 4 **** **** 0

# MOE 2024.06 (io_trps.svl 2023.06)
