@<TRIPOS>MOLECULE
NONAME
52 54 1 0 0 
SMALL
USER_CHARGES


@<TRIPOS>ATOM
  1 O       -0.4940     1.3480     2.1780 O.2   1 <1>  -0.5700 
  2 C       -1.0510     1.8360     1.2240 C.2   1 <1>   0.5690 
  3 N       -2.0900     1.2330     0.5800 N.am  1 <1>  -0.7300 
  4 C       -0.5840     3.2130     0.7270 C.3   1 <1>   0.1710 
  5 C       -2.7760    -0.0470     0.8460 C.3   1 <1>   0.3000 
  6 N        0.3180     3.2250    -0.4600 N.3   1 <1>  -0.8100 
  7 C       -3.5480    -0.4190    -0.4550 C.3   1 <1>   0.0630 
  8 C       -1.7640    -1.1750     1.1490 C.3   1 <1>  -0.1600 
  9 C       -3.6850     0.2020     2.0590 C.3   1 <1>  -0.2400 
 10 C        1.5470     2.4440    -0.2160 C.3   1 <1>   0.1100 
 11 C       -0.3280     2.7590    -1.7000 C.3   1 <1>   0.1100 
 12 C       -4.4990     0.6790    -0.9510 C.ar  1 <1>  -0.1430 
 13 C       -4.2360    -1.7950    -0.3710 C.3   1 <1>  -0.1600 
 14 C       -2.4110    -2.5720     1.2120 C.3   1 <1>  -0.1600 
 15 C        2.4780     2.4870    -1.4420 C.3   1 <1>   0.1200 
 16 C        0.6600     2.8150    -2.8780 C.3   1 <1>   0.1200 
 17 C       -4.0880     1.5100    -1.9880 C.ar  1 <1>  -0.1500 
 18 C       -5.7590     0.8710    -0.3960 C.ar  1 <1>  -0.1500 
 19 C       -3.2120    -2.8940    -0.0550 C.3   1 <1>  -0.1600 
 20 O        1.8040     2.0600    -2.5930 O.3   1 <1>  -0.5600 
 21 C       -4.9120     2.5210    -2.4500 C.ar  1 <1>  -0.1500 
 22 C       -6.5880     1.8800    -0.8550 C.ar  1 <1>  -0.1500 
 23 C       -6.1580     2.7040    -1.8810 C.ar  1 <1>   0.0830 
 24 O       -6.9470     3.6890    -2.3340 O.3   1 <1>  -0.5330 
 25 H       -2.5850     1.7770    -0.1280 H     1 <1>   0.3700 
 26 H       -0.0730     3.6940     1.5430 H     1 <1>   0.0800 
 27 H       -1.4520     3.8080     0.5100 H     1 <1>   0.0800 
 28 H       -2.7950    -0.5350    -1.2160 H     1 <1>   0.0800 
 29 H       -1.2780    -0.9940     2.0910 H     1 <1>   0.0800 
 30 H       -1.0060    -1.1800     0.3850 H     1 <1>   0.0800 
 31 H       -4.3070    -0.6480     2.2640 H     1 <1>   0.0800 
 32 H       -4.3160     1.0560     1.8960 H     1 <1>   0.0800 
 33 H       -3.0850     0.3890     2.9310 H     1 <1>   0.0800 
 34 H        1.3030     1.4160    -0.0050 H     1 <1>   0.0800 
 35 H        2.0660     2.8460     0.6370 H     1 <1>   0.0800 
 36 H       -1.1780     3.3810    -1.9190 H     1 <1>   0.0800 
 37 H       -0.6630     1.7430    -1.5880 H     1 <1>   0.0800 
 38 H       -4.7100    -2.0120    -1.3130 H     1 <1>   0.0800 
 39 H       -4.9990    -1.7920     0.3850 H     1 <1>   0.0800 
 40 H       -3.0600    -2.6300     2.0690 H     1 <1>   0.0800 
 41 H       -1.6410    -3.3130     1.3450 H     1 <1>   0.0800 
 42 H        3.3200     1.8360    -1.2930 H     1 <1>   0.0800 
 43 H        2.8360     3.4890    -1.6050 H     1 <1>   0.0800 
 44 H        0.9570     3.8310    -3.0730 H     1 <1>   0.0800 
 45 H        0.2100     2.4060    -3.7650 H     1 <1>   0.0800 
 46 H       -3.1260     1.3730    -2.4490 H     1 <1>   0.1500 
 47 H       -6.1040     0.2380     0.4010 H     1 <1>   0.1500 
 48 H       -2.5330    -2.9970    -0.8850 H     1 <1>   0.0800 
 49 H       -3.7200    -3.8360     0.0680 H     1 <1>   0.0800 
 50 H       -4.5990     3.1660    -3.2510 H     1 <1>   0.1500 
 51 H       -7.5580     2.0170    -0.4140 H     1 <1>   0.1500 
 52 H       -7.8070     3.7290    -1.8810 H     1 <1>   0.4500 
@<TRIPOS>BOND
  1   1   2  2   
  2   2   3  am  
  3   2   4  1   
  4   3   5  1   
  5   3  25  1   
  6   4   6  1   
  7   4  26  1   
  8   4  27  1   
  9   5   7  1   
 10   5   8  1   
 11   5   9  1   
 12   6  10  1   
 13   6  11  1   
 14   7  12  1   
 15   7  13  1   
 16   7  28  1   
 17   8  14  1   
 18   8  29  1   
 19   8  30  1   
 20   9  31  1   
 21   9  32  1   
 22   9  33  1   
 23  10  15  1   
 24  10  34  1   
 25  10  35  1   
 26  11  16  1   
 27  11  36  1   
 28  11  37  1   
 29  12  17  ar  
 30  12  18  ar  
 31  13  19  1   
 32  13  38  1   
 33  13  39  1   
 34  14  19  1   
 35  14  40  1   
 36  14  41  1   
 37  15  20  1   
 38  15  42  1   
 39  15  43  1   
 40  16  20  1   
 41  16  44  1   
 42  16  45  1   
 43  17  21  ar  
 44  17  46  1   
 45  18  22  ar  
 46  18  47  1   
 47  19  48  1   
 48  19  49  1   
 49  21  23  ar  
 50  21  50  1   
 51  22  23  ar  
 52  22  51  1   
 53  23  24  1   
 54  24  52  1   
@<TRIPOS>SUBSTRUCTURE
  1 ****   3 GROUP 4 **** **** 0

# MOE 2024.06 (io_trps.svl 2023.06)
