@<TRIPOS>MOLECULE
NONAME
19 19 1 0 0 
SMALL
USER_CHARGES


@<TRIPOS>ATOM
  1 O        0.0170     0.9220    -0.3620 O.3   1 <1>  -0.3420 
  2 C        1.3330     1.0460    -0.0300 C.2   1 <1>   0.3510 
  3 C       -0.7680     0.0820     0.4540 C.3   1 <1>   0.1200 
  4 N        1.9020     0.4490     0.9750 N.2   1 <1>  -0.7070 
  5 C        2.2070     1.8440    -0.7570 C.2   1 <1>  -0.1500 
  6 C       -2.1950     0.0840    -0.0880 C.3   1 <1>  -0.2400 
  7 N        3.1850     0.8640     0.9100 N.pl3 1 <1>   0.3000 
  8 C        3.3950     1.7080    -0.1270 C.2   1 <1>  -0.3320 
  9 C        4.7350     2.3390    -0.4580 C.3   1 <1>  -0.0600 
 10 H       -0.7360     0.4620     1.4610 H     1 <1>   0.0800 
 11 H       -0.3460    -0.9090     0.4260 H     1 <1>   0.0800 
 12 H        1.9420     2.4220    -1.6220 H     1 <1>   0.1500 
 13 H       -2.5960     1.0810    -0.0650 H     1 <1>   0.0800 
 14 H       -2.8140    -0.5510     0.5180 H     1 <1>   0.0800 
 15 H       -2.2060    -0.2860    -1.0980 H     1 <1>   0.0800 
 16 H        3.8920     0.5540     1.5880 H     1 <1>   0.2700 
 17 H        4.6420     2.9680    -1.3250 H     1 <1>   0.0800 
 18 H        5.4650     1.5770    -0.6640 H     1 <1>   0.0800 
 19 H        5.0770     2.9410     0.3660 H     1 <1>   0.0800 
@<TRIPOS>BOND
  1   1   2  1   
  2   1   3  1   
  3   2   4  2   
  4   2   5  1   
  5   3   6  1   
  6   3  10  1   
  7   3  11  1   
  8   4   7  1   
  9   5   8  2   
 10   5  12  1   
 11   6  13  1   
 12   6  14  1   
 13   6  15  1   
 14   7   8  1   
 15   7  16  1   
 16   8   9  1   
 17   9  17  1   
 18   9  18  1   
 19   9  19  1   
@<TRIPOS>SUBSTRUCTURE
  1 ****   2 GROUP 4 **** **** 0

# MOE 2024.06 (io_trps.svl 2023.06)
