@<TRIPOS>MOLECULE
NONAME
54 55 1 0 0 
SMALL
USER_CHARGES


@<TRIPOS>ATOM
  1 S       -0.6420    -0.4410    -1.0390 S.o2  1 <1>   1.4470 
  2 O        0.2590     0.4340    -0.3170 O.2   1 <1>  -0.6500 
  3 O       -0.4470    -0.5900    -2.4670 O.2   1 <1>  -0.6500 
  4 N       -2.2100     0.1750    -0.8540 N.am  1 <1>  -0.8490 
  5 C       -0.6870    -2.0760    -0.2620 C.ar  1 <1>  -0.0090 
  6 C       -2.2490     1.6260    -1.0730 C.3   1 <1>   0.1960 
  7 C       -3.2020    -0.5190    -1.6700 C.3   1 <1>   0.1960 
  8 C       -1.0230    -2.2370     1.0780 C.ar  1 <1>   0.0820 
  9 C       -0.3820    -3.2190    -0.9930 C.ar  1 <1>  -0.1500 
 10 C       -3.6870     2.1720    -1.1190 C.3   1 <1>  -0.1600 
 11 C       -4.6150    -0.1690    -1.1820 C.3   1 <1>  -0.1600 
 12 O       -1.3380    -1.1700     1.8380 O.3   1 <1>  -0.3620 
 13 C       -1.0640    -3.4950     1.6580 C.ar  1 <1>  -0.1500 
 14 C       -0.4120    -4.4860    -0.4280 C.ar  1 <1>  -0.1440 
 15 C       -4.6950     1.2030    -0.4770 C.3   1 <1>  -0.0190 
 16 C       -0.3340    -0.6990     2.7090 C.3   1 <1>   0.0400 
 17 C       -0.7580    -4.6140     0.9090 C.ar  1 <1>  -0.1500 
 18 C       -0.0730    -5.7280    -1.2490 C.3   1 <1>   0.0630 
 19 C       -6.1160     1.7570    -0.4780 C.2   1 <1>   0.5690 
 20 C        1.3690    -5.6650    -1.7640 C.3   1 <1>  -0.2400 
 21 C       -1.0570    -5.9010    -2.4110 C.3   1 <1>  -0.2400 
 22 O       -6.6100     2.1300    -1.5150 O.2   1 <1>  -0.5700 
 23 N       -6.7920     1.8180     0.6950 N.am  1 <1>  -0.7300 
 24 C       -8.1660     2.3110     0.8440 C.3   1 <1>   0.2780 
 25 C       -8.8210     1.4890     1.9320 C.2   1 <1>  -0.2880 
 26 C       -9.2320     1.9560     3.1150 C.2   1 <1>  -0.3000 
 27 H       -1.7430     1.8740    -1.9920 H     1 <1>   0.0800 
 28 H       -1.7170     2.1030    -0.2660 H     1 <1>   0.0800 
 29 H       -3.0620    -1.5860    -1.6070 H     1 <1>   0.0800 
 30 H       -3.0830    -0.2270    -2.7020 H     1 <1>   0.0800 
 31 H       -0.1150    -3.1110    -2.0310 H     1 <1>   0.1500 
 32 H       -3.9620     2.3370    -2.1470 H     1 <1>   0.0800 
 33 H       -3.7210     3.1260    -0.6250 H     1 <1>   0.0800 
 34 H       -4.9540    -0.9300    -0.5020 H     1 <1>   0.0800 
 35 H       -5.2740    -0.1850    -2.0330 H     1 <1>   0.0800 
 36 H       -1.3400    -3.5930     2.6920 H     1 <1>   0.1500 
 37 H       -4.3900     1.0620     0.5460 H     1 <1>   0.0800 
 38 H       -0.7050     0.1810     3.2030 H     1 <1>   0.0800 
 39 H        0.5410    -0.4540     2.1340 H     1 <1>   0.0800 
 40 H       -0.1080    -1.4630     3.4310 H     1 <1>   0.0800 
 41 H       -0.7930    -5.5850     1.3720 H     1 <1>   0.1500 
 42 H       -0.1570    -6.5960    -0.6170 H     1 <1>   0.0800 
 43 H        1.4990    -4.8440    -2.4450 H     1 <1>   0.0800 
 44 H        1.6220    -6.5770    -2.2740 H     1 <1>   0.0800 
 45 H        2.0460    -5.5360    -0.9380 H     1 <1>   0.0800 
 46 H       -0.9790    -5.0850    -3.1060 H     1 <1>   0.0800 
 47 H       -2.0640    -5.9370    -2.0340 H     1 <1>   0.0800 
 48 H       -0.8560    -6.8180    -2.9350 H     1 <1>   0.0800 
 49 H       -6.3630     1.4960     1.5620 H     1 <1>   0.3700 
 50 H       -8.7060     2.2080    -0.0840 H     1 <1>   0.0800 
 51 H       -8.1430     3.3520     1.1180 H     1 <1>   0.0800 
 52 H       -8.9280     0.4560     1.6470 H     1 <1>   0.1500 
 53 H       -9.6980     1.3460     3.8710 H     1 <1>   0.1500 
 54 H       -9.1400     2.9810     3.4300 H     1 <1>   0.1500 
@<TRIPOS>BOND
  1   1   2  2   
  2   1   3  2   
  3   1   4  am  
  4   1   5  1   
  5   4   6  1   
  6   4   7  1   
  7   5   8  ar  
  8   5   9  ar  
  9   6  10  1   
 10   6  27  1   
 11   6  28  1   
 12   7  11  1   
 13   7  29  1   
 14   7  30  1   
 15   8  12  1   
 16   8  13  ar  
 17   9  14  ar  
 18   9  31  1   
 19  10  15  1   
 20  10  32  1   
 21  10  33  1   
 22  11  15  1   
 23  11  34  1   
 24  11  35  1   
 25  12  16  1   
 26  13  17  ar  
 27  13  36  1   
 28  14  17  ar  
 29  14  18  1   
 30  15  19  1   
 31  15  37  1   
 32  16  38  1   
 33  16  39  1   
 34  16  40  1   
 35  17  41  1   
 36  18  20  1   
 37  18  21  1   
 38  18  42  1   
 39  19  22  2   
 40  19  23  am  
 41  20  43  1   
 42  20  44  1   
 43  20  45  1   
 44  21  46  1   
 45  21  47  1   
 46  21  48  1   
 47  23  24  1   
 48  23  49  1   
 49  24  25  1   
 50  24  50  1   
 51  24  51  1   
 52  25  26  2   
 53  25  52  1   
 54  26  53  1   
 55  26  54  1   
@<TRIPOS>SUBSTRUCTURE
  1 ****   4 GROUP 4 **** **** 0

# MOE 2024.06 (io_trps.svl 2023.06)
