@<TRIPOS>MOLECULE
NONAME
40 42 1 0 0 
SMALL
USER_CHARGES


@<TRIPOS>ATOM
  1 O        0.3420     0.0290     0.3840 O.2   1 <1>  -0.5700 
  2 C        0.8470     1.0490    -0.0460 C.2   1 <1>   0.6900 
  3 N        2.1890     1.0890    -0.3370 N.am  1 <1>  -0.6600 
  4 N        0.1110     2.1870    -0.2130 N.am  1 <1>  -0.5470 
  5 C        3.1150     0.0270     0.1420 C.3   1 <1>   0.1400 
  6 C        2.8280     2.0730    -1.2540 C.3   1 <1>   0.1400 
  7 C       -1.2630     2.4440    -0.0980 C.ar  1 <1>   0.1170 
  8 C        4.2770     0.6780     0.8950 C.3   1 <1>  -0.1600 
  9 C        3.9680     2.7710    -0.5140 C.3   1 <1>  -0.1600 
 10 C       -1.7020     3.7350     0.2080 C.ar  1 <1>  -0.1440 
 11 C       -2.2110     1.4470    -0.3050 C.ar  1 <1>  -0.1500 
 12 C        4.9560     1.7430     0.0290 C.3   1 <1>   0.5600 
 13 C       -3.0600     3.9990     0.3010 C.ar  1 <1>  -0.1500 
 14 C       -0.7140     4.8700     0.4500 C.3   1 <1>  -0.0970 
 15 C       -3.5630     1.7160    -0.2080 C.ar  1 <1>  -0.1500 
 16 O        5.6190     1.1490    -1.0380 O.3   1 <1>  -0.5600 
 17 O        5.9390     2.4030     0.7500 O.3   1 <1>  -0.5600 
 18 C       -3.9890     2.9950     0.0950 C.ar  1 <1>  -0.1500 
 19 C        6.9380     0.9250    -0.6870 C.3   1 <1>   0.1200 
 20 C        7.1440     1.7540     0.5660 C.3   1 <1>   0.1200 
 21 H        0.6920     3.0100    -0.3020 H     1 <1>   0.3700 
 22 H        3.4860    -0.5260    -0.7060 H     1 <1>   0.0800 
 23 H        2.6040    -0.6610     0.7940 H     1 <1>   0.0800 
 24 H        2.1190     2.7960    -1.6130 H     1 <1>   0.0800 
 25 H        3.2210     1.5460    -2.1080 H     1 <1>   0.0800 
 26 H        4.9840    -0.0750     1.1880 H     1 <1>   0.0800 
 27 H        3.8890     1.1420     1.7820 H     1 <1>   0.0800 
 28 H        3.5620     3.3380     0.3030 H     1 <1>   0.0800 
 29 H        4.4810     3.4420    -1.1770 H     1 <1>   0.0800 
 30 H       -1.8900     0.4500    -0.5460 H     1 <1>   0.1500 
 31 H       -3.4080     4.9890     0.5370 H     1 <1>   0.1500 
 32 H       -0.1640     5.0780    -0.4490 H     1 <1>   0.0800 
 33 H       -0.0270     4.5990     1.2330 H     1 <1>   0.0800 
 34 H       -1.2240     5.7670     0.7500 H     1 <1>   0.0800 
 35 H       -4.2790     0.9300    -0.3690 H     1 <1>   0.1500 
 36 H       -5.0410     3.2080     0.1710 H     1 <1>   0.1500 
 37 H        7.5730     1.2490    -1.4930 H     1 <1>   0.0800 
 38 H        7.0800    -0.1240    -0.4980 H     1 <1>   0.0800 
 39 H        7.3430     1.1330     1.4230 H     1 <1>   0.0800 
 40 H        7.9240     2.4850     0.4460 H     1 <1>   0.0800 
@<TRIPOS>BOND
  1   1   2  2   
  2   2   3  am  
  3   2   4  am  
  4   3   5  1   
  5   3   6  1   
  6   4   7  1   
  7   4  21  1   
  8   5   8  1   
  9   5  22  1   
 10   5  23  1   
 11   6   9  1   
 12   6  24  1   
 13   6  25  1   
 14   7  10  ar  
 15   7  11  ar  
 16   8  12  1   
 17   8  26  1   
 18   8  27  1   
 19   9  12  1   
 20   9  28  1   
 21   9  29  1   
 22  10  13  ar  
 23  10  14  1   
 24  11  15  ar  
 25  11  30  1   
 26  12  16  1   
 27  12  17  1   
 28  13  18  ar  
 29  13  31  1   
 30  14  32  1   
 31  14  33  1   
 32  14  34  1   
 33  15  18  ar  
 34  15  35  1   
 35  16  19  1   
 36  17  20  1   
 37  18  36  1   
 38  19  20  1   
 39  19  37  1   
 40  19  38  1   
 41  20  39  1   
 42  20  40  1   
@<TRIPOS>SUBSTRUCTURE
  1 ****   3 GROUP 4 **** **** 0

# MOE 2024.06 (io_trps.svl 2023.06)
