@<TRIPOS>MOLECULE
NONAME
46 48 1 0 0 
SMALL
USER_CHARGES


@<TRIPOS>ATOM
  1 O        1.6540    -0.1350    -1.8700 O.3   1 <1>  -0.5120 
  2 C        2.1270    -1.2410    -1.2760 C.2   1 <1>   0.3510 
  3 N        1.5680    -2.3810    -1.4600 N.2   1 <1>  -0.7070 
  4 C        3.2470    -1.2600    -0.4230 C.ar  1 <1>   0.0000 
  5 N        2.3120    -3.2320    -0.7120 N.pl3 1 <1>   0.3140 
  6 C        4.1850    -0.3610     0.0970 C.ar  1 <1>  -0.1440 
  7 C        3.3400    -2.5930    -0.0730 C.ar  1 <1>   0.1050 
  8 C        1.9810    -4.6780    -0.6700 C.3   1 <1>   0.1760 
  9 C        5.1360    -0.9010     0.9260 C.ar  1 <1>  -0.1500 
 10 C        4.1520     1.1210    -0.2360 C.3   1 <1>  -0.0960 
 11 N        4.2730    -3.1310     0.7380 N.ar  1 <1>  -0.5670 
 12 C        1.6640    -5.1560     0.7620 C.3   1 <1>  -0.0800 
 13 C        3.1120    -5.4990    -1.3050 C.3   1 <1>  -0.1600 
 14 C        5.1410    -2.2760     1.2140 C.ar  1 <1>   0.1670 
 15 C        1.4160    -6.6650     0.7590 C.3   1 <1>   0.3430 
 16 C        0.4430    -4.4290     1.3540 C.3   1 <1>  -0.2400 
 17 C        2.8210    -6.9980    -1.2520 C.3   1 <1>   0.4230 
 18 C        6.2090    -2.8330     2.1340 C.3   1 <1>  -0.0960 
 19 N        2.5740    -7.3990     0.1630 N.4   1 <1>  -0.9590 
 20 C        4.0100    -7.7690    -1.8260 C.3   1 <1>  -0.2400 
 21 C        2.3620    -8.8720     0.3360 C.3   1 <1>   0.2630 
 22 H        2.1960     0.6290    -1.6290 H     1 <1>   0.4500 
 23 H        1.0970    -4.8080    -1.2710 H     1 <1>   0.0800 
 24 H        5.8910    -0.2750     1.3650 H     1 <1>   0.1500 
 25 H        3.2200     1.5520     0.0850 H     1 <1>   0.0800 
 26 H        4.2690     1.2650    -1.2950 H     1 <1>   0.0800 
 27 H        4.9510     1.6390     0.2640 H     1 <1>   0.0800 
 28 H        2.5070    -4.9670     1.4040 H     1 <1>   0.0800 
 29 H        4.0440    -5.3020    -0.8040 H     1 <1>   0.0800 
 30 H        3.2200    -5.1980    -2.3320 H     1 <1>   0.0800 
 31 H        0.5210    -6.8780     0.1950 H     1 <1>   0.0800 
 32 H        1.2580    -6.9940     1.7730 H     1 <1>   0.0800 
 33 H       -0.4280    -4.5610     0.7330 H     1 <1>   0.0800 
 34 H        0.6350    -3.3710     1.4350 H     1 <1>   0.0800 
 35 H        0.2220    -4.7950     2.3410 H     1 <1>   0.0800 
 36 H        1.9440    -7.2070    -1.8460 H     1 <1>   0.0800 
 37 H        6.8710    -2.0600     2.4760 H     1 <1>   0.0800 
 38 H        6.7840    -3.5740     1.6090 H     1 <1>   0.0800 
 39 H        5.7450    -3.2930     2.9870 H     1 <1>   0.0800 
 40 H        3.4150    -7.1290     0.6930 H     1 <1>   0.4500 
 41 H        4.8820    -7.6570    -1.2060 H     1 <1>   0.0800 
 42 H        4.2490    -7.3870    -2.8040 H     1 <1>   0.0800 
 43 H        3.7820    -8.8120    -1.9470 H     1 <1>   0.0800 
 44 H        1.5230    -9.2030    -0.2560 H     1 <1>   0.0800 
 45 H        2.1660    -9.1030     1.3710 H     1 <1>   0.0800 
 46 H        3.2380    -9.4190     0.0290 H     1 <1>   0.0800 
@<TRIPOS>BOND
  1   1   2  1   
  2   1  22  1   
  3   2   3  2   
  4   2   4  1   
  5   3   5  1   
  6   4   6  ar  
  7   4   7  ar  
  8   5   7  1   
  9   5   8  1   
 10   6   9  ar  
 11   6  10  1   
 12   7  11  ar  
 13   8  12  1   
 14   8  13  1   
 15   8  23  1   
 16   9  14  ar  
 17   9  24  1   
 18  10  25  1   
 19  10  26  1   
 20  10  27  1   
 21  11  14  ar  
 22  12  15  1   
 23  12  16  1   
 24  12  28  1   
 25  13  17  1   
 26  13  29  1   
 27  13  30  1   
 28  14  18  1   
 29  15  19  1   
 30  15  31  1   
 31  15  32  1   
 32  16  33  1   
 33  16  34  1   
 34  16  35  1   
 35  17  19  1   
 36  17  20  1   
 37  17  36  1   
 38  18  37  1   
 39  18  38  1   
 40  18  39  1   
 41  19  21  1   
 42  19  40  1   
 43  20  41  1   
 44  20  42  1   
 45  20  43  1   
 46  21  44  1   
 47  21  45  1   
 48  21  46  1   
@<TRIPOS>SUBSTRUCTURE
  1 ****   5 GROUP 4 **** **** 0

# MOE 2024.06 (io_trps.svl 2023.06)
