@<TRIPOS>MOLECULE
NONAME
40 42 1 0 0 
SMALL
USER_CHARGES


@<TRIPOS>ATOM
  1 BR      -1.9460     1.9030    -2.7270 Br    1 <1>  -0.1110 
  2 C       -0.9780     2.6870    -1.2550 C.ar  1 <1>   0.1110 
  3 C       -1.4490     2.5270     0.0400 C.ar  1 <1>  -0.1440 
  4 C        0.1680     3.4010    -1.5460 C.ar  1 <1>  -0.1500 
  5 C       -0.7250     3.1060     1.0730 C.ar  1 <1>  -0.1500 
  6 C       -2.7160     1.7450     0.3220 C.3   1 <1>   0.4870 
  7 C        0.8740     3.9770    -0.5050 C.ar  1 <1>  -0.1500 
  8 C        0.4270     3.8270     0.7990 C.ar  1 <1>  -0.1500 
  9 N       -3.8860     2.5300    -0.1550 N.4   1 <1>  -0.9590 
 10 C       -4.0110     3.8560     0.5620 C.3   1 <1>   0.3430 
 11 C       -5.1660     1.7360    -0.0690 C.3   1 <1>   0.3430 
 12 C       -5.2320     4.6720     0.0880 C.3   1 <1>   0.2090 
 13 C       -6.3930     2.5400    -0.5490 C.3   1 <1>   0.2090 
 14 N       -6.4750     3.8500     0.1590 N.pl3 1 <1>  -0.8380 
 15 C       -7.6780     4.5360     0.0500 C.ar  1 <1>   0.1000 
 16 C       -8.5110     4.6360     1.1550 C.ar  1 <1>  -0.1500 
 17 C       -8.0720     5.1310    -1.1470 C.ar  1 <1>  -0.1500 
 18 C       -9.7070     5.3160     1.0520 C.ar  1 <1>   0.1770 
 19 C       -9.2740     5.8110    -1.2420 C.ar  1 <1>  -0.1500 
 20 CL     -10.7470     5.4340     2.4490 Cl    1 <1>  -0.1770 
 21 C      -10.1020     5.9070    -0.1350 C.ar  1 <1>  -0.1500 
 22 H        0.5060     3.5050    -2.5640 H     1 <1>   0.1500 
 23 H       -1.0390     3.0030     2.0990 H     1 <1>   0.1500 
 24 H       -2.8020     1.5540     1.3790 H     1 <1>   0.0800 
 25 H       -2.6690     0.7990    -0.1930 H     1 <1>   0.0800 
 26 H        1.7720     4.5380    -0.7060 H     1 <1>   0.1500 
 27 H        0.9880     4.2740     1.6050 H     1 <1>   0.1500 
 28 H       -3.7090     2.7400    -1.1470 H     1 <1>   0.4500 
 29 H       -3.1200     4.4430     0.4110 H     1 <1>   0.0800 
 30 H       -4.1170     3.6840     1.6200 H     1 <1>   0.0800 
 31 H       -5.3410     1.4450     0.9530 H     1 <1>   0.0800 
 32 H       -5.0830     0.8390    -0.6600 H     1 <1>   0.0800 
 33 H       -5.0760     5.0100    -0.9220 H     1 <1>   0.0800 
 34 H       -5.3460     5.5410     0.7140 H     1 <1>   0.0800 
 35 H       -7.2900     1.9750    -0.3530 H     1 <1>   0.0800 
 36 H       -6.3320     2.7050    -1.6110 H     1 <1>   0.0800 
 37 H       -8.2270     4.1860     2.0860 H     1 <1>   0.1500 
 38 H       -7.4350     5.0600    -2.0080 H     1 <1>   0.1500 
 39 H       -9.5680     6.2670    -2.1720 H     1 <1>   0.1500 
 40 H      -11.0390     6.4310    -0.1860 H     1 <1>   0.1500 
@<TRIPOS>BOND
  1   1   2  1   
  2   2   3  ar  
  3   2   4  ar  
  4   3   5  ar  
  5   3   6  1   
  6   4   7  ar  
  7   4  22  1   
  8   5   8  ar  
  9   5  23  1   
 10   6   9  1   
 11   6  24  1   
 12   6  25  1   
 13   7   8  ar  
 14   7  26  1   
 15   8  27  1   
 16   9  10  1   
 17   9  11  1   
 18   9  28  1   
 19  10  12  1   
 20  10  29  1   
 21  10  30  1   
 22  11  13  1   
 23  11  31  1   
 24  11  32  1   
 25  12  14  1   
 26  12  33  1   
 27  12  34  1   
 28  13  14  1   
 29  13  35  1   
 30  13  36  1   
 31  14  15  1   
 32  15  16  ar  
 33  15  17  ar  
 34  16  18  ar  
 35  16  37  1   
 36  17  19  ar  
 37  17  38  1   
 38  18  20  1   
 39  18  21  ar  
 40  19  21  ar  
 41  19  39  1   
 42  21  40  1   
@<TRIPOS>SUBSTRUCTURE
  1 ****  12 GROUP 4 **** **** 0

# MOE 2024.06 (io_trps.svl 2023.06)
