@<TRIPOS>MOLECULE
NONAME
37 38 1 0 0 
SMALL
USER_CHARGES


@<TRIPOS>ATOM
  1 S        0.1570    -0.0980    -0.3810 S.3   1 <1>  -0.0800 
  2 C       -0.7570     1.3810    -0.0890 C.2   1 <1>   0.3250 
  3 C        1.6160     0.8250    -0.5280 C.2   1 <1>  -0.1100 
  4 N       -0.0030     2.4270    -0.1060 N.2   1 <1>  -0.5650 
  5 C       -2.1870     1.3090     0.1330 C.ar  1 <1>   0.0530 
  6 C        1.3240     2.1230    -0.3510 C.2   1 <1>   0.0460 
  7 C       -2.9050     0.1090     0.1570 C.ar  1 <1>  -0.1500 
  8 C       -2.9190     2.4800     0.3380 C.ar  1 <1>  -0.1500 
  9 C        2.3050     3.2870    -0.3970 C.3   1 <1>   0.3210 
 10 C       -4.2710     0.0840     0.3730 C.ar  1 <1>  -0.1500 
 11 C       -4.2840     2.4610     0.5550 C.ar  1 <1>  -0.1500 
 12 N        3.6960     2.8270    -0.1620 N.am  1 <1>  -0.7300 
 13 C       -4.9710     1.2600     0.5760 C.ar  1 <1>  -0.1430 
 14 C        4.7330     3.0540    -1.0010 C.2   1 <1>   0.5690 
 15 C       -6.4700     1.2340     0.8120 C.3   1 <1>  -0.0970 
 16 O        4.6010     3.6630    -2.0320 O.2   1 <1>  -0.5700 
 17 C        6.1010     2.5210    -0.6230 C.3   1 <1>  -0.0990 
 18 C        6.7770     3.3750     0.4610 C.3   1 <1>  -0.1600 
 19 C        8.1580     2.8220     0.8260 C.3   1 <1>  -0.2400 
 20 H        2.5320     0.3040    -0.7360 H     1 <1>   0.1500 
 21 H       -2.4010    -0.8270     0.0050 H     1 <1>   0.1500 
 22 H       -2.4050     3.4250     0.3260 H     1 <1>   0.1500 
 23 H        2.0440     3.9960     0.3690 H     1 <1>   0.0800 
 24 H        2.2240     3.7810    -1.3500 H     1 <1>   0.0800 
 25 H       -4.7890    -0.8590     0.3830 H     1 <1>   0.1500 
 26 H       -4.8100     3.3870     0.7070 H     1 <1>   0.1500 
 27 H        3.8420     2.3230     0.7120 H     1 <1>   0.3700 
 28 H       -6.7580     0.3200     1.2990 H     1 <1>   0.0800 
 29 H       -6.9870     1.3050    -0.1280 H     1 <1>   0.0800 
 30 H       -6.7670     2.0590     1.4350 H     1 <1>   0.0800 
 31 H        6.7150     2.5110    -1.5060 H     1 <1>   0.0800 
 32 H        5.9970     1.5070    -0.2840 H     1 <1>   0.0800 
 33 H        6.1590     3.4000     1.3430 H     1 <1>   0.0800 
 34 H        6.8810     4.3850     0.1010 H     1 <1>   0.0800 
 35 H        8.0760     1.8190     1.2080 H     1 <1>   0.0800 
 36 H        8.6130     3.4390     1.5820 H     1 <1>   0.0800 
 37 H        8.8000     2.8130    -0.0370 H     1 <1>   0.0800 
@<TRIPOS>BOND
  1   1   2  1   
  2   1   3  1   
  3   2   4  2   
  4   2   5  1   
  5   3   6  2   
  6   3  20  1   
  7   4   6  1   
  8   5   7  ar  
  9   5   8  ar  
 10   6   9  1   
 11   7  10  ar  
 12   7  21  1   
 13   8  11  ar  
 14   8  22  1   
 15   9  12  1   
 16   9  23  1   
 17   9  24  1   
 18  10  13  ar  
 19  10  25  1   
 20  11  13  ar  
 21  11  26  1   
 22  12  14  am  
 23  12  27  1   
 24  13  15  1   
 25  14  16  2   
 26  14  17  1   
 27  15  28  1   
 28  15  29  1   
 29  15  30  1   
 30  17  18  1   
 31  17  31  1   
 32  17  32  1   
 33  18  19  1   
 34  18  33  1   
 35  18  34  1   
 36  19  35  1   
 37  19  36  1   
 38  19  37  1   
@<TRIPOS>SUBSTRUCTURE
  1 ****   4 GROUP 4 **** **** 0

# MOE 2024.06 (io_trps.svl 2023.06)
