@<TRIPOS>MOLECULE
NONAME
47 50 1 0 0 
SMALL
USER_CHARGES


@<TRIPOS>ATOM
  1 O       -1.2280     0.6770     1.0830 O.2   1 <1>  -0.5700 
  2 C       -0.7590     1.6330     0.5080 C.2   1 <1>   0.5690 
  3 N       -1.5330     2.7310     0.1430 N.am  1 <1>  -0.2980 
  4 C        0.7400     1.5990     0.1910 C.3   1 <1>  -0.0990 
  5 N       -2.9100     2.7780     0.1840 N.2   1 <1>  -0.5120 
  6 C       -0.9920     3.9930    -0.4280 C.3   1 <1>   0.3640 
  7 C        1.3300     0.1840     0.0520 C.3   1 <1>  -0.2400 
  8 C       -3.3330     3.9120    -0.2050 C.2   1 <1>   0.3030 
  9 C        0.0980     4.6330     0.4320 C.ar  1 <1>  -0.1440 
 10 C       -2.2290     4.8900    -0.5070 C.3   1 <1>  -0.0190 
 11 C       -4.6900     4.3440    -0.4160 C.ar  1 <1>   0.0860 
 12 C       -0.0090     4.6700     1.8160 C.ar  1 <1>  -0.1500 
 13 C        1.2150     5.1910    -0.1740 C.ar  1 <1>  -0.1500 
 14 C       -2.4950     5.5700    -1.8570 C.3   1 <1>  -0.1600 
 15 C       -4.9620     5.4920    -1.1740 C.ar  1 <1>  -0.1440 
 16 C       -5.7610     3.6230     0.1080 C.ar  1 <1>  -0.1500 
 17 C        0.9860     5.2500     2.5820 C.ar  1 <1>  -0.1500 
 18 C        2.2110     5.7730     0.5920 C.ar  1 <1>  -0.1500 
 19 C       -3.8330     6.3260    -1.7880 C.3   1 <1>  -0.0170 
 20 C       -6.2700     5.8950    -1.3790 C.ar  1 <1>  -0.1500 
 21 C       -7.0720     4.0290    -0.1010 C.ar  1 <1>   0.0820 
 22 C        2.0970     5.8020     1.9700 C.ar  1 <1>  -0.1500 
 23 C       -7.3190     5.1690    -0.8450 C.ar  1 <1>  -0.1500 
 24 O       -8.1540     3.3690     0.3840 O.3   1 <1>  -0.3620 
 25 C       -8.0090     2.1690     1.1120 C.3   1 <1>   0.0400 
 26 H        1.2590     2.1130     0.9790 H     1 <1>   0.0800 
 27 H        0.9240     2.1200    -0.7290 H     1 <1>   0.0800 
 28 H       -0.6260     3.7830    -1.4170 H     1 <1>   0.0800 
 29 H        1.2210    -0.3560     0.9770 H     1 <1>   0.0800 
 30 H        2.3750     0.2370    -0.1950 H     1 <1>   0.0800 
 31 H        0.8150    -0.3590    -0.7220 H     1 <1>   0.0800 
 32 H       -2.2020     5.6280     0.2750 H     1 <1>   0.0800 
 33 H       -0.8690     4.2410     2.3060 H     1 <1>   0.1500 
 34 H        1.3220     5.1780    -1.2450 H     1 <1>   0.1500 
 35 H       -2.5500     4.8240    -2.6320 H     1 <1>   0.0800 
 36 H       -1.6990     6.2540    -2.0950 H     1 <1>   0.0800 
 37 H       -5.5370     2.7420     0.6780 H     1 <1>   0.1500 
 38 H        0.8950     5.2710     3.6540 H     1 <1>   0.1500 
 39 H        3.0760     6.2030     0.1170 H     1 <1>   0.1500 
 40 H       -4.1120     6.6400    -2.7790 H     1 <1>   0.0800 
 41 H       -3.7070     7.2110    -1.1890 H     1 <1>   0.0800 
 42 H       -6.4850     6.7780    -1.9560 H     1 <1>   0.1500 
 43 H        2.8710     6.2540     2.5660 H     1 <1>   0.1500 
 44 H       -8.3360     5.4810    -1.0030 H     1 <1>   0.1500 
 45 H       -8.9900     1.8170     1.3750 H     1 <1>   0.0800 
 46 H       -7.4410     2.3680     2.0040 H     1 <1>   0.0800 
 47 H       -7.5120     1.4420     0.4940 H     1 <1>   0.0800 
@<TRIPOS>BOND
  1   1   2  2   
  2   2   3  am  
  3   2   4  1   
  4   3   5  1   
  5   3   6  1   
  6   4   7  1   
  7   4  26  1   
  8   4  27  1   
  9   5   8  2   
 10   6   9  1   
 11   6  10  1   
 12   6  28  1   
 13   7  29  1   
 14   7  30  1   
 15   7  31  1   
 16   8  10  1   
 17   8  11  1   
 18   9  12  ar  
 19   9  13  ar  
 20  10  14  1   
 21  10  32  1   
 22  11  15  ar  
 23  11  16  ar  
 24  12  17  ar  
 25  12  33  1   
 26  13  18  ar  
 27  13  34  1   
 28  14  19  1   
 29  14  35  1   
 30  14  36  1   
 31  15  19  1   
 32  15  20  ar  
 33  16  21  ar  
 34  16  37  1   
 35  17  22  ar  
 36  17  38  1   
 37  18  22  ar  
 38  18  39  1   
 39  19  40  1   
 40  19  41  1   
 41  20  23  ar  
 42  20  42  1   
 43  21  23  ar  
 44  21  24  1   
 45  22  43  1   
 46  23  44  1   
 47  24  25  1   
 48  25  45  1   
 49  25  46  1   
 50  25  47  1   
@<TRIPOS>SUBSTRUCTURE
  1 ****   8 GROUP 4 **** **** 0

# MOE 2024.06 (io_trps.svl 2023.06)
