@<TRIPOS>MOLECULE
NONAME
41 42 1 0 0 
SMALL
USER_CHARGES


@<TRIPOS>ATOM
  1 S        1.1440    -1.1170    -0.0200 S.3   1 <1>  -0.3320 
  2 C       -0.5850    -1.5490     0.0340 C.ar  1 <1>   0.7220 
  3 C        1.4300    -0.6220    -1.7920 C.3   1 <1>   0.1310 
  4 N       -1.0190    -1.9390     1.2190 N.ar  1 <1>  -0.6200 
  5 N       -1.2420    -1.4330    -1.1090 N.ar  1 <1>  -0.6200 
  6 C        2.8720    -0.2100    -2.0490 C.2   1 <1>   0.5690 
  7 C       -2.2920    -2.2560     1.2560 C.ar  1 <1>   0.1660 
  8 C       -2.5120    -1.7570    -1.0400 C.ar  1 <1>   0.1660 
  9 O        3.1630     0.1300    -3.1710 O.2   1 <1>  -0.5700 
 10 N        3.7630    -0.2430    -1.0130 N.am  1 <1>  -0.5470 
 11 C       -3.0900    -2.1800     0.1360 C.ar  1 <1>  -0.1500 
 12 C       -2.8450    -2.7110     2.5900 C.3   1 <1>  -0.0970 
 13 C       -3.3190    -1.6460    -2.3170 C.3   1 <1>  -0.0970 
 14 C        5.1320     0.0580    -0.8860 C.ar  1 <1>   0.1170 
 15 C        5.7230    -0.1020     0.3730 C.ar  1 <1>   0.0830 
 16 C        5.9190     0.5030    -1.9420 C.ar  1 <1>  -0.1500 
 17 O        4.9140    -0.5410     1.3840 O.3   1 <1>  -0.3630 
 18 C        7.0730     0.1820     0.5540 C.ar  1 <1>  -0.1500 
 19 C        7.2610     0.7840    -1.7580 C.ar  1 <1>  -0.1500 
 20 C        5.4010    -0.7380     2.6900 C.3   1 <1>   0.1200 
 21 C        7.8380     0.6240    -0.5110 C.ar  1 <1>  -0.1500 
 22 C        4.2400    -1.2260     3.5500 C.3   1 <1>  -0.2400 
 23 H        0.7690     0.1980    -2.0040 H     1 <1>   0.0800 
 24 H        1.1720    -1.4650    -2.4050 H     1 <1>   0.0800 
 25 H        3.3630    -0.5550    -0.1210 H     1 <1>   0.3700 
 26 H       -4.1290    -2.4430     0.1800 H     1 <1>   0.1500 
 27 H       -2.7140    -1.9320     3.3180 H     1 <1>   0.0800 
 28 H       -2.3130    -3.5850     2.9210 H     1 <1>   0.0800 
 29 H       -3.8910    -2.9470     2.5170 H     1 <1>   0.0800 
 30 H       -3.2940    -0.6310    -2.6710 H     1 <1>   0.0800 
 31 H       -4.3410    -1.9320    -2.1550 H     1 <1>   0.0800 
 32 H       -2.8930    -2.2850    -3.0690 H     1 <1>   0.0800 
 33 H        5.4910     0.6340    -2.9180 H     1 <1>   0.1500 
 34 H        7.5480     0.0670     1.5090 H     1 <1>   0.1500 
 35 H        7.8550     1.1280    -2.5870 H     1 <1>   0.1500 
 36 H        5.7800     0.2000     3.0580 H     1 <1>   0.0800 
 37 H        6.1860    -1.4740     2.6550 H     1 <1>   0.0800 
 38 H        8.8830     0.8430    -0.3710 H     1 <1>   0.1500 
 39 H        3.4540    -0.4920     3.5630 H     1 <1>   0.0800 
 40 H        4.5750    -1.3880     4.5580 H     1 <1>   0.0800 
 41 H        3.8570    -2.1530     3.1620 H     1 <1>   0.0800 
@<TRIPOS>BOND
  1   1   2  1   
  2   1   3  1   
  3   2   4  ar  
  4   2   5  ar  
  5   3   6  1   
  6   3  23  1   
  7   3  24  1   
  8   4   7  ar  
  9   5   8  ar  
 10   6   9  2   
 11   6  10  am  
 12   7  11  ar  
 13   7  12  1   
 14   8  11  ar  
 15   8  13  1   
 16  10  14  1   
 17  10  25  1   
 18  11  26  1   
 19  12  27  1   
 20  12  28  1   
 21  12  29  1   
 22  13  30  1   
 23  13  31  1   
 24  13  32  1   
 25  14  15  ar  
 26  14  16  ar  
 27  15  17  1   
 28  15  18  ar  
 29  16  19  ar  
 30  16  33  1   
 31  17  20  1   
 32  18  21  ar  
 33  18  34  1   
 34  19  21  ar  
 35  19  35  1   
 36  20  22  1   
 37  20  36  1   
 38  20  37  1   
 39  21  38  1   
 40  22  39  1   
 41  22  40  1   
 42  22  41  1   
@<TRIPOS>SUBSTRUCTURE
  1 ****   1 GROUP 4 **** **** 0

# MOE 2024.06 (io_trps.svl 2023.06)
