@<TRIPOS>MOLECULE
NONAME
48 49 1 0 0 
SMALL
USER_CHARGES


@<TRIPOS>ATOM
  1 CL      -2.3450     0.4660    -0.1190 Cl    1 <1>  -0.1770 
  2 C       -2.5100    -1.1420     0.5570 C.ar  1 <1>   0.1770 
  3 C       -2.3570    -2.2830    -0.2330 C.ar  1 <1>   0.0830 
  4 C       -2.8130    -1.2350     1.9000 C.ar  1 <1>  -0.1500 
  5 O       -2.0670    -2.1940    -1.5510 O.3   1 <1>  -0.3630 
  6 C       -2.5330    -3.5460     0.3350 C.ar  1 <1>  -0.1440 
  7 C       -2.9760    -2.4900     2.4510 C.ar  1 <1>   0.1770 
  8 C       -0.7970    -1.6990    -1.9180 C.3   1 <1>   0.0400 
  9 C       -2.8430    -3.6350     1.6880 C.ar  1 <1>  -0.1500 
 10 C       -2.4000    -4.8410    -0.4820 C.3   1 <1>   0.3400 
 11 CL      -3.3610    -2.6340     4.1470 Cl    1 <1>  -0.1770 
 12 C       -3.7810    -5.5040    -0.5280 C.2   1 <1>  -0.1240 
 13 C       -1.3080    -5.7070     0.1630 C.2   1 <1>  -0.1240 
 14 C       -3.9800    -6.6870     0.1120 C.2   1 <1>  -0.0380 
 15 C       -4.7430    -4.7390    -1.2560 C.2   1 <1>   0.7060 
 16 C       -1.6530    -6.8840     0.7550 C.2   1 <1>  -0.0380 
 17 C       -0.0060    -5.1190     0.0820 C.2   1 <1>   0.7060 
 18 N       -2.9580    -7.3170     0.7810 N.pl3 1 <1>  -0.6000 
 19 C       -5.2920    -7.4550     0.1550 C.3   1 <1>  -0.1020 
 20 O       -4.4980    -4.1870    -2.3110 O.2   1 <1>  -0.5700 
 21 O       -5.9700    -4.6100    -0.7380 O.3   1 <1>  -0.4300 
 22 C       -0.6930    -7.8560     1.4230 C.3   1 <1>  -0.1020 
 23 O        0.3680    -4.4430    -0.8580 O.2   1 <1>  -0.5700 
 24 O        0.8400    -5.2950     1.1050 O.3   1 <1>  -0.4300 
 25 C       -6.9490    -3.8160    -1.3670 C.3   1 <1>   0.1200 
 26 C        2.1290    -4.7130     1.1160 C.3   1 <1>   0.0400 
 27 C       -8.2140    -3.8670    -0.5170 C.3   1 <1>  -0.2400 
 28 H       -2.9260    -0.3530     2.5020 H     1 <1>   0.1500 
 29 H       -0.5020    -2.1840    -2.8320 H     1 <1>   0.0800 
 30 H       -0.0850    -1.9220    -1.1430 H     1 <1>   0.0800 
 31 H       -0.8660    -0.6390    -2.0740 H     1 <1>   0.0800 
 32 H       -2.9870    -4.5940     2.1570 H     1 <1>   0.1500 
 33 H       -2.1010    -4.6360    -1.4950 H     1 <1>   0.0800 
 34 H       -3.1670    -8.1990     1.2630 H     1 <1>   0.4000 
 35 H       -5.1170    -8.4930    -0.0650 H     1 <1>   0.0800 
 36 H       -5.9970    -7.0890    -0.5660 H     1 <1>   0.0800 
 37 H       -5.7280    -7.3750     1.1350 H     1 <1>   0.0800 
 38 H       -0.9510    -8.8670     1.1650 H     1 <1>   0.0800 
 39 H       -0.7460    -7.7450     2.4900 H     1 <1>   0.0800 
 40 H        0.3210    -7.6990     1.1070 H     1 <1>   0.0800 
 41 H       -7.1280    -4.2100    -2.3530 H     1 <1>   0.0800 
 42 H       -6.5740    -2.8090    -1.4430 H     1 <1>   0.0800 
 43 H        2.0270    -3.6430     1.0600 H     1 <1>   0.0800 
 44 H        2.6830    -5.0790     0.2690 H     1 <1>   0.0800 
 45 H        2.6200    -4.9920     2.0300 H     1 <1>   0.0800 
 46 H       -8.5720    -4.8780    -0.4440 H     1 <1>   0.0800 
 47 H       -8.9800    -3.2640    -0.9710 H     1 <1>   0.0800 
 48 H       -8.0140    -3.4820     0.4670 H     1 <1>   0.0800 
@<TRIPOS>BOND
  1   1   2  1   
  2   2   3  ar  
  3   2   4  ar  
  4   3   5  1   
  5   3   6  ar  
  6   4   7  ar  
  7   4  28  1   
  8   5   8  1   
  9   6   9  ar  
 10   6  10  1   
 11   7   9  ar  
 12   7  11  1   
 13   8  29  1   
 14   8  30  1   
 15   8  31  1   
 16   9  32  1   
 17  10  12  1   
 18  10  13  1   
 19  10  33  1   
 20  12  14  2   
 21  12  15  1   
 22  13  16  2   
 23  13  17  1   
 24  14  18  1   
 25  14  19  1   
 26  15  20  2   
 27  15  21  1   
 28  16  18  1   
 29  16  22  1   
 30  17  23  2   
 31  17  24  1   
 32  18  34  1   
 33  19  35  1   
 34  19  36  1   
 35  19  37  1   
 36  21  25  1   
 37  22  38  1   
 38  22  39  1   
 39  22  40  1   
 40  24  26  1   
 41  25  27  1   
 42  25  41  1   
 43  25  42  1   
 44  26  43  1   
 45  26  44  1   
 46  26  45  1   
 47  27  46  1   
 48  27  47  1   
 49  27  48  1   
@<TRIPOS>SUBSTRUCTURE
  1 ****   6 GROUP 4 **** **** 0

# MOE 2024.06 (io_trps.svl 2023.06)
