@<TRIPOS>MOLECULE
NONAME
43 45 1 0 0 
SMALL
USER_CHARGES


@<TRIPOS>ATOM
  1 F        0.2790     2.9460    -2.5960 F     1 <1>  -0.1900 
  2 C       -0.3530     2.8340    -1.4580 C.ar  1 <1>   0.1900 
  3 C       -1.4980     3.5770    -1.2560 C.ar  1 <1>  -0.1500 
  4 C        0.1530     1.9710    -0.5050 C.ar  1 <1>  -0.1500 
  5 C       -2.1780     3.4630    -0.0470 C.ar  1 <1>   0.1170 
  6 C       -0.5220     1.8530     0.6970 C.ar  1 <1>  -0.1500 
  7 N       -3.3550     4.1710     0.2450 N.am  1 <1>  -0.5470 
  8 C       -1.6740     2.5920     0.9170 C.ar  1 <1>  -0.1500 
  9 C       -3.9260     5.2640    -0.3470 C.2   1 <1>   0.5690 
 10 O       -3.4500     5.8540    -1.2820 O.2   1 <1>  -0.5700 
 11 C       -5.2400     5.7610     0.2240 C.3   1 <1>  -0.0990 
 12 C       -6.3930     4.7800    -0.0430 C.3   1 <1>  -0.1600 
 13 C       -7.7030     5.2750     0.5760 C.3   1 <1>   0.1400 
 14 N       -8.7480     4.2430     0.4200 N.am  1 <1>  -0.4200 
 15 C       -9.7780     4.3080    -0.4730 C.2   1 <1>   0.5690 
 16 C       -8.8120     3.0970     1.1590 C.2   1 <1>   0.5690 
 17 O       -9.9210     5.1300    -1.3410 O.2   1 <1>  -0.5700 
 18 C      -10.7560     3.1940    -0.1770 C.3   1 <1>  -0.0190 
 19 O       -8.1120     2.8150     2.0980 O.2   1 <1>  -0.5700 
 20 C       -9.8720     2.1940     0.5720 C.3   1 <1>  -0.0190 
 21 C      -11.5300     2.4700    -1.2820 C.3   1 <1>  -0.0220 
 22 C      -10.7450     1.2820     1.4390 C.3   1 <1>  -0.0220 
 23 C      -12.1920     1.2420    -0.6520 C.2   1 <1>  -0.2880 
 24 C      -11.8630     0.7340     0.5480 C.2   1 <1>  -0.2880 
 25 H       -1.8440     4.2260    -2.0370 H     1 <1>   0.1500 
 26 H        1.0490     1.4110    -0.7040 H     1 <1>   0.1500 
 27 H       -0.1510     1.1880     1.4590 H     1 <1>   0.1500 
 28 H       -3.8680     3.8130     1.0490 H     1 <1>   0.3700 
 29 H       -2.1850     2.4890     1.8570 H     1 <1>   0.1500 
 30 H       -5.4670     6.7130    -0.2230 H     1 <1>   0.0800 
 31 H       -5.1180     5.9140     1.2810 H     1 <1>   0.0800 
 32 H       -6.1430     3.8200     0.3750 H     1 <1>   0.0800 
 33 H       -6.5210     4.6670    -1.1060 H     1 <1>   0.0800 
 34 H       -8.0200     6.1860     0.0960 H     1 <1>   0.0800 
 35 H       -7.5670     5.4710     1.6260 H     1 <1>   0.0800 
 36 H      -11.4750     3.6080     0.5090 H     1 <1>   0.0800 
 37 H       -9.3640     1.5720    -0.1450 H     1 <1>   0.0800 
 38 H      -10.8730     2.1680    -2.0790 H     1 <1>   0.0800 
 39 H      -12.2770     3.1320    -1.6860 H     1 <1>   0.0800 
 40 H      -11.1660     1.8240     2.2680 H     1 <1>   0.0800 
 41 H      -10.1460     0.4760     1.8250 H     1 <1>   0.0800 
 42 H      -12.9670     0.8170    -1.2700 H     1 <1>   0.1500 
 43 H      -12.3660    -0.1160     0.9780 H     1 <1>   0.1500 
@<TRIPOS>BOND
  1   1   2  1   
  2   2   3  ar  
  3   2   4  ar  
  4   3   5  ar  
  5   3  25  1   
  6   4   6  ar  
  7   4  26  1   
  8   5   7  1   
  9   5   8  ar  
 10   6   8  ar  
 11   6  27  1   
 12   7   9  am  
 13   7  28  1   
 14   8  29  1   
 15   9  10  2   
 16   9  11  1   
 17  11  12  1   
 18  11  30  1   
 19  11  31  1   
 20  12  13  1   
 21  12  32  1   
 22  12  33  1   
 23  13  14  1   
 24  13  34  1   
 25  13  35  1   
 26  14  15  am  
 27  14  16  am  
 28  15  17  2   
 29  15  18  1   
 30  16  19  2   
 31  16  20  1   
 32  18  20  1   
 33  18  21  1   
 34  18  36  1   
 35  20  22  1   
 36  20  37  1   
 37  21  23  1   
 38  21  38  1   
 39  21  39  1   
 40  22  24  1   
 41  22  40  1   
 42  22  41  1   
 43  23  24  2   
 44  23  42  1   
 45  24  43  1   
@<TRIPOS>SUBSTRUCTURE
  1 ****  12 GROUP 4 **** **** 0

# MOE 2024.06 (io_trps.svl 2023.06)
