@<TRIPOS>MOLECULE
NONAME
48 49 1 0 0 
SMALL
USER_CHARGES


@<TRIPOS>ATOM
  1 S        0.2850     1.0530     1.8890 S.o2  1 <1>   1.4970 
  2 O        0.3090     0.0420     2.9240 O.2   1 <1>  -0.6500 
  3 O        0.8430     2.3560     2.1990 O.2   1 <1>  -0.6500 
  4 N        1.1200     0.4420     0.5740 N.2   1 <1>  -0.6380 
  5 C       -1.4030     1.2480     1.2490 C.ar  1 <1>  -0.0090 
  6 C        2.4020     0.3600     0.6110 C.2   1 <1>   0.5000 
  7 C       -2.3850     0.2930     1.4850 C.ar  1 <1>  -0.1500 
  8 C       -1.7560     2.3520     0.4800 C.ar  1 <1>  -0.1500 
  9 N        3.1550     0.9040     1.6470 N.pl3 1 <1>  -0.5500 
 10 C        3.1880    -0.3030    -0.4390 C.2   1 <1>   0.6000 
 11 C       -3.6650     0.4360     0.9830 C.ar  1 <1>  -0.1500 
 12 C       -3.0350     2.4970    -0.0260 C.ar  1 <1>  -0.1500 
 13 C        4.5300     0.7620     1.6530 C.2   1 <1>  -0.0500 
 14 O        2.4940    -0.8170    -1.4870 O.3   1 <1>  -0.4300 
 15 N        4.4820    -0.4320    -0.4300 N.2   1 <1>  -0.6210 
 16 C       -4.0140     1.5420     0.2140 C.ar  1 <1>   0.1170 
 17 C        5.1490     0.1090     0.6420 C.2   1 <1>   0.0210 
 18 C        3.1430    -1.4870    -2.5510 C.3   1 <1>   0.0400 
 19 N       -5.2950     1.7470    -0.3190 N.am  1 <1>  -0.5470 
 20 C       -6.3740     0.9160    -0.4500 C.2   1 <1>   0.5690 
 21 O       -6.3860    -0.2400    -0.1100 O.2   1 <1>  -0.5700 
 22 C       -7.6290     1.4980    -1.0750 C.3   1 <1>  -0.0990 
 23 C       -8.3590     2.4620    -0.1240 C.3   1 <1>  -0.1600 
 24 C       -9.6250     3.0330    -0.7750 C.3   1 <1>  -0.1600 
 25 C      -10.3510     3.9900     0.1770 C.3   1 <1>  -0.1600 
 26 C      -11.6140     4.5600    -0.4720 C.3   1 <1>  -0.2400 
 27 H       -2.1460    -0.5780     2.0730 H     1 <1>   0.1500 
 28 H       -1.0160     3.1080     0.2750 H     1 <1>   0.1500 
 29 H        2.6780     1.5050     2.3340 H     1 <1>   0.4000 
 30 H       -4.3930    -0.3250     1.1980 H     1 <1>   0.1500 
 31 H       -3.2690     3.3640    -0.6170 H     1 <1>   0.1500 
 32 H        5.0710     1.1900     2.4820 H     1 <1>   0.1500 
 33 H        6.2200    -0.0140     0.6290 H     1 <1>   0.1500 
 34 H        2.3960    -1.8030    -3.2570 H     1 <1>   0.0800 
 35 H        3.6660    -2.3420    -2.1590 H     1 <1>   0.0800 
 36 H        3.8330    -0.8090    -3.0230 H     1 <1>   0.0800 
 37 H       -5.4490     2.6820    -0.6890 H     1 <1>   0.3700 
 38 H       -8.2860     0.6860    -1.3320 H     1 <1>   0.0800 
 39 H       -7.3630     2.0040    -1.9850 H     1 <1>   0.0800 
 40 H       -7.7030     3.2700     0.1520 H     1 <1>   0.0800 
 41 H       -8.6270     1.9300     0.7740 H     1 <1>   0.0800 
 42 H      -10.2870     2.2250    -1.0400 H     1 <1>   0.0800 
 43 H       -9.3620     3.5590    -1.6770 H     1 <1>   0.0800 
 44 H       -9.6960     4.8010     0.4470 H     1 <1>   0.0800 
 45 H      -10.6220     3.4670     1.0790 H     1 <1>   0.0800 
 46 H      -11.3660     5.1070    -1.3640 H     1 <1>   0.0800 
 47 H      -12.1100     5.2270     0.2110 H     1 <1>   0.0800 
 48 H      -12.2960     3.7670    -0.7290 H     1 <1>   0.0800 
@<TRIPOS>BOND
  1   1   2  2   
  2   1   3  2   
  3   1   4  1   
  4   1   5  1   
  5   4   6  2   
  6   5   7  ar  
  7   5   8  ar  
  8   6   9  1   
  9   6  10  1   
 10   7  11  ar  
 11   7  27  1   
 12   8  12  ar  
 13   8  28  1   
 14   9  13  1   
 15   9  29  1   
 16  10  14  1   
 17  10  15  2   
 18  11  16  ar  
 19  11  30  1   
 20  12  16  ar  
 21  12  31  1   
 22  13  17  2   
 23  13  32  1   
 24  14  18  1   
 25  15  17  1   
 26  16  19  1   
 27  17  33  1   
 28  18  34  1   
 29  18  35  1   
 30  18  36  1   
 31  19  20  am  
 32  19  37  1   
 33  20  21  2   
 34  20  22  1   
 35  22  23  1   
 36  22  38  1   
 37  22  39  1   
 38  23  24  1   
 39  23  40  1   
 40  23  41  1   
 41  24  25  1   
 42  24  42  1   
 43  24  43  1   
 44  25  26  1   
 45  25  44  1   
 46  25  45  1   
 47  26  46  1   
 48  26  47  1   
 49  26  48  1   
@<TRIPOS>SUBSTRUCTURE
  1 ****   5 GROUP 4 **** **** 0

# MOE 2024.06 (io_trps.svl 2023.06)
