@<TRIPOS>MOLECULE
NONAME
46 49 1 0 0 
SMALL
USER_CHARGES


@<TRIPOS>ATOM
  1 CL      -1.9020    -0.6450    -3.9050 Cl    1 <1>  -0.1770 
  2 C       -2.9520    -1.2210    -2.6390 C.ar  1 <1>   0.1770 
  3 C       -4.1280    -1.8640    -2.9730 C.ar  1 <1>  -0.1500 
  4 C       -2.5930    -1.0270    -1.3190 C.ar  1 <1>  -0.1500 
  5 C       -4.9630    -2.3190    -1.9660 C.ar  1 <1>  -0.1500 
  6 C       -3.4300    -1.4820    -0.3130 C.ar  1 <1>  -0.1500 
  7 C       -4.6200    -2.1250    -0.6320 C.ar  1 <1>  -0.1430 
  8 C       -5.5420    -2.6100     0.4720 C.3   1 <1>   0.4870 
  9 N       -6.7510    -1.7510     0.4980 N.4   1 <1>  -0.9590 
 10 C       -6.4760    -0.2900     0.7150 C.3   1 <1>   0.3430 
 11 C       -7.8360    -2.2330     1.4100 C.3   1 <1>   0.3430 
 12 C       -7.7770     0.5440     0.5940 C.3   1 <1>   0.1100 
 13 C       -9.1230    -1.3950     1.2180 C.3   1 <1>   0.1100 
 14 N       -8.9420    -0.2960     0.2330 N.3   1 <1>  -0.8100 
 15 C      -10.1700     0.5030     0.0540 C.3   1 <1>   0.2530 
 16 C      -11.2830    -0.3760    -0.4930 C.ar  1 <1>  -0.1430 
 17 C      -12.3740    -0.7030     0.3060 C.ar  1 <1>  -0.1500 
 18 C      -11.2010    -0.8680    -1.7960 C.ar  1 <1>  -0.1500 
 19 C      -13.3470    -1.5260    -0.2250 C.ar  1 <1>   0.0830 
 20 C      -12.1920    -1.6910    -2.3150 C.ar  1 <1>  -0.1500 
 21 O      -14.4610    -1.9740     0.3610 O.3   1 <1>  -0.3620 
 22 C      -13.2590    -2.0070    -1.4990 C.ar  1 <1>   0.0830 
 23 C      -15.1310    -2.7850    -0.6030 C.3   1 <1>   0.4000 
 24 O      -14.3150    -2.7790    -1.7730 O.3   1 <1>  -0.3620 
 25 H       -4.3790    -2.0060    -4.0100 H     1 <1>   0.1500 
 26 H       -1.6670    -0.5280    -1.0900 H     1 <1>   0.1500 
 27 H       -5.8750    -2.8240    -2.2380 H     1 <1>   0.1500 
 28 H       -3.1370    -1.3300     0.7130 H     1 <1>   0.1500 
 29 H       -5.0340    -2.5670     1.4210 H     1 <1>   0.0800 
 30 H       -5.8200    -3.6340     0.2790 H     1 <1>   0.0800 
 31 H       -7.1890    -1.7640    -0.4360 H     1 <1>   0.4500 
 32 H       -5.7720     0.0620    -0.0220 H     1 <1>   0.0800 
 33 H       -6.0400    -0.1330     1.6870 H     1 <1>   0.0800 
 34 H       -7.5160    -2.1630     2.4370 H     1 <1>   0.0800 
 35 H       -8.0620    -3.2670     1.2040 H     1 <1>   0.0800 
 36 H       -7.6330     1.3010    -0.1590 H     1 <1>   0.0800 
 37 H       -7.9640     1.0480     1.5280 H     1 <1>   0.0800 
 38 H       -9.4310    -0.9930     2.1680 H     1 <1>   0.0800 
 39 H       -9.9040    -2.0570     0.8830 H     1 <1>   0.0800 
 40 H       -9.9850     1.2990    -0.6480 H     1 <1>   0.0800 
 41 H      -10.4680     0.9440     0.9910 H     1 <1>   0.0800 
 42 H      -12.4790    -0.3400     1.3120 H     1 <1>   0.1500 
 43 H      -10.3550    -0.6110    -2.4100 H     1 <1>   0.1500 
 44 H      -12.1440    -2.0770    -3.3170 H     1 <1>   0.1500 
 45 H      -16.0910    -2.3570    -0.8310 H     1 <1>   0.0800 
 46 H      -15.2200    -3.7900    -0.2310 H     1 <1>   0.0800 
@<TRIPOS>BOND
  1   1   2  1   
  2   2   3  ar  
  3   2   4  ar  
  4   3   5  ar  
  5   3  25  1   
  6   4   6  ar  
  7   4  26  1   
  8   5   7  ar  
  9   5  27  1   
 10   6   7  ar  
 11   6  28  1   
 12   7   8  1   
 13   8   9  1   
 14   8  29  1   
 15   8  30  1   
 16   9  10  1   
 17   9  11  1   
 18   9  31  1   
 19  10  12  1   
 20  10  32  1   
 21  10  33  1   
 22  11  13  1   
 23  11  34  1   
 24  11  35  1   
 25  12  14  1   
 26  12  36  1   
 27  12  37  1   
 28  13  14  1   
 29  13  38  1   
 30  13  39  1   
 31  14  15  1   
 32  15  16  1   
 33  15  40  1   
 34  15  41  1   
 35  16  17  ar  
 36  16  18  ar  
 37  17  19  ar  
 38  17  42  1   
 39  18  20  ar  
 40  18  43  1   
 41  19  21  1   
 42  19  22  ar  
 43  20  22  ar  
 44  20  44  1   
 45  21  23  1   
 46  22  24  1   
 47  23  24  1   
 48  23  45  1   
 49  23  46  1   
@<TRIPOS>SUBSTRUCTURE
  1 ****  14 GROUP 4 **** **** 0

# MOE 2024.06 (io_trps.svl 2023.06)
