@<TRIPOS>MOLECULE
NONAME
41 42 1 0 0 
SMALL
USER_CHARGES


@<TRIPOS>ATOM
  1 CL      -0.5970    -1.7590     2.5250 Cl    1 <1>  -0.1770 
  2 C       -1.8620    -1.5890     1.3260 C.ar  1 <1>   0.1770 
  3 C       -2.2800    -0.3270     0.9190 C.ar  1 <1>   0.0830 
  4 C       -2.4190    -2.7320     0.7840 C.ar  1 <1>  -0.1500 
  5 O       -1.7360     0.7910     1.4550 O.3   1 <1>  -0.3630 
  6 C       -3.2780    -0.2210    -0.0390 C.ar  1 <1>  -0.1500 
  7 C       -3.4080    -2.6240    -0.1820 C.ar  1 <1>  -0.1430 
  8 C       -0.8740     1.5540     0.6440 C.3   1 <1>   0.1200 
  9 C       -3.8340    -1.3660    -0.5870 C.ar  1 <1>  -0.1500 
 10 C       -4.0300    -3.8700    -0.7860 C.3   1 <1>  -0.0960 
 11 C        0.5210     0.9270     0.7100 C.3   1 <1>  -0.1600 
 12 C        1.5400     1.7630    -0.0580 C.3   1 <1>   0.3430 
 13 N        2.9120     1.2200     0.1490 N.4   1 <1>  -0.9590 
 14 C        3.9400     2.2100    -0.2880 C.3   1 <1>   0.3430 
 15 C        3.1130    -0.1050    -0.5170 C.3   1 <1>   0.3430 
 16 C        5.3360     1.7020     0.0800 C.3   1 <1>  -0.1600 
 17 C        4.4920    -0.6600    -0.1580 C.3   1 <1>  -0.1600 
 18 C        5.6140     0.3200    -0.5230 C.3   1 <1>  -0.1600 
 19 H       -2.0780    -3.6950     1.1190 H     1 <1>   0.1500 
 20 H       -3.6250     0.7480    -0.3460 H     1 <1>   0.1500 
 21 H       -0.8670     2.5530     1.0450 H     1 <1>   0.0800 
 22 H       -1.2620     1.5760    -0.3610 H     1 <1>   0.0800 
 23 H       -4.6090    -1.2750    -1.3280 H     1 <1>   0.1500 
 24 H       -3.3450    -4.6980    -0.7380 H     1 <1>   0.0800 
 25 H       -4.2840    -3.7020    -1.8170 H     1 <1>   0.0800 
 26 H       -4.9240    -4.1280    -0.2470 H     1 <1>   0.0800 
 27 H        0.4670    -0.0610     0.2900 H     1 <1>   0.0800 
 28 H        0.8120     0.8640     1.7440 H     1 <1>   0.0800 
 29 H        1.4990     2.7780     0.3050 H     1 <1>   0.0800 
 30 H        1.2970     1.7710    -1.1090 H     1 <1>   0.0800 
 31 H        3.0470     1.0700     1.1580 H     1 <1>   0.4500 
 32 H        3.7680     3.1600     0.1930 H     1 <1>   0.0800 
 33 H        3.8800     2.3520    -1.3550 H     1 <1>   0.0800 
 34 H        3.0380     0.0090    -1.5870 H     1 <1>   0.0800 
 35 H        2.3580    -0.8040    -0.1960 H     1 <1>   0.0800 
 36 H        5.4320     1.6630     1.1510 H     1 <1>   0.0800 
 37 H        6.0710     2.4010    -0.2820 H     1 <1>   0.0800 
 38 H        4.6450    -1.5870    -0.6830 H     1 <1>   0.0800 
 39 H        4.5240    -0.8810     0.8950 H     1 <1>   0.0800 
 40 H        6.5590    -0.0540    -0.1620 H     1 <1>   0.0800 
 41 H        5.6840     0.4020    -1.5950 H     1 <1>   0.0800 
@<TRIPOS>BOND
  1   1   2  1   
  2   2   3  ar  
  3   2   4  ar  
  4   3   5  1   
  5   3   6  ar  
  6   4   7  ar  
  7   4  19  1   
  8   5   8  1   
  9   6   9  ar  
 10   6  20  1   
 11   7   9  ar  
 12   7  10  1   
 13   8  11  1   
 14   8  21  1   
 15   8  22  1   
 16   9  23  1   
 17  10  24  1   
 18  10  25  1   
 19  10  26  1   
 20  11  12  1   
 21  11  27  1   
 22  11  28  1   
 23  12  13  1   
 24  12  29  1   
 25  12  30  1   
 26  13  14  1   
 27  13  15  1   
 28  13  31  1   
 29  14  16  1   
 30  14  32  1   
 31  14  33  1   
 32  15  17  1   
 33  15  34  1   
 34  15  35  1   
 35  16  18  1   
 36  16  36  1   
 37  16  37  1   
 38  17  18  1   
 39  17  38  1   
 40  17  39  1   
 41  18  40  1   
 42  18  41  1   
@<TRIPOS>SUBSTRUCTURE
  1 ****  11 GROUP 4 **** **** 0

# MOE 2024.06 (io_trps.svl 2023.06)
