@<TRIPOS>MOLECULE
NONAME
47 48 1 0 0 
SMALL
USER_CHARGES


@<TRIPOS>ATOM
  1 S        1.1700    -1.2160    -2.2010 S.o2  1 <1>   1.4470 
  2 O        2.1000    -1.9860    -2.9950 O.2   1 <1>  -0.6500 
  3 O        0.4990    -0.0780    -2.7860 O.2   1 <1>  -0.6500 
  4 N        2.0890    -0.5680    -0.9250 N.am  1 <1>  -0.8490 
  5 C       -0.0100    -2.3250    -1.3820 C.ar  1 <1>  -0.0090 
  6 C        3.3210     0.0600    -1.4560 C.3   1 <1>   0.1960 
  7 C        1.3320     0.4120    -0.1090 C.3   1 <1>   0.1960 
  8 C       -1.1890    -1.8390    -0.8410 C.ar  1 <1>  -0.1500 
  9 C        0.2450    -3.6830    -1.2440 C.ar  1 <1>  -0.1500 
 10 C        4.1730     0.7650    -0.3710 C.3   1 <1>   0.3430 
 11 C        2.1670     0.9910     1.0620 C.3   1 <1>   0.3430 
 12 C       -2.1030    -2.6310    -0.1430 C.ar  1 <1>   0.0860 
 13 C       -0.6450    -4.5120    -0.5890 C.ar  1 <1>  -0.1500 
 14 N        3.6090     0.5580     1.0080 N.4   1 <1>  -0.9590 
 15 C       -1.8180    -4.0020    -0.0350 C.ar  1 <1>   0.0830 
 16 C       -3.2650    -1.9840     0.4430 C.2   1 <1>   0.5440 
 17 C        4.4440     1.1760     2.0800 C.3   1 <1>   0.2630 
 18 O       -2.6940    -4.8050     0.6200 O.3   1 <1>  -0.3630 
 19 O       -3.2020    -0.8100     0.7620 O.2   1 <1>  -0.5700 
 20 N       -4.4400    -2.6500     0.6390 N.am  1 <1>  -0.7300 
 21 C       -2.4550    -6.1750     0.8630 C.3   1 <1>   0.0400 
 22 C       -5.6640    -2.1090     1.2580 C.3   1 <1>   0.1400 
 23 C       -6.0450    -3.0040     2.4300 C.3   1 <1>  -0.2400 
 24 H        3.0670     0.7780    -2.2210 H     1 <1>   0.0800 
 25 H        3.9310    -0.6940    -1.9250 H     1 <1>   0.0800 
 26 H        0.4540    -0.0520     0.3050 H     1 <1>   0.0800 
 27 H        0.9970     1.2290    -0.7290 H     1 <1>   0.0800 
 28 H       -1.4180    -0.7930    -0.9620 H     1 <1>   0.1500 
 29 H        1.1500    -4.0960    -1.6590 H     1 <1>   0.1500 
 30 H        4.2150     1.8190    -0.5930 H     1 <1>   0.0800 
 31 H        5.1800     0.3840    -0.4180 H     1 <1>   0.0800 
 32 H        1.7280     0.6670     1.9920 H     1 <1>   0.0800 
 33 H        2.1030     2.0660     1.0330 H     1 <1>   0.0800 
 34 H       -0.4040    -5.5560    -0.5210 H     1 <1>   0.1500 
 35 H        3.5810    -0.4680     1.1290 H     1 <1>   0.4500 
 36 H        4.4790     2.2470     1.9600 H     1 <1>   0.0800 
 37 H        5.4510     0.7920     2.0390 H     1 <1>   0.0800 
 38 H        4.0330     0.9510     3.0520 H     1 <1>   0.0800 
 39 H       -4.4180    -3.6650     0.5050 H     1 <1>   0.3700 
 40 H       -3.2800    -6.5630     1.4340 H     1 <1>   0.0800 
 41 H       -1.5440    -6.2780     1.4270 H     1 <1>   0.0800 
 42 H       -2.3890    -6.6930    -0.0770 H     1 <1>   0.0800 
 43 H       -6.4550    -2.0920     0.5280 H     1 <1>   0.0800 
 44 H       -5.4940    -1.1020     1.6020 H     1 <1>   0.0800 
 45 H       -6.2450    -4.0040     2.0930 H     1 <1>   0.0800 
 46 H       -6.9310    -2.6190     2.9030 H     1 <1>   0.0800 
 47 H       -5.2520    -3.0190     3.1570 H     1 <1>   0.0800 
@<TRIPOS>BOND
  1   1   2  2   
  2   1   3  2   
  3   1   4  am  
  4   1   5  1   
  5   4   6  1   
  6   4   7  1   
  7   5   8  ar  
  8   5   9  ar  
  9   6  10  1   
 10   6  24  1   
 11   6  25  1   
 12   7  11  1   
 13   7  26  1   
 14   7  27  1   
 15   8  12  ar  
 16   8  28  1   
 17   9  13  ar  
 18   9  29  1   
 19  10  14  1   
 20  10  30  1   
 21  10  31  1   
 22  11  14  1   
 23  11  32  1   
 24  11  33  1   
 25  12  15  ar  
 26  12  16  1   
 27  13  15  ar  
 28  13  34  1   
 29  14  17  1   
 30  14  35  1   
 31  15  18  1   
 32  16  19  2   
 33  16  20  am  
 34  17  36  1   
 35  17  37  1   
 36  17  38  1   
 37  18  21  1   
 38  20  22  1   
 39  20  39  1   
 40  21  40  1   
 41  21  41  1   
 42  21  42  1   
 43  22  23  1   
 44  22  43  1   
 45  22  44  1   
 46  23  45  1   
 47  23  46  1   
 48  23  47  1   
@<TRIPOS>SUBSTRUCTURE
  1 ****   8 GROUP 4 **** **** 0

# MOE 2024.06 (io_trps.svl 2023.06)
