@<TRIPOS>MOLECULE
NONAME
61 64 1 0 0 
SMALL
USER_CHARGES


@<TRIPOS>ATOM
  1 O       -1.5780    -0.8710     2.3850 O.3   1 <1>  -0.3630 
  2 C       -2.1500    -1.1060     1.1780 C.ar  1 <1>   0.0830 
  3 C       -2.0180     0.1830     3.2110 C.3   1 <1>   0.0400 
  4 C       -1.5380    -2.0540     0.3750 C.ar  1 <1>  -0.1500 
  5 C       -3.2940    -0.4540     0.7260 C.ar  1 <1>  -0.1500 
  6 C       -2.0590    -2.3500    -0.8800 C.ar  1 <1>   0.0830 
  7 C       -3.8200    -0.7470    -0.5220 C.ar  1 <1>  -0.1430 
  8 O       -1.5220    -3.2660    -1.7240 O.3   1 <1>  -0.3630 
  9 C       -3.1940    -1.6910    -1.3210 C.ar  1 <1>  -0.1500 
 10 C       -5.0840    -0.0460    -1.0010 C.3   1 <1>   0.2530 
 11 C       -0.3370    -3.9550    -1.3910 C.3   1 <1>   0.0400 
 12 N       -6.2680    -0.4620    -0.2110 N.3   1 <1>  -0.8100 
 13 C       -7.5760     0.1280    -0.6530 C.3   1 <1>   0.1900 
 14 C       -6.3410    -1.9540    -0.1730 C.3   1 <1>   0.1100 
 15 C       -7.6340     1.6810    -0.7570 C.3   1 <1>  -0.0800 
 16 C       -8.7150    -0.3120     0.3270 C.3   1 <1>   0.4230 
 17 C       -7.6650    -2.5270     0.3730 C.3   1 <1>   0.3430 
 18 C       -7.1290     2.2500    -2.1030 C.3   1 <1>  -0.1600 
 19 C       -7.0130     2.4210     0.4500 C.3   1 <1>  -0.1600 
 20 N       -8.4090    -1.5050     1.1670 N.4   1 <1>  -0.9590 
 21 C      -10.0400    -0.6730    -0.3400 C.3   1 <1>  -0.1600 
 22 C       -7.3530     3.7660    -2.1790 C.3   1 <1>  -0.1600 
 23 C       -7.2250     3.9370     0.3440 C.3   1 <1>  -0.1600 
 24 C       -9.7010    -2.0050     1.6940 C.3   1 <1>   0.3430 
 25 C      -10.7520    -1.5830     0.6660 C.3   1 <1>  -0.1600 
 26 C       -6.7010     4.4830    -0.9900 C.3   1 <1>  -0.1600 
 27 H       -1.3800     0.2180     4.0760 H     1 <1>   0.0800 
 28 H       -3.0310    -0.0090     3.5130 H     1 <1>   0.0800 
 29 H       -1.9450     1.1080     2.6660 H     1 <1>   0.0800 
 30 H       -0.6610    -2.5410     0.7530 H     1 <1>   0.1500 
 31 H       -3.7910     0.2770     1.3340 H     1 <1>   0.1500 
 32 H       -3.5760    -1.9310    -2.2960 H     1 <1>   0.1500 
 33 H       -5.2460    -0.2520    -2.0460 H     1 <1>   0.0800 
 34 H       -4.9140     1.0070    -0.8880 H     1 <1>   0.0800 
 35 H       -0.0880    -4.6080    -2.2080 H     1 <1>   0.0800 
 36 H       -0.5080    -4.5330    -0.5000 H     1 <1>   0.0800 
 37 H        0.4530    -3.2400    -1.2410 H     1 <1>   0.0800 
 38 H       -7.8050    -0.2680    -1.6270 H     1 <1>   0.0800 
 39 H       -5.5470    -2.3250     0.4530 H     1 <1>   0.0800 
 40 H       -6.1800    -2.3570    -1.1590 H     1 <1>   0.0800 
 41 H       -8.6800     1.9390    -0.7500 H     1 <1>   0.0800 
 42 H       -8.9080     0.5110     0.9950 H     1 <1>   0.0800 
 43 H       -7.4520    -3.3930     0.9780 H     1 <1>   0.0800 
 44 H       -8.2710    -2.8480    -0.4570 H     1 <1>   0.0800 
 45 H       -7.6540     1.7810    -2.9170 H     1 <1>   0.0800 
 46 H       -6.0830     2.0680    -2.2470 H     1 <1>   0.0800 
 47 H       -5.9580     2.2290     0.5080 H     1 <1>   0.0800 
 48 H       -7.4510     2.0730     1.3680 H     1 <1>   0.0800 
 49 H       -7.7670    -1.1860     1.9050 H     1 <1>   0.4500 
 50 H       -9.8610    -1.2080    -1.2570 H     1 <1>   0.0800 
 51 H      -10.6150     0.2090    -0.5640 H     1 <1>   0.0800 
 52 H       -8.4090     3.9780    -2.1870 H     1 <1>   0.0800 
 53 H       -6.9380     4.1460    -3.0970 H     1 <1>   0.0800 
 54 H       -6.7170     4.4290     1.1550 H     1 <1>   0.0800 
 55 H       -8.2740     4.1630     0.4310 H     1 <1>   0.0800 
 56 H       -9.9150    -1.5340     2.6400 H     1 <1>   0.0800 
 57 H       -9.6840    -3.0750     1.8290 H     1 <1>   0.0800 
 58 H      -11.1730    -2.4450     0.1780 H     1 <1>   0.0800 
 59 H      -11.5470    -1.0560     1.1670 H     1 <1>   0.0800 
 60 H       -6.9050     5.5380    -1.0510 H     1 <1>   0.0800 
 61 H       -5.6330     4.3520    -1.0360 H     1 <1>   0.0800 
@<TRIPOS>BOND
  1   1   2  1   
  2   1   3  1   
  3   2   4  ar  
  4   2   5  ar  
  5   3  27  1   
  6   3  28  1   
  7   3  29  1   
  8   4   6  ar  
  9   4  30  1   
 10   5   7  ar  
 11   5  31  1   
 12   6   8  1   
 13   6   9  ar  
 14   7   9  ar  
 15   7  10  1   
 16   8  11  1   
 17   9  32  1   
 18  10  12  1   
 19  10  33  1   
 20  10  34  1   
 21  11  35  1   
 22  11  36  1   
 23  11  37  1   
 24  12  13  1   
 25  12  14  1   
 26  13  15  1   
 27  13  16  1   
 28  13  38  1   
 29  14  17  1   
 30  14  39  1   
 31  14  40  1   
 32  15  18  1   
 33  15  19  1   
 34  15  41  1   
 35  16  20  1   
 36  16  21  1   
 37  16  42  1   
 38  17  20  1   
 39  17  43  1   
 40  17  44  1   
 41  18  22  1   
 42  18  45  1   
 43  18  46  1   
 44  19  23  1   
 45  19  47  1   
 46  19  48  1   
 47  20  24  1   
 48  20  49  1   
 49  21  25  1   
 50  21  50  1   
 51  21  51  1   
 52  22  26  1   
 53  22  52  1   
 54  22  53  1   
 55  23  26  1   
 56  23  54  1   
 57  23  55  1   
 58  24  25  1   
 59  24  56  1   
 60  24  57  1   
 61  25  58  1   
 62  25  59  1   
 63  26  60  1   
 64  26  61  1   
@<TRIPOS>SUBSTRUCTURE
  1 ****  12 GROUP 4 **** **** 0

# MOE 2024.06 (io_trps.svl 2023.06)
