@<TRIPOS>MOLECULE
NONAME
39 39 1 0 0 
SMALL
USER_CHARGES


@<TRIPOS>ATOM
  1 P       -0.9350    -0.7480     0.3360 P.3   1 <1>   1.2420 
  2 O       -0.8080    -1.2120     1.7180 O.2   1 <1>  -0.7000 
  3 O       -2.0720    -1.5330    -0.4880 O.3   1 <1>  -0.5510 
  4 O        0.3950    -1.0040    -0.5310 O.3   1 <1>  -0.5510 
  5 C       -1.2700     1.0170     0.1740 C.3   1 <1>   0.1400 
  6 C       -2.1890    -1.4250    -1.8630 C.3   1 <1>   0.1200 
  7 C        1.0100    -2.2460    -0.5350 C.3   1 <1>   0.1200 
  8 N       -2.6030     1.5320     0.6750 N.am  1 <1>  -0.6600 
  9 C       -3.4670    -2.1450    -2.2740 C.3   1 <1>  -0.2400 
 10 C        2.0870    -2.2700     0.5470 C.3   1 <1>  -0.2400 
 11 C       -3.6360     1.8020    -0.2010 C.2   1 <1>   0.5440 
 12 C       -2.7340     1.5810     2.1610 C.3   1 <1>   0.0600 
 13 O       -3.4620     1.6060    -1.3880 O.2   1 <1>  -0.5700 
 14 C       -4.9290     2.2740     0.2420 C.ar  1 <1>   0.0860 
 15 C       -5.1130     3.5260     0.8240 C.ar  1 <1>   0.1900 
 16 C       -6.0680     1.4820     0.0940 C.ar  1 <1>  -0.1500 
 17 F       -4.0870     4.3170     0.9820 F     1 <1>  -0.1900 
 18 C       -6.3450     3.9850     1.2530 C.ar  1 <1>  -0.1500 
 19 C       -7.3120     1.9210     0.5170 C.ar  1 <1>  -0.1500 
 20 C       -7.4540     3.1720     1.0980 C.ar  1 <1>  -0.1500 
 21 H       -1.1680     1.3000    -0.8560 H     1 <1>   0.0800 
 22 H       -0.5070     1.5660     0.6930 H     1 <1>   0.0800 
 23 H       -1.3280    -1.8820    -2.3210 H     1 <1>   0.0800 
 24 H       -2.2370    -0.3870    -2.1390 H     1 <1>   0.0800 
 25 H        1.4600    -2.3820    -1.5030 H     1 <1>   0.0800 
 26 H        0.2710    -3.0150    -0.3770 H     1 <1>   0.0800 
 27 H       -3.4220    -3.1790    -1.9820 H     1 <1>   0.0800 
 28 H       -3.5870    -2.0920    -3.3410 H     1 <1>   0.0800 
 29 H       -4.3160    -1.6750    -1.8110 H     1 <1>   0.0800 
 30 H        2.6090    -3.2090     0.5150 H     1 <1>   0.0800 
 31 H        1.6480    -2.1640     1.5230 H     1 <1>   0.0800 
 32 H        2.7970    -1.4780     0.3830 H     1 <1>   0.0800 
 33 H       -2.4000     0.6530     2.5950 H     1 <1>   0.0800 
 34 H       -3.7540     1.7370     2.4600 H     1 <1>   0.0800 
 35 H       -2.1330     2.3840     2.5500 H     1 <1>   0.0800 
 36 H       -5.9670     0.5110    -0.3620 H     1 <1>   0.1500 
 37 H       -6.4320     4.9600     1.6970 H     1 <1>   0.1500 
 38 H       -8.1750     1.2880     0.3920 H     1 <1>   0.1500 
 39 H       -8.4240     3.5090     1.4240 H     1 <1>   0.1500 
@<TRIPOS>BOND
  1   1   2  2   
  2   1   3  1   
  3   1   4  1   
  4   1   5  1   
  5   3   6  1   
  6   4   7  1   
  7   5   8  1   
  8   5  21  1   
  9   5  22  1   
 10   6   9  1   
 11   6  23  1   
 12   6  24  1   
 13   7  10  1   
 14   7  25  1   
 15   7  26  1   
 16   8  11  am  
 17   8  12  1   
 18   9  27  1   
 19   9  28  1   
 20   9  29  1   
 21  10  30  1   
 22  10  31  1   
 23  10  32  1   
 24  11  13  2   
 25  11  14  1   
 26  12  33  1   
 27  12  34  1   
 28  12  35  1   
 29  14  15  ar  
 30  14  16  ar  
 31  15  17  1   
 32  15  18  ar  
 33  16  19  ar  
 34  16  36  1   
 35  18  20  ar  
 36  18  37  1   
 37  19  20  ar  
 38  19  38  1   
 39  20  39  1   
@<TRIPOS>SUBSTRUCTURE
  1 ****   8 GROUP 4 **** **** 0

# MOE 2024.06 (io_trps.svl 2023.06)
