@<TRIPOS>MOLECULE
NONAME
37 37 1 0 0 
SMALL
USER_CHARGES


@<TRIPOS>ATOM
  1 CL       1.7550    -2.0740    -3.1560 Cl    1 <1>  -0.1770 
  2 C        2.5800    -1.8250    -1.6340 C.ar  1 <1>   0.1770 
  3 C        2.0710    -2.3530    -0.4590 C.ar  1 <1>   0.1770 
  4 C        3.7520    -1.0900    -1.6210 C.ar  1 <1>  -0.1500 
  5 CL       0.5890    -3.2820    -0.4610 Cl    1 <1>  -0.1770 
  6 C        2.7290    -2.1500     0.7400 C.ar  1 <1>  -0.1500 
  7 C        4.4210    -0.8770    -0.4230 C.ar  1 <1>  -0.1440 
  8 C        3.9030    -1.4130     0.7520 C.ar  1 <1>  -0.1500 
  9 C        5.7170    -0.0660    -0.4130 C.3   1 <1>   0.3640 
 10 N        6.7680    -0.8070     0.2870 N.am  1 <1>  -0.7300 
 11 C        5.5000     1.2640     0.2880 C.3   1 <1>  -0.2660 
 12 C        7.3850    -1.8970    -0.2040 C.2   1 <1>   0.7800 
 13 C        6.7700     2.0490     0.2460 C.2   1 <1>   0.9060 
 14 O        6.9700    -2.5110    -1.1680 O.2   1 <1>  -0.5700 
 15 O        8.4950    -2.2630     0.4330 O.3   1 <1>  -0.4300 
 16 O        6.8870     2.9350    -0.6010 O.co2 1 <1>  -0.9000 
 17 O        7.6640     1.7390     1.0400 O.co2 1 <1>  -0.9000 
 18 C        9.3540    -3.3320     0.1100 C.3   1 <1>   0.2800 
 19 C       10.4680    -3.2770     1.1550 C.3   1 <1>  -0.2400 
 20 C        8.6100    -4.6670     0.2320 C.3   1 <1>  -0.2400 
 21 C        9.9580    -3.1230    -1.2840 C.3   1 <1>  -0.2400 
 22 H        4.1370    -0.6920    -2.5430 H     1 <1>   0.1500 
 23 H        2.3320    -2.5640     1.6480 H     1 <1>   0.1500 
 24 H        4.4270    -1.2560     1.6810 H     1 <1>   0.1500 
 25 H        6.0440     0.1200    -1.4230 H     1 <1>   0.0800 
 26 H        7.3610    -0.1650     0.8440 H     1 <1>   0.3700 
 27 H        5.2090     1.1220     1.3090 H     1 <1>   0.0800 
 28 H        4.7360     1.8240    -0.2170 H     1 <1>   0.0800 
 29 H       10.0580    -3.3950     2.1420 H     1 <1>   0.0800 
 30 H       10.9790    -2.3320     1.1020 H     1 <1>   0.0800 
 31 H       11.1820    -4.0610     0.9860 H     1 <1>   0.0800 
 32 H        8.1390    -4.7430     1.1950 H     1 <1>   0.0800 
 33 H        9.2990    -5.4830     0.1220 H     1 <1>   0.0800 
 34 H        7.8630    -4.7660    -0.5340 H     1 <1>   0.0800 
 35 H       10.4020    -2.1450    -1.3530 H     1 <1>   0.0800 
 36 H        9.2110    -3.2240    -2.0490 H     1 <1>   0.0800 
 37 H       10.7180    -3.8580    -1.4700 H     1 <1>   0.0800 
@<TRIPOS>BOND
  1   1   2  1   
  2   2   3  ar  
  3   2   4  ar  
  4   3   5  1   
  5   3   6  ar  
  6   4   7  ar  
  7   4  22  1   
  8   6   8  ar  
  9   6  23  1   
 10   7   8  ar  
 11   7   9  1   
 12   8  24  1   
 13   9  10  1   
 14   9  11  1   
 15   9  25  1   
 16  10  12  am  
 17  10  26  1   
 18  11  13  1   
 19  11  27  1   
 20  11  28  1   
 21  12  14  2   
 22  12  15  1   
 23  13  16  ar  
 24  13  17  ar  
 25  15  18  1   
 26  18  19  1   
 27  18  20  1   
 28  18  21  1   
 29  19  29  1   
 30  19  30  1   
 31  19  31  1   
 32  20  32  1   
 33  20  33  1   
 34  20  34  1   
 35  21  35  1   
 36  21  36  1   
 37  21  37  1   
@<TRIPOS>SUBSTRUCTURE
  1 ****  10 GROUP 4 **** **** 0

# MOE 2024.06 (io_trps.svl 2023.06)
