@<TRIPOS>MOLECULE
NONAME
57 60 1 0 0 
SMALL
USER_CHARGES


@<TRIPOS>ATOM
  1 O        0.5500    -0.5930    -1.6350 O.2   1 <1>  -0.5700 
  2 C        0.3370    -1.5290    -0.9030 C.2   1 <1>   0.4950 
  3 C        1.3540    -2.2400    -0.2020 C.2   1 <1>  -0.1240 
  4 C       -1.0980    -2.0080    -0.7810 C.3   1 <1>  -0.0990 
  5 C        1.1230    -3.3640     0.5180 C.2   1 <1>  -0.0380 
  6 C        2.7720    -1.6740    -0.2850 C.3   1 <1>   0.3400 
  7 C       -1.3290    -2.7990     0.5170 C.3   1 <1>   0.0640 
  8 N        2.1460    -4.0730     1.0950 N.pl3 1 <1>  -0.6000 
  9 C       -0.2830    -3.9110     0.7060 C.3   1 <1>  -0.0220 
 10 C        3.8540    -2.6380     0.2270 C.2   1 <1>  -0.1240 
 11 C        2.8280    -0.3910     0.5390 C.ar  1 <1>  -0.1440 
 12 C       -2.7470    -3.3610     0.5840 C.ar  1 <1>  -0.1430 
 13 C        3.4750    -3.7620     0.8980 C.2   1 <1>  -0.0380 
 14 C        5.1920    -2.1910    -0.0340 C.2   1 <1>   0.7060 
 15 C        2.6310    -0.4360     1.9130 C.ar  1 <1>   0.1600 
 16 C        3.0670     0.8320    -0.0550 C.ar  1 <1>  -0.1500 
 17 C       -3.2060    -4.2710    -0.3600 C.ar  1 <1>  -0.1500 
 18 C       -3.5980    -2.9610     1.6050 C.ar  1 <1>  -0.1500 
 19 C        4.4200    -4.7950     1.4910 C.3   1 <1>  -0.1020 
 20 O        6.1310    -2.3740     0.7100 O.2   1 <1>  -0.5700 
 21 O        5.4520    -1.5150    -1.1520 O.3   1 <1>  -0.4300 
 22 N        2.6450     0.6140     2.7190 N.ar  1 <1>  -0.6200 
 23 C        3.0920     1.9360     0.7690 C.ar  1 <1>  -0.1500 
 24 C       -4.5010    -4.7770    -0.2850 C.ar  1 <1>   0.0830 
 25 C       -4.8860    -3.4610     1.6850 C.ar  1 <1>  -0.1500 
 26 C        5.4400    -2.1920    -2.3850 C.3   1 <1>   0.1200 
 27 C        2.8780     1.7740     2.1270 C.ar  1 <1>   0.1600 
 28 O       -5.0180    -5.6660    -1.1700 O.3   1 <1>  -0.3630 
 29 C       -5.3340    -4.3670     0.7420 C.ar  1 <1>  -0.1500 
 30 C        5.3470    -1.1480    -3.4930 C.3   1 <1>  -0.2400 
 31 C       -4.2730    -6.1240    -2.2760 C.3   1 <1>   0.0400 
 32 H       -1.3180    -2.6150    -1.6390 H     1 <1>   0.0800 
 33 H       -1.7540    -1.1560    -0.8000 H     1 <1>   0.0800 
 34 H        2.9600    -1.4470    -1.3180 H     1 <1>   0.0800 
 35 H       -1.1980    -2.1070     1.3330 H     1 <1>   0.0800 
 36 H        1.9230    -4.9100     1.6490 H     1 <1>   0.4000 
 37 H       -0.3890    -4.3150     1.6980 H     1 <1>   0.0800 
 38 H       -0.4410    -4.7080     0.0020 H     1 <1>   0.0800 
 39 H        2.4500    -1.3920     2.3770 H     1 <1>   0.1500 
 40 H        3.2220     0.9290    -1.1170 H     1 <1>   0.1500 
 41 H       -2.5530    -4.5820    -1.1500 H     1 <1>   0.1500 
 42 H       -3.2670    -2.2560     2.3480 H     1 <1>   0.1500 
 43 H        4.4270    -4.7080     2.5620 H     1 <1>   0.0800 
 44 H        5.4270    -4.6790     1.1360 H     1 <1>   0.0800 
 45 H        4.0990    -5.7860     1.2250 H     1 <1>   0.0800 
 46 H        3.2740     2.9140     0.3650 H     1 <1>   0.1500 
 47 H       -5.5390    -3.1460     2.4800 H     1 <1>   0.1500 
 48 H        4.5990    -2.8630    -2.4200 H     1 <1>   0.0800 
 49 H        6.3550    -2.7560    -2.4630 H     1 <1>   0.0800 
 50 H        2.9000     2.6450     2.7600 H     1 <1>   0.1500 
 51 H       -6.3330    -4.7610     0.7950 H     1 <1>   0.1500 
 52 H        4.4350    -0.5850    -3.4010 H     1 <1>   0.0800 
 53 H        5.3540    -1.6330    -4.4520 H     1 <1>   0.0800 
 54 H        6.1880    -0.4800    -3.4410 H     1 <1>   0.0800 
 55 H       -4.8920    -6.8020    -2.8360 H     1 <1>   0.0800 
 56 H       -3.3990    -6.6390    -1.9190 H     1 <1>   0.0800 
 57 H       -4.0050    -5.2830    -2.8890 H     1 <1>   0.0800 
@<TRIPOS>BOND
  1   1   2  2   
  2   2   3  1   
  3   2   4  1   
  4   3   5  2   
  5   3   6  1   
  6   4   7  1   
  7   4  32  1   
  8   4  33  1   
  9   5   8  1   
 10   5   9  1   
 11   6  10  1   
 12   6  11  1   
 13   6  34  1   
 14   7   9  1   
 15   7  12  1   
 16   7  35  1   
 17   8  13  1   
 18   8  36  1   
 19   9  37  1   
 20   9  38  1   
 21  10  13  2   
 22  10  14  1   
 23  11  15  ar  
 24  11  16  ar  
 25  12  17  ar  
 26  12  18  ar  
 27  13  19  1   
 28  14  20  2   
 29  14  21  1   
 30  15  22  ar  
 31  15  39  1   
 32  16  23  ar  
 33  16  40  1   
 34  17  24  ar  
 35  17  41  1   
 36  18  25  ar  
 37  18  42  1   
 38  19  43  1   
 39  19  44  1   
 40  19  45  1   
 41  21  26  1   
 42  22  27  ar  
 43  23  27  ar  
 44  23  46  1   
 45  24  28  1   
 46  24  29  ar  
 47  25  29  ar  
 48  25  47  1   
 49  26  30  1   
 50  26  48  1   
 51  26  49  1   
 52  27  50  1   
 53  28  31  1   
 54  29  51  1   
 55  30  52  1   
 56  30  53  1   
 57  30  54  1   
 58  31  55  1   
 59  31  56  1   
 60  31  57  1   
@<TRIPOS>SUBSTRUCTURE
  1 ****   3 GROUP 4 **** **** 0

# MOE 2024.06 (io_trps.svl 2023.06)
