@<TRIPOS>MOLECULE
NONAME
30 30 1 0 0 
SMALL
USER_CHARGES


@<TRIPOS>ATOM
  1 I        0.4370    -0.8550     0.5490 I     1 <1>  -0.0810 
  2 C       -1.6060    -1.2510     0.0500 C.ar  1 <1>   0.0810 
  3 C       -2.2260    -2.4520     0.3810 C.ar  1 <1>   0.1660 
  4 C       -2.2830    -0.2550    -0.6180 C.ar  1 <1>  -0.1500 
  5 N       -3.4910    -2.7070     0.0760 N.ar  1 <1>  -0.6200 
  6 C       -1.4980    -3.5640     1.1170 C.3   1 <1>  -0.0960 
  7 C       -3.5950    -0.5310    -0.9290 C.ar  1 <1>  -0.1500 
  8 C       -4.1570    -1.7570    -0.5670 C.ar  1 <1>   0.4270 
  9 N       -5.4580    -2.1230    -0.8330 N.am  1 <1>  -0.5470 
 10 C       -6.5030    -1.4870    -1.4310 C.2   1 <1>   0.5690 
 11 O       -6.4440    -0.3710    -1.8820 O.2   1 <1>  -0.5700 
 12 C       -7.8160    -2.2410    -1.5290 C.3   1 <1>  -0.0990 
 13 C       -8.5260    -2.3510    -0.1690 C.3   1 <1>  -0.1600 
 14 C       -9.8530    -3.1090    -0.2930 C.3   1 <1>  -0.1600 
 15 C      -10.5540    -3.2150     1.0640 C.3   1 <1>  -0.2400 
 16 H       -1.8170     0.6790    -0.8810 H     1 <1>   0.1500 
 17 H       -0.6570    -3.9010     0.5410 H     1 <1>   0.0800 
 18 H       -2.1540    -4.4010     1.2750 H     1 <1>   0.0800 
 19 H       -1.1620    -3.2150     2.0770 H     1 <1>   0.0800 
 20 H       -4.1780     0.2040    -1.4500 H     1 <1>   0.1500 
 21 H       -5.6420    -3.0570    -0.4800 H     1 <1>   0.3700 
 22 H       -7.6240    -3.2210    -1.9260 H     1 <1>   0.0800 
 23 H       -8.4530    -1.7240    -2.2240 H     1 <1>   0.0800 
 24 H       -8.7140    -1.3590     0.2090 H     1 <1>   0.0800 
 25 H       -7.8890    -2.8580     0.5350 H     1 <1>   0.0800 
 26 H       -9.6730    -4.1000    -0.6750 H     1 <1>   0.0800 
 27 H      -10.5000    -2.5970    -0.9850 H     1 <1>   0.0800 
 28 H       -9.9350    -3.7430     1.7680 H     1 <1>   0.0800 
 29 H      -11.4820    -3.7480     0.9580 H     1 <1>   0.0800 
 30 H      -10.7650    -2.2350     1.4550 H     1 <1>   0.0800 
@<TRIPOS>BOND
  1   1   2  1   
  2   2   3  ar  
  3   2   4  ar  
  4   3   5  ar  
  5   3   6  1   
  6   4   7  ar  
  7   4  16  1   
  8   5   8  ar  
  9   6  17  1   
 10   6  18  1   
 11   6  19  1   
 12   7   8  ar  
 13   7  20  1   
 14   8   9  1   
 15   9  10  am  
 16   9  21  1   
 17  10  11  2   
 18  10  12  1   
 19  12  13  1   
 20  12  22  1   
 21  12  23  1   
 22  13  14  1   
 23  13  24  1   
 24  13  25  1   
 25  14  15  1   
 26  14  26  1   
 27  14  27  1   
 28  15  28  1   
 29  15  29  1   
 30  15  30  1   
@<TRIPOS>SUBSTRUCTURE
  1 ****   9 GROUP 4 **** **** 0

# MOE 2024.06 (io_trps.svl 2023.06)
