@<TRIPOS>MOLECULE
NONAME
44 45 1 0 0 
SMALL
USER_CHARGES


@<TRIPOS>ATOM
  1 O       -0.1960     1.2980    -1.9390 O.2   1 <1>  -0.5700 
  2 C       -0.6640     1.9670    -1.0390 C.2   1 <1>   0.5440 
  3 N        0.1710     2.7800    -0.3170 N.am  1 <1>  -0.6600 
  4 C       -2.0730     1.8820    -0.7290 C.ar  1 <1>   0.0860 
  5 C        1.6600     2.6850    -0.4110 C.3   1 <1>   0.2810 
  6 C       -0.2440     3.7500     0.7150 C.3   1 <1>   0.1400 
  7 C       -2.9630     2.8850    -1.0980 C.ar  1 <1>  -0.1500 
  8 C       -2.5710     0.7850    -0.0340 C.ar  1 <1>  -0.1500 
  9 C        2.2370     1.2700    -0.2080 C.2   1 <1>   0.6590 
 10 C        2.1670     3.6760     0.6470 C.3   1 <1>  -0.1600 
 11 C        0.9930     4.6140     0.9260 C.3   1 <1>  -0.1600 
 12 C       -4.3060     2.8180    -0.7780 C.ar  1 <1>   0.0820 
 13 C       -3.9190     0.6830     0.2910 C.ar  1 <1>   0.0820 
 14 O        1.9130     0.5580     0.7150 O.2   1 <1>  -0.5700 
 15 O        3.1550     0.8860    -1.0920 O.3   1 <1>  -0.4300 
 16 O       -5.0550     3.8830    -1.1780 O.3   1 <1>  -0.3630 
 17 C       -4.7990     1.6980    -0.0940 C.ar  1 <1>   0.0830 
 18 O       -4.4200    -0.3840     0.9810 O.3   1 <1>  -0.3630 
 19 C        3.7410    -0.3980    -1.0420 C.3   1 <1>   0.0400 
 20 C       -6.0960     4.3690    -0.3560 C.3   1 <1>   0.0400 
 21 O       -6.1210     1.5830     0.1930 O.3   1 <1>  -0.3630 
 22 C       -3.5830    -1.4090     1.4700 C.3   1 <1>   0.0400 
 23 C       -6.8600     0.7230    -0.6440 C.3   1 <1>   0.0400 
 24 H        1.9460     3.0290    -1.3900 H     1 <1>   0.0800 
 25 H       -0.4930     3.2180     1.6180 H     1 <1>   0.0800 
 26 H       -1.0850     4.3380     0.3900 H     1 <1>   0.0800 
 27 H       -2.5990     3.7360    -1.6440 H     1 <1>   0.1500 
 28 H       -1.8670     0.0210     0.2370 H     1 <1>   0.1500 
 29 H        3.0400     4.2030     0.3070 H     1 <1>   0.0800 
 30 H        2.4160     3.1410     1.5470 H     1 <1>   0.0800 
 31 H        1.0250     5.0280     1.9180 H     1 <1>   0.0800 
 32 H        0.9850     5.4170     0.2100 H     1 <1>   0.0800 
 33 H        4.4450    -0.4830    -1.8510 H     1 <1>   0.0800 
 34 H        2.9640    -1.1350    -1.1480 H     1 <1>   0.0800 
 35 H        4.2410    -0.5170    -0.0970 H     1 <1>   0.0800 
 36 H       -6.2790     5.3950    -0.6180 H     1 <1>   0.0800 
 37 H       -5.7960     4.2970     0.6750 H     1 <1>   0.0800 
 38 H       -6.9810     3.7860    -0.5350 H     1 <1>   0.0800 
 39 H       -4.1960    -2.1130     2.0040 H     1 <1>   0.0800 
 40 H       -2.8560    -0.9800     2.1370 H     1 <1>   0.0800 
 41 H       -3.1060    -1.8980     0.6400 H     1 <1>   0.0800 
 42 H       -7.8890     0.7560    -0.3370 H     1 <1>   0.0800 
 43 H       -6.4790    -0.2780    -0.5460 H     1 <1>   0.0800 
 44 H       -6.7640     1.0630    -1.6600 H     1 <1>   0.0800 
@<TRIPOS>BOND
  1   1   2  2   
  2   2   3  am  
  3   2   4  1   
  4   3   5  1   
  5   3   6  1   
  6   4   7  ar  
  7   4   8  ar  
  8   5   9  1   
  9   5  10  1   
 10   5  24  1   
 11   6  11  1   
 12   6  25  1   
 13   6  26  1   
 14   7  12  ar  
 15   7  27  1   
 16   8  13  ar  
 17   8  28  1   
 18   9  14  2   
 19   9  15  1   
 20  10  11  1   
 21  10  29  1   
 22  10  30  1   
 23  11  31  1   
 24  11  32  1   
 25  12  16  1   
 26  12  17  ar  
 27  13  17  ar  
 28  13  18  1   
 29  15  19  1   
 30  16  20  1   
 31  17  21  1   
 32  18  22  1   
 33  19  33  1   
 34  19  34  1   
 35  19  35  1   
 36  20  36  1   
 37  20  37  1   
 38  20  38  1   
 39  21  23  1   
 40  22  39  1   
 41  22  40  1   
 42  22  41  1   
 43  23  42  1   
 44  23  43  1   
 45  23  44  1   
@<TRIPOS>SUBSTRUCTURE
  1 ****   4 GROUP 4 **** **** 0

# MOE 2024.06 (io_trps.svl 2023.06)
