@<TRIPOS>MOLECULE
NONAME
39 40 1 0 0 
SMALL
USER_CHARGES


@<TRIPOS>ATOM
  1 S        0.1750     0.3520    -0.0600 S.3   1 <1>  -0.2420 
  2 C       -1.2270    -0.6890    -0.3030 C.2   1 <1>   0.6510 
  3 C        1.2710    -1.0310    -0.1170 C.2   1 <1>   0.1150 
  4 N       -2.4920    -0.1930    -0.3530 N.am  1 <1>  -0.4900 
  5 N       -0.9470    -1.9210    -0.4240 N.2   1 <1>  -0.6610 
  6 C        0.4050    -2.1660    -0.3420 C.2   1 <1>   0.7670 
  7 C        2.5990    -0.7990     0.0350 C.2   1 <1>  -0.1780 
  8 C       -2.9880     1.0710    -0.2430 C.2   1 <1>   0.5690 
  9 O        0.7880    -3.3070    -0.4670 O.2   1 <1>  -0.5700 
 10 C        3.7130    -1.7090     0.0570 C.ar  1 <1>   0.0280 
 11 O       -2.3120     2.0460    -0.0640 O.2   1 <1>  -0.5700 
 12 C       -4.4830     1.2390    -0.3560 C.3   1 <1>  -0.1790 
 13 C        4.9380    -1.3130    -0.4710 C.ar  1 <1>  -0.1500 
 14 C        3.6470    -2.9850     0.6070 C.ar  1 <1>  -0.1500 
 15 C        6.0360    -2.1530    -0.4600 C.ar  1 <1>  -0.1500 
 16 C        4.7430    -3.8280     0.6160 C.ar  1 <1>  -0.1500 
 17 C        5.9650    -3.4310     0.0810 C.ar  1 <1>  -0.1430 
 18 C        7.2150    -4.3380     0.0660 C.3   1 <1>   0.1430 
 19 C        6.9700    -5.7180     0.6990 C.3   1 <1>  -0.2400 
 20 C        8.3490    -3.6620     0.8520 C.3   1 <1>  -0.2400 
 21 C        7.6650    -4.5680    -1.3850 C.3   1 <1>  -0.2400 
 22 H       -3.1800    -0.9250    -0.5020 H     1 <1>   0.3700 
 23 H        2.9050     0.2250     0.1520 H     1 <1>   0.1500 
 24 H       -4.9760     0.6840     0.4210 H     1 <1>   0.0800 
 25 H       -4.8210     0.8950    -1.3160 H     1 <1>   0.0800 
 26 H       -4.7390     2.2780    -0.2530 H     1 <1>   0.0800 
 27 H        5.0340    -0.3320    -0.9000 H     1 <1>   0.1500 
 28 H        2.7300    -3.3310     1.0450 H     1 <1>   0.1500 
 29 H        6.9560    -1.7960    -0.8850 H     1 <1>   0.1500 
 30 H        4.6110    -4.8000     1.0530 H     1 <1>   0.1500 
 31 H        7.8640    -6.3150     0.6670 H     1 <1>   0.0800 
 32 H        6.1980    -6.2450     0.1670 H     1 <1>   0.0800 
 33 H        6.6760    -5.6140     1.7290 H     1 <1>   0.0800 
 34 H        9.2180    -4.2940     0.8850 H     1 <1>   0.0800 
 35 H        8.0290    -3.4650     1.8590 H     1 <1>   0.0800 
 36 H        8.6320    -2.7300     0.4000 H     1 <1>   0.0800 
 37 H        7.9430    -3.6430    -1.8560 H     1 <1>   0.0800 
 38 H        6.8640    -5.0070    -1.9510 H     1 <1>   0.0800 
 39 H        8.5130    -5.2280    -1.4200 H     1 <1>   0.0800 
@<TRIPOS>BOND
  1   1   2  1   
  2   1   3  1   
  3   2   4  1   
  4   2   5  2   
  5   3   6  1   
  6   3   7  2   
  7   4   8  am  
  8   4  22  1   
  9   5   6  1   
 10   6   9  2   
 11   7  10  1   
 12   7  23  1   
 13   8  11  2   
 14   8  12  1   
 15  10  13  ar  
 16  10  14  ar  
 17  12  24  1   
 18  12  25  1   
 19  12  26  1   
 20  13  15  ar  
 21  13  27  1   
 22  14  16  ar  
 23  14  28  1   
 24  15  17  ar  
 25  15  29  1   
 26  16  17  ar  
 27  16  30  1   
 28  17  18  1   
 29  18  19  1   
 30  18  20  1   
 31  18  21  1   
 32  19  31  1   
 33  19  32  1   
 34  19  33  1   
 35  20  34  1   
 36  20  35  1   
 37  20  36  1   
 38  21  37  1   
 39  21  38  1   
 40  21  39  1   
@<TRIPOS>SUBSTRUCTURE
  1 ****   7 GROUP 4 **** **** 0

# MOE 2024.06 (io_trps.svl 2023.06)
