@<TRIPOS>MOLECULE
Structure2195
19 19 1 0 0 
SMALL
USER_CHARGES


@<TRIPOS>ATOM
  1 O        1.7000    -0.3070    -0.0410 O.3   1 <1>  -0.6800 
  2 C        3.0020    -0.1940    -0.4740 C.3   1 <1>   0.2000 
  3 C        3.8040    -1.3570     0.1430 C.3   1 <1>   0.3430 
  4 C        3.5350     1.1710    -0.0240 C.3   1 <1>  -0.1600 
  5 N        5.2820    -1.1960    -0.0650 N.4   1 <1>  -0.9060 
  6 C        5.0570     1.2600    -0.2260 C.3   1 <1>  -0.1600 
  7 C        5.7960     0.1020     0.4540 C.3   1 <1>   0.3430 
  8 H        1.1350     0.4020    -0.4160 H     1 <1>   0.4000 
  9 H        3.0020    -0.2740    -1.5490 H     1 <1>   0.0800 
 10 H        3.4670    -2.2840    -0.2910 H     1 <1>   0.0800 
 11 H        3.5950    -1.3820     1.2000 H     1 <1>   0.0800 
 12 H        3.3130     1.3160     1.0210 H     1 <1>   0.0800 
 13 H        3.0530     1.9540    -0.5840 H     1 <1>   0.0800 
 14 H        5.4910    -1.2640    -1.0690 H     1 <1>   0.4500 
 15 H        5.7750    -1.9720     0.3950 H     1 <1>   0.4500 
 16 H        5.4120     2.1890     0.1870 H     1 <1>   0.0800 
 17 H        5.2920     1.2700    -1.2770 H     1 <1>   0.0800 
 18 H        6.8550     0.1860     0.2640 H     1 <1>   0.0800 
 19 H        5.6390     0.1560     1.5200 H     1 <1>   0.0800 
@<TRIPOS>BOND
  1   1   2  1   
  2   1   8  1   
  3   2   3  1   
  4   2   4  1   
  5   2   9  1   
  6   3   5  1   
  7   3  10  1   
  8   3  11  1   
  9   4   6  1   
 10   4  12  1   
 11   4  13  1   
 12   5   7  1   
 13   5  14  1   
 14   5  15  1   
 15   6   7  1   
 16   6  16  1   
 17   6  17  1   
 18   7  18  1   
 19   7  19  1   
@<TRIPOS>SUBSTRUCTURE
  1 ****   2 GROUP 4 **** **** 0

# MOE 2024.06 (io_trps.svl 2023.06)
