@<TRIPOS>MOLECULE
NONAME
47 49 1 0 0 
SMALL
USER_CHARGES


@<TRIPOS>ATOM
  1 BR      -0.0250    -2.4630    -2.6590 Br    1 <1>  -0.1110 
  2 C       -0.2770    -1.8180    -0.8590 C.ar  1 <1>   0.1110 
  3 C        0.6650    -2.0850     0.1260 C.ar  1 <1>  -0.1440 
  4 C       -1.4190    -1.0790    -0.6130 C.ar  1 <1>  -0.1500 
  5 C        0.4310    -1.5760     1.3960 C.ar  1 <1>  -0.1500 
  6 C        1.9240    -2.9010    -0.1320 C.3   1 <1>   0.2540 
  7 C       -1.6340    -0.5830     0.6600 C.ar  1 <1>  -0.1500 
  8 C       -0.7090    -0.8320     1.6610 C.ar  1 <1>  -0.1500 
  9 N        3.1100    -2.0220    -0.1740 N.3   1 <1>  -0.8100 
 10 C        4.3660    -2.8040    -0.2480 C.3   1 <1>   0.1100 
 11 C        3.0420    -1.0470    -1.2950 C.3   1 <1>   0.1100 
 12 C        5.6210    -1.8940    -0.2500 C.3   1 <1>   0.3430 
 13 C        4.2990    -0.1490    -1.3780 C.3   1 <1>   0.3430 
 14 N        5.2370    -0.4440    -0.2430 N.4   1 <1>  -0.9590 
 15 C        6.3970     0.4810    -0.1210 C.3   1 <1>   0.3430 
 16 C        5.9620     1.9210     0.1970 C.3   1 <1>  -0.0800 
 17 C        7.2160     2.8090     0.3250 C.3   1 <1>  -0.0220 
 18 C        5.0950     2.0250     1.4730 C.3   1 <1>  -0.1600 
 19 C        6.8650     4.1840     0.8610 C.2   1 <1>  -0.2880 
 20 C        4.6020     3.4630     1.7040 C.3   1 <1>  -0.0220 
 21 C        5.7070     4.4730     1.4600 C.2   1 <1>  -0.2880 
 22 H       -2.1270    -0.8960    -1.4020 H     1 <1>   0.1500 
 23 H        1.1390    -1.7580     2.1860 H     1 <1>   0.1500 
 24 H        1.8460    -3.4670    -1.0430 H     1 <1>   0.0800 
 25 H        2.0360    -3.6070     0.6750 H     1 <1>   0.0800 
 26 H       -2.5180    -0.0070     0.8740 H     1 <1>   0.1500 
 27 H       -0.8780    -0.4470     2.6520 H     1 <1>   0.1500 
 28 H        4.3680    -3.4100    -1.1390 H     1 <1>   0.0800 
 29 H        4.4240    -3.4700     0.5970 H     1 <1>   0.0800 
 30 H        2.1840    -0.4090    -1.1660 H     1 <1>   0.0800 
 31 H        2.9170    -1.5670    -2.2300 H     1 <1>   0.0800 
 32 H        6.2190    -2.1150    -1.1180 H     1 <1>   0.0800 
 33 H        6.2130    -2.1180     0.6220 H     1 <1>   0.0800 
 34 H        3.9870     0.8810    -1.3450 H     1 <1>   0.0800 
 35 H        4.7940    -0.3140    -2.3200 H     1 <1>   0.0800 
 36 H        4.6350    -0.3580     0.5910 H     1 <1>   0.4500 
 37 H        6.9660     0.4730    -1.0370 H     1 <1>   0.0800 
 38 H        7.0410     0.1380     0.6730 H     1 <1>   0.0800 
 39 H        5.3940     2.3060    -0.6320 H     1 <1>   0.0800 
 40 H        7.6790     2.9180    -0.6410 H     1 <1>   0.0800 
 41 H        7.9330     2.3620     0.9930 H     1 <1>   0.0800 
 42 H        5.6820     1.7250     2.3250 H     1 <1>   0.0800 
 43 H        4.2340     1.3840     1.4200 H     1 <1>   0.0800 
 44 H        7.6450     4.9140     0.7170 H     1 <1>   0.1500 
 45 H        4.2460     3.5570     2.7150 H     1 <1>   0.0800 
 46 H        3.7820     3.6830     1.0420 H     1 <1>   0.0800 
 47 H        5.4680     5.4600     1.8210 H     1 <1>   0.1500 
@<TRIPOS>BOND
  1   1   2  1   
  2   2   3  ar  
  3   2   4  ar  
  4   3   5  ar  
  5   3   6  1   
  6   4   7  ar  
  7   4  22  1   
  8   5   8  ar  
  9   5  23  1   
 10   6   9  1   
 11   6  24  1   
 12   6  25  1   
 13   7   8  ar  
 14   7  26  1   
 15   8  27  1   
 16   9  10  1   
 17   9  11  1   
 18  10  12  1   
 19  10  28  1   
 20  10  29  1   
 21  11  13  1   
 22  11  30  1   
 23  11  31  1   
 24  12  14  1   
 25  12  32  1   
 26  12  33  1   
 27  13  14  1   
 28  13  34  1   
 29  13  35  1   
 30  14  15  1   
 31  14  36  1   
 32  15  16  1   
 33  15  37  1   
 34  15  38  1   
 35  16  17  1   
 36  16  18  1   
 37  16  39  1   
 38  17  19  1   
 39  17  40  1   
 40  17  41  1   
 41  18  20  1   
 42  18  42  1   
 43  18  43  1   
 44  19  21  2   
 45  19  44  1   
 46  20  21  1   
 47  20  45  1   
 48  20  46  1   
 49  21  47  1   
@<TRIPOS>SUBSTRUCTURE
  1 ****  11 GROUP 4 **** **** 0

# MOE 2024.06 (io_trps.svl 2023.06)
