@<TRIPOS>MOLECULE
NONAME
36 38 1 0 0 
SMALL
USER_CHARGES


@<TRIPOS>ATOM
  1 O       -5.8870     3.1760     0.2920 O.3   1 <1>  -0.6800 
  2 C       -5.8420     1.8130     0.1720 C.3   1 <1>   0.2800 
  3 C       -4.5090     1.4480    -0.4850 C.3   1 <1>  -0.1600 
  4 C       -5.9330     1.1830     1.5690 C.3   1 <1>  -0.1600 
  5 C       -7.0130     1.3460    -0.7000 C.3   1 <1>  -0.1600 
  6 C       -4.4080    -0.0840    -0.6320 C.3   1 <1>   0.5030 
  7 C       -5.8550    -0.3500     1.4330 C.3   1 <1>  -0.0800 
  8 C       -6.9400    -0.1850    -0.8480 C.3   1 <1>  -0.0800 
  9 N       -3.1150    -0.4350    -1.3160 N.4   1 <1>  -0.9590 
 10 C       -4.5170    -0.7340     0.7670 C.3   1 <1>  -0.1600 
 11 C       -5.5960    -0.5650    -1.5000 C.3   1 <1>  -0.1600 
 12 C       -7.0200    -0.8350     0.5480 C.3   1 <1>  -0.1600 
 13 C       -2.9350    -1.8990    -1.5930 C.3   1 <1>   0.2630 
 14 C       -1.8890     0.0750    -0.6160 C.3   1 <1>   0.2630 
 15 H       -6.7290     3.4490     0.7040 H     1 <1>   0.4000 
 16 H       -3.7250     1.8290     0.1420 H     1 <1>   0.0800 
 17 H       -4.4520     1.9190    -1.4500 H     1 <1>   0.0800 
 18 H       -5.1290     1.5370     2.1890 H     1 <1>   0.0800 
 19 H       -6.8640     1.4530     2.0370 H     1 <1>   0.0800 
 20 H       -6.9630     1.8120    -1.6690 H     1 <1>   0.0800 
 21 H       -7.9480     1.6170    -0.2420 H     1 <1>   0.0800 
 22 H       -5.9250    -0.8050     2.4080 H     1 <1>   0.0800 
 23 H       -7.7580    -0.5300    -1.4590 H     1 <1>   0.0800 
 24 H       -3.1620     0.0440    -2.2260 H     1 <1>   0.4500 
 25 H       -3.7150    -0.4030     1.4020 H     1 <1>   0.0800 
 26 H       -4.4710    -1.8050     0.6930 H     1 <1>   0.0800 
 27 H       -5.5850    -1.6340    -1.6110 H     1 <1>   0.0800 
 28 H       -5.5450    -0.1230    -2.4790 H     1 <1>   0.0800 
 29 H       -7.9590    -0.5810     1.0120 H     1 <1>   0.0800 
 30 H       -6.9920    -1.9080     0.4570 H     1 <1>   0.0800 
 31 H       -2.9220    -2.4570    -0.6710 H     1 <1>   0.0800 
 32 H       -2.0040    -2.0690    -2.1080 H     1 <1>   0.0800 
 33 H       -3.7340    -2.2710    -2.2130 H     1 <1>   0.0800 
 34 H       -1.8130    -0.3530     0.3700 H     1 <1>   0.0800 
 35 H       -1.9180     1.1480    -0.5270 H     1 <1>   0.0800 
 36 H       -1.0040    -0.1900    -1.1730 H     1 <1>   0.0800 
@<TRIPOS>BOND
  1   1   2  1   
  2   1  15  1   
  3   2   3  1   
  4   2   4  1   
  5   2   5  1   
  6   3   6  1   
  7   3  16  1   
  8   3  17  1   
  9   4   7  1   
 10   4  18  1   
 11   4  19  1   
 12   5   8  1   
 13   5  20  1   
 14   5  21  1   
 15   6   9  1   
 16   6  10  1   
 17   6  11  1   
 18   7  10  1   
 19   7  12  1   
 20   7  22  1   
 21   8  11  1   
 22   8  12  1   
 23   8  23  1   
 24   9  13  1   
 25   9  14  1   
 26   9  24  1   
 27  10  25  1   
 28  10  26  1   
 29  11  27  1   
 30  11  28  1   
 31  12  29  1   
 32  12  30  1   
 33  13  31  1   
 34  13  32  1   
 35  13  33  1   
 36  14  34  1   
 37  14  35  1   
 38  14  36  1   
@<TRIPOS>SUBSTRUCTURE
  1 ****   6 GROUP 4 **** **** 0

# MOE 2024.06 (io_trps.svl 2023.06)
