@<TRIPOS>MOLECULE
NONAME
37 38 1 0 0 
SMALL
USER_CHARGES


@<TRIPOS>ATOM
  1 BR      -0.8270     0.8600     1.5850 Br    1 <1>  -0.1110 
  2 C       -2.6270     0.7840     0.9010 C.ar  1 <1>   0.1110 
  3 C       -2.8380     0.6860    -0.4610 C.ar  1 <1>   0.1600 
  4 C       -3.6820     0.8290     1.7840 C.ar  1 <1>  -0.1500 
  5 N       -4.0390     0.6260    -1.0150 N.ar  1 <1>  -0.6200 
  6 C       -4.9320     0.7710     1.2080 C.ar  1 <1>  -0.1500 
  7 C       -5.0730     0.6660    -0.1790 C.ar  1 <1>   0.4270 
  8 N       -6.3110     0.6200    -0.7840 N.am  1 <1>  -0.5470 
  9 C       -7.4990     0.1190    -0.3440 C.2   1 <1>   0.5690 
 10 O       -7.5770    -0.4680     0.7130 O.2   1 <1>  -0.5700 
 11 C       -8.7350     0.2460    -1.2560 C.3   1 <1>  -0.0190 
 12 C       -9.1310     1.7050    -1.5980 C.3   1 <1>  -0.1860 
 13 C       -9.9800    -0.4600    -0.6790 C.3   1 <1>  -0.0220 
 14 C       -8.0990     2.4570    -2.4250 C.2   1 <1>   0.9060 
 15 C       -9.5060     2.4660    -0.3150 C.3   1 <1>  -0.0220 
 16 C      -10.6840     0.3560     0.4070 C.2   1 <1>  -0.2760 
 17 O       -8.1310     3.6890    -2.4610 O.co2 1 <1>  -0.9000 
 18 O       -7.2480     1.8080    -3.0450 O.co2 1 <1>  -0.9000 
 19 C      -10.4530     1.6680     0.5820 C.2   1 <1>  -0.2760 
 20 C      -11.6330    -0.5170     1.2180 C.3   1 <1>  -0.1020 
 21 C      -11.0520     2.5620     1.6610 C.3   1 <1>  -0.1020 
 22 H       -1.9880     0.6560    -1.1190 H     1 <1>   0.1500 
 23 H       -3.5350     0.9070     2.8460 H     1 <1>   0.1500 
 24 H       -5.8110     0.8110     1.8250 H     1 <1>   0.1500 
 25 H       -6.3360     1.0270    -1.7400 H     1 <1>   0.3700 
 26 H       -8.4840    -0.2580    -2.1720 H     1 <1>   0.0800 
 27 H      -10.0080     1.6700    -2.2170 H     1 <1>   0.0800 
 28 H       -9.6890    -1.4210    -0.2930 H     1 <1>   0.0800 
 29 H      -10.6820    -0.6340    -1.4740 H     1 <1>   0.0800 
 30 H       -9.9700     3.3940    -0.6020 H     1 <1>   0.0800 
 31 H       -8.6120     2.7070     0.2340 H     1 <1>   0.0800 
 32 H      -12.3090    -1.0300     0.5580 H     1 <1>   0.0800 
 33 H      -12.2230     0.0450     1.9130 H     1 <1>   0.0800 
 34 H      -11.0680    -1.2480     1.7690 H     1 <1>   0.0800 
 35 H      -10.2620     3.0560     2.1970 H     1 <1>   0.0800 
 36 H      -11.6380     2.0190     2.3740 H     1 <1>   0.0800 
 37 H      -11.6780     3.3100     1.2070 H     1 <1>   0.0800 
@<TRIPOS>BOND
  1   1   2  1   
  2   2   3  ar  
  3   2   4  ar  
  4   3   5  ar  
  5   3  22  1   
  6   4   6  ar  
  7   4  23  1   
  8   5   7  ar  
  9   6   7  ar  
 10   6  24  1   
 11   7   8  1   
 12   8   9  am  
 13   8  25  1   
 14   9  10  2   
 15   9  11  1   
 16  11  12  1   
 17  11  13  1   
 18  11  26  1   
 19  12  14  1   
 20  12  15  1   
 21  12  27  1   
 22  13  16  1   
 23  13  28  1   
 24  13  29  1   
 25  14  17  ar  
 26  14  18  ar  
 27  15  19  1   
 28  15  30  1   
 29  15  31  1   
 30  16  19  2   
 31  16  20  1   
 32  19  21  1   
 33  20  32  1   
 34  20  33  1   
 35  20  34  1   
 36  21  35  1   
 37  21  36  1   
 38  21  37  1   
@<TRIPOS>SUBSTRUCTURE
  1 ****   9 GROUP 4 **** **** 0

# MOE 2024.06 (io_trps.svl 2023.06)
