@<TRIPOS>MOLECULE
NONAME
44 45 1 0 0 
SMALL
USER_CHARGES


@<TRIPOS>ATOM
  1 O       -0.2840    -1.0470    -0.3720 O.3   1 <1>  -0.3630 
  2 C       -1.6000    -1.0140    -0.0330 C.ar  1 <1>   0.0830 
  3 C        0.7220    -0.6300     0.5200 C.3   1 <1>   0.1200 
  4 C       -2.5220    -1.4480    -0.9820 C.ar  1 <1>  -0.1440 
  5 C       -2.0500    -0.5690     1.2090 C.ar  1 <1>  -0.1500 
  6 C        2.0730    -0.7980    -0.1740 C.3   1 <1>  -0.1600 
  7 C       -3.8750    -1.4330    -0.6830 C.ar  1 <1>  -0.1500 
  8 C       -2.0560    -1.9390    -2.3450 C.3   1 <1>  -0.0970 
  9 C       -3.4030    -0.5580     1.4970 C.ar  1 <1>  -0.1500 
 10 C        3.2260    -0.3540     0.7360 C.3   1 <1>  -0.1600 
 11 C       -4.3160    -0.9900     0.5520 C.ar  1 <1>  -0.1500 
 12 C        4.5780    -0.5230     0.0300 C.3   1 <1>  -0.1600 
 13 C        5.7420    -0.0780     0.9220 C.3   1 <1>   0.0210 
 14 C        7.0620    -0.2470     0.1890 C.2   1 <1>  -0.1810 
 15 C        7.6830     0.6930    -0.6330 C.2   1 <1>   0.1080 
 16 C        7.8910    -1.3140     0.1770 C.2   1 <1>  -0.3320 
 17 N        8.8030     0.2600    -1.1170 N.2   1 <1>  -0.7070 
 18 C        7.1570     2.0740    -0.9530 C.3   1 <1>  -0.0590 
 19 N        8.9310    -0.9810    -0.6160 N.pl3 1 <1>   0.3000 
 20 C        7.7750    -2.6620     0.8680 C.3   1 <1>  -0.0600 
 21 H        0.6680    -1.2440     1.4030 H     1 <1>   0.0800 
 22 H        0.5470     0.4020     0.7680 H     1 <1>   0.0800 
 23 H       -1.3680    -0.2280     1.9620 H     1 <1>   0.1500 
 24 H        2.0780    -0.2070    -1.0740 H     1 <1>   0.0800 
 25 H        2.2030    -1.8330    -0.4400 H     1 <1>   0.0800 
 26 H       -4.5950    -1.7660    -1.4090 H     1 <1>   0.1500 
 27 H       -1.3990    -2.7820    -2.2220 H     1 <1>   0.0800 
 28 H       -1.5190    -1.1550    -2.8490 H     1 <1>   0.0800 
 29 H       -2.8860    -2.2360    -2.9580 H     1 <1>   0.0800 
 30 H       -3.7470    -0.2130     2.4570 H     1 <1>   0.1500 
 31 H        3.2180    -0.9430     1.6380 H     1 <1>   0.0800 
 32 H        3.0910     0.6790     1.0070 H     1 <1>   0.0800 
 33 H       -5.3680    -0.9810     0.7760 H     1 <1>   0.1500 
 34 H        4.5880     0.0560    -0.8770 H     1 <1>   0.0800 
 35 H        4.7210    -1.5560    -0.2380 H     1 <1>   0.0800 
 36 H        5.7570    -0.6650     1.8220 H     1 <1>   0.0800 
 37 H        5.6200     0.9520     1.2060 H     1 <1>   0.0800 
 38 H        6.1370     2.0120    -1.2810 H     1 <1>   0.0800 
 39 H        7.7470     2.5150    -1.7360 H     1 <1>   0.0800 
 40 H        7.2170     2.6950    -0.0790 H     1 <1>   0.0800 
 41 H        9.7380    -1.5740    -0.8360 H     1 <1>   0.2700 
 42 H        6.8520    -2.7300     1.4140 H     1 <1>   0.0800 
 43 H        8.5900    -2.7960     1.5560 H     1 <1>   0.0800 
 44 H        7.7960    -3.4530     0.1400 H     1 <1>   0.0800 
@<TRIPOS>BOND
  1   1   2  1   
  2   1   3  1   
  3   2   4  ar  
  4   2   5  ar  
  5   3   6  1   
  6   3  21  1   
  7   3  22  1   
  8   4   7  ar  
  9   4   8  1   
 10   5   9  ar  
 11   5  23  1   
 12   6  10  1   
 13   6  24  1   
 14   6  25  1   
 15   7  11  ar  
 16   7  26  1   
 17   8  27  1   
 18   8  28  1   
 19   8  29  1   
 20   9  11  ar  
 21   9  30  1   
 22  10  12  1   
 23  10  31  1   
 24  10  32  1   
 25  11  33  1   
 26  12  13  1   
 27  12  34  1   
 28  12  35  1   
 29  13  14  1   
 30  13  36  1   
 31  13  37  1   
 32  14  15  1   
 33  14  16  2   
 34  15  17  2   
 35  15  18  1   
 36  16  19  1   
 37  16  20  1   
 38  17  19  1   
 39  18  38  1   
 40  18  39  1   
 41  18  40  1   
 42  19  41  1   
 43  20  42  1   
 44  20  43  1   
 45  20  44  1   
@<TRIPOS>SUBSTRUCTURE
  1 ****   6 GROUP 4 **** **** 0

# MOE 2024.06 (io_trps.svl 2023.06)
