@<TRIPOS>MOLECULE
NONAME
36 38 1 0 0 
SMALL
USER_CHARGES


@<TRIPOS>ATOM
  1 O       -0.2910     1.2080     1.8680 O.2   1 <1>  -0.5700 
  2 C       -1.2110     1.6980     1.2290 C.2   1 <1>   0.6160 
  3 N       -2.4820     1.2390     1.3620 N.am  1 <1>  -0.5470 
  4 C       -1.1860     2.7670     0.2790 C.2   1 <1>  -0.0140 
  5 C       -3.3150     1.9640     0.5330 C.ar  1 <1>   0.1170 
  6 C       -2.5520     2.9070    -0.1440 C.ar  1 <1>   0.0280 
  7 C       -0.1130     3.5010    -0.1440 C.2   1 <1>  -0.0500 
  8 C       -4.6820     1.8550     0.3320 C.ar  1 <1>  -0.1500 
  9 C       -3.1750     3.7640    -1.0470 C.ar  1 <1>  -0.1500 
 10 N        1.1620     3.3210     0.2950 N.pl3 1 <1>  -0.8690 
 11 C       -5.2910     2.7120    -0.5680 C.ar  1 <1>  -0.1500 
 12 C       -4.5400     3.6620    -1.2530 C.ar  1 <1>  -0.1500 
 13 C        2.3510     4.0770    -0.1210 C.3   1 <1>   0.2890 
 14 C        3.3510     3.1070    -0.7550 C.3   1 <1>  -0.1600 
 15 C        2.9470     4.7690     1.1060 C.3   1 <1>  -0.1600 
 16 C        4.6680     3.8160    -1.1080 C.3   1 <1>  -0.1600 
 17 C        4.2620     5.4840     0.7600 C.3   1 <1>  -0.1600 
 18 C        5.2670     4.5160     0.1200 C.3   1 <1>  -0.1600 
 19 H       -2.7200     0.4760     1.9930 H     1 <1>   0.3700 
 20 H       -0.2650     4.2800    -0.8730 H     1 <1>   0.1500 
 21 H       -5.2510     1.1170     0.8670 H     1 <1>   0.1500 
 22 H       -2.5950     4.4980    -1.5760 H     1 <1>   0.1500 
 23 H        1.3480     2.5830     0.9960 H     1 <1>   0.4000 
 24 H       -6.3520     2.6460    -0.7400 H     1 <1>   0.1500 
 25 H       -5.0270     4.3220    -1.9500 H     1 <1>   0.1500 
 26 H        2.0670     4.8200    -0.8470 H     1 <1>   0.0800 
 27 H        3.5560     2.3070    -0.0650 H     1 <1>   0.0800 
 28 H        2.9190     2.6860    -1.6450 H     1 <1>   0.0800 
 29 H        2.2390     5.4830     1.4880 H     1 <1>   0.0800 
 30 H        3.1360     4.0370     1.8710 H     1 <1>   0.0800 
 31 H        5.3710     3.0980    -1.4930 H     1 <1>   0.0800 
 32 H        4.4850     4.5450    -1.8790 H     1 <1>   0.0800 
 33 H        4.0600     6.2910     0.0760 H     1 <1>   0.0800 
 34 H        4.6880     5.9080     1.6530 H     1 <1>   0.0800 
 35 H        6.1540     5.0540    -0.1680 H     1 <1>   0.0800 
 36 H        5.5550     3.7740     0.8450 H     1 <1>   0.0800 
@<TRIPOS>BOND
  1   1   2  2   
  2   2   3  am  
  3   2   4  1   
  4   3   5  1   
  5   3  19  1   
  6   4   6  1   
  7   4   7  2   
  8   5   6  ar  
  9   5   8  ar  
 10   6   9  ar  
 11   7  10  1   
 12   7  20  1   
 13   8  11  ar  
 14   8  21  1   
 15   9  12  ar  
 16   9  22  1   
 17  10  13  1   
 18  10  23  1   
 19  11  12  ar  
 20  11  24  1   
 21  12  25  1   
 22  13  14  1   
 23  13  15  1   
 24  13  26  1   
 25  14  16  1   
 26  14  27  1   
 27  14  28  1   
 28  15  17  1   
 29  15  29  1   
 30  15  30  1   
 31  16  18  1   
 32  16  31  1   
 33  16  32  1   
 34  17  18  1   
 35  17  33  1   
 36  17  34  1   
 37  18  35  1   
 38  18  36  1   
@<TRIPOS>SUBSTRUCTURE
  1 ****   7 GROUP 4 **** **** 0

# MOE 2024.06 (io_trps.svl 2023.06)
