@<TRIPOS>MOLECULE
NONAME
45 46 1 0 0 
SMALL
USER_CHARGES


@<TRIPOS>ATOM
  1 S        0.3150     1.0200    -1.4120 S.o2  1 <1>   1.4470 
  2 O       -0.4870    -0.1080    -1.8410 O.2   1 <1>  -0.6500 
  3 O        0.9550     1.8150    -2.4420 O.2   1 <1>  -0.6500 
  4 N        1.5580     0.4410    -0.4190 N.am  1 <1>  -0.8490 
  5 C       -0.6710     2.1170    -0.3580 C.ar  1 <1>  -0.0090 
  6 C        2.3440    -0.6080    -1.0640 C.3   1 <1>   0.1960 
  7 C        2.4100     1.5150     0.1210 C.3   1 <1>   0.1960 
  8 C       -1.3110     1.6520     0.7860 C.ar  1 <1>   0.0820 
  9 C       -0.8140     3.4640    -0.6740 C.ar  1 <1>  -0.1500 
 10 C        3.2000    -1.3490    -0.0260 C.3   1 <1>  -0.1600 
 11 C        3.7650     1.0170     0.6510 C.3   1 <1>  -0.1600 
 12 O       -1.2010     0.3630     1.1580 O.3   1 <1>  -0.3620 
 13 C       -2.0560     2.5050     1.5850 C.ar  1 <1>  -0.1500 
 14 C       -1.5610     4.3320     0.1110 C.ar  1 <1>  -0.1440 
 15 C        3.7130    -0.4470     1.1200 C.3   1 <1>  -0.1860 
 16 C       -2.2860    -0.4820     0.8530 C.3   1 <1>   0.0400 
 17 C       -2.1810     3.8390     1.2480 C.ar  1 <1>  -0.1500 
 18 C       -1.7060     5.8070    -0.2580 C.3   1 <1>   0.0630 
 19 C        5.0560    -0.9180     1.6690 C.2   1 <1>   0.9060 
 20 C       -2.3930     5.9640    -1.6180 C.3   1 <1>  -0.2400 
 21 C       -0.3440     6.5090    -0.2530 C.3   1 <1>  -0.2400 
 22 O        5.1160    -1.3100     2.8380 O.co2 1 <1>  -0.9000 
 23 O        6.0470    -0.8860     0.9290 O.co2 1 <1>  -0.9000 
 24 H        2.9780    -0.1670    -1.8160 H     1 <1>   0.0800 
 25 H        1.6960    -1.3200    -1.5480 H     1 <1>   0.0800 
 26 H        1.8770     1.9870     0.9280 H     1 <1>   0.0800 
 27 H        2.6010     2.2610    -0.6330 H     1 <1>   0.0800 
 28 H       -0.3280     3.8390    -1.5580 H     1 <1>   0.1500 
 29 H        4.0360    -1.7900    -0.5410 H     1 <1>   0.0800 
 30 H        2.6290    -2.1550     0.3990 H     1 <1>   0.0800 
 31 H        4.0900     1.6460     1.4610 H     1 <1>   0.0800 
 32 H        4.5020     1.1020    -0.1290 H     1 <1>   0.0800 
 33 H       -2.5290     2.1210     2.4710 H     1 <1>   0.1500 
 34 H        3.0070    -0.5030     1.9290 H     1 <1>   0.0800 
 35 H       -2.0200    -1.4830     1.1450 H     1 <1>   0.0800 
 36 H       -2.4700    -0.4480    -0.2060 H     1 <1>   0.0800 
 37 H       -3.1520    -0.1530     1.3980 H     1 <1>   0.0800 
 38 H       -2.7640     4.4890     1.8770 H     1 <1>   0.1500 
 39 H       -2.3260     6.2890     0.4790 H     1 <1>   0.0800 
 40 H       -1.7910     5.5450    -2.4050 H     1 <1>   0.0800 
 41 H       -2.5600     7.0050    -1.8330 H     1 <1>   0.0800 
 42 H       -3.3430     5.4600    -1.6080 H     1 <1>   0.0800 
 43 H        0.3020     6.1010    -1.0100 H     1 <1>   0.0800 
 44 H        0.1280     6.3840     0.7050 H     1 <1>   0.0800 
 45 H       -0.4670     7.5610    -0.4380 H     1 <1>   0.0800 
@<TRIPOS>BOND
  1   1   2  2   
  2   1   3  2   
  3   1   4  am  
  4   1   5  1   
  5   4   6  1   
  6   4   7  1   
  7   5   8  ar  
  8   5   9  ar  
  9   6  10  1   
 10   6  24  1   
 11   6  25  1   
 12   7  11  1   
 13   7  26  1   
 14   7  27  1   
 15   8  12  1   
 16   8  13  ar  
 17   9  14  ar  
 18   9  28  1   
 19  10  15  1   
 20  10  29  1   
 21  10  30  1   
 22  11  15  1   
 23  11  31  1   
 24  11  32  1   
 25  12  16  1   
 26  13  17  ar  
 27  13  33  1   
 28  14  17  ar  
 29  14  18  1   
 30  15  19  1   
 31  15  34  1   
 32  16  35  1   
 33  16  36  1   
 34  16  37  1   
 35  17  38  1   
 36  18  20  1   
 37  18  21  1   
 38  18  39  1   
 39  19  22  ar  
 40  19  23  ar  
 41  20  40  1   
 42  20  41  1   
 43  20  42  1   
 44  21  43  1   
 45  21  44  1   
 46  21  45  1   
@<TRIPOS>SUBSTRUCTURE
  1 ****   4 GROUP 4 **** **** 0

# MOE 2024.06 (io_trps.svl 2023.06)
