@<TRIPOS>MOLECULE
NONAME
50 52 1 0 0 
SMALL
USER_CHARGES


@<TRIPOS>ATOM
  1 CL      -0.5290    -0.9170    -1.5110 Cl    1 <1>  -0.1770 
  2 C       -0.1990    -0.5620     0.1690 C.ar  1 <1>   0.1770 
  3 C        0.8720    -1.1590     0.8230 C.ar  1 <1>  -0.1440 
  4 C       -1.0280     0.3370     0.8140 C.ar  1 <1>  -0.1500 
  5 C        1.1010    -0.8280     2.1510 C.ar  1 <1>  -0.1500 
  6 C        1.7890    -2.1560     0.1300 C.3   1 <1>   0.2540 
  7 C       -0.7890     0.6550     2.1400 C.ar  1 <1>  -0.1500 
  8 C        0.2760     0.0730     2.8050 C.ar  1 <1>  -0.1500 
  9 N        3.0880    -1.5310    -0.1930 N.3   1 <1>  -0.8100 
 10 C        4.0530    -2.5250    -0.7150 C.3   1 <1>   0.1100 
 11 C        2.9350    -0.4020    -1.1510 C.3   1 <1>   0.1100 
 12 C        5.4470    -1.9000    -0.9780 C.3   1 <1>   0.3430 
 13 C        4.2900     0.1950    -1.5980 C.3   1 <1>   0.3430 
 14 N        5.4180    -0.4100    -0.8140 N.4   1 <1>  -0.9590 
 15 C        6.7300     0.2540    -1.0180 C.3   1 <1>   0.4860 
 16 C        6.5880     1.7300    -0.7000 C.ar  1 <1>  -0.1430 
 17 C        6.4270     2.1590     0.6110 C.ar  1 <1>  -0.1500 
 18 C        6.6090     2.6660    -1.7240 C.ar  1 <1>  -0.1500 
 19 C        6.2750     3.5050     0.8950 C.ar  1 <1>  -0.1500 
 20 C        6.4570     4.0110    -1.4400 C.ar  1 <1>  -0.1500 
 21 C        6.2860     4.4400    -0.1350 C.ar  1 <1>   0.0830 
 22 O        6.1400     5.7740     0.0520 O.3   1 <1>  -0.3620 
 23 C        5.9870     6.3280     1.3380 C.3   1 <1>   0.1200 
 24 C        5.8630     7.8410     1.1880 C.3   1 <1>  -0.2400 
 25 H       -1.8510     0.7810     0.2840 H     1 <1>   0.1500 
 26 H        1.9260    -1.2720     2.6800 H     1 <1>   0.1500 
 27 H        1.3330    -2.5500    -0.7630 H     1 <1>   0.0800 
 28 H        1.9510    -2.9840     0.7990 H     1 <1>   0.0800 
 29 H       -1.4300     1.3530     2.6520 H     1 <1>   0.1500 
 30 H        0.4630     0.3200     3.8360 H     1 <1>   0.1500 
 31 H        3.6770    -2.9490    -1.6320 H     1 <1>   0.0800 
 32 H        4.1620    -3.3290    -0.0070 H     1 <1>   0.0800 
 33 H        2.3610     0.3830    -0.6880 H     1 <1>   0.0800 
 34 H        2.3900    -0.7250    -2.0220 H     1 <1>   0.0800 
 35 H        5.7670    -2.1600    -1.9730 H     1 <1>   0.0800 
 36 H        6.1520    -2.3270    -0.2840 H     1 <1>   0.0800 
 37 H        4.2610     1.2630    -1.4500 H     1 <1>   0.0800 
 38 H        4.4310     0.0130    -2.6500 H     1 <1>   0.0800 
 39 H        5.1180    -0.2610     0.1610 H     1 <1>   0.4500 
 40 H        7.0540     0.1310    -2.0380 H     1 <1>   0.0800 
 41 H        7.4710    -0.1810    -0.3670 H     1 <1>   0.0800 
 42 H        6.4180     1.4550     1.4260 H     1 <1>   0.1500 
 43 H        6.7440     2.3670    -2.7500 H     1 <1>   0.1500 
 44 H        6.1500     3.8080     1.9180 H     1 <1>   0.1500 
 45 H        6.4720     4.7440    -2.2280 H     1 <1>   0.1500 
 46 H        6.8540     6.0740     1.9240 H     1 <1>   0.0800 
 47 H        5.0980     5.9160     1.7840 H     1 <1>   0.0800 
 48 H        6.7490     8.2400     0.7270 H     1 <1>   0.0800 
 49 H        5.7460     8.2950     2.1560 H     1 <1>   0.0800 
 50 H        5.0050     8.0840     0.5880 H     1 <1>   0.0800 
@<TRIPOS>BOND
  1   1   2  1   
  2   2   3  ar  
  3   2   4  ar  
  4   3   5  ar  
  5   3   6  1   
  6   4   7  ar  
  7   4  25  1   
  8   5   8  ar  
  9   5  26  1   
 10   6   9  1   
 11   6  27  1   
 12   6  28  1   
 13   7   8  ar  
 14   7  29  1   
 15   8  30  1   
 16   9  10  1   
 17   9  11  1   
 18  10  12  1   
 19  10  31  1   
 20  10  32  1   
 21  11  13  1   
 22  11  33  1   
 23  11  34  1   
 24  12  14  1   
 25  12  35  1   
 26  12  36  1   
 27  13  14  1   
 28  13  37  1   
 29  13  38  1   
 30  14  15  1   
 31  14  39  1   
 32  15  16  1   
 33  15  40  1   
 34  15  41  1   
 35  16  17  ar  
 36  16  18  ar  
 37  17  19  ar  
 38  17  42  1   
 39  18  20  ar  
 40  18  43  1   
 41  19  21  ar  
 42  19  44  1   
 43  20  21  ar  
 44  20  45  1   
 45  21  22  1   
 46  22  23  1   
 47  23  24  1   
 48  23  46  1   
 49  23  47  1   
 50  24  48  1   
 51  24  49  1   
 52  24  50  1   
@<TRIPOS>SUBSTRUCTURE
  1 ****  13 GROUP 4 **** **** 0

# MOE 2024.06 (io_trps.svl 2023.06)
