@<TRIPOS>MOLECULE
NONAME
43 45 1 0 0 
SMALL
USER_CHARGES


@<TRIPOS>ATOM
  1 S       -5.4370     3.3690     0.3720 S.3   1 <1>  -0.4600 
  2 C       -6.7410     3.8020    -0.8030 C.3   1 <1>   0.5940 
  3 C       -5.0280     5.0430     0.9140 C.3   1 <1>   0.1310 
  4 N       -6.7220     5.2820    -0.8290 N.am  1 <1>  -0.6600 
  5 C       -8.1010     3.3090    -0.3160 C.ar  1 <1>  -0.1440 
  6 C       -5.9580     5.9140     0.1010 C.2   1 <1>   0.5690 
  7 C       -7.4550     5.9910    -1.9250 C.3   1 <1>   0.1400 
  8 C       -9.0580     2.9360    -1.2460 C.ar  1 <1>   0.1900 
  9 C       -8.4510     3.2320     1.0290 C.ar  1 <1>  -0.1500 
 10 O       -6.0620     7.1010     0.3050 O.2   1 <1>  -0.5700 
 11 C       -8.8780     6.4110    -1.5070 C.3   1 <1>   0.3430 
 12 F       -8.7770     3.0250    -2.5190 F     1 <1>  -0.1900 
 13 C      -10.3200     2.4990    -0.8920 C.ar  1 <1>  -0.1500 
 14 C       -9.7130     2.7970     1.4060 C.ar  1 <1>  -0.1500 
 15 N       -8.8470     7.1890    -0.2350 N.4   1 <1>  -0.9590 
 16 C      -10.6470     2.4310     0.4500 C.ar  1 <1>  -0.1500 
 17 C       -9.7120     6.5780     0.8100 C.3   1 <1>   0.3430 
 18 C       -9.1120     8.6400    -0.4280 C.3   1 <1>   0.3430 
 19 C       -9.4630     7.2790     2.1460 C.3   1 <1>  -0.1600 
 20 C       -8.8590     9.3790     0.8880 C.3   1 <1>  -0.1600 
 21 C       -9.6860     8.7940     2.0420 C.3   1 <1>  -0.1600 
 22 H       -6.4620     3.3820    -1.7560 H     1 <1>   0.0800 
 23 H       -3.9960     5.2340     0.6840 H     1 <1>   0.0800 
 24 H       -5.2200     5.1190     1.9680 H     1 <1>   0.0800 
 25 H       -7.5080     5.3590    -2.7950 H     1 <1>   0.0800 
 26 H       -6.9010     6.8720    -2.2050 H     1 <1>   0.0800 
 27 H       -7.7490     3.5010     1.8010 H     1 <1>   0.1500 
 28 H       -9.4750     5.5240    -1.3800 H     1 <1>   0.0800 
 29 H       -9.3260     6.9980    -2.2910 H     1 <1>   0.0800 
 30 H      -11.0290     2.2120    -1.6500 H     1 <1>   0.1500 
 31 H       -9.9670     2.7310     2.4510 H     1 <1>   0.1500 
 32 H       -7.8670     7.1320     0.1140 H     1 <1>   0.4500 
 33 H      -11.6230     2.0850     0.7530 H     1 <1>   0.1500 
 34 H       -9.4890     5.5290     0.9070 H     1 <1>   0.0800 
 35 H      -10.7490     6.6820     0.5340 H     1 <1>   0.0800 
 36 H      -10.1330     8.7890    -0.7370 H     1 <1>   0.0800 
 37 H       -8.4590     9.0360    -1.1890 H     1 <1>   0.0800 
 38 H       -8.4560     7.0790     2.4680 H     1 <1>   0.0800 
 39 H      -10.1270     6.8700     2.8880 H     1 <1>   0.0800 
 40 H       -9.1060    10.4190     0.7620 H     1 <1>   0.0800 
 41 H       -7.8100     9.3240     1.1260 H     1 <1>   0.0800 
 42 H       -9.4070     9.2690     2.9680 H     1 <1>   0.0800 
 43 H      -10.7310     8.9930     1.8730 H     1 <1>   0.0800 
@<TRIPOS>BOND
  1   1   2  1   
  2   1   3  1   
  3   2   4  1   
  4   2   5  1   
  5   2  22  1   
  6   3   6  1   
  7   3  23  1   
  8   3  24  1   
  9   4   6  am  
 10   4   7  1   
 11   5   8  ar  
 12   5   9  ar  
 13   6  10  2   
 14   7  11  1   
 15   7  25  1   
 16   7  26  1   
 17   8  12  1   
 18   8  13  ar  
 19   9  14  ar  
 20   9  27  1   
 21  11  15  1   
 22  11  28  1   
 23  11  29  1   
 24  13  16  ar  
 25  13  30  1   
 26  14  16  ar  
 27  14  31  1   
 28  15  17  1   
 29  15  18  1   
 30  15  32  1   
 31  16  33  1   
 32  17  19  1   
 33  17  34  1   
 34  17  35  1   
 35  18  20  1   
 36  18  36  1   
 37  18  37  1   
 38  19  21  1   
 39  19  38  1   
 40  19  39  1   
 41  20  21  1   
 42  20  40  1   
 43  20  41  1   
 44  21  42  1   
 45  21  43  1   
@<TRIPOS>SUBSTRUCTURE
  1 ****   4 GROUP 4 **** **** 0

# MOE 2024.06 (io_trps.svl 2023.06)
