@<TRIPOS>MOLECULE
NONAME
35 35 1 0 0 
SMALL
USER_CHARGES


@<TRIPOS>ATOM
  1 S       -0.0180    -0.4680     0.3470 S.o2  1 <1>   1.4470 
  2 O       -0.1990    -1.3880     1.4460 O.2   1 <1>  -0.6500 
  3 O        0.4220    -0.9500    -0.9440 O.2   1 <1>  -0.6500 
  4 N        1.2110     0.5200     0.9290 N.am  1 <1>  -0.9140 
  5 C       -1.4420     0.6410     0.1590 C.ar  1 <1>  -0.0090 
  6 C        2.5520     0.0490     0.5960 C.3   1 <1>   0.1160 
  7 C       -2.6980     0.1100    -0.1070 C.ar  1 <1>   0.0830 
  8 C       -1.3280     2.0210     0.2540 C.ar  1 <1>  -0.1500 
  9 O       -2.7890    -1.2350    -0.2170 O.3   1 <1>  -0.3630 
 10 C       -3.7970     0.9480    -0.2530 C.ar  1 <1>  -0.1500 
 11 C       -2.4060     2.9000     0.1160 C.ar  1 <1>   0.0860 
 12 C       -3.9970    -1.9130    -0.4860 C.3   1 <1>   0.0400 
 13 C       -3.6660     2.3280    -0.1400 C.ar  1 <1>   0.0830 
 14 C       -2.1620     4.3300     0.2460 C.2   1 <1>   0.5440 
 15 O       -4.7450     3.1440    -0.2700 O.3   1 <1>  -0.3620 
 16 O       -1.1730     4.7330     0.8290 O.2   1 <1>  -0.5700 
 17 N       -3.0070     5.2630    -0.2880 N.am  1 <1>  -0.7300 
 18 C       -6.0710     2.6730    -0.3860 C.3   1 <1>   0.0400 
 19 C       -2.8500     6.7370    -0.2270 C.3   1 <1>   0.0600 
 20 H        1.0990     0.4390     1.9400 H     1 <1>   0.4200 
 21 H        2.7050     0.0970    -0.4700 H     1 <1>   0.0800 
 22 H        2.6830    -0.9700     0.9230 H     1 <1>   0.0800 
 23 H        3.2870     0.6720     1.0770 H     1 <1>   0.0800 
 24 H       -0.3580     2.4490     0.4410 H     1 <1>   0.1500 
 25 H       -4.7540     0.5180    -0.4570 H     1 <1>   0.1500 
 26 H       -3.7840    -2.9660    -0.5200 H     1 <1>   0.0800 
 27 H       -4.3760    -1.5880    -1.4390 H     1 <1>   0.0800 
 28 H       -4.6970    -1.7080     0.3030 H     1 <1>   0.0800 
 29 H       -3.8990     4.9090    -0.6520 H     1 <1>   0.3700 
 30 H       -6.7280     3.5240    -0.4040 H     1 <1>   0.0800 
 31 H       -6.3000     2.0560     0.4660 H     1 <1>   0.0800 
 32 H       -6.1680     2.1190    -1.3030 H     1 <1>   0.0800 
 33 H       -1.8810     6.9950     0.1660 H     1 <1>   0.0800 
 34 H       -3.6070     7.1570     0.4120 H     1 <1>   0.0800 
 35 H       -2.9460     7.1540    -1.2140 H     1 <1>   0.0800 
@<TRIPOS>BOND
  1   1   2  2   
  2   1   3  2   
  3   1   4  am  
  4   1   5  1   
  5   4   6  1   
  6   4  20  1   
  7   5   7  ar  
  8   5   8  ar  
  9   6  21  1   
 10   6  22  1   
 11   6  23  1   
 12   7   9  1   
 13   7  10  ar  
 14   8  11  ar  
 15   8  24  1   
 16   9  12  1   
 17  10  13  ar  
 18  10  25  1   
 19  11  13  ar  
 20  11  14  1   
 21  12  26  1   
 22  12  27  1   
 23  12  28  1   
 24  13  15  1   
 25  14  16  2   
 26  14  17  am  
 27  15  18  1   
 28  17  19  1   
 29  17  29  1   
 30  18  30  1   
 31  18  31  1   
 32  18  32  1   
 33  19  33  1   
 34  19  34  1   
 35  19  35  1   
@<TRIPOS>SUBSTRUCTURE
  1 ****   8 GROUP 4 **** **** 0

# MOE 2024.06 (io_trps.svl 2023.06)
