@<TRIPOS>MOLECULE
NONAME
36 38 1 0 0 
SMALL
USER_CHARGES


@<TRIPOS>ATOM
  1 S       -0.3660     1.3080     1.4340 S.3   1 <1>  -0.0800 
  2 C       -0.4350     1.8390    -0.2410 C.2   1 <1>  -0.1400 
  3 C        0.8980     0.1490     1.0600 C.2   1 <1>  -0.1100 
  4 C        0.4530     1.1570    -0.9880 C.2   1 <1>  -0.1500 
  5 C       -1.4320     2.9260    -0.5910 C.3   1 <1>   0.3200 
  6 C        1.2120     0.1950    -0.2480 C.2   1 <1>  -0.1500 
  7 N       -2.7850     2.3850    -0.4290 N.am  1 <1>  -0.7300 
  8 C       -3.7850     2.4470    -1.3410 C.2   1 <1>   0.5690 
  9 O       -3.6350     3.0240    -2.3920 O.2   1 <1>  -0.5700 
 10 C       -5.0940     1.7180    -1.0490 C.3   1 <1>  -0.0190 
 11 C       -5.6640     2.0100     0.3890 C.3   1 <1>  -0.1860 
 12 C       -4.9050     0.1900    -1.2380 C.3   1 <1>   0.0580 
 13 C       -6.9060     2.8830     0.4000 C.2   1 <1>   0.9060 
 14 C       -5.9110     0.6850     1.1510 C.3   1 <1>   0.0580 
 15 C       -4.0740    -0.3210    -0.0620 C.2   1 <1>  -0.2880 
 16 C       -6.2970    -0.4670    -1.0900 C.3   1 <1>  -0.1600 
 17 O       -7.7390     2.7990    -0.5090 O.co2 1 <1>  -0.9000 
 18 O       -7.0590     3.6470     1.3590 O.co2 1 <1>  -0.9000 
 19 C       -4.5800    -0.0610     1.1460 C.2   1 <1>  -0.2880 
 20 C       -6.8780    -0.1960     0.3270 C.3   1 <1>  -0.1600 
 21 H        1.2750    -0.4500     1.8690 H     1 <1>   0.1500 
 22 H        0.6070     1.2860    -2.0450 H     1 <1>   0.1500 
 23 H       -1.2840     3.2480    -1.6080 H     1 <1>   0.0800 
 24 H       -1.3040     3.7710     0.0620 H     1 <1>   0.0800 
 25 H        1.9540    -0.4130    -0.7340 H     1 <1>   0.1500 
 26 H       -2.9330     1.7870     0.3890 H     1 <1>   0.3700 
 27 H       -5.7990     2.0540    -1.7890 H     1 <1>   0.0800 
 28 H       -4.9390     2.5620     0.9550 H     1 <1>   0.0800 
 29 H       -4.4560    -0.0400    -2.1890 H     1 <1>   0.0800 
 30 H       -6.2790     0.8650     2.1470 H     1 <1>   0.0800 
 31 H       -3.1580    -0.8370    -0.2930 H     1 <1>   0.1500 
 32 H       -6.2130    -1.5260    -1.2490 H     1 <1>   0.0800 
 33 H       -6.9660    -0.0670    -1.8330 H     1 <1>   0.0800 
 34 H       -4.1620    -0.3200     2.1030 H     1 <1>   0.1500 
 35 H       -7.8370     0.2860     0.2440 H     1 <1>   0.0800 
 36 H       -7.0250    -1.1300     0.8400 H     1 <1>   0.0800 
@<TRIPOS>BOND
  1   1   2  1   
  2   1   3  1   
  3   2   4  2   
  4   2   5  1   
  5   3   6  2   
  6   3  21  1   
  7   4   6  1   
  8   4  22  1   
  9   5   7  1   
 10   5  23  1   
 11   5  24  1   
 12   6  25  1   
 13   7   8  am  
 14   7  26  1   
 15   8   9  2   
 16   8  10  1   
 17  10  11  1   
 18  10  12  1   
 19  10  27  1   
 20  11  13  1   
 21  11  14  1   
 22  11  28  1   
 23  12  15  1   
 24  12  16  1   
 25  12  29  1   
 26  13  17  ar  
 27  13  18  ar  
 28  14  19  1   
 29  14  20  1   
 30  14  30  1   
 31  15  19  2   
 32  15  31  1   
 33  16  20  1   
 34  16  32  1   
 35  16  33  1   
 36  19  34  1   
 37  20  35  1   
 38  20  36  1   
@<TRIPOS>SUBSTRUCTURE
  1 ****   7 GROUP 4 **** **** 0

# MOE 2024.06 (io_trps.svl 2023.06)
