@<TRIPOS>MOLECULE
NONAME
34 35 1 0 0 
SMALL
USER_CHARGES


@<TRIPOS>ATOM
  1 BR       0.2970     1.1240    -0.8470 Br    1 <1>  -0.1110 
  2 C       -1.5290     1.5870    -0.4480 C.ar  1 <1>   0.1110 
  3 C       -1.7770     2.5600     0.5010 C.ar  1 <1>  -0.1500 
  4 C       -2.5440     0.9320    -1.1200 C.ar  1 <1>  -0.1500 
  5 C       -3.0930     2.8860     0.7820 C.ar  1 <1>  -0.1500 
  6 C       -3.8570     1.2660    -0.8320 C.ar  1 <1>  -0.1500 
  7 C       -4.1350     2.2460     0.1230 C.ar  1 <1>   0.0830 
  8 O       -5.3910     2.6280     0.4640 O.3   1 <1>  -0.3630 
  9 C       -6.5230     2.0050    -0.1030 C.3   1 <1>   0.1200 
 10 C       -7.7740     2.6590     0.4790 C.3   1 <1>   0.1400 
 11 N       -8.9920     1.9810    -0.0200 N.am  1 <1>  -0.4200 
 12 C       -9.4670     2.0710    -1.2970 C.2   1 <1>   0.6900 
 13 C       -9.8170     1.1820     0.7150 C.2   1 <1>   0.5690 
 14 O       -8.9160     2.6550    -2.2020 O.2   1 <1>  -0.5700 
 15 N      -10.6180     1.3860    -1.4420 N.am  1 <1>  -0.7300 
 16 O       -9.6640     0.8840     1.8760 O.2   1 <1>  -0.5700 
 17 C      -10.9740     0.7090    -0.1890 C.3   1 <1>   0.3610 
 18 C      -12.3440     1.2120     0.2700 C.3   1 <1>  -0.2400 
 19 C      -10.9730    -0.8030    -0.4290 C.3   1 <1>  -0.2400 
 20 H       -0.9630     3.0490     1.0040 H     1 <1>   0.1500 
 21 H       -2.3100     0.1810    -1.8530 H     1 <1>   0.1500 
 22 H       -3.3220     3.6400     1.5140 H     1 <1>   0.1500 
 23 H       -4.6420     0.7570    -1.3580 H     1 <1>   0.1500 
 24 H       -6.4920     0.9600     0.1490 H     1 <1>   0.0800 
 25 H       -6.4880     2.1460    -1.1690 H     1 <1>   0.0800 
 26 H       -7.8070     3.6950     0.1890 H     1 <1>   0.0800 
 27 H       -7.7470     2.5950     1.5540 H     1 <1>   0.0800 
 28 H      -11.0630     1.2130    -2.3410 H     1 <1>   0.3700 
 29 H      -12.3290     2.2810     0.3880 H     1 <1>   0.0800 
 30 H      -12.5910     0.7720     1.2200 H     1 <1>   0.0800 
 31 H      -13.1050     0.9440    -0.4400 H     1 <1>   0.0800 
 32 H      -10.0140    -1.1250    -0.7930 H     1 <1>   0.0800 
 33 H      -11.7340    -1.0760    -1.1370 H     1 <1>   0.0800 
 34 H      -11.1690    -1.3140     0.4970 H     1 <1>   0.0800 
@<TRIPOS>BOND
  1   1   2  1   
  2   2   3  ar  
  3   2   4  ar  
  4   3   5  ar  
  5   3  20  1   
  6   4   6  ar  
  7   4  21  1   
  8   5   7  ar  
  9   5  22  1   
 10   6   7  ar  
 11   6  23  1   
 12   7   8  1   
 13   8   9  1   
 14   9  10  1   
 15   9  24  1   
 16   9  25  1   
 17  10  11  1   
 18  10  26  1   
 19  10  27  1   
 20  11  12  am  
 21  11  13  am  
 22  12  14  2   
 23  12  15  am  
 24  13  16  2   
 25  13  17  1   
 26  15  17  1   
 27  15  28  1   
 28  17  18  1   
 29  17  19  1   
 30  18  29  1   
 31  18  30  1   
 32  18  31  1   
 33  19  32  1   
 34  19  33  1   
 35  19  34  1   
@<TRIPOS>SUBSTRUCTURE
  1 ****   9 GROUP 4 **** **** 0

# MOE 2024.06 (io_trps.svl 2023.06)
