@<TRIPOS>MOLECULE
NONAME
40 41 1 0 0 
SMALL
USER_CHARGES


@<TRIPOS>ATOM
  1 O       -1.1590    -1.1600    -2.4990 O.2   1 <1>  -0.5700 
  2 C       -1.4080    -1.7200    -1.4580 C.2   1 <1>   0.4950 
  3 C       -0.4660    -2.5040    -0.7500 C.2   1 <1>  -0.1360 
  4 C       -2.7970    -1.5590    -0.8650 C.3   1 <1>  -0.0990 
  5 C       -0.7150    -3.1700     0.4060 C.2   1 <1>  -0.0380 
  6 C       -3.2140    -2.7660     0.0050 C.3   1 <1>   0.0000 
  7 N        0.2050    -3.9180     1.1080 N.pl3 1 <1>  -0.6000 
  8 C       -2.1040    -3.0920     1.0340 C.3   1 <1>  -0.0220 
  9 C       -4.5190    -2.4320     0.7450 C.3   1 <1>  -0.2400 
 10 C       -3.4730    -3.9920    -0.8920 C.3   1 <1>  -0.2400 
 11 C        1.5000    -4.2820     0.7220 C.ar  1 <1>   0.1000 
 12 C        1.7470    -4.8650    -0.5150 C.ar  1 <1>  -0.1500 
 13 C        2.5640    -4.0820     1.5900 C.ar  1 <1>  -0.1500 
 14 C        3.0310    -5.2240    -0.8810 C.ar  1 <1>  -0.1500 
 15 C        3.8480    -4.4430     1.2260 C.ar  1 <1>  -0.1500 
 16 C        4.0980    -5.0110    -0.0180 C.ar  1 <1>   0.1170 
 17 N        5.3910    -5.3810    -0.4060 N.am  1 <1>  -0.5470 
 18 C        6.5350    -4.6520    -0.4580 C.2   1 <1>   0.5690 
 19 O        7.5630    -5.1720    -0.8050 O.2   1 <1>  -0.5700 
 20 C        6.5410    -3.1840    -0.1030 C.3   1 <1>  -0.1790 
 21 H        0.5080    -2.5360    -1.2000 H     1 <1>   0.1500 
 22 H       -3.5030    -1.4170    -1.6640 H     1 <1>   0.0800 
 23 H       -2.7910    -0.6630    -0.2720 H     1 <1>   0.0800 
 24 H       -0.0650    -4.2500     2.0390 H     1 <1>   0.4000 
 25 H       -2.0790    -2.3330     1.7960 H     1 <1>   0.0800 
 26 H       -2.3360    -4.0270     1.5140 H     1 <1>   0.0800 
 27 H       -4.3880    -1.5770     1.3840 H     1 <1>   0.0800 
 28 H       -4.8330    -3.2630     1.3530 H     1 <1>   0.0800 
 29 H       -5.3050    -2.2120     0.0440 H     1 <1>   0.0800 
 30 H       -2.5860    -4.2820    -1.4270 H     1 <1>   0.0800 
 31 H       -4.2420    -3.7770    -1.6140 H     1 <1>   0.0800 
 32 H       -3.7940    -4.8320    -0.3020 H     1 <1>   0.0800 
 33 H        0.9260    -5.0370    -1.1860 H     1 <1>   0.1500 
 34 H        2.3840    -3.6370     2.5520 H     1 <1>   0.1500 
 35 H        3.2080    -5.6690    -1.8440 H     1 <1>   0.1500 
 36 H        4.6610    -4.2900     1.9120 H     1 <1>   0.1500 
 37 H        5.5100    -6.3280    -0.7640 H     1 <1>   0.3700 
 38 H        5.6540    -2.7060    -0.4740 H     1 <1>   0.0800 
 39 H        7.3990    -2.7120    -0.5440 H     1 <1>   0.0800 
 40 H        6.5930    -3.0700     0.9630 H     1 <1>   0.0800 
@<TRIPOS>BOND
  1   1   2  2   
  2   2   3  1   
  3   2   4  1   
  4   3   5  2   
  5   3  21  1   
  6   4   6  1   
  7   4  22  1   
  8   4  23  1   
  9   5   7  1   
 10   5   8  1   
 11   6   8  1   
 12   6   9  1   
 13   6  10  1   
 14   7  11  1   
 15   7  24  1   
 16   8  25  1   
 17   8  26  1   
 18   9  27  1   
 19   9  28  1   
 20   9  29  1   
 21  10  30  1   
 22  10  31  1   
 23  10  32  1   
 24  11  12  ar  
 25  11  13  ar  
 26  12  14  ar  
 27  12  33  1   
 28  13  15  ar  
 29  13  34  1   
 30  14  16  ar  
 31  14  35  1   
 32  15  16  ar  
 33  15  36  1   
 34  16  17  1   
 35  17  18  am  
 36  17  37  1   
 37  18  19  2   
 38  18  20  1   
 39  20  38  1   
 40  20  39  1   
 41  20  40  1   
@<TRIPOS>SUBSTRUCTURE
  1 ****  11 GROUP 4 **** **** 0

# MOE 2024.06 (io_trps.svl 2023.06)
