@<TRIPOS>MOLECULE
NONAME
34 35 1 0 0 
SMALL
USER_CHARGES


@<TRIPOS>ATOM
  1 O        0.9390    -0.5370    -1.2920 O.3   1 <1>  -0.5600 
  2 C        1.7300     0.4970    -0.7650 C.3   1 <1>   0.1200 
  3 C        0.4300    -1.4210    -0.3320 C.3   1 <1>   0.1200 
  4 C        2.8610    -0.0510     0.1380 C.3   1 <1>   0.3430 
  5 C        1.5750    -2.1520     0.4080 C.3   1 <1>   0.3430 
  6 N        2.9140    -1.5510     0.0900 N.4   1 <1>  -0.9590 
  7 C        4.0330    -2.1390     0.8740 C.3   1 <1>   0.4860 
  8 C        5.3390    -1.5470     0.3820 C.ar  1 <1>  -0.1430 
  9 C        5.7910    -1.8310    -0.8990 C.ar  1 <1>  -0.1500 
 10 C        6.0890    -0.7100     1.1990 C.ar  1 <1>  -0.1500 
 11 C        6.9680    -1.2690    -1.3530 C.ar  1 <1>   0.0820 
 12 C        7.2740    -0.1530     0.7420 C.ar  1 <1>  -0.1500 
 13 O        7.3840    -1.5430    -2.5990 O.3   1 <1>  -0.5330 
 14 C        7.7250    -0.4270    -0.5450 C.ar  1 <1>   0.0820 
 15 O        8.8740     0.0820    -1.0740 O.3   1 <1>  -0.3630 
 16 C        9.7400     0.8850    -0.3000 C.3   1 <1>   0.0400 
 17 H        1.0960     1.1700    -0.2140 H     1 <1>   0.0800 
 18 H        2.1520     1.0370    -1.5950 H     1 <1>   0.0800 
 19 H       -0.2000    -2.1320    -0.8370 H     1 <1>   0.0800 
 20 H       -0.1790    -0.8640     0.3600 H     1 <1>   0.0800 
 21 H        2.6940     0.2800     1.1490 H     1 <1>   0.0800 
 22 H        3.8010     0.3670    -0.1890 H     1 <1>   0.0800 
 23 H        1.5660    -3.1910     0.1220 H     1 <1>   0.0800 
 24 H        1.3870    -2.1050     1.4680 H     1 <1>   0.0800 
 25 H        3.0860    -1.7610    -0.9040 H     1 <1>   0.4500 
 26 H        4.0560    -3.2090     0.7440 H     1 <1>   0.0800 
 27 H        3.9060    -1.9240     1.9230 H     1 <1>   0.0800 
 28 H        5.2530    -2.4840    -1.5630 H     1 <1>   0.1500 
 29 H        5.7660    -0.4830     2.2010 H     1 <1>   0.1500 
 30 H        7.8320     0.4880     1.4000 H     1 <1>   0.1500 
 31 H        8.2360    -1.0900    -2.7670 H     1 <1>   0.4500 
 32 H       10.5870     1.1470    -0.9090 H     1 <1>   0.0800 
 33 H       10.0680     0.3230     0.5570 H     1 <1>   0.0800 
 34 H        9.2180     1.7770    -0.0010 H     1 <1>   0.0800 
@<TRIPOS>BOND
  1   1   2  1   
  2   1   3  1   
  3   2   4  1   
  4   2  17  1   
  5   2  18  1   
  6   3   5  1   
  7   3  19  1   
  8   3  20  1   
  9   4   6  1   
 10   4  21  1   
 11   4  22  1   
 12   5   6  1   
 13   5  23  1   
 14   5  24  1   
 15   6   7  1   
 16   6  25  1   
 17   7   8  1   
 18   7  26  1   
 19   7  27  1   
 20   8   9  ar  
 21   8  10  ar  
 22   9  11  ar  
 23   9  28  1   
 24  10  12  ar  
 25  10  29  1   
 26  11  13  1   
 27  11  14  ar  
 28  12  14  ar  
 29  12  30  1   
 30  13  31  1   
 31  14  15  1   
 32  15  16  1   
 33  16  32  1   
 34  16  33  1   
 35  16  34  1   
@<TRIPOS>SUBSTRUCTURE
  1 ****   8 GROUP 4 **** **** 0

# MOE 2024.06 (io_trps.svl 2023.06)
