@<TRIPOS>MOLECULE
NONAME
50 51 1 0 0 
SMALL
USER_CHARGES


@<TRIPOS>ATOM
  1 O       -0.6060    -0.0460     0.9900 O.3   1 <1>  -0.3630 
  2 C       -1.6650     0.6730     0.5410 C.ar  1 <1>   0.0830 
  3 C        0.0710    -0.9560     0.1520 C.3   1 <1>   0.0400 
  4 C       -2.1900     0.5640    -0.7430 C.ar  1 <1>  -0.1500 
  5 C       -2.2390     1.5630     1.4330 C.ar  1 <1>  -0.1500 
  6 C       -3.2750     1.3370    -1.1170 C.ar  1 <1>  -0.1500 
  7 C       -3.3230     2.3360     1.0580 C.ar  1 <1>  -0.1500 
  8 C       -3.8500     2.2260    -0.2200 C.ar  1 <1>  -0.1430 
  9 C       -5.0480     3.0630    -0.6300 C.3   1 <1>  -0.0170 
 10 C       -6.3380     2.2870    -0.3210 C.3   1 <1>  -0.1600 
 11 C       -7.6140     3.0940    -0.6000 C.3   1 <1>   0.4230 
 12 N       -8.7810     2.3830     0.0170 N.4   1 <1>  -0.9590 
 13 C       -7.8300     3.3370    -2.0990 C.3   1 <1>  -0.2400 
 14 C       -9.1220     1.0660    -0.6580 C.3   1 <1>   0.3430 
 15 C       -9.9870     3.2930     0.1360 C.3   1 <1>   0.3430 
 16 C      -10.3760     0.3660    -0.0560 C.3   1 <1>   0.3430 
 17 C      -11.2400     2.5890     0.7330 C.3   1 <1>   0.3430 
 18 N      -11.5790     1.2770     0.0550 N.4   1 <1>  -0.9590 
 19 C      -12.7010     0.5680     0.7440 C.3   1 <1>   0.3430 
 20 C      -14.0040     1.3230     0.5130 C.3   1 <1>  -0.2400 
 21 H        0.8740    -1.3940     0.7160 H     1 <1>   0.0800 
 22 H        0.4670    -0.4220    -0.6940 H     1 <1>   0.0800 
 23 H       -0.6170    -1.7210    -0.1600 H     1 <1>   0.0800 
 24 H       -1.7670    -0.1130    -1.4600 H     1 <1>   0.1500 
 25 H       -1.8250     1.6460     2.4220 H     1 <1>   0.1500 
 26 H       -3.6650     1.2420    -2.1150 H     1 <1>   0.1500 
 27 H       -3.7440     3.0230     1.7700 H     1 <1>   0.1500 
 28 H       -4.9720     3.2870    -1.6810 H     1 <1>   0.0800 
 29 H       -5.0290     3.9960    -0.0930 H     1 <1>   0.0800 
 30 H       -6.3060     2.0210     0.7210 H     1 <1>   0.0800 
 31 H       -6.3270     1.3810    -0.9010 H     1 <1>   0.0800 
 32 H       -7.5040     4.0530    -0.1160 H     1 <1>   0.0800 
 33 H       -8.4620     2.1640     0.9730 H     1 <1>   0.4500 
 34 H       -7.7840     2.4230    -2.6640 H     1 <1>   0.0800 
 35 H       -7.0520     3.9780    -2.4720 H     1 <1>   0.0800 
 36 H       -8.7600     3.8370    -2.2940 H     1 <1>   0.0800 
 37 H       -8.2820     0.3930    -0.5860 H     1 <1>   0.0800 
 38 H       -9.3050     1.2360    -1.7060 H     1 <1>   0.0800 
 39 H      -10.2490     3.6720    -0.8370 H     1 <1>   0.0800 
 40 H       -9.7380     4.1430     0.7520 H     1 <1>   0.0800 
 41 H      -10.1190    -0.0070     0.9220 H     1 <1>   0.0800 
 42 H      -10.6240    -0.4870    -0.6670 H     1 <1>   0.0800 
 43 H      -12.0800     3.2620     0.6600 H     1 <1>   0.0800 
 44 H      -11.0660     2.4140     1.7820 H     1 <1>   0.0800 
 45 H      -11.9270     1.4790    -0.8960 H     1 <1>   0.4500 
 46 H      -12.5050     0.4830     1.8020 H     1 <1>   0.0800 
 47 H      -12.8060    -0.4280     0.3420 H     1 <1>   0.0800 
 48 H      -13.9990     2.2880     0.9870 H     1 <1>   0.0800 
 49 H      -14.8130     0.7600     0.9460 H     1 <1>   0.0800 
 50 H      -14.2110     1.4310    -0.5370 H     1 <1>   0.0800 
@<TRIPOS>BOND
  1   1   2  1   
  2   1   3  1   
  3   2   4  ar  
  4   2   5  ar  
  5   3  21  1   
  6   3  22  1   
  7   3  23  1   
  8   4   6  ar  
  9   4  24  1   
 10   5   7  ar  
 11   5  25  1   
 12   6   8  ar  
 13   6  26  1   
 14   7   8  ar  
 15   7  27  1   
 16   8   9  1   
 17   9  10  1   
 18   9  28  1   
 19   9  29  1   
 20  10  11  1   
 21  10  30  1   
 22  10  31  1   
 23  11  12  1   
 24  11  13  1   
 25  11  32  1   
 26  12  14  1   
 27  12  15  1   
 28  12  33  1   
 29  13  34  1   
 30  13  35  1   
 31  13  36  1   
 32  14  16  1   
 33  14  37  1   
 34  14  38  1   
 35  15  17  1   
 36  15  39  1   
 37  15  40  1   
 38  16  18  1   
 39  16  41  1   
 40  16  42  1   
 41  17  18  1   
 42  17  43  1   
 43  17  44  1   
 44  18  19  1   
 45  18  45  1   
 46  19  20  1   
 47  19  46  1   
 48  19  47  1   
 49  20  48  1   
 50  20  49  1   
 51  20  50  1   
@<TRIPOS>SUBSTRUCTURE
  1 ****  10 GROUP 4 **** **** 0

# MOE 2024.06 (io_trps.svl 2023.06)
