@<TRIPOS>MOLECULE
NONAME
48 50 1 0 0 
SMALL
USER_CHARGES


@<TRIPOS>ATOM
  1 S        0.2680     0.3780    -0.1850 S.3   1 <1>  -0.0800 
  2 C        1.6950     0.9780     0.6010 C.2   1 <1>   0.4420 
  3 C       -0.6150     1.6120     0.6450 C.2   1 <1>   0.1980 
  4 N        1.4470     1.9740     1.3670 N.2   1 <1>  -0.3380 
  5 N        2.9350     0.4200     0.3970 N.am  1 <1>  -0.4940 
  6 N        0.1280     2.3320     1.3870 N.2   1 <1>  -0.3380 
  7 C       -2.1130     1.6790     0.3930 C.3   1 <1>   0.0200 
  8 C        3.3930    -0.5310    -0.4650 C.2   1 <1>   0.5690 
  9 C       -2.8030     2.8060     1.1730 C.3   1 <1>  -0.2400 
 10 O        2.7060    -1.1110    -1.2660 O.2   1 <1>  -0.5700 
 11 C        4.8920    -0.8350    -0.4090 C.3   1 <1>   0.1710 
 12 N        5.7420     0.3700    -0.1340 N.3   1 <1>  -0.8100 
 13 C        7.1380    -0.0230     0.1740 C.3   1 <1>   0.1100 
 14 C        5.7230     1.3090    -1.2930 C.3   1 <1>   0.1100 
 15 C        8.0450     1.1960     0.4860 C.3   1 <1>   0.3430 
 16 C        6.6890     2.5080    -1.1220 C.3   1 <1>   0.3430 
 17 N        7.3350     2.4930     0.2340 N.4   1 <1>  -0.9590 
 18 C        8.1600     3.6980     0.5180 C.3   1 <1>   0.4860 
 19 C        7.2990     4.9330     0.3350 C.ar  1 <1>  -0.1440 
 20 C        7.5340     5.7910    -0.7300 C.ar  1 <1>  -0.1500 
 21 C        6.2660     5.2100     1.2200 C.ar  1 <1>  -0.1500 
 22 C        6.7360     6.9070    -0.9140 C.ar  1 <1>  -0.1500 
 23 C        5.4680     6.3250     1.0320 C.ar  1 <1>  -0.1500 
 24 C        5.7020     7.1730    -0.0350 C.ar  1 <1>  -0.1500 
 25 H        3.6690     0.8460     0.9570 H     1 <1>   0.3700 
 26 H       -2.5500     0.7370     0.6720 H     1 <1>   0.0800 
 27 H       -2.2780     1.8250    -0.6590 H     1 <1>   0.0800 
 28 H       -2.6610     2.6670     2.2310 H     1 <1>   0.0800 
 29 H       -3.8580     2.8130     0.9630 H     1 <1>   0.0800 
 30 H       -2.3880     3.7590     0.8940 H     1 <1>   0.0800 
 31 H        5.1860    -1.2910    -1.3390 H     1 <1>   0.0800 
 32 H        5.0380    -1.5610     0.3710 H     1 <1>   0.0800 
 33 H        7.5560    -0.5650    -0.6590 H     1 <1>   0.0800 
 34 H        7.1480    -0.6860     1.0240 H     1 <1>   0.0800 
 35 H        4.7260     1.6940    -1.4280 H     1 <1>   0.0800 
 36 H        5.9830     0.7840    -2.1970 H     1 <1>   0.0800 
 37 H        8.9340     1.1360    -0.1200 H     1 <1>   0.0800 
 38 H        8.3500     1.1450     1.5190 H     1 <1>   0.0800 
 39 H        6.1330     3.4220    -1.2590 H     1 <1>   0.0800 
 40 H        7.4430     2.4670    -1.8900 H     1 <1>   0.0800 
 41 H        6.5350     2.4990     0.8800 H     1 <1>   0.4500 
 42 H        9.0030     3.7390    -0.1520 H     1 <1>   0.0800 
 43 H        8.5280     3.6670     1.5310 H     1 <1>   0.0800 
 44 H        8.3350     5.6090    -1.4260 H     1 <1>   0.1500 
 45 H        6.0660     4.5720     2.0640 H     1 <1>   0.1500 
 46 H        6.9180     7.5740    -1.7400 H     1 <1>   0.1500 
 47 H        4.6640     6.5380     1.7180 H     1 <1>   0.1500 
 48 H        5.0820     8.0410    -0.1790 H     1 <1>   0.1500 
@<TRIPOS>BOND
  1   1   2  1   
  2   1   3  1   
  3   2   4  2   
  4   2   5  1   
  5   3   6  2   
  6   3   7  1   
  7   4   6  1   
  8   5   8  am  
  9   5  25  1   
 10   7   9  1   
 11   7  26  1   
 12   7  27  1   
 13   8  10  2   
 14   8  11  1   
 15   9  28  1   
 16   9  29  1   
 17   9  30  1   
 18  11  12  1   
 19  11  31  1   
 20  11  32  1   
 21  12  13  1   
 22  12  14  1   
 23  13  15  1   
 24  13  33  1   
 25  13  34  1   
 26  14  16  1   
 27  14  35  1   
 28  14  36  1   
 29  15  17  1   
 30  15  37  1   
 31  15  38  1   
 32  16  17  1   
 33  16  39  1   
 34  16  40  1   
 35  17  18  1   
 36  17  41  1   
 37  18  19  1   
 38  18  42  1   
 39  18  43  1   
 40  19  20  ar  
 41  19  21  ar  
 42  20  22  ar  
 43  20  44  1   
 44  21  23  ar  
 45  21  45  1   
 46  22  24  ar  
 47  22  46  1   
 48  23  24  ar  
 49  23  47  1   
 50  24  48  1   
@<TRIPOS>SUBSTRUCTURE
  1 ****   5 GROUP 4 **** **** 0

# MOE 2024.06 (io_trps.svl 2023.06)
