@<TRIPOS>MOLECULE
NONAME
44 46 1 0 0 
SMALL
USER_CHARGES


@<TRIPOS>ATOM
  1 O       -0.8430    -0.1770    -0.9590 O.3   1 <1>  -0.3630 
  2 C       -1.9760    -0.5120    -0.3140 C.ar  1 <1>   0.0830 
  3 C       -0.8370    -0.8840    -2.1960 C.3   1 <1>   0.4000 
  4 C       -2.4650    -0.1130     0.9310 C.ar  1 <1>   0.0830 
  5 C       -2.6890    -1.3830    -1.0870 C.ar  1 <1>   0.0830 
  6 O       -2.0490    -1.6310    -2.2330 O.3   1 <1>  -0.3630 
  7 O       -1.8580     0.7470     1.7920 O.3   1 <1>  -0.3630 
  8 C       -3.6870    -0.6310     1.3430 C.ar  1 <1>  -0.1500 
  9 C       -3.9050    -1.9020    -0.6900 C.ar  1 <1>  -0.1500 
 10 C       -0.5870     1.2870     1.5060 C.3   1 <1>   0.0400 
 11 C       -4.4130    -1.5110     0.5430 C.ar  1 <1>  -0.1430 
 12 C       -5.7570    -2.0310     1.0140 C.3   1 <1>   0.4870 
 13 N       -6.8300    -1.3490     0.2360 N.4   1 <1>  -0.9590 
 14 C       -6.8350     0.1180     0.5090 C.3   1 <1>   0.4380 
 15 C       -8.1700    -1.9630     0.4480 C.3   1 <1>   0.3430 
 16 C       -7.6720     0.8370    -0.5510 C.3   1 <1>  -0.1950 
 17 C       -8.2340    -3.3550    -0.1870 C.3   1 <1>  -0.1600 
 18 C       -8.1840     2.2170    -0.2800 C.3   1 <1>  -0.2000 
 19 C       -9.1460     1.0710    -0.4080 C.3   1 <1>  -0.2000 
 20 C       -9.6550    -3.9240    -0.1060 C.3   1 <1>  -0.2400 
 21 H        0.0030    -1.5550    -2.2240 H     1 <1>   0.0800 
 22 H       -0.8160    -0.1850    -3.0130 H     1 <1>   0.0800 
 23 H       -4.0530    -0.3250     2.3080 H     1 <1>   0.1500 
 24 H       -4.4150    -2.5900    -1.3420 H     1 <1>   0.1500 
 25 H       -0.2930     1.9100     2.3310 H     1 <1>   0.0800 
 26 H       -0.6510     1.8750     0.6070 H     1 <1>   0.0800 
 27 H        0.1160     0.4820     1.3860 H     1 <1>   0.0800 
 28 H       -5.8800    -1.8420     2.0680 H     1 <1>   0.0800 
 29 H       -5.7930    -3.0950     0.8530 H     1 <1>   0.0800 
 30 H       -6.5840    -1.4470    -0.7560 H     1 <1>   0.4500 
 31 H       -5.8300     0.5070     0.4660 H     1 <1>   0.0800 
 32 H       -7.2330     0.3160     1.4910 H     1 <1>   0.0800 
 33 H       -8.9260    -1.3520    -0.0170 H     1 <1>   0.0800 
 34 H       -8.3930    -2.0260     1.5010 H     1 <1>   0.0800 
 35 H       -7.2740     0.6920    -1.5410 H     1 <1>   0.1000 
 36 H       -7.5720    -4.0350     0.3190 H     1 <1>   0.0800 
 37 H       -7.9500    -3.2970    -1.2230 H     1 <1>   0.0800 
 38 H       -8.1570     2.9500    -1.0690 H     1 <1>   0.1000 
 39 H       -8.0560     2.6640     0.6920 H     1 <1>   0.1000 
 40 H       -9.6750     0.7750     0.4820 H     1 <1>   0.1000 
 41 H       -9.7720     1.0350    -1.2850 H     1 <1>   0.1000 
 42 H       -9.9740    -4.0200     0.9180 H     1 <1>   0.0800 
 43 H       -9.6870    -4.9000    -0.5600 H     1 <1>   0.0800 
 44 H      -10.3520    -3.2900    -0.6270 H     1 <1>   0.0800 
@<TRIPOS>BOND
  1   1   2  1   
  2   1   3  1   
  3   2   4  ar  
  4   2   5  ar  
  5   3   6  1   
  6   3  21  1   
  7   3  22  1   
  8   4   7  1   
  9   4   8  ar  
 10   5   6  1   
 11   5   9  ar  
 12   7  10  1   
 13   8  11  ar  
 14   8  23  1   
 15   9  11  ar  
 16   9  24  1   
 17  10  25  1   
 18  10  26  1   
 19  10  27  1   
 20  11  12  1   
 21  12  13  1   
 22  12  28  1   
 23  12  29  1   
 24  13  14  1   
 25  13  15  1   
 26  13  30  1   
 27  14  16  1   
 28  14  31  1   
 29  14  32  1   
 30  15  17  1   
 31  15  33  1   
 32  15  34  1   
 33  16  18  1   
 34  16  19  1   
 35  16  35  1   
 36  17  20  1   
 37  17  36  1   
 38  17  37  1   
 39  18  19  1   
 40  18  38  1   
 41  18  39  1   
 42  19  40  1   
 43  19  41  1   
 44  20  42  1   
 45  20  43  1   
 46  20  44  1   
@<TRIPOS>SUBSTRUCTURE
  1 ****  11 GROUP 4 **** **** 0

# MOE 2024.06 (io_trps.svl 2023.06)
