@<TRIPOS>MOLECULE
NONAME
42 42 1 0 0 
SMALL
USER_CHARGES


@<TRIPOS>ATOM
  1 BR       0.2940    -0.2600    -0.8420 Br    1 <1>  -0.1110 
  2 C       -0.9970    -1.6760    -0.6600 C.ar  1 <1>   0.1110 
  3 C       -0.5620    -2.9950    -0.5740 C.ar  1 <1>   0.0860 
  4 C       -2.3320    -1.3190    -0.6180 C.ar  1 <1>  -0.1500 
  5 C        0.8370    -3.3520    -0.6090 C.2   1 <1>   0.5440 
  6 C       -1.5490    -3.9730    -0.4470 C.ar  1 <1>  -0.1500 
  7 C       -3.2870    -2.3120    -0.4870 C.ar  1 <1>  -0.1500 
  8 O        1.3850    -3.4920    -1.6860 O.2   1 <1>  -0.5700 
  9 N        1.5630    -3.5680     0.5440 N.am  1 <1>  -0.6600 
 10 C       -2.8920    -3.6380    -0.4020 C.ar  1 <1>  -0.1500 
 11 C        2.9580    -4.1530     0.4790 C.3   1 <1>   0.1400 
 12 C        0.9890    -3.4450     1.9120 C.3   1 <1>   0.1400 
 13 P        3.1180    -5.9280     0.7490 P.3   1 <1>   1.2420 
 14 C        1.4000    -2.1060     2.5170 C.3   1 <1>  -0.2400 
 15 O        2.7890    -6.3670     2.1050 O.2   1 <1>  -0.7000 
 16 O        4.6300    -6.2890     0.3470 O.3   1 <1>  -0.5510 
 17 O        2.2420    -6.6670    -0.3800 O.3   1 <1>  -0.5510 
 18 C        5.1010    -7.5650     0.5920 C.3   1 <1>   0.1200 
 19 C        2.5660    -6.5920    -1.7250 C.3   1 <1>   0.1200 
 20 C        6.5270    -7.6450     0.0590 C.3   1 <1>  -0.2400 
 21 C        1.4350    -7.2450    -2.5080 C.3   1 <1>  -0.2400 
 22 H       -2.6180    -0.2840    -0.6890 H     1 <1>   0.1500 
 23 H       -1.2500    -5.0060    -0.3860 H     1 <1>   0.1500 
 24 H       -4.3330    -2.0560    -0.4520 H     1 <1>   0.1500 
 25 H       -3.6350    -4.4120    -0.3040 H     1 <1>   0.1500 
 26 H        3.5570    -3.6320     1.2010 H     1 <1>   0.0800 
 27 H        3.3830    -3.9010    -0.4740 H     1 <1>   0.0800 
 28 H        1.3420    -4.2500     2.5350 H     1 <1>   0.0800 
 29 H       -0.0850    -3.5110     1.8820 H     1 <1>   0.0800 
 30 H        2.4690    -2.0370     2.5970 H     1 <1>   0.0800 
 31 H        0.9790    -2.0110     3.5010 H     1 <1>   0.0800 
 32 H        1.0350    -1.2950     1.9120 H     1 <1>   0.0800 
 33 H        4.4630    -8.2750     0.0930 H     1 <1>   0.0800 
 34 H        5.0760    -7.7420     1.6560 H     1 <1>   0.0800 
 35 H        3.4950    -7.1120    -1.8870 H     1 <1>   0.0800 
 36 H        2.6760    -5.5610    -2.0100 H     1 <1>   0.0800 
 37 H        6.5390    -7.4550    -0.9990 H     1 <1>   0.0800 
 38 H        6.9250    -8.6280     0.2360 H     1 <1>   0.0800 
 39 H        7.1510    -6.9280     0.5620 H     1 <1>   0.0800 
 40 H        1.3160    -8.2700    -2.2060 H     1 <1>   0.0800 
 41 H        1.6590    -7.2180    -3.5590 H     1 <1>   0.0800 
 42 H        0.5180    -6.7090    -2.3420 H     1 <1>   0.0800 
@<TRIPOS>BOND
  1   1   2  1   
  2   2   3  ar  
  3   2   4  ar  
  4   3   5  1   
  5   3   6  ar  
  6   4   7  ar  
  7   4  22  1   
  8   5   8  2   
  9   5   9  am  
 10   6  10  ar  
 11   6  23  1   
 12   7  10  ar  
 13   7  24  1   
 14   9  11  1   
 15   9  12  1   
 16  10  25  1   
 17  11  13  1   
 18  11  26  1   
 19  11  27  1   
 20  12  14  1   
 21  12  28  1   
 22  12  29  1   
 23  13  15  2   
 24  13  16  1   
 25  13  17  1   
 26  14  30  1   
 27  14  31  1   
 28  14  32  1   
 29  16  18  1   
 30  17  19  1   
 31  18  20  1   
 32  18  33  1   
 33  18  34  1   
 34  19  21  1   
 35  19  35  1   
 36  19  36  1   
 37  20  37  1   
 38  20  38  1   
 39  20  39  1   
 40  21  40  1   
 41  21  41  1   
 42  21  42  1   
@<TRIPOS>SUBSTRUCTURE
  1 ****   9 GROUP 4 **** **** 0

# MOE 2024.06 (io_trps.svl 2023.06)
