@<TRIPOS>MOLECULE
NONAME
53 54 1 0 0 
SMALL
USER_CHARGES


@<TRIPOS>ATOM
  1 S        0.6230     0.2330     2.0820 S.o2  1 <1>   1.3330 
  2 O        0.2760    -0.6190     0.9730 O.2   1 <1>  -0.6500 
  3 O        1.9570     0.1920     2.6360 O.2   1 <1>  -0.6500 
  4 N        0.3520     1.8720     1.6070 N.am  1 <1>  -0.6930 
  5 C       -0.5550     0.0250     3.3980 C.3   1 <1>  -0.1350 
  6 C       -0.7470     2.2180     0.8300 C.ar  1 <1>   0.1990 
  7 C        1.5340     2.7900     1.5760 C.3   1 <1>   0.2570 
  8 C       -0.7750     1.9480    -0.5320 C.ar  1 <1>  -0.1500 
  9 C       -1.8370     2.8540     1.4100 C.ar  1 <1>  -0.1500 
 10 C        2.5280     2.5180     0.4420 C.2   1 <1>   0.5690 
 11 C       -1.8700     2.2970    -1.3020 C.ar  1 <1>  -0.1500 
 12 C       -2.9350     3.2030     0.6440 C.ar  1 <1>  -0.1500 
 13 O        2.5190     3.2560    -0.5140 O.2   1 <1>  -0.5700 
 14 N        3.4000     1.4710     0.5650 N.am  1 <1>  -0.5470 
 15 C       -2.9620     2.9290    -0.7140 C.ar  1 <1>   0.0830 
 16 C        4.3900     1.0440    -0.3340 C.ar  1 <1>   0.1170 
 17 O       -4.0830     3.3120    -1.3850 O.3   1 <1>  -0.3630 
 18 C        5.5100     1.8310    -0.6160 C.ar  1 <1>  -0.1430 
 19 C        4.2670    -0.2080    -0.9400 C.ar  1 <1>  -0.1430 
 20 C       -4.2690     3.0600    -2.7620 C.3   1 <1>   0.1200 
 21 C        6.4750     1.3660    -1.4950 C.ar  1 <1>  -0.1500 
 22 C        5.7140     3.1990     0.0220 C.3   1 <1>  -0.0970 
 23 C        5.2450    -0.6550    -1.8120 C.ar  1 <1>  -0.1500 
 24 C        3.0610    -1.0990    -0.6710 C.3   1 <1>  -0.0970 
 25 C       -4.7370     1.6170    -2.9580 C.3   1 <1>  -0.2400 
 26 C        6.3520     0.1250    -2.0940 C.ar  1 <1>  -0.1430 
 27 C        7.4160    -0.3720    -3.0560 C.3   1 <1>  -0.0970 
 28 H       -0.4760    -0.9630     3.8090 H     1 <1>   0.0800 
 29 H       -1.5520     0.1620     3.0260 H     1 <1>   0.0800 
 30 H       -0.3730     0.7380     4.1770 H     1 <1>   0.0800 
 31 H        2.0550     2.7350     2.5140 H     1 <1>   0.0800 
 32 H        1.1810     3.8000     1.4640 H     1 <1>   0.0800 
 33 H        0.0690     1.4590    -0.9880 H     1 <1>   0.1500 
 34 H       -1.8230     3.0760     2.4600 H     1 <1>   0.1500 
 35 H       -1.8490     2.0680    -2.3500 H     1 <1>   0.1500 
 36 H       -3.7800     3.6950     1.0920 H     1 <1>   0.1500 
 37 H        3.2030     0.8150     1.3320 H     1 <1>   0.3700 
 38 H       -3.3590     3.2760    -3.2930 H     1 <1>   0.0800 
 39 H       -5.0300     3.7390    -3.1060 H     1 <1>   0.0800 
 40 H        7.3320     1.9750    -1.7180 H     1 <1>   0.1500 
 41 H        5.4710     3.1650     1.0680 H     1 <1>   0.0800 
 42 H        5.0820     3.9220    -0.4620 H     1 <1>   0.0800 
 43 H        6.7350     3.5200    -0.0740 H     1 <1>   0.0800 
 44 H        5.1470    -1.6180    -2.2800 H     1 <1>   0.1500 
 45 H        3.1150    -2.0110    -1.2360 H     1 <1>   0.0800 
 46 H        3.0100    -1.3510     0.3730 H     1 <1>   0.0800 
 47 H        2.1590    -0.5840    -0.9500 H     1 <1>   0.0800 
 48 H       -3.9960     0.9220    -2.6110 H     1 <1>   0.0800 
 49 H       -4.9150     1.4330    -4.0020 H     1 <1>   0.0800 
 50 H       -5.6550     1.4550    -2.4220 H     1 <1>   0.0800 
 51 H        7.1650    -0.0730    -4.0580 H     1 <1>   0.0800 
 52 H        7.4850    -1.4440    -3.0190 H     1 <1>   0.0800 
 53 H        8.3750     0.0390    -2.8000 H     1 <1>   0.0800 
@<TRIPOS>BOND
  1   1   2  2   
  2   1   3  2   
  3   1   4  am  
  4   1   5  1   
  5   4   6  1   
  6   4   7  1   
  7   5  28  1   
  8   5  29  1   
  9   5  30  1   
 10   6   8  ar  
 11   6   9  ar  
 12   7  10  1   
 13   7  31  1   
 14   7  32  1   
 15   8  11  ar  
 16   8  33  1   
 17   9  12  ar  
 18   9  34  1   
 19  10  13  2   
 20  10  14  am  
 21  11  15  ar  
 22  11  35  1   
 23  12  15  ar  
 24  12  36  1   
 25  14  16  1   
 26  14  37  1   
 27  15  17  1   
 28  16  18  ar  
 29  16  19  ar  
 30  17  20  1   
 31  18  21  ar  
 32  18  22  1   
 33  19  23  ar  
 34  19  24  1   
 35  20  25  1   
 36  20  38  1   
 37  20  39  1   
 38  21  26  ar  
 39  21  40  1   
 40  22  41  1   
 41  22  42  1   
 42  22  43  1   
 43  23  26  ar  
 44  23  44  1   
 45  24  45  1   
 46  24  46  1   
 47  24  47  1   
 48  25  48  1   
 49  25  49  1   
 50  25  50  1   
 51  26  27  1   
 52  27  51  1   
 53  27  52  1   
 54  27  53  1   
@<TRIPOS>SUBSTRUCTURE
  1 ****  10 GROUP 4 **** **** 0

# MOE 2024.06 (io_trps.svl 2023.06)
