@<TRIPOS>MOLECULE
NONAME
35 37 1 0 0 
SMALL
USER_CHARGES


@<TRIPOS>ATOM
  1 N       -0.3420     0.0460     0.0510 N.ar  1 <1>  -0.6200 
  2 C       -1.4890     0.6880     0.1550 C.ar  1 <1>   0.4100 
  3 C       -0.4190    -1.2630    -0.0490 C.ar  1 <1>   0.4760 
  4 N       -1.4530     2.0660     0.2530 N.pl3 1 <1>  -0.8380 
  5 C       -2.6790    -0.0080     0.1750 C.ar  1 <1>  -0.1500 
  6 N       -1.5000    -2.0150    -0.0530 N.ar  1 <1>  -0.6200 
  7 C        0.9000    -1.9860    -0.1770 C.3   1 <1>  -0.0970 
  8 C       -2.5350     2.9420    -0.2500 C.3   1 <1>   0.2090 
  9 C       -0.1710     2.8080     0.3180 C.3   1 <1>   0.2090 
 10 C       -2.6580    -1.3780     0.0710 C.ar  1 <1>   0.3100 
 11 C       -1.8360     4.2240    -0.6880 C.3   1 <1>  -0.1600 
 12 C       -0.5580     4.2700     0.1430 C.3   1 <1>  -0.1600 
 13 C       -3.8840    -2.1510     0.0900 C.ar  1 <1>   0.0000 
 14 C       -4.1030    -3.1730    -0.8320 C.ar  1 <1>  -0.1500 
 15 C       -4.8880    -1.8990     1.0260 C.ar  1 <1>  -0.1500 
 16 C       -5.2770    -3.9050    -0.8310 C.ar  1 <1>  -0.1500 
 17 C       -6.0640    -2.6270     1.0310 C.ar  1 <1>  -0.1500 
 18 C       -6.2620    -3.6310     0.1000 C.ar  1 <1>  -0.1500 
 19 H       -3.6060     0.5140     0.2740 H     1 <1>   0.1500 
 20 H        1.5440    -1.7000     0.6330 H     1 <1>   0.0800 
 21 H        1.3630    -1.7180    -1.1070 H     1 <1>   0.0800 
 22 H        0.7530    -3.0490    -0.1490 H     1 <1>   0.0800 
 23 H       -3.2220     3.1460     0.5530 H     1 <1>   0.0800 
 24 H       -3.0580     2.4850    -1.0730 H     1 <1>   0.0800 
 25 H        0.4670     2.4900    -0.4900 H     1 <1>   0.0800 
 26 H        0.3230     2.6320     1.2590 H     1 <1>   0.0800 
 27 H       -2.4570     5.0890    -0.5370 H     1 <1>   0.0800 
 28 H       -1.5890     4.1450    -1.7320 H     1 <1>   0.0800 
 29 H        0.2230     4.8350    -0.3310 H     1 <1>   0.0800 
 30 H       -0.7640     4.6920     1.1110 H     1 <1>   0.0800 
 31 H       -3.3380    -3.3930    -1.5560 H     1 <1>   0.1500 
 32 H       -4.7440    -1.1290     1.7620 H     1 <1>   0.1500 
 33 H       -5.4220    -4.6880    -1.5550 H     1 <1>   0.1500 
 34 H       -6.8260    -2.4160     1.7610 H     1 <1>   0.1500 
 35 H       -7.1760    -4.1990     0.1030 H     1 <1>   0.1500 
@<TRIPOS>BOND
  1   1   2  ar  
  2   1   3  ar  
  3   2   4  1   
  4   2   5  ar  
  5   3   6  ar  
  6   3   7  1   
  7   4   8  1   
  8   4   9  1   
  9   5  10  ar  
 10   5  19  1   
 11   6  10  ar  
 12   7  20  1   
 13   7  21  1   
 14   7  22  1   
 15   8  11  1   
 16   8  23  1   
 17   8  24  1   
 18   9  12  1   
 19   9  25  1   
 20   9  26  1   
 21  10  13  1   
 22  11  12  1   
 23  11  27  1   
 24  11  28  1   
 25  12  29  1   
 26  12  30  1   
 27  13  14  ar  
 28  13  15  ar  
 29  14  16  ar  
 30  14  31  1   
 31  15  17  ar  
 32  15  32  1   
 33  16  18  ar  
 34  16  33  1   
 35  17  18  ar  
 36  17  34  1   
 37  18  35  1   
@<TRIPOS>SUBSTRUCTURE
  1 ****   5 GROUP 4 **** **** 0

# MOE 2024.06 (io_trps.svl 2023.06)
