@<TRIPOS>MOLECULE
NONAME
30 31 1 0 0 
SMALL
USER_CHARGES


@<TRIPOS>ATOM
  1 O        4.8430    -2.7630     0.0920 O.3   1 <1>  -0.5320 
  2 C        3.5050    -2.7130     0.0490 C.ar  1 <1>   0.0830 
  3 C        2.7700    -3.6510     0.7500 C.ar  1 <1>  -0.1500 
  4 C        2.8610    -1.7330    -0.6870 C.ar  1 <1>  -0.1500 
  5 C        1.3880    -3.6100     0.7130 C.ar  1 <1>  -0.1500 
  6 C        1.4790    -1.7010    -0.7190 C.ar  1 <1>  -0.1500 
  7 C        0.7120    -2.6370    -0.0240 C.ar  1 <1>   0.0280 
  8 C       -0.7330    -2.5830    -0.0780 C.2   1 <1>  -0.1670 
  9 C       -1.4560    -1.4560     0.0500 C.2   1 <1>  -0.2880 
 10 C       -1.4420    -3.9120    -0.3150 C.3   1 <1>  -0.0220 
 11 C       -2.9660    -1.3540     0.0000 C.3   1 <1>   0.4810 
 12 C       -2.9080    -3.7090    -0.7160 C.3   1 <1>   0.3430 
 13 N       -3.5520    -2.7100     0.1920 N.4   1 <1>  -0.9590 
 14 C       -5.0370    -2.6930     0.0410 C.3   1 <1>   0.2630 
 15 H        5.2760    -2.0640    -0.4280 H     1 <1>   0.4500 
 16 H        3.2860    -4.4030     1.3200 H     1 <1>   0.1500 
 17 H        3.4280    -1.0020    -1.2330 H     1 <1>   0.1500 
 18 H        0.8380    -4.3420     1.2740 H     1 <1>   0.1500 
 19 H        0.9870    -0.9410    -1.2970 H     1 <1>   0.1500 
 20 H       -0.9890    -0.4970     0.2010 H     1 <1>   0.1500 
 21 H       -1.3970    -4.5160     0.5730 H     1 <1>   0.0800 
 22 H       -0.9440    -4.4500    -1.1030 H     1 <1>   0.0800 
 23 H       -3.2680    -0.9430    -0.9500 H     1 <1>   0.0800 
 24 H       -3.3090    -0.6980     0.7840 H     1 <1>   0.0800 
 25 H       -3.4240    -4.6540    -0.6630 H     1 <1>   0.0800 
 26 H       -2.9520    -3.3530    -1.7320 H     1 <1>   0.0800 
 27 H       -3.3050    -2.9830     1.1530 H     1 <1>   0.4500 
 28 H       -5.3100    -2.4020    -0.9610 H     1 <1>   0.0800 
 29 H       -5.4770    -1.9950     0.7360 H     1 <1>   0.0800 
 30 H       -5.4440    -3.6720     0.2370 H     1 <1>   0.0800 
@<TRIPOS>BOND
  1   1   2  1   
  2   1  15  1   
  3   2   3  ar  
  4   2   4  ar  
  5   3   5  ar  
  6   3  16  1   
  7   4   6  ar  
  8   4  17  1   
  9   5   7  ar  
 10   5  18  1   
 11   6   7  ar  
 12   6  19  1   
 13   7   8  1   
 14   8   9  2   
 15   8  10  1   
 16   9  11  1   
 17   9  20  1   
 18  10  12  1   
 19  10  21  1   
 20  10  22  1   
 21  11  13  1   
 22  11  23  1   
 23  11  24  1   
 24  12  13  1   
 25  12  25  1   
 26  12  26  1   
 27  13  14  1   
 28  13  27  1   
 29  14  28  1   
 30  14  29  1   
 31  14  30  1   
@<TRIPOS>SUBSTRUCTURE
  1 ****   8 GROUP 4 **** **** 0

# MOE 2024.06 (io_trps.svl 2023.06)
