@<TRIPOS>MOLECULE
NONAME
43 45 1 0 0 
SMALL
USER_CHARGES


@<TRIPOS>ATOM
  1 CL       2.4430    -3.1080     0.3800 Cl    1 <1>  -0.1770 
  2 C        3.4770    -1.7880    -0.0980 C.ar  1 <1>   0.1770 
  3 C        4.5410    -1.4330     0.7060 C.ar  1 <1>  -0.1500 
  4 C        3.2190    -1.1140    -1.2760 C.ar  1 <1>  -0.1500 
  5 C        5.3580    -0.3820     0.3210 C.ar  1 <1>  -0.1500 
  6 C        4.0430    -0.0650    -1.6490 C.ar  1 <1>  -0.1500 
  7 C        5.1230     0.3200    -0.8580 C.ar  1 <1>  -0.0090 
  8 S        6.2010     1.6980    -1.3430 S.o2  1 <1>   1.4470 
  9 O        5.6100     2.4530    -2.4260 O.2   1 <1>  -0.6500 
 10 O        7.5590     1.2190    -1.4780 O.2   1 <1>  -0.6500 
 11 N        6.1780     2.7000     0.0180 N.am  1 <1>  -0.8490 
 12 C        7.2020     3.7750    -0.0430 C.3   1 <1>   0.3370 
 13 C        4.8780     3.3070     0.2910 C.3   1 <1>   0.1960 
 14 C        8.4720     3.4490     0.7970 C.2   1 <1>   0.5690 
 15 C        6.4670     5.0590     0.3840 C.3   1 <1>  -0.1600 
 16 C        5.1970     4.5720     1.0610 C.3   1 <1>  -0.1600 
 17 O        8.8550     4.2050     1.6620 O.2   1 <1>  -0.5700 
 18 N        9.1700     2.3150     0.5300 N.am  1 <1>  -0.7300 
 19 C       10.4310     1.9060     1.1950 C.3   1 <1>   0.2840 
 20 C       11.6320     2.2300     0.3180 C.ar  1 <1>   0.1670 
 21 N       12.2230     1.2160    -0.3020 N.ar  1 <1>  -0.6200 
 22 C       12.0460     3.5500     0.2110 C.ar  1 <1>  -0.1500 
 23 C       13.2610     1.5340    -1.0590 C.ar  1 <1>   0.1600 
 24 C       13.1310     3.8650    -0.5790 C.ar  1 <1>  -0.1500 
 25 C       13.7480     2.8190    -1.2290 C.ar  1 <1>  -0.1500 
 26 H        4.7270    -1.9720     1.6180 H     1 <1>   0.1500 
 27 H        2.3850    -1.4100    -1.8880 H     1 <1>   0.1500 
 28 H        6.1910    -0.0990     0.9440 H     1 <1>   0.1500 
 29 H        3.8450     0.4620    -2.5690 H     1 <1>   0.1500 
 30 H        7.5300     3.9130    -1.0600 H     1 <1>   0.0800 
 31 H        4.2510     2.6400     0.8580 H     1 <1>   0.0800 
 32 H        4.3790     3.5740    -0.6270 H     1 <1>   0.0800 
 33 H        6.2130     5.6160    -0.5010 H     1 <1>   0.0800 
 34 H        7.0440     5.7000     1.0250 H     1 <1>   0.0800 
 35 H        5.3940     4.3250     2.0900 H     1 <1>   0.0800 
 36 H        4.3980     5.2910     1.0100 H     1 <1>   0.0800 
 37 H        8.8800     1.7190    -0.2610 H     1 <1>   0.3700 
 38 H       10.4010     0.8480     1.3910 H     1 <1>   0.0800 
 39 H       10.5310     2.4160     2.1370 H     1 <1>   0.0800 
 40 H       11.5160     4.3220     0.7410 H     1 <1>   0.1500 
 41 H       13.7500     0.7260    -1.5740 H     1 <1>   0.1500 
 42 H       13.4750     4.8800    -0.6830 H     1 <1>   0.1500 
 43 H       14.5990     2.9940    -1.8620 H     1 <1>   0.1500 
@<TRIPOS>BOND
  1   1   2  1   
  2   2   3  ar  
  3   2   4  ar  
  4   3   5  ar  
  5   3  26  1   
  6   4   6  ar  
  7   4  27  1   
  8   5   7  ar  
  9   5  28  1   
 10   6   7  ar  
 11   6  29  1   
 12   7   8  1   
 13   8   9  2   
 14   8  10  2   
 15   8  11  am  
 16  11  12  1   
 17  11  13  1   
 18  12  14  1   
 19  12  15  1   
 20  12  30  1   
 21  13  16  1   
 22  13  31  1   
 23  13  32  1   
 24  14  17  2   
 25  14  18  am  
 26  15  16  1   
 27  15  33  1   
 28  15  34  1   
 29  16  35  1   
 30  16  36  1   
 31  18  19  1   
 32  18  37  1   
 33  19  20  1   
 34  19  38  1   
 35  19  39  1   
 36  20  21  ar  
 37  20  22  ar  
 38  21  23  ar  
 39  22  24  ar  
 40  22  40  1   
 41  23  25  ar  
 42  23  41  1   
 43  24  25  ar  
 44  24  42  1   
 45  25  43  1   
@<TRIPOS>SUBSTRUCTURE
  1 ****  10 GROUP 4 **** **** 0

# MOE 2024.06 (io_trps.svl 2023.06)
