@<TRIPOS>MOLECULE
NONAME
31 32 1 0 0 
SMALL
USER_CHARGES


@<TRIPOS>ATOM
  1 O       -0.2160    -0.2830    -0.0920 O.3   1 <1>  -0.5600 
  2 C        1.1560    -0.1130     0.1550 C.3   1 <1>   0.9010 
  3 C       -0.6430    -1.3470    -0.8970 C.3   1 <1>   0.0400 
  4 O        1.3640    -0.4020     1.5040 O.3   1 <1>  -0.5600 
  5 N        2.0160    -0.9610    -0.6760 N.2   1 <1>  -0.6960 
  6 C        1.6550     1.3120    -0.1610 C.3   1 <1>   0.0100 
  7 C        1.0730    -1.6960     1.9480 C.3   1 <1>   0.0400 
  8 C        3.0670    -0.3070    -0.8880 C.2   1 <1>   0.5000 
  9 C        0.9360     1.6690    -1.4260 C.1   1 <1>   0.4520 
 10 C        3.1570     0.9840    -0.1090 C.3   1 <1>   0.1050 
 11 C        2.6760     2.3800     0.1060 C.3   1 <1>  -0.1900 
 12 N        4.0550    -0.7470    -1.7080 N.pl3 1 <1>  -0.8500 
 13 N        0.4470     1.9720    -2.4090 N.1   1 <1>  -0.5570 
 14 C        4.0690     0.6100     1.0180 C.1   1 <1>   0.4520 
 15 C        3.1460     3.4250    -0.9270 C.3   1 <1>  -0.1450 
 16 C        2.5800     3.0340     1.5000 C.3   1 <1>  -0.1450 
 17 N        4.8100     0.3470     1.8420 N.1   1 <1>  -0.5570 
 18 H       -0.2810    -1.1990    -1.9000 H     1 <1>   0.0800 
 19 H       -1.7190    -1.3520    -0.9020 H     1 <1>   0.0800 
 20 H       -0.2760    -2.2750    -0.4960 H     1 <1>   0.0800 
 21 H        1.6400    -2.4140     1.3810 H     1 <1>   0.0800 
 22 H        0.0180    -1.8790     1.8490 H     1 <1>   0.0800 
 23 H        1.3510    -1.7600     2.9850 H     1 <1>   0.0800 
 24 H        3.9640    -1.6880    -2.0990 H     1 <1>   0.4000 
 25 H        4.9930    -0.3410    -1.7220 H     1 <1>   0.4000 
 26 H        3.2780     2.9910    -1.9040 H     1 <1>   0.0800 
 27 H        4.0900     3.8460    -0.6260 H     1 <1>   0.0800 
 28 H        2.4290     4.2240    -1.0060 H     1 <1>   0.0800 
 29 H        2.2350     2.3310     2.2400 H     1 <1>   0.0800 
 30 H        1.8840     3.8540     1.4770 H     1 <1>   0.0800 
 31 H        3.5390     3.4100     1.8110 H     1 <1>   0.0800 
@<TRIPOS>BOND
  1   1   2  1   
  2   1   3  1   
  3   2   4  1   
  4   2   5  1   
  5   2   6  1   
  6   3  18  1   
  7   3  19  1   
  8   3  20  1   
  9   4   7  1   
 10   5   8  2   
 11   6   9  1   
 12   6  10  1   
 13   6  11  1   
 14   7  21  1   
 15   7  22  1   
 16   7  23  1   
 17   8  10  1   
 18   8  12  1   
 19   9  13  3   
 20  10  11  1   
 21  10  14  1   
 22  11  15  1   
 23  11  16  1   
 24  12  24  1   
 25  12  25  1   
 26  14  17  3   
 27  15  26  1   
 28  15  27  1   
 29  15  28  1   
 30  16  29  1   
 31  16  30  1   
 32  16  31  1   
@<TRIPOS>SUBSTRUCTURE
  1 ****   6 GROUP 4 **** **** 0

# MOE 2024.06 (io_trps.svl 2023.06)
