@<TRIPOS>MOLECULE
NONAME
45 47 1 0 0 
SMALL
USER_CHARGES


@<TRIPOS>ATOM
  1 O        0.7990     0.8020    -3.1230 O.2   1 <1>  -0.5700 
  2 C        0.4340    -0.0130    -2.3080 C.2   1 <1>   0.5690 
  3 N        1.0530    -0.2390    -1.1150 N.am  1 <1>  -0.5470 
  4 C       -0.8100    -0.8580    -2.5970 C.3   1 <1>   0.1710 
  5 C        2.1070     0.3780    -0.4240 C.ar  1 <1>   0.1170 
  6 N       -1.3850    -1.5190    -1.3850 N.3   1 <1>  -0.8100 
  7 C        2.2280     0.1480     0.9510 C.ar  1 <1>   0.0830 
  8 C        3.0340     1.2000    -1.0540 C.ar  1 <1>  -0.1500 
  9 C       -2.3180    -2.6060    -1.7540 C.3   1 <1>   0.1100 
 10 C       -2.0970    -0.5460    -0.5180 C.3   1 <1>   0.1100 
 11 O        1.2940    -0.6640     1.5340 O.3   1 <1>  -0.3630 
 12 C        3.2660     0.7400     1.6660 C.ar  1 <1>  -0.1500 
 13 C        4.0630     1.7860    -0.3380 C.ar  1 <1>  -0.1500 
 14 C       -2.8730    -3.3370    -0.5170 C.3   1 <1>   0.2090 
 15 C       -2.6400    -1.2020     0.7650 C.3   1 <1>   0.2090 
 16 C        1.3490    -0.9830     2.9060 C.3   1 <1>   0.0400 
 17 C        4.1790     1.5560     1.0210 C.ar  1 <1>  -0.1500 
 18 N       -3.5060    -2.3820     0.4480 N.pl3 1 <1>  -0.8380 
 19 C       -4.6390    -2.6920     1.1720 C.ar  1 <1>   0.7200 
 20 N       -5.3100    -3.7890     0.8160 N.ar  1 <1>  -0.6200 
 21 N       -4.9700    -1.8720     2.1700 N.ar  1 <1>  -0.6200 
 22 C       -6.3840    -4.0710     1.5100 C.ar  1 <1>   0.1600 
 23 C       -6.0490    -2.1790     2.8480 C.ar  1 <1>   0.1600 
 24 C       -6.8050    -3.2860     2.5540 C.ar  1 <1>  -0.1500 
 25 H        0.5420    -0.9290    -0.5490 H     1 <1>   0.3700 
 26 H       -0.5160    -1.6120    -3.3050 H     1 <1>   0.0800 
 27 H       -1.5530    -0.2370    -3.0650 H     1 <1>   0.0800 
 28 H        2.9560     1.3840    -2.1100 H     1 <1>   0.1500 
 29 H       -1.8050    -3.3220    -2.3710 H     1 <1>   0.0800 
 30 H       -3.1440    -2.2060    -2.3180 H     1 <1>   0.0800 
 31 H       -2.9230    -0.1110    -1.0560 H     1 <1>   0.0800 
 32 H       -1.4320     0.2510    -0.2350 H     1 <1>   0.0800 
 33 H        3.3820     0.5810     2.7210 H     1 <1>   0.1500 
 34 H        4.7710     2.4200    -0.8420 H     1 <1>   0.1500 
 35 H       -2.0680    -3.8510    -0.0210 H     1 <1>   0.0800 
 36 H       -3.5790    -4.0770    -0.8510 H     1 <1>   0.0800 
 37 H       -3.1880    -0.4580     1.3160 H     1 <1>   0.0800 
 38 H       -1.8140    -1.5240     1.3740 H     1 <1>   0.0800 
 39 H        0.5290    -1.6410     3.1290 H     1 <1>   0.0800 
 40 H        1.2570    -0.0780     3.4800 H     1 <1>   0.0800 
 41 H        2.2810    -1.4790     3.1120 H     1 <1>   0.0800 
 42 H        4.9810     2.0130     1.5750 H     1 <1>   0.1500 
 43 H       -6.9420    -4.9510     1.2400 H     1 <1>   0.1500 
 44 H       -6.3360    -1.5300     3.6580 H     1 <1>   0.1500 
 45 H       -7.6870    -3.5270     3.1160 H     1 <1>   0.1500 
@<TRIPOS>BOND
  1   1   2  2   
  2   2   3  am  
  3   2   4  1   
  4   3   5  1   
  5   3  25  1   
  6   4   6  1   
  7   4  26  1   
  8   4  27  1   
  9   5   7  ar  
 10   5   8  ar  
 11   6   9  1   
 12   6  10  1   
 13   7  11  1   
 14   7  12  ar  
 15   8  13  ar  
 16   8  28  1   
 17   9  14  1   
 18   9  29  1   
 19   9  30  1   
 20  10  15  1   
 21  10  31  1   
 22  10  32  1   
 23  11  16  1   
 24  12  17  ar  
 25  12  33  1   
 26  13  17  ar  
 27  13  34  1   
 28  14  18  1   
 29  14  35  1   
 30  14  36  1   
 31  15  18  1   
 32  15  37  1   
 33  15  38  1   
 34  16  39  1   
 35  16  40  1   
 36  16  41  1   
 37  17  42  1   
 38  18  19  1   
 39  19  20  ar  
 40  19  21  ar  
 41  20  22  ar  
 42  21  23  ar  
 43  22  24  ar  
 44  22  43  1   
 45  23  24  ar  
 46  23  44  1   
 47  24  45  1   
@<TRIPOS>SUBSTRUCTURE
  1 ****  10 GROUP 4 **** **** 0

# MOE 2024.06 (io_trps.svl 2023.06)
