@<TRIPOS>MOLECULE
NONAME
42 43 1 0 0 
SMALL
USER_CHARGES


@<TRIPOS>ATOM
  1 O       -4.7240    -2.0450     0.9500 O.3   1 <1>  -0.2800 
  2 C       -5.7490    -2.3770     0.1880 C.2   1 <1>  -0.0400 
  3 C       -4.4560    -0.7740     0.7240 C.2   1 <1>  -0.0100 
  4 C       -6.1560    -1.3200    -0.5490 C.2   1 <1>  -0.1500 
  5 C       -6.2520    -3.8010     0.2580 C.3   1 <1>   0.5230 
  6 C       -5.3040    -0.2660    -0.1950 C.2   1 <1>  -0.1500 
  7 N       -5.0760    -4.6750     0.0700 N.4   1 <1>  -0.9060 
  8 C       -5.2780    -6.1150     0.3210 C.3   1 <1>   0.5660 
  9 C       -3.8960    -6.7430     0.2510 C.ar  1 <1>  -0.1430 
 10 C       -6.2600    -6.7580    -0.6750 C.3   1 <1>  -0.0220 
 11 C       -3.3160    -7.2150     1.4200 C.ar  1 <1>  -0.1500 
 12 C       -3.1890    -6.8470    -0.9440 C.ar  1 <1>  -0.1500 
 13 C       -7.7300    -6.4000    -0.4440 C.2   1 <1>  -0.2760 
 14 C       -2.0520    -7.7760     1.3970 C.ar  1 <1>  -0.1500 
 15 C       -1.9240    -7.4080    -0.9660 C.ar  1 <1>  -0.1500 
 16 C       -8.2810    -6.1260     0.7440 C.2   1 <1>  -0.3000 
 17 C       -8.5630    -6.4250    -1.7180 C.3   1 <1>  -0.1020 
 18 C       -1.3470    -7.8760     0.2100 C.ar  1 <1>   0.0830 
 19 O       -0.1160    -8.4360     0.2780 O.3   1 <1>  -0.3630 
 20 C        0.6780    -8.6230    -0.8730 C.3   1 <1>   0.0400 
 21 H       -3.6460    -0.3040     1.2570 H     1 <1>   0.1500 
 22 H       -6.9550    -1.2450    -1.2670 H     1 <1>   0.1500 
 23 H       -6.9920    -3.9770    -0.5050 H     1 <1>   0.0800 
 24 H       -6.6940    -3.9740     1.2250 H     1 <1>   0.0800 
 25 H       -5.3460     0.7350    -0.5910 H     1 <1>   0.1500 
 26 H       -4.3480    -4.3290     0.7080 H     1 <1>   0.4500 
 27 H       -4.6940    -4.5340    -0.8660 H     1 <1>   0.4500 
 28 H       -5.6600    -6.2570     1.3180 H     1 <1>   0.0800 
 29 H       -6.1730    -7.8290    -0.5990 H     1 <1>   0.0800 
 30 H       -5.9680    -6.4920    -1.6750 H     1 <1>   0.0800 
 31 H       -3.8320    -7.1580     2.3640 H     1 <1>   0.1500 
 32 H       -3.6030    -6.4990    -1.8750 H     1 <1>   0.1500 
 33 H       -1.5980    -8.1430     2.3010 H     1 <1>   0.1500 
 34 H       -1.4010    -7.4770    -1.9010 H     1 <1>   0.1500 
 35 H       -9.3270    -5.8940     0.8730 H     1 <1>   0.1500 
 36 H       -7.7760    -6.1260     1.6950 H     1 <1>   0.1500 
 37 H       -8.2020    -5.7030    -2.4280 H     1 <1>   0.0800 
 38 H       -9.5940    -6.2020    -1.5070 H     1 <1>   0.0800 
 39 H       -8.5220    -7.4020    -2.1690 H     1 <1>   0.0800 
 40 H        1.5970    -9.0930    -0.5710 H     1 <1>   0.0800 
 41 H        0.8860    -7.6640    -1.3140 H     1 <1>   0.0800 
 42 H        0.1520    -9.2600    -1.5610 H     1 <1>   0.0800 
@<TRIPOS>BOND
  1   1   2  1   
  2   1   3  1   
  3   2   4  2   
  4   2   5  1   
  5   3   6  2   
  6   3  21  1   
  7   4   6  1   
  8   4  22  1   
  9   5   7  1   
 10   5  23  1   
 11   5  24  1   
 12   6  25  1   
 13   7   8  1   
 14   7  26  1   
 15   7  27  1   
 16   8   9  1   
 17   8  10  1   
 18   8  28  1   
 19   9  11  ar  
 20   9  12  ar  
 21  10  13  1   
 22  10  29  1   
 23  10  30  1   
 24  11  14  ar  
 25  11  31  1   
 26  12  15  ar  
 27  12  32  1   
 28  13  16  2   
 29  13  17  1   
 30  14  18  ar  
 31  14  33  1   
 32  15  18  ar  
 33  15  34  1   
 34  16  35  1   
 35  16  36  1   
 36  17  37  1   
 37  17  38  1   
 38  17  39  1   
 39  18  19  1   
 40  19  20  1   
 41  20  40  1   
 42  20  41  1   
 43  20  42  1   
@<TRIPOS>SUBSTRUCTURE
  1 ****   7 GROUP 4 **** **** 0

# MOE 2024.06 (io_trps.svl 2023.06)
