@<TRIPOS>MOLECULE
NONAME
35 37 1 0 0 
SMALL
USER_CHARGES


@<TRIPOS>ATOM
  1 BR       0.5440     0.1660     1.9630 Br    1 <1>  -0.1110 
  2 C        2.1430     0.8580     1.1390 C.ar  1 <1>   0.1110 
  3 C        3.3560     0.7320     1.7890 C.ar  1 <1>   0.1600 
  4 C        2.0530     1.4700    -0.0900 C.ar  1 <1>  -0.1500 
  5 N        4.5030     1.1790     1.2940 N.ar  1 <1>  -0.6200 
  6 C        3.2430     1.9350    -0.6070 C.ar  1 <1>  -0.1500 
  7 C        4.4350     1.7710     0.1070 C.ar  1 <1>   0.4270 
  8 N        5.6670     2.2050    -0.3320 N.am  1 <1>  -0.5470 
  9 C        6.1010     2.7980    -1.4830 C.2   1 <1>   0.5690 
 10 O        5.3720     3.0620    -2.4060 O.2   1 <1>  -0.5700 
 11 C        7.5720     3.1600    -1.6110 C.3   1 <1>   0.1310 
 12 S        8.6330     2.1280    -0.4830 S.3   1 <1>  -0.2860 
 13 C       10.2710     2.8070    -0.7580 C.2   1 <1>   0.2430 
 14 N       10.5100     3.7890    -1.5510 N.2   1 <1>  -0.3380 
 15 N       11.3570     2.3340    -0.1480 N.pl3 1 <1>   0.0480 
 16 N       11.8280     4.0000    -1.4760 N.2   1 <1>  -0.3380 
 17 C       12.3110     3.1350    -0.6430 C.2   1 <1>   0.1020 
 18 C       11.4560     1.2250     0.8220 C.3   1 <1>   0.0160 
 19 C       13.7790     3.0280    -0.2640 C.3   1 <1>  -0.0150 
 20 C       14.2280     3.3870     1.1210 C.3   1 <1>  -0.2000 
 21 C       14.5880     4.2680    -0.0350 C.3   1 <1>  -0.2000 
 22 H        3.3810     0.2470     2.7490 H     1 <1>   0.1500 
 23 H        1.1150     1.5740    -0.6060 H     1 <1>   0.1500 
 24 H        3.2440     2.4230    -1.5620 H     1 <1>   0.1500 
 25 H        6.3920     1.9850     0.3480 H     1 <1>   0.3700 
 26 H        7.7290     4.1890    -1.3450 H     1 <1>   0.0800 
 27 H        7.9160     2.9880    -2.6140 H     1 <1>   0.0800 
 28 H       10.8440     0.4050     0.4930 H     1 <1>   0.0800 
 29 H       11.1150     1.5650     1.7830 H     1 <1>   0.0800 
 30 H       12.4760     0.8960     0.8990 H     1 <1>   0.0800 
 31 H       14.2730     2.2160    -0.7660 H     1 <1>   0.1000 
 32 H       15.0060     2.8050     1.5840 H     1 <1>   0.1000 
 33 H       13.5080     3.7580     1.8290 H     1 <1>   0.1000 
 34 H       14.0980     5.2210    -0.1420 H     1 <1>   0.1000 
 35 H       15.6050     4.2860    -0.3870 H     1 <1>   0.1000 
@<TRIPOS>BOND
  1   1   2  1   
  2   2   3  ar  
  3   2   4  ar  
  4   3   5  ar  
  5   3  22  1   
  6   4   6  ar  
  7   4  23  1   
  8   5   7  ar  
  9   6   7  ar  
 10   6  24  1   
 11   7   8  1   
 12   8   9  am  
 13   8  25  1   
 14   9  10  2   
 15   9  11  1   
 16  11  12  1   
 17  11  26  1   
 18  11  27  1   
 19  12  13  1   
 20  13  14  2   
 21  13  15  1   
 22  14  16  1   
 23  15  17  1   
 24  15  18  1   
 25  16  17  2   
 26  17  19  1   
 27  18  28  1   
 28  18  29  1   
 29  18  30  1   
 30  19  20  1   
 31  19  21  1   
 32  19  31  1   
 33  20  21  1   
 34  20  32  1   
 35  20  33  1   
 36  21  34  1   
 37  21  35  1   
@<TRIPOS>SUBSTRUCTURE
  1 ****  12 GROUP 4 **** **** 0

# MOE 2024.06 (io_trps.svl 2023.06)
