@<TRIPOS>MOLECULE
NONAME
55 57 1 0 0 
SMALL
USER_CHARGES


@<TRIPOS>ATOM
  1 S        2.2810    -2.9410     1.1370 S.o2  1 <1>   1.3330 
  2 O        1.9510    -3.3620     2.4760 O.2   1 <1>  -0.6500 
  3 O        3.1310    -1.8000     0.8920 O.2   1 <1>  -0.6500 
  4 N        3.1150    -4.3060     0.5150 N.am  1 <1>  -0.7570 
  5 C        0.8000    -2.8950     0.1190 C.3   1 <1>   0.0890 
  6 C        4.1630    -4.2670    -0.3960 C.ar  1 <1>   0.1990 
  7 C       -0.1560    -1.7620     0.4680 C.ar  1 <1>  -0.1440 
  8 C        5.2530    -5.1070    -0.2110 C.ar  1 <1>  -0.1500 
  9 C        4.1650    -3.4010    -1.4840 C.ar  1 <1>  -0.1500 
 10 C       -0.9170    -1.8270     1.6260 C.ar  1 <1>  -0.1500 
 11 C       -0.2720    -0.6580    -0.3630 C.ar  1 <1>  -0.1500 
 12 C        6.3500    -5.0530    -1.0520 C.ar  1 <1>  -0.1430 
 13 C        5.2430    -3.3340    -2.3480 C.ar  1 <1>  -0.1430 
 14 C       -1.7890    -0.8010     1.9460 C.ar  1 <1>  -0.1500 
 15 C       -1.1450     0.3680    -0.0430 C.ar  1 <1>  -0.1500 
 16 C        6.3550    -4.1370    -2.1010 C.ar  1 <1>   0.0830 
 17 C        7.5220    -5.9920    -0.7950 C.3   1 <1>  -0.0970 
 18 C        5.1740    -2.3860    -3.5380 C.3   1 <1>  -0.0970 
 19 C       -1.9040     0.2960     1.1120 C.ar  1 <1>  -0.1500 
 20 O        7.4540    -4.0310    -2.8860 O.3   1 <1>  -0.3630 
 21 C        8.3410    -2.9500    -2.6120 C.3   1 <1>   0.1810 
 22 C        9.0500    -3.0760    -1.2610 C.2   1 <1>   0.5690 
 23 O       10.0590    -3.7450    -1.2370 O.2   1 <1>  -0.5700 
 24 N        8.6030    -2.4320    -0.1280 N.am  1 <1>  -0.6600 
 25 C        7.3630    -1.5960    -0.0110 C.3   1 <1>   0.1400 
 26 C        9.3580    -2.5260     1.1590 C.3   1 <1>   0.1400 
 27 C        6.5500    -1.9640     1.2440 C.3   1 <1>   0.1200 
 28 C        8.4180    -2.8710     2.3230 C.3   1 <1>   0.1200 
 29 O        7.3630    -1.9570     2.3830 O.3   1 <1>  -0.5600 
 30 H        3.1920    -4.9910     1.2620 H     1 <1>   0.4200 
 31 H        1.0820    -2.8050    -0.9110 H     1 <1>   0.0800 
 32 H        0.2750    -3.8240     0.2240 H     1 <1>   0.0800 
 33 H        5.2470    -5.8000     0.6090 H     1 <1>   0.1500 
 34 H        3.3170    -2.7670    -1.6540 H     1 <1>   0.1500 
 35 H       -0.8330    -2.6710     2.2900 H     1 <1>   0.1500 
 36 H        0.3140    -0.5840    -1.2620 H     1 <1>   0.1500 
 37 H       -2.3750    -0.8560     2.8470 H     1 <1>   0.1500 
 38 H       -1.2330     1.2230    -0.6900 H     1 <1>   0.1500 
 39 H        8.0590    -6.1950    -1.7040 H     1 <1>   0.0800 
 40 H        7.1760    -6.9280    -0.3970 H     1 <1>   0.0800 
 41 H        8.2010    -5.5470    -0.0900 H     1 <1>   0.0800 
 42 H        4.1560    -2.2610    -3.8600 H     1 <1>   0.0800 
 43 H        5.7360    -2.7790    -4.3670 H     1 <1>   0.0800 
 44 H        5.5700    -1.4240    -3.2690 H     1 <1>   0.0800 
 45 H       -2.5820     1.0940     1.3610 H     1 <1>   0.1500 
 46 H        7.8010    -2.0280    -2.6810 H     1 <1>   0.0800 
 47 H        9.0860    -2.9590    -3.3850 H     1 <1>   0.0800 
 48 H        6.7330    -1.7110    -0.8700 H     1 <1>   0.0800 
 49 H        7.6450    -0.5600     0.0560 H     1 <1>   0.0800 
 50 H        9.8350    -1.5820     1.3590 H     1 <1>   0.0800 
 51 H       10.1270    -3.2770     1.0980 H     1 <1>   0.0800 
 52 H        6.1130    -2.9400     1.1410 H     1 <1>   0.0800 
 53 H        5.7580    -1.2520     1.3970 H     1 <1>   0.0800 
 54 H        8.9490    -2.8220     3.2570 H     1 <1>   0.0800 
 55 H        8.0140    -3.8620     2.2040 H     1 <1>   0.0800 
@<TRIPOS>BOND
  1   1   2  2   
  2   1   3  2   
  3   1   4  am  
  4   1   5  1   
  5   4   6  1   
  6   4  30  1   
  7   5   7  1   
  8   5  31  1   
  9   5  32  1   
 10   6   8  ar  
 11   6   9  ar  
 12   7  10  ar  
 13   7  11  ar  
 14   8  12  ar  
 15   8  33  1   
 16   9  13  ar  
 17   9  34  1   
 18  10  14  ar  
 19  10  35  1   
 20  11  15  ar  
 21  11  36  1   
 22  12  16  ar  
 23  12  17  1   
 24  13  16  ar  
 25  13  18  1   
 26  14  19  ar  
 27  14  37  1   
 28  15  19  ar  
 29  15  38  1   
 30  16  20  1   
 31  17  39  1   
 32  17  40  1   
 33  17  41  1   
 34  18  42  1   
 35  18  43  1   
 36  18  44  1   
 37  19  45  1   
 38  20  21  1   
 39  21  22  1   
 40  21  46  1   
 41  21  47  1   
 42  22  23  2   
 43  22  24  am  
 44  24  25  1   
 45  24  26  1   
 46  25  27  1   
 47  25  48  1   
 48  25  49  1   
 49  26  28  1   
 50  26  50  1   
 51  26  51  1   
 52  27  29  1   
 53  27  52  1   
 54  27  53  1   
 55  28  29  1   
 56  28  54  1   
 57  28  55  1   
@<TRIPOS>SUBSTRUCTURE
  1 ****   9 GROUP 4 **** **** 0

# MOE 2024.06 (io_trps.svl 2023.06)
