@<TRIPOS>MOLECULE
NONAME
33 33 1 0 0 
SMALL
USER_CHARGES


@<TRIPOS>ATOM
  1 I       -0.7600     2.5850     3.3550 I     1 <1>  -0.0810 
  2 C       -1.1140     2.8700     1.2660 C.ar  1 <1>   0.0810 
  3 C       -0.0480     3.0240     0.3850 C.ar  1 <1>   0.0830 
  4 C       -2.4320     2.8930     0.8530 C.ar  1 <1>  -0.1500 
  5 O        1.2240     2.9910     0.8650 O.3   1 <1>  -0.3630 
  6 C       -0.3520     3.2060    -0.9600 C.ar  1 <1>  -0.1500 
  7 C       -2.7340     3.0780    -0.4910 C.ar  1 <1>  -0.0090 
  8 C        2.3420     3.1250     0.0150 C.3   1 <1>   0.0400 
  9 C       -1.6740     3.2300    -1.3810 C.ar  1 <1>  -0.1500 
 10 S       -4.4570     3.1060    -1.0560 S.o2  1 <1>   1.4470 
 11 O       -4.5230     3.7060    -2.3690 O.2   1 <1>  -0.6500 
 12 O       -5.0490     1.8120    -0.8110 O.2   1 <1>  -0.6500 
 13 N       -5.1450     4.2610    -0.0480 N.am  1 <1>  -0.9140 
 14 C       -6.5550     4.2260     0.2380 C.3   1 <1>   0.3560 
 15 C       -6.8690     5.5990     0.8280 C.3   1 <1>  -0.2400 
 16 C       -7.4020     4.0300    -1.0220 C.3   1 <1>  -0.2400 
 17 C       -6.8560     3.1660     1.2990 C.3   1 <1>  -0.2400 
 18 H       -3.2280     2.7680     1.5670 H     1 <1>   0.1500 
 19 H        0.4220     3.3290    -1.6950 H     1 <1>   0.1500 
 20 H        3.2280     3.0610     0.6200 H     1 <1>   0.0800 
 21 H        2.3000     4.0840    -0.4700 H     1 <1>   0.0800 
 22 H        2.3320     2.3260    -0.7050 H     1 <1>   0.0800 
 23 H       -1.8870     3.3710    -2.4290 H     1 <1>   0.1500 
 24 H       -5.0040     5.1190    -0.5720 H     1 <1>   0.4200 
 25 H       -6.2770     5.7750     1.7090 H     1 <1>   0.0800 
 26 H       -7.9060     5.6570     1.1070 H     1 <1>   0.0800 
 27 H       -6.6750     6.3780     0.1130 H     1 <1>   0.0800 
 28 H       -7.1370     4.7460    -1.7800 H     1 <1>   0.0800 
 29 H       -8.4430     4.1600    -0.7870 H     1 <1>   0.0800 
 30 H       -7.2900     3.0370    -1.4190 H     1 <1>   0.0800 
 31 H       -6.2010     3.2830     2.1430 H     1 <1>   0.0800 
 32 H       -6.7500     2.1720     0.9080 H     1 <1>   0.0800 
 33 H       -7.8700     3.2650     1.6400 H     1 <1>   0.0800 
@<TRIPOS>BOND
  1   1   2  1   
  2   2   3  ar  
  3   2   4  ar  
  4   3   5  1   
  5   3   6  ar  
  6   4   7  ar  
  7   4  18  1   
  8   5   8  1   
  9   6   9  ar  
 10   6  19  1   
 11   7   9  ar  
 12   7  10  1   
 13   8  20  1   
 14   8  21  1   
 15   8  22  1   
 16   9  23  1   
 17  10  11  2   
 18  10  12  2   
 19  10  13  am  
 20  13  14  1   
 21  13  24  1   
 22  14  15  1   
 23  14  16  1   
 24  14  17  1   
 25  15  25  1   
 26  15  26  1   
 27  15  27  1   
 28  16  28  1   
 29  16  29  1   
 30  16  30  1   
 31  17  31  1   
 32  17  32  1   
 33  17  33  1   
@<TRIPOS>SUBSTRUCTURE
  1 ****   7 GROUP 4 **** **** 0

# MOE 2024.06 (io_trps.svl 2023.06)
