@<TRIPOS>MOLECULE
NONAME
38 39 1 0 0 
SMALL
USER_CHARGES


@<TRIPOS>ATOM
  1 S       -0.2070    -0.0550    -0.2920 S.3   1 <1>  -0.3320 
  2 C       -1.7340     0.8730    -0.3040 C.ar  1 <1>   0.7220 
  3 C        1.1310     1.1700    -0.6580 C.3   1 <1>   0.0700 
  4 N       -2.8120     0.2080    -0.0570 N.ar  1 <1>  -0.6200 
  5 N       -1.6060     2.1870    -0.5660 N.ar  1 <1>  -0.6200 
  6 C        1.4800     1.9170     0.6300 C.3   1 <1>  -0.0990 
  7 C       -3.9580     0.9190    -0.0620 C.ar  1 <1>   0.3100 
  8 C       -2.6950     2.8770    -0.5680 C.ar  1 <1>   0.1670 
  9 C        2.5680     2.9320     0.3720 C.2   1 <1>   0.6590 
 10 C       -3.9580     2.2970    -0.3180 C.ar  1 <1>   0.0000 
 11 C       -5.1740     0.2720     0.1940 C.ar  1 <1>  -0.1500 
 12 C       -2.5680     4.3620    -0.8520 C.3   1 <1>  -0.0960 
 13 O        2.3580     4.1150     0.4300 O.2   1 <1>  -0.5700 
 14 O        3.7620     2.4370     0.0730 O.3   1 <1>  -0.4300 
 15 C       -5.1940     2.9780    -0.3050 C.ar  1 <1>  -0.1500 
 16 C       -6.3680     0.9480     0.2020 C.ar  1 <1>  -0.1430 
 17 C        4.8660     3.2780    -0.1910 C.3   1 <1>   0.0400 
 18 C       -6.3760     2.3290    -0.0520 C.ar  1 <1>  -0.1430 
 19 C       -7.6580     0.1910     0.4870 C.3   1 <1>  -0.0970 
 20 C       -7.6810     3.1130    -0.0510 C.3   1 <1>  -0.0970 
 21 H        0.7760     1.8320    -1.4280 H     1 <1>   0.0800 
 22 H        1.9740     0.6090    -1.0240 H     1 <1>   0.0800 
 23 H        1.8220     1.2230     1.3750 H     1 <1>   0.0800 
 24 H        0.6150     2.4280     1.0070 H     1 <1>   0.0800 
 25 H       -5.1320    -0.7840     0.3840 H     1 <1>   0.1500 
 26 H       -1.5370     4.6300    -1.0020 H     1 <1>   0.0800 
 27 H       -2.9460     4.9290    -0.0210 H     1 <1>   0.0800 
 28 H       -3.1190     4.6150    -1.7390 H     1 <1>   0.0800 
 29 H       -5.2000     4.0340    -0.5000 H     1 <1>   0.1500 
 30 H        5.7210     2.6630    -0.4060 H     1 <1>   0.0800 
 31 H        5.0540     3.8870     0.6760 H     1 <1>   0.0800 
 32 H        4.6330     3.9010    -1.0370 H     1 <1>   0.0800 
 33 H       -7.4620    -0.8520     0.6580 H     1 <1>   0.0800 
 34 H       -8.3280     0.2740    -0.3500 H     1 <1>   0.0800 
 35 H       -8.1360     0.5910     1.3630 H     1 <1>   0.0800 
 36 H       -7.5090     4.1530    -0.2630 H     1 <1>   0.0800 
 37 H       -8.1550     3.0400     0.9110 H     1 <1>   0.0800 
 38 H       -8.3470     2.7230    -0.8000 H     1 <1>   0.0800 
@<TRIPOS>BOND
  1   1   2  1   
  2   1   3  1   
  3   2   4  ar  
  4   2   5  ar  
  5   3   6  1   
  6   3  21  1   
  7   3  22  1   
  8   4   7  ar  
  9   5   8  ar  
 10   6   9  1   
 11   6  23  1   
 12   6  24  1   
 13   7  10  ar  
 14   7  11  ar  
 15   8  10  ar  
 16   8  12  1   
 17   9  13  2   
 18   9  14  1   
 19  10  15  ar  
 20  11  16  ar  
 21  11  25  1   
 22  12  26  1   
 23  12  27  1   
 24  12  28  1   
 25  14  17  1   
 26  15  18  ar  
 27  15  29  1   
 28  16  18  ar  
 29  16  19  1   
 30  17  30  1   
 31  17  31  1   
 32  17  32  1   
 33  18  20  1   
 34  19  33  1   
 35  19  34  1   
 36  19  35  1   
 37  20  36  1   
 38  20  37  1   
 39  20  38  1   
@<TRIPOS>SUBSTRUCTURE
  1 ****   5 GROUP 4 **** **** 0

# MOE 2024.06 (io_trps.svl 2023.06)
