@<TRIPOS>MOLECULE
NONAME
47 48 1 0 0 
SMALL
USER_CHARGES


@<TRIPOS>ATOM
  1 O       -0.9480     1.1630    -1.3440 O.2   1 <1>  -0.5700 
  2 C       -0.9350     2.0530    -0.4830 C.2   1 <1>   0.6160 
  3 N        0.0270     3.0100    -0.3130 N.am  1 <1>  -0.1570 
  4 C       -1.9410     2.2580     0.4670 C.2   1 <1>  -0.1240 
  5 N       -0.4320     3.8350     0.7650 N.pl3 1 <1>  -0.4890 
  6 C        1.3970     2.7310    -0.4860 C.ar  1 <1>   0.1170 
  7 C       -1.6120     3.3450     1.2110 C.2   1 <1>  -0.0380 
  8 C       -3.1260     1.3340     0.5410 C.3   1 <1>   0.4810 
  9 C        0.2490     5.1200     1.0750 C.3   1 <1>   0.1290 
 10 C        1.9600     2.7660    -1.7560 C.ar  1 <1>  -0.1500 
 11 C        2.2120     2.4140     0.5970 C.ar  1 <1>  -0.1500 
 12 C       -2.3750     3.9860     2.3560 C.3   1 <1>  -0.1020 
 13 N       -4.2360     1.8460    -0.3180 N.4   1 <1>  -0.9590 
 14 C        3.3050     2.4990    -1.9410 C.ar  1 <1>  -0.1500 
 15 C        3.5570     2.1470     0.4150 C.ar  1 <1>  -0.1500 
 16 C       -5.5200     1.1820     0.0390 C.3   1 <1>   0.3430 
 17 C       -3.9040     1.6750    -1.7740 C.3   1 <1>   0.2630 
 18 C        4.1050     2.1910    -0.8550 C.ar  1 <1>  -0.1500 
 19 C       -6.7030     1.9720    -0.5220 C.3   1 <1>  -0.1600 
 20 C       -8.0310     1.3590    -0.0610 C.3   1 <1>  -0.1600 
 21 C       -9.2200     2.1490    -0.6150 C.3   1 <1>  -0.2400 
 22 H       -3.4550     1.2790     1.5660 H     1 <1>   0.0800 
 23 H       -2.8340     0.3440     0.2250 H     1 <1>   0.0800 
 24 H        1.2000     4.9240     1.5370 H     1 <1>   0.0800 
 25 H       -0.3490     5.7140     1.7410 H     1 <1>   0.0800 
 26 H        0.4100     5.6690     0.1630 H     1 <1>   0.0800 
 27 H        1.3390     3.0000    -2.6010 H     1 <1>   0.1500 
 28 H        1.7880     2.3750     1.5840 H     1 <1>   0.1500 
 29 H       -1.7480     4.0260     3.2300 H     1 <1>   0.0800 
 30 H       -3.2590     3.4260     2.5980 H     1 <1>   0.0800 
 31 H       -2.6620     4.9880     2.0930 H     1 <1>   0.0800 
 32 H       -4.3240     2.8530    -0.1230 H     1 <1>   0.4500 
 33 H        3.7290     2.5290    -2.9300 H     1 <1>   0.1500 
 34 H        4.1780     1.9030     1.2600 H     1 <1>   0.1500 
 35 H       -5.6180     1.1360     1.1120 H     1 <1>   0.0800 
 36 H       -5.5370     0.1730    -0.3430 H     1 <1>   0.0800 
 37 H       -3.7290     0.6350    -2.0010 H     1 <1>   0.0800 
 38 H       -3.0150     2.2290    -2.0260 H     1 <1>   0.0800 
 39 H       -4.7100     2.0340    -2.3930 H     1 <1>   0.0800 
 40 H        5.1520     1.9820    -0.9990 H     1 <1>   0.1500 
 41 H       -6.6790     1.9660    -1.5970 H     1 <1>   0.0800 
 42 H       -6.6550     2.9910    -0.1780 H     1 <1>   0.0800 
 43 H       -8.0860     1.3600     1.0160 H     1 <1>   0.0800 
 44 H       -8.1040     0.3380    -0.3980 H     1 <1>   0.0800 
 45 H       -9.1940     3.1690    -0.2740 H     1 <1>   0.0800 
 46 H      -10.1430     1.7060    -0.2810 H     1 <1>   0.0800 
 47 H       -9.2150     2.1420    -1.6910 H     1 <1>   0.0800 
@<TRIPOS>BOND
  1   1   2  2   
  2   2   3  am  
  3   2   4  1   
  4   3   5  1   
  5   3   6  1   
  6   4   7  2   
  7   4   8  1   
  8   5   7  1   
  9   5   9  1   
 10   6  10  ar  
 11   6  11  ar  
 12   7  12  1   
 13   8  13  1   
 14   8  22  1   
 15   8  23  1   
 16   9  24  1   
 17   9  25  1   
 18   9  26  1   
 19  10  14  ar  
 20  10  27  1   
 21  11  15  ar  
 22  11  28  1   
 23  12  29  1   
 24  12  30  1   
 25  12  31  1   
 26  13  16  1   
 27  13  17  1   
 28  13  32  1   
 29  14  18  ar  
 30  14  33  1   
 31  15  18  ar  
 32  15  34  1   
 33  16  19  1   
 34  16  35  1   
 35  16  36  1   
 36  17  37  1   
 37  17  38  1   
 38  17  39  1   
 39  18  40  1   
 40  19  20  1   
 41  19  41  1   
 42  19  42  1   
 43  20  21  1   
 44  20  43  1   
 45  20  44  1   
 46  21  45  1   
 47  21  46  1   
 48  21  47  1   
@<TRIPOS>SUBSTRUCTURE
  1 ****   4 GROUP 4 **** **** 0

# MOE 2024.06 (io_trps.svl 2023.06)
