@<TRIPOS>MOLECULE
NONAME
48 50 1 0 0 
SMALL
USER_CHARGES


@<TRIPOS>ATOM
  1 N       -0.1680     1.0100    -2.0160 N.1   1 <1>  -0.5570 
  2 C       -0.6870     1.8650    -1.4660 C.1   1 <1>   0.4840 
  3 C       -1.3830     2.9320    -0.8170 C.ar  1 <1>   0.0730 
  4 C       -2.7780     2.9350    -0.8170 C.ar  1 <1>   0.4100 
  5 C       -0.7080     3.9730    -0.1910 C.ar  1 <1>   0.0000 
  6 N       -3.5180     3.8710    -0.2650 N.ar  1 <1>  -0.6200 
  7 N       -3.5340     1.9600    -1.4010 N.pl3 1 <1>  -0.9000 
  8 C        0.7370     4.0060    -0.1720 C.ar  1 <1>   0.0000 
  9 C       -1.4930     4.9650     0.4010 C.ar  1 <1>  -0.1430 
 10 C       -2.8810     4.8630     0.3350 C.ar  1 <1>   0.1670 
 11 C        1.4590     4.5550    -1.2280 C.ar  1 <1>  -0.1500 
 12 C        1.4510     3.4840     0.9030 C.ar  1 <1>  -0.1500 
 13 C       -0.8110     6.1580     1.0840 C.3   1 <1>  -0.0170 
 14 C       -3.8220     5.8960     0.9560 C.3   1 <1>  -0.0170 
 15 C        2.8400     4.5900    -1.2060 C.ar  1 <1>  -0.1500 
 16 C        2.8320     3.5210     0.9250 C.ar  1 <1>  -0.1500 
 17 C       -0.5250     7.3010     0.1000 C.3   1 <1>  -0.1600 
 18 C       -4.0880     7.1140     0.0540 C.3   1 <1>  -0.1600 
 19 C        3.5510     4.0760    -0.1260 C.ar  1 <1>   0.1000 
 20 C       -1.7140     7.7140    -0.7860 C.3   1 <1>  -0.1600 
 21 C       -2.9600     8.1620    -0.0010 C.3   1 <1>  -0.1600 
 22 N        4.9410     4.0960    -0.0800 N.pl3 1 <1>  -0.8380 
 23 C        5.6650     2.8000    -0.1510 C.3   1 <1>   0.1290 
 24 C        5.6930     5.2760    -0.5790 C.3   1 <1>   0.1290 
 25 H       -4.5280     2.1910    -1.4550 H     1 <1>   0.4000 
 26 H       -3.1720     1.4450    -2.2060 H     1 <1>   0.4000 
 27 H        0.9300     4.9560    -2.0740 H     1 <1>   0.1500 
 28 H        0.9170     3.0490     1.7290 H     1 <1>   0.1500 
 29 H        0.1170     5.8520     1.5330 H     1 <1>   0.0800 
 30 H       -1.4000     6.5320     1.8970 H     1 <1>   0.0800 
 31 H       -3.4830     6.2090     1.9230 H     1 <1>   0.0800 
 32 H       -4.7670     5.4110     1.1290 H     1 <1>   0.0800 
 33 H        3.3780     5.0100    -2.0340 H     1 <1>   0.1500 
 34 H        3.3740     3.1230     1.7620 H     1 <1>   0.1500 
 35 H        0.2840     7.0050    -0.5430 H     1 <1>   0.0800 
 36 H       -0.1860     8.1570     0.6570 H     1 <1>   0.0800 
 37 H       -4.9670     7.6060     0.4310 H     1 <1>   0.0800 
 38 H       -4.3220     6.7740    -0.9400 H     1 <1>   0.0800 
 39 H       -1.9660     6.9190    -1.4670 H     1 <1>   0.0800 
 40 H       -1.3860     8.5410    -1.3920 H     1 <1>   0.0800 
 41 H       -2.6930     8.4790     0.9920 H     1 <1>   0.0800 
 42 H       -3.3620     9.0260    -0.5020 H     1 <1>   0.0800 
 43 H        4.9830     1.9840     0.0170 H     1 <1>   0.0800 
 44 H        6.4320     2.7730     0.6030 H     1 <1>   0.0800 
 45 H        6.1130     2.6810    -1.1210 H     1 <1>   0.0800 
 46 H        5.0880     6.1620    -0.4870 H     1 <1>   0.0800 
 47 H        5.9580     5.1350    -1.6130 H     1 <1>   0.0800 
 48 H        6.5870     5.4090     0.0040 H     1 <1>   0.0800 
@<TRIPOS>BOND
  1   1   2  3   
  2   2   3  1   
  3   3   4  ar  
  4   3   5  ar  
  5   4   6  ar  
  6   4   7  1   
  7   5   8  1   
  8   5   9  ar  
  9   6  10  ar  
 10   7  25  1   
 11   7  26  1   
 12   8  11  ar  
 13   8  12  ar  
 14   9  10  ar  
 15   9  13  1   
 16  10  14  1   
 17  11  15  ar  
 18  11  27  1   
 19  12  16  ar  
 20  12  28  1   
 21  13  17  1   
 22  13  29  1   
 23  13  30  1   
 24  14  18  1   
 25  14  31  1   
 26  14  32  1   
 27  15  19  ar  
 28  15  33  1   
 29  16  19  ar  
 30  16  34  1   
 31  17  20  1   
 32  17  35  1   
 33  17  36  1   
 34  18  21  1   
 35  18  37  1   
 36  18  38  1   
 37  19  22  1   
 38  20  21  1   
 39  20  39  1   
 40  20  40  1   
 41  21  41  1   
 42  21  42  1   
 43  22  23  1   
 44  22  24  1   
 45  23  43  1   
 46  23  44  1   
 47  23  45  1   
 48  24  46  1   
 49  24  47  1   
 50  24  48  1   
@<TRIPOS>SUBSTRUCTURE
  1 ****   5 GROUP 4 **** **** 0

# MOE 2024.06 (io_trps.svl 2023.06)
