@<TRIPOS>MOLECULE
NONAME
48 50 1 0 0 
SMALL
USER_CHARGES


@<TRIPOS>ATOM
  1 O       -0.6350     2.3160     0.4240 O.2   1 <1>  -0.5700 
  2 C       -1.7750     2.0830     0.7490 C.2   1 <1>   0.5690 
  3 N       -2.5110     1.1630     0.0690 N.am  1 <1>  -0.5470 
  4 C       -2.3810     2.8720     1.9230 C.3   1 <1>   0.3910 
  5 C       -3.8650     0.8740     0.2360 C.ar  1 <1>   0.1170 
  6 N       -2.9650     4.2070     1.5480 N.pl3 1 <1>  -0.7940 
  7 C       -4.2590    -0.3190     0.8230 C.ar  1 <1>  -0.1500 
  8 C       -4.8340     1.7840    -0.1650 C.ar  1 <1>  -0.1500 
  9 C       -2.4380     5.1910     0.8350 C.cat 1 <1>   0.7310 
 10 C       -5.6010    -0.5900     1.0230 C.ar  1 <1>  -0.1500 
 11 C       -6.1750     1.5130     0.0350 C.ar  1 <1>  -0.1500 
 12 N       -1.2480     5.0370     0.2870 N.pl3 1 <1>  -0.7940 
 13 C       -3.1600     6.4350     0.6360 C.ar  1 <1>  -0.0220 
 14 C       -6.5650     0.3250     0.6320 C.ar  1 <1>  -0.1430 
 15 C       -0.5760     6.0270    -0.5550 C.3   1 <1>   0.4900 
 16 C       -2.7860     7.2810    -0.4140 C.ar  1 <1>  -0.1430 
 17 C       -4.2140     6.8500     1.4560 C.ar  1 <1>  -0.1500 
 18 C       -8.0370     0.0220     0.8520 C.3   1 <1>  -0.0970 
 19 C       -1.6300     6.8600    -1.3170 C.3   1 <1>  -0.0170 
 20 C        0.2780     6.9030     0.3630 C.3   1 <1>  -0.2400 
 21 C        0.3190     5.2610    -1.5270 C.3   1 <1>  -0.2400 
 22 C       -3.4480     8.4750    -0.6420 C.ar  1 <1>  -0.1500 
 23 C       -4.8740     8.0430     1.2270 C.ar  1 <1>  -0.1500 
 24 C       -4.4930     8.8560     0.1770 C.ar  1 <1>  -0.1500 
 25 H       -2.0030     0.6310    -0.6430 H     1 <1>   0.3700 
 26 H       -1.6080     3.0260     2.6560 H     1 <1>   0.0800 
 27 H       -3.1440     2.2710     2.3850 H     1 <1>   0.0800 
 28 H       -3.9100     4.3440     1.9140 H     1 <1>   0.4500 
 29 H       -3.5200    -1.0390     1.1270 H     1 <1>   0.1500 
 30 H       -4.5430     2.7020    -0.6430 H     1 <1>   0.1500 
 31 H       -5.8950    -1.5190     1.4820 H     1 <1>   0.1500 
 32 H       -6.9180     2.2250    -0.2810 H     1 <1>   0.1500 
 33 H       -0.7200     4.1580     0.3730 H     1 <1>   0.4500 
 34 H       -4.5320     6.2550     2.2930 H     1 <1>   0.1500 
 35 H       -8.6450     0.5560     0.1440 H     1 <1>   0.0800 
 36 H       -8.3260     0.3120     1.8460 H     1 <1>   0.0800 
 37 H       -8.2250    -1.0300     0.7300 H     1 <1>   0.0800 
 38 H       -2.0310     6.2770    -2.1270 H     1 <1>   0.0800 
 39 H       -1.1590     7.7250    -1.7490 H     1 <1>   0.0800 
 40 H       -0.3390     7.4390     1.0630 H     1 <1>   0.0800 
 41 H        0.8230     7.6250    -0.2180 H     1 <1>   0.0800 
 42 H        0.9880     6.3070     0.9070 H     1 <1>   0.0800 
 43 H       -0.2640     4.5970    -2.1410 H     1 <1>   0.0800 
 44 H        1.0570     4.6860    -0.9960 H     1 <1>   0.0800 
 45 H        0.8360     5.9490    -2.1730 H     1 <1>   0.0800 
 46 H       -3.1580     9.1190    -1.4560 H     1 <1>   0.1500 
 47 H       -5.6860     8.3470     1.8670 H     1 <1>   0.1500 
 48 H       -5.0090     9.7850    -0.0010 H     1 <1>   0.1500 
@<TRIPOS>BOND
  1   1   2  2   
  2   2   3  am  
  3   2   4  1   
  4   3   5  1   
  5   3  25  1   
  6   4   6  1   
  7   4  26  1   
  8   4  27  1   
  9   5   7  ar  
 10   5   8  ar  
 11   6   9  ar  
 12   6  28  1   
 13   7  10  ar  
 14   7  29  1   
 15   8  11  ar  
 16   8  30  1   
 17   9  12  ar  
 18   9  13  1   
 19  10  14  ar  
 20  10  31  1   
 21  11  14  ar  
 22  11  32  1   
 23  12  15  1   
 24  12  33  1   
 25  13  16  ar  
 26  13  17  ar  
 27  14  18  1   
 28  15  19  1   
 29  15  20  1   
 30  15  21  1   
 31  16  19  1   
 32  16  22  ar  
 33  17  23  ar  
 34  17  34  1   
 35  18  35  1   
 36  18  36  1   
 37  18  37  1   
 38  19  38  1   
 39  19  39  1   
 40  20  40  1   
 41  20  41  1   
 42  20  42  1   
 43  21  43  1   
 44  21  44  1   
 45  21  45  1   
 46  22  24  ar  
 47  22  46  1   
 48  23  24  ar  
 49  23  47  1   
 50  24  48  1   
@<TRIPOS>SUBSTRUCTURE
  1 ****   6 GROUP 4 **** **** 0

# MOE 2024.06 (io_trps.svl 2023.06)
