@<TRIPOS>MOLECULE
NONAME
35 35 1 0 0 
SMALL
USER_CHARGES


@<TRIPOS>ATOM
  1 O        0.1920     1.1650     1.6920 O.2   1 <1>  -0.5700 
  2 C        0.2090     1.8020     0.6650 C.2   1 <1>   0.6590 
  3 O        1.3080     1.9920    -0.0760 O.3   1 <1>  -0.0870 
  4 C       -1.0600     2.4660     0.1200 C.3   1 <1>  -0.0190 
  5 N        2.5080     1.4640     0.2140 N.2   1 <1>  -0.5130 
  6 C       -1.5730     3.5740     1.0630 C.3   1 <1>  -0.1600 
  7 C       -2.1790     1.4370    -0.1450 C.3   1 <1>  -0.1600 
  8 C        3.5000     1.7840    -0.5250 C.2   1 <1>   0.4140 
  9 C       -0.5520     4.7030     1.2620 C.3   1 <1>  -0.2400 
 10 C       -1.7740     0.3800    -1.1820 C.3   1 <1>  -0.2400 
 11 N        3.3240     2.6820    -1.5600 N.pl3 1 <1>  -0.8500 
 12 C        4.8370     1.2600    -0.2960 C.ar  1 <1>   0.0860 
 13 C        5.2550     0.8850     0.9820 C.ar  1 <1>  -0.1500 
 14 C        5.7580     1.1120    -1.3350 C.ar  1 <1>  -0.1500 
 15 C        6.5290     0.4010     1.2170 C.ar  1 <1>  -0.1500 
 16 C        7.0350     0.6290    -1.1090 C.ar  1 <1>  -0.1500 
 17 C        7.4240     0.2750     0.1700 C.ar  1 <1>  -0.1500 
 18 H       -0.8130     2.9260    -0.8200 H     1 <1>   0.0800 
 19 H       -2.4780     3.9960     0.6590 H     1 <1>   0.0800 
 20 H       -1.8130     3.1430     2.0220 H     1 <1>   0.0800 
 21 H       -2.4370     0.9430     0.7780 H     1 <1>   0.0800 
 22 H       -3.0570     1.9470    -0.5010 H     1 <1>   0.0800 
 23 H       -0.2870     5.1450     0.3180 H     1 <1>   0.0800 
 24 H        0.3390     4.3350     1.7400 H     1 <1>   0.0800 
 25 H       -0.9750     5.4680     1.8890 H     1 <1>   0.0800 
 26 H       -0.9440    -0.2080    -0.8270 H     1 <1>   0.0800 
 27 H       -1.4980     0.8450    -2.1120 H     1 <1>   0.0800 
 28 H       -2.5990    -0.2850    -1.3650 H     1 <1>   0.0800 
 29 H        2.4280     3.1630    -1.4940 H     1 <1>   0.4000 
 30 H        4.1040     3.3270    -1.6970 H     1 <1>   0.4000 
 31 H        4.5640     0.9750     1.8040 H     1 <1>   0.1500 
 32 H        5.4680     1.3690    -2.3380 H     1 <1>   0.1500 
 33 H        6.8230     0.1210     2.2140 H     1 <1>   0.1500 
 34 H        7.7260     0.5250    -1.9270 H     1 <1>   0.1500 
 35 H        8.4160    -0.1020     0.3500 H     1 <1>   0.1500 
@<TRIPOS>BOND
  1   1   2  2   
  2   2   3  1   
  3   2   4  1   
  4   3   5  1   
  5   4   6  1   
  6   4   7  1   
  7   4  18  1   
  8   5   8  2   
  9   6   9  1   
 10   6  19  1   
 11   6  20  1   
 12   7  10  1   
 13   7  21  1   
 14   7  22  1   
 15   8  11  1   
 16   8  12  1   
 17   9  23  1   
 18   9  24  1   
 19   9  25  1   
 20  10  26  1   
 21  10  27  1   
 22  10  28  1   
 23  11  29  1   
 24  11  30  1   
 25  12  13  ar  
 26  12  14  ar  
 27  13  15  ar  
 28  13  31  1   
 29  14  16  ar  
 30  14  32  1   
 31  15  17  ar  
 32  15  33  1   
 33  16  17  ar  
 34  16  34  1   
 35  17  35  1   
@<TRIPOS>SUBSTRUCTURE
  1 ****   5 GROUP 4 **** **** 0

# MOE 2024.06 (io_trps.svl 2023.06)
