@<TRIPOS>MOLECULE
NONAME
42 44 1 0 0 
SMALL
USER_CHARGES


@<TRIPOS>ATOM
  1 O       -1.6830    -0.4540     0.0910 O.2   1 <1>  -0.5700 
  2 C       -1.3670    -1.6160    -0.0590 C.2   1 <1>   0.5440 
  3 N       -1.9080    -2.4470    -1.0020 N.am  1 <1>  -0.4200 
  4 C       -0.3550    -2.3350     0.6610 C.ar  1 <1>   0.0860 
  5 C       -1.2550    -3.6470    -0.9550 C.2   1 <1>   0.5440 
  6 C       -3.0930    -2.1470    -1.8210 C.3   1 <1>   0.3210 
  7 C       -0.2830    -3.6020     0.1010 C.ar  1 <1>   0.0860 
  8 C        0.4760    -1.9880     1.7180 C.ar  1 <1>  -0.1500 
  9 O       -1.4680    -4.5680    -1.7160 O.2   1 <1>  -0.5700 
 10 C       -4.3590    -2.4430    -1.0280 C.2   1 <1>  -0.1810 
 11 C        0.6210    -4.5360     0.5910 C.ar  1 <1>  -0.1500 
 12 C        1.3770    -2.9200     2.2070 C.ar  1 <1>  -0.1500 
 13 C       -4.9950    -3.6770    -0.9140 C.2   1 <1>   0.1080 
 14 C       -5.1080    -1.6000    -0.2830 C.2   1 <1>  -0.3320 
 15 C        1.4490    -4.1890     1.6450 C.ar  1 <1>  -0.1500 
 16 N       -6.0430    -3.6180    -0.1650 N.2   1 <1>  -0.7070 
 17 C       -4.5690    -4.9790    -1.5580 C.3   1 <1>  -0.0590 
 18 N       -6.1470    -2.3140     0.2640 N.pl3 1 <1>   0.5610 
 19 C       -4.9020    -0.1100    -0.0300 C.3   1 <1>  -0.0600 
 20 C       -7.1990    -1.8150     1.1210 C.2   1 <1>   0.6390 
 21 O       -6.9180    -1.0500     2.0330 O.2   1 <1>  -0.5700 
 22 N       -8.5370    -2.1570     0.9350 N.am  1 <1>  -0.6600 
 23 C       -9.5980    -1.7720     1.9080 C.3   1 <1>   0.0600 
 24 C       -9.0180    -2.9830    -0.2070 C.3   1 <1>   0.0600 
 25 H       -3.0690    -2.7370    -2.7210 H     1 <1>   0.0800 
 26 H       -3.0700    -1.1100    -2.1040 H     1 <1>   0.0800 
 27 H        0.4100    -1.0010     2.1450 H     1 <1>   0.1500 
 28 H        0.6680    -5.5160     0.1460 H     1 <1>   0.1500 
 29 H        2.0260    -2.6610     3.0280 H     1 <1>   0.1500 
 30 H        2.1540    -4.9060     2.0340 H     1 <1>   0.1500 
 31 H       -3.8760    -5.4880    -0.9140 H     1 <1>   0.0800 
 32 H       -4.1060    -4.8040    -2.5100 H     1 <1>   0.0800 
 33 H       -5.4270    -5.6090    -1.7040 H     1 <1>   0.0800 
 34 H       -4.1170     0.2870    -0.6470 H     1 <1>   0.0800 
 35 H       -4.6330     0.0530     0.9990 H     1 <1>   0.0800 
 36 H       -5.8040     0.4360    -0.2400 H     1 <1>   0.0800 
 37 H       -9.1740    -1.3050     2.7810 H     1 <1>   0.0800 
 38 H      -10.1380    -2.6480     2.2220 H     1 <1>   0.0800 
 39 H      -10.2790    -1.0800     1.4450 H     1 <1>   0.0800 
 40 H       -8.9500    -4.0260     0.0490 H     1 <1>   0.0800 
 41 H       -8.4200    -2.8010    -1.0840 H     1 <1>   0.0800 
 42 H      -10.0400    -2.7410    -0.4380 H     1 <1>   0.0800 
@<TRIPOS>BOND
  1   1   2  2   
  2   2   3  am  
  3   2   4  1   
  4   3   5  am  
  5   3   6  1   
  6   4   7  ar  
  7   4   8  ar  
  8   5   7  1   
  9   5   9  2   
 10   6  10  1   
 11   6  25  1   
 12   6  26  1   
 13   7  11  ar  
 14   8  12  ar  
 15   8  27  1   
 16  10  13  1   
 17  10  14  2   
 18  11  15  ar  
 19  11  28  1   
 20  12  15  ar  
 21  12  29  1   
 22  13  16  2   
 23  13  17  1   
 24  14  18  1   
 25  14  19  1   
 26  15  30  1   
 27  16  18  1   
 28  17  31  1   
 29  17  32  1   
 30  17  33  1   
 31  18  20  1   
 32  19  34  1   
 33  19  35  1   
 34  19  36  1   
 35  20  21  2   
 36  20  22  am  
 37  22  23  1   
 38  22  24  1   
 39  23  37  1   
 40  23  38  1   
 41  23  39  1   
 42  24  40  1   
 43  24  41  1   
 44  24  42  1   
@<TRIPOS>SUBSTRUCTURE
  1 ****  10 GROUP 4 **** **** 0

# MOE 2024.06 (io_trps.svl 2023.06)
