@<TRIPOS>MOLECULE
NONAME
47 48 1 0 0 
SMALL
USER_CHARGES


@<TRIPOS>ATOM
  1 O        0.0370    -0.7480    -1.8900 O.2   1 <1>  -0.5700 
  2 C       -0.0580    -1.4660    -0.9090 C.2   1 <1>   0.5440 
  3 N        1.0120    -1.5640    -0.0400 N.am  1 <1>  -0.6600 
  4 C       -1.2840    -2.1980    -0.6960 C.ar  1 <1>   0.0860 
  5 C        2.2920    -0.8620    -0.3230 C.3   1 <1>   0.1400 
  6 C        0.8940    -2.1820     1.3070 C.3   1 <1>   0.1400 
  7 C       -2.3000    -1.7910     0.1840 C.ar  1 <1>   0.0830 
  8 C       -1.4700    -3.3980    -1.3780 C.ar  1 <1>  -0.1500 
  9 C        3.1270    -1.6130    -1.3650 C.3   1 <1>  -0.1600 
 10 C        1.0960    -3.7000     1.2660 C.3   1 <1>  -0.1600 
 11 O       -2.2640    -0.6380     0.8960 O.3   1 <1>  -0.3620 
 12 C       -3.4190    -2.5820     0.3830 C.ar  1 <1>  -0.1500 
 13 C       -2.5810    -4.1940    -1.1860 C.ar  1 <1>   0.0830 
 14 C        3.8530    -2.8670    -0.8530 C.3   1 <1>  -0.1600 
 15 C        2.5320    -4.1580     0.9620 C.3   1 <1>  -0.1600 
 16 C       -1.9030     0.5760     0.2680 C.3   1 <1>   0.0400 
 17 C       -3.5850    -3.7850    -0.2950 C.ar  1 <1>   0.0830 
 18 O       -2.6070    -5.3490    -1.9100 O.3   1 <1>  -0.3630 
 19 C        2.9390    -4.0590    -0.5200 C.3   1 <1>  -0.1600 
 20 O       -4.6980    -4.5510    -0.1270 O.3   1 <1>  -0.3620 
 21 C       -3.0420    -6.5460    -1.3040 C.3   1 <1>   0.0400 
 22 C       -5.8050    -4.1180     0.6320 C.3   1 <1>   0.0400 
 23 H        2.8650    -0.7330     0.5790 H     1 <1>   0.0800 
 24 H        2.0650     0.1190    -0.7040 H     1 <1>   0.0800 
 25 H       -0.0810    -1.9700     1.7080 H     1 <1>   0.0800 
 26 H        1.6090    -1.7430     1.9800 H     1 <1>   0.0800 
 27 H       -0.7140    -3.7200    -2.0730 H     1 <1>   0.1500 
 28 H        3.8770    -0.9300    -1.7200 H     1 <1>   0.0800 
 29 H        2.5090    -1.8590    -2.2110 H     1 <1>   0.0800 
 30 H        0.4080    -4.1480     0.5720 H     1 <1>   0.0800 
 31 H        0.8380    -4.0750     2.2400 H     1 <1>   0.0800 
 32 H       -4.1530    -2.2250     1.0780 H     1 <1>   0.1500 
 33 H        4.4770    -2.6170    -0.0120 H     1 <1>   0.0800 
 34 H        4.5150    -3.1840    -1.6420 H     1 <1>   0.0800 
 35 H        2.5910    -5.1970     1.2390 H     1 <1>   0.0800 
 36 H        3.2290    -3.6330     1.5920 H     1 <1>   0.0800 
 37 H       -2.3860     1.3810     0.7910 H     1 <1>   0.0800 
 38 H       -2.2260     0.5590    -0.7580 H     1 <1>   0.0800 
 39 H       -0.8360     0.6990     0.3260 H     1 <1>   0.0800 
 40 H        3.4930    -4.9530    -0.7530 H     1 <1>   0.0800 
 41 H        2.0730    -4.0620    -1.1600 H     1 <1>   0.0800 
 42 H       -2.6120    -7.3700    -1.8450 H     1 <1>   0.0800 
 43 H       -4.1140    -6.5950    -1.3640 H     1 <1>   0.0800 
 44 H       -2.7160    -6.5650    -0.2800 H     1 <1>   0.0800 
 45 H       -6.5730    -4.8670     0.5590 H     1 <1>   0.0800 
 46 H       -6.1640    -3.1880     0.2270 H     1 <1>   0.0800 
 47 H       -5.5040    -4.0030     1.6570 H     1 <1>   0.0800 
@<TRIPOS>BOND
  1   1   2  2   
  2   2   3  am  
  3   2   4  1   
  4   3   5  1   
  5   3   6  1   
  6   4   7  ar  
  7   4   8  ar  
  8   5   9  1   
  9   5  23  1   
 10   5  24  1   
 11   6  10  1   
 12   6  25  1   
 13   6  26  1   
 14   7  11  1   
 15   7  12  ar  
 16   8  13  ar  
 17   8  27  1   
 18   9  14  1   
 19   9  28  1   
 20   9  29  1   
 21  10  15  1   
 22  10  30  1   
 23  10  31  1   
 24  11  16  1   
 25  12  17  ar  
 26  12  32  1   
 27  13  17  ar  
 28  13  18  1   
 29  14  19  1   
 30  14  33  1   
 31  14  34  1   
 32  15  19  1   
 33  15  35  1   
 34  15  36  1   
 35  16  37  1   
 36  16  38  1   
 37  16  39  1   
 38  17  20  1   
 39  18  21  1   
 40  19  40  1   
 41  19  41  1   
 42  20  22  1   
 43  21  42  1   
 44  21  43  1   
 45  21  44  1   
 46  22  45  1   
 47  22  46  1   
 48  22  47  1   
@<TRIPOS>SUBSTRUCTURE
  1 ****   4 GROUP 4 **** **** 0

# MOE 2024.06 (io_trps.svl 2023.06)
