@<TRIPOS>MOLECULE
NONAME
45 48 1 0 0 
SMALL
USER_CHARGES


@<TRIPOS>ATOM
  1 S       -0.9280    -0.1260    -0.4690 S.3   1 <1>  -0.2860 
  2 C        0.7750    -0.6450    -0.3620 C.2   1 <1>   0.5340 
  3 C       -1.8200    -1.3150     0.6490 C.3   1 <1>   0.1310 
  4 O        1.0510    -1.6750     0.4160 O.3   1 <1>  -0.2800 
  5 N        1.7450    -0.0950    -0.9810 N.2   1 <1>  -0.5650 
  6 C       -3.3160    -1.0440     0.6980 C.2   1 <1>   0.5690 
  7 C        2.3570    -1.8190     0.2940 C.ar  1 <1>   0.1400 
  8 C        2.8040    -0.8450    -0.5710 C.ar  1 <1>   0.2270 
  9 O       -3.9730    -1.7430     1.4250 O.2   1 <1>  -0.5700 
 10 N       -3.8290    -0.0400    -0.0730 N.am  1 <1>  -0.5470 
 11 C        3.2130    -2.7420     0.8790 C.ar  1 <1>  -0.1500 
 12 C        4.1560    -0.7650    -0.8810 C.ar  1 <1>  -0.1500 
 13 C       -5.0850     0.4390    -0.2600 C.ar  1 <1>   0.7370 
 14 C        4.5570    -2.6600     0.5680 C.ar  1 <1>  -0.1500 
 15 C        5.0260    -1.6750    -0.3080 C.ar  1 <1>  -0.1500 
 16 N       -6.1170    -0.1110     0.3670 N.ar  1 <1>  -0.6200 
 17 N       -5.1410     1.4620    -1.1020 N.ar  1 <1>  -0.6200 
 18 C       -7.2970     0.4030     0.1310 C.ar  1 <1>   0.1670 
 19 C       -6.3350     1.9640    -1.3200 C.ar  1 <1>   0.1600 
 20 C       -7.4860     1.4780    -0.7240 C.ar  1 <1>   0.0860 
 21 C       -8.4800    -0.2270     0.8530 C.3   1 <1>  -0.0170 
 22 C       -8.7810     2.0420    -0.9760 C.2   1 <1>   0.4230 
 23 C       -9.8150    -0.0240     0.1050 C.3   1 <1>   0.0000 
 24 O       -8.9630     2.9630    -1.7290 O.2   1 <1>  -0.5700 
 25 C       -9.9850     1.4670    -0.2490 C.3   1 <1>  -0.0990 
 26 C      -10.9790    -0.4700     1.0030 C.3   1 <1>  -0.2400 
 27 C       -9.8420    -0.8800    -1.1760 C.3   1 <1>  -0.2400 
 28 H       -1.3940    -1.2130     1.6290 H     1 <1>   0.0800 
 29 H       -1.6370    -2.3050     0.2740 H     1 <1>   0.0800 
 30 H       -3.1560     0.4800    -0.6300 H     1 <1>   0.3700 
 31 H        2.8280    -3.4890     1.5500 H     1 <1>   0.1500 
 32 H        4.4960    -0.0010    -1.5570 H     1 <1>   0.1500 
 33 H        5.2550    -3.3560     1.0010 H     1 <1>   0.1500 
 34 H        6.0770    -1.6300    -0.5360 H     1 <1>   0.1500 
 35 H       -6.4170     2.7980    -1.9990 H     1 <1>   0.1500 
 36 H       -8.5360     0.2120     1.8330 H     1 <1>   0.0800 
 37 H       -8.2940    -1.2790     0.9850 H     1 <1>   0.0800 
 38 H      -10.8590     1.6010    -0.8630 H     1 <1>   0.0800 
 39 H      -10.1300     2.0430     0.6470 H     1 <1>   0.0800 
 40 H      -11.0040     0.1030     1.9130 H     1 <1>   0.0800 
 41 H      -10.8800    -1.5100     1.2630 H     1 <1>   0.0800 
 42 H      -11.9200    -0.3390     0.4970 H     1 <1>   0.0800 
 43 H       -9.0420    -0.6220    -1.8460 H     1 <1>   0.0800 
 44 H      -10.7720    -0.7460    -1.7010 H     1 <1>   0.0800 
 45 H       -9.7450    -1.9240    -0.9330 H     1 <1>   0.0800 
@<TRIPOS>BOND
  1   1   2  1   
  2   1   3  1   
  3   2   4  1   
  4   2   5  2   
  5   3   6  1   
  6   3  28  1   
  7   3  29  1   
  8   4   7  1   
  9   5   8  1   
 10   6   9  2   
 11   6  10  am  
 12   7   8  ar  
 13   7  11  ar  
 14   8  12  ar  
 15  10  13  1   
 16  10  30  1   
 17  11  14  ar  
 18  11  31  1   
 19  12  15  ar  
 20  12  32  1   
 21  13  16  ar  
 22  13  17  ar  
 23  14  15  ar  
 24  14  33  1   
 25  15  34  1   
 26  16  18  ar  
 27  17  19  ar  
 28  18  20  ar  
 29  18  21  1   
 30  19  20  ar  
 31  19  35  1   
 32  20  22  1   
 33  21  23  1   
 34  21  36  1   
 35  21  37  1   
 36  22  24  2   
 37  22  25  1   
 38  23  25  1   
 39  23  26  1   
 40  23  27  1   
 41  25  38  1   
 42  25  39  1   
 43  26  40  1   
 44  26  41  1   
 45  26  42  1   
 46  27  43  1   
 47  27  44  1   
 48  27  45  1   
@<TRIPOS>SUBSTRUCTURE
  1 ****  10 GROUP 4 **** **** 0

# MOE 2024.06 (io_trps.svl 2023.06)
