@<TRIPOS>MOLECULE
NONAME
37 38 1 0 0 
SMALL
USER_CHARGES


@<TRIPOS>ATOM
  1 S        0.2380    -0.4080     1.0300 S.o2  1 <1>   1.3330 
  2 O        1.1570     0.3540     1.8420 O.2   1 <1>  -0.6500 
  3 O        0.5940    -1.7320     0.5870 O.2   1 <1>  -0.6500 
  4 N       -0.0260     0.5250    -0.4000 N.am  1 <1>  -0.6930 
  5 C       -1.3770    -0.4620     1.7780 C.3   1 <1>  -0.1350 
  6 C       -0.7060     1.7390    -0.3800 C.ar  1 <1>   0.1990 
  7 C        0.9250     0.2840    -1.5330 C.3   1 <1>   0.2570 
  8 C       -0.3040     2.7950     0.4300 C.ar  1 <1>  -0.1500 
  9 C       -1.8230     1.9100    -1.1880 C.ar  1 <1>  -0.1500 
 10 C        2.2450     1.0620    -1.4610 C.2   1 <1>   0.5690 
 11 C       -1.0090     3.9850     0.4400 C.ar  1 <1>  -0.1500 
 12 C       -2.5280     3.0990    -1.1800 C.ar  1 <1>  -0.1500 
 13 O        2.7610     1.3920    -2.5040 O.2   1 <1>  -0.5700 
 14 N        2.8100     1.3550    -0.2560 N.am  1 <1>  -0.5790 
 15 C       -2.1270     4.1430    -0.3620 C.ar  1 <1>  -0.1430 
 16 C        4.0530     2.1020    -0.0400 C.3   1 <1>   0.0490 
 17 C       -2.8970     5.4510    -0.3530 C.3   1 <1>  -0.0970 
 18 C        4.8960     1.7250     1.1320 C.3   1 <1>  -0.2000 
 19 C        4.1220     3.0090     1.1440 C.3   1 <1>  -0.2000 
 20 H       -1.3460    -1.0440     2.6770 H     1 <1>   0.0800 
 21 H       -2.0810    -0.9070     1.1030 H     1 <1>   0.0800 
 22 H       -1.7090     0.5280     2.0210 H     1 <1>   0.0800 
 23 H        0.4380     0.5590    -2.4510 H     1 <1>   0.0800 
 24 H        1.1560    -0.7640    -1.6000 H     1 <1>   0.0800 
 25 H        0.5660     2.6950     1.0520 H     1 <1>   0.1500 
 26 H       -2.1400     1.1030    -1.8230 H     1 <1>   0.1500 
 27 H       -0.6800     4.7910     1.0730 H     1 <1>   0.1500 
 28 H       -3.3910     3.2110    -1.8140 H     1 <1>   0.1500 
 29 H        2.3370     1.0590     0.6100 H     1 <1>   0.3700 
 30 H        4.5380     2.4040    -0.9550 H     1 <1>   0.1000 
 31 H       -2.8440     5.9120     0.6170 H     1 <1>   0.0800 
 32 H       -3.9320     5.2810    -0.5900 H     1 <1>   0.0800 
 33 H       -2.4800     6.1240    -1.0800 H     1 <1>   0.0800 
 34 H        5.9660     1.7750     1.0350 H     1 <1>   0.1000 
 35 H        4.5730     0.9130     1.7600 H     1 <1>   0.1000 
 36 H        3.2620     3.0910     1.7860 H     1 <1>   0.1000 
 37 H        4.6650     3.9320     1.0550 H     1 <1>   0.1000 
@<TRIPOS>BOND
  1   1   2  2   
  2   1   3  2   
  3   1   4  am  
  4   1   5  1   
  5   4   6  1   
  6   4   7  1   
  7   5  20  1   
  8   5  21  1   
  9   5  22  1   
 10   6   8  ar  
 11   6   9  ar  
 12   7  10  1   
 13   7  23  1   
 14   7  24  1   
 15   8  11  ar  
 16   8  25  1   
 17   9  12  ar  
 18   9  26  1   
 19  10  13  2   
 20  10  14  am  
 21  11  15  ar  
 22  11  27  1   
 23  12  15  ar  
 24  12  28  1   
 25  14  16  1   
 26  14  29  1   
 27  15  17  1   
 28  16  18  1   
 29  16  19  1   
 30  16  30  1   
 31  17  31  1   
 32  17  32  1   
 33  17  33  1   
 34  18  19  1   
 35  18  34  1   
 36  18  35  1   
 37  19  36  1   
 38  19  37  1   
@<TRIPOS>SUBSTRUCTURE
  1 ****   6 GROUP 4 **** **** 0

# MOE 2024.06 (io_trps.svl 2023.06)
