@<TRIPOS>MOLECULE
NONAME
45 47 1 0 0 
SMALL
USER_CHARGES


@<TRIPOS>ATOM
  1 O       -1.7600     1.7330    -0.8270 O.2   1 <1>  -0.5700 
  2 C       -0.9560     2.1760    -0.0230 C.2   1 <1>   0.4690 
  3 C        0.3640     2.6090    -0.3990 C.ar  1 <1>   0.0860 
  4 C       -1.3250     2.3260     1.3490 C.2   1 <1>  -0.1240 
  5 C        1.1820     3.1880     0.5800 C.ar  1 <1>   0.0830 
  6 C        0.8750     2.4910    -1.6940 C.ar  1 <1>  -0.1500 
  7 C       -0.4660     2.8930     2.2250 C.2   1 <1>  -0.0730 
  8 C       -2.6940     1.8140     1.7590 C.3   1 <1>   0.4810 
  9 O        0.7400     3.3250     1.8500 O.3   1 <1>  -0.1590 
 10 C        2.4600     3.6310     0.2690 C.ar  1 <1>  -0.1500 
 11 C        2.1470     2.9320    -2.0010 C.ar  1 <1>  -0.1500 
 12 N       -3.7530     2.4620     0.9360 N.4   1 <1>  -0.9590 
 13 C        2.9420     3.5040    -1.0180 C.ar  1 <1>  -0.1500 
 14 C       -3.8480     3.9320     1.1600 C.3   1 <1>   0.3430 
 15 C       -5.0610     1.7650     1.0580 C.3   1 <1>   0.3430 
 16 C       -4.8080     4.5370     0.1390 C.3   1 <1>  -0.1600 
 17 C       -6.0420     2.3400     0.0380 C.3   1 <1>  -0.1600 
 18 C       -6.1960     3.8650     0.1800 C.3   1 <1>  -0.0190 
 19 C       -7.1470     4.4160    -0.8810 C.2   1 <1>   0.6590 
 20 O       -6.7490     5.0050    -1.8520 O.2   1 <1>  -0.5700 
 21 O       -8.4330     4.1870    -0.6640 O.3   1 <1>  -0.4300 
 22 C       -9.4200     4.6320    -1.5670 C.3   1 <1>   0.1200 
 23 C      -10.7810     4.2050    -1.0280 C.3   1 <1>  -0.2400 
 24 H        0.2630     2.0490    -2.4630 H     1 <1>   0.1500 
 25 H       -0.6600     3.0410     3.2750 H     1 <1>   0.1500 
 26 H       -2.8650     2.0080     2.8050 H     1 <1>   0.0800 
 27 H       -2.7200     0.7480     1.6010 H     1 <1>   0.0800 
 28 H        3.0730     4.0720     1.0370 H     1 <1>   0.1500 
 29 H        2.5270     2.8340    -3.0040 H     1 <1>   0.1500 
 30 H       -3.4210     2.3200    -0.0410 H     1 <1>   0.4500 
 31 H        3.9340     3.8460    -1.2630 H     1 <1>   0.1500 
 32 H       -2.8780     4.3900     1.0480 H     1 <1>   0.0800 
 33 H       -4.2070     4.1300     2.1570 H     1 <1>   0.0800 
 34 H       -5.4550     1.8950     2.0540 H     1 <1>   0.0800 
 35 H       -4.9360     0.7090     0.8750 H     1 <1>   0.0800 
 36 H       -4.3790     4.4400    -0.8450 H     1 <1>   0.0800 
 37 H       -4.9150     5.5900     0.3360 H     1 <1>   0.0800 
 38 H       -7.0010     1.8690     0.1740 H     1 <1>   0.0800 
 39 H       -5.7040     2.0970    -0.9550 H     1 <1>   0.0800 
 40 H       -6.6430     4.0770     1.1360 H     1 <1>   0.0800 
 41 H       -9.2280     4.1890    -2.5300 H     1 <1>   0.0800 
 42 H       -9.3540     5.7050    -1.6450 H     1 <1>   0.0800 
 43 H      -10.8310     3.1340    -0.9480 H     1 <1>   0.0800 
 44 H      -11.5540     4.5330    -1.6990 H     1 <1>   0.0800 
 45 H      -10.9560     4.6480    -0.0640 H     1 <1>   0.0800 
@<TRIPOS>BOND
  1   1   2  2   
  2   2   3  1   
  3   2   4  1   
  4   3   5  ar  
  5   3   6  ar  
  6   4   7  2   
  7   4   8  1   
  8   5   9  1   
  9   5  10  ar  
 10   6  11  ar  
 11   6  24  1   
 12   7   9  1   
 13   7  25  1   
 14   8  12  1   
 15   8  26  1   
 16   8  27  1   
 17  10  13  ar  
 18  10  28  1   
 19  11  13  ar  
 20  11  29  1   
 21  12  14  1   
 22  12  15  1   
 23  12  30  1   
 24  13  31  1   
 25  14  16  1   
 26  14  32  1   
 27  14  33  1   
 28  15  17  1   
 29  15  34  1   
 30  15  35  1   
 31  16  18  1   
 32  16  36  1   
 33  16  37  1   
 34  17  18  1   
 35  17  38  1   
 36  17  39  1   
 37  18  19  1   
 38  18  40  1   
 39  19  20  2   
 40  19  21  1   
 41  21  22  1   
 42  22  23  1   
 43  22  41  1   
 44  22  42  1   
 45  23  43  1   
 46  23  44  1   
 47  23  45  1   
@<TRIPOS>SUBSTRUCTURE
  1 ****  12 GROUP 4 **** **** 0

# MOE 2024.06 (io_trps.svl 2023.06)
