@<TRIPOS>MOLECULE
NONAME
55 58 1 0 0 
SMALL
USER_CHARGES


@<TRIPOS>ATOM
  1 S       -0.0780     1.7100    -1.1190 S.o2  1 <1>   1.4470 
  2 O        0.4910     2.7810    -1.9060 O.2   1 <1>  -0.6500 
  3 O       -0.3630     0.4300    -1.7240 O.2   1 <1>  -0.6500 
  4 N        0.9890     1.3670     0.1250 N.am  1 <1>  -0.9140 
  5 C       -1.5410     2.3130    -0.2320 C.ar  1 <1>  -0.0090 
  6 C        2.3830     1.4080    -0.2640 C.3   1 <1>   0.2760 
  7 C       -2.5010     1.4350     0.2450 C.ar  1 <1>  -0.1500 
  8 C       -1.7220     3.6670     0.0220 C.ar  1 <1>  -0.1500 
  9 C        2.8140     0.2490    -1.1930 C.3   1 <1>  -0.0800 
 10 C        3.2800     1.2050     0.9670 C.3   1 <1>  -0.1600 
 11 C       -3.6260     1.8560     0.9520 C.ar  1 <1>   0.0860 
 12 C       -2.8230     4.1220     0.7220 C.ar  1 <1>  -0.1500 
 13 C        4.3090     0.2020    -0.9130 C.3   1 <1>  -0.1600 
 14 C        2.3870    -1.1210    -0.6250 C.3   1 <1>  -0.1600 
 15 C        4.1470    -0.0060     0.5830 C.3   1 <1>  -0.0800 
 16 C       -3.7780     3.2270     1.1930 C.ar  1 <1>   0.0830 
 17 C       -4.5720     0.8650     1.4200 C.2   1 <1>   0.5440 
 18 C        3.2680    -1.2660     0.6270 C.3   1 <1>  -0.1600 
 19 O       -4.8660     3.6340     1.8880 O.3   1 <1>  -0.3630 
 20 O       -4.1880     0.0420     2.2320 O.2   1 <1>  -0.5700 
 21 N       -5.8660     0.7830     0.9400 N.am  1 <1>  -0.6600 
 22 C       -5.0450     4.9650     2.3210 C.3   1 <1>   0.0400 
 23 C       -6.8460    -0.1990     1.4830 C.3   1 <1>   0.1400 
 24 C       -6.4110     1.6610    -0.1320 C.3   1 <1>   0.1400 
 25 C       -7.3870    -1.0730     0.3460 C.3   1 <1>  -0.1600 
 26 C       -6.9520     0.8030    -1.2810 C.3   1 <1>  -0.1600 
 27 C       -7.9810    -0.2240    -0.7870 C.3   1 <1>  -0.1600 
 28 H        0.8000     0.3960     0.3590 H     1 <1>   0.4200 
 29 H        2.6190     2.3580    -0.7170 H     1 <1>   0.0800 
 30 H       -2.3830     0.3780     0.0720 H     1 <1>   0.1500 
 31 H       -0.9870     4.3700    -0.3340 H     1 <1>   0.1500 
 32 H        2.5620     0.4030    -2.2280 H     1 <1>   0.0800 
 33 H        2.7230     1.0330     1.8710 H     1 <1>   0.0800 
 34 H        3.9040     2.0720     1.0990 H     1 <1>   0.0800 
 35 H       -2.9170     5.1790     0.8910 H     1 <1>   0.1500 
 36 H        4.8110     1.1250    -1.1560 H     1 <1>   0.0800 
 37 H        4.8020    -0.6240    -1.3990 H     1 <1>   0.0800 
 38 H        2.6290    -1.8950    -1.3330 H     1 <1>   0.0800 
 39 H        1.3380    -1.1910    -0.4020 H     1 <1>   0.0800 
 40 H        5.0640    -0.0880     1.1420 H     1 <1>   0.0800 
 41 H        3.8760    -2.1520     0.5520 H     1 <1>   0.0800 
 42 H        2.6840    -1.3170     1.5300 H     1 <1>   0.0800 
 43 H       -5.9480     5.0070     2.9030 H     1 <1>   0.0800 
 44 H       -5.1340     5.6050     1.4620 H     1 <1>   0.0800 
 45 H       -4.2050     5.2490     2.9310 H     1 <1>   0.0800 
 46 H       -7.6540     0.3390     1.9490 H     1 <1>   0.0800 
 47 H       -6.3900    -0.8250     2.2310 H     1 <1>   0.0800 
 48 H       -5.6550     2.3240    -0.5130 H     1 <1>   0.0800 
 49 H       -7.2020     2.2620     0.2830 H     1 <1>   0.0800 
 50 H       -8.1390    -1.7350     0.7360 H     1 <1>   0.0800 
 51 H       -6.5820    -1.6770    -0.0340 H     1 <1>   0.0800 
 52 H       -6.1280     0.2930    -1.7490 H     1 <1>   0.0800 
 53 H       -7.4040     1.4420    -2.0180 H     1 <1>   0.0800 
 54 H       -8.8550     0.2910    -0.4260 H     1 <1>   0.0800 
 55 H       -8.2810    -0.8610    -1.6010 H     1 <1>   0.0800 
@<TRIPOS>BOND
  1   1   2  2   
  2   1   3  2   
  3   1   4  am  
  4   1   5  1   
  5   4   6  1   
  6   4  28  1   
  7   5   7  ar  
  8   5   8  ar  
  9   6   9  1   
 10   6  10  1   
 11   6  29  1   
 12   7  11  ar  
 13   7  30  1   
 14   8  12  ar  
 15   8  31  1   
 16   9  13  1   
 17   9  14  1   
 18   9  32  1   
 19  10  15  1   
 20  10  33  1   
 21  10  34  1   
 22  11  16  ar  
 23  11  17  1   
 24  12  16  ar  
 25  12  35  1   
 26  13  15  1   
 27  13  36  1   
 28  13  37  1   
 29  14  18  1   
 30  14  38  1   
 31  14  39  1   
 32  15  18  1   
 33  15  40  1   
 34  16  19  1   
 35  17  20  2   
 36  17  21  am  
 37  18  41  1   
 38  18  42  1   
 39  19  22  1   
 40  21  23  1   
 41  21  24  1   
 42  22  43  1   
 43  22  44  1   
 44  22  45  1   
 45  23  25  1   
 46  23  46  1   
 47  23  47  1   
 48  24  26  1   
 49  24  48  1   
 50  24  49  1   
 51  25  27  1   
 52  25  50  1   
 53  25  51  1   
 54  26  27  1   
 55  26  52  1   
 56  26  53  1   
 57  27  54  1   
 58  27  55  1   
@<TRIPOS>SUBSTRUCTURE
  1 ****   7 GROUP 4 **** **** 0

# MOE 2024.06 (io_trps.svl 2023.06)
