@<TRIPOS>MOLECULE
NONAME
35 36 1 0 0 
SMALL
USER_CHARGES


@<TRIPOS>ATOM
  1 BR       0.8040     0.9630     3.5230 Br    1 <1>  -0.1110 
  2 C        2.0320     1.3820     2.1000 C.ar  1 <1>   0.1110 
  3 C        1.8410     2.4990     1.2930 C.ar  1 <1>  -0.1790 
  4 C        3.1130     0.5340     1.9530 C.ar  1 <1>  -0.1500 
  5 C        0.7340     3.4180     1.4330 C.2   1 <1>   0.9790 
  6 C        2.8110     2.7290     0.3160 C.ar  1 <1>  -0.1500 
  7 C        4.0550     0.8060     0.9770 C.ar  1 <1>  -0.1500 
  8 O       -0.4410     3.0190     1.4640 O.co2 1 <1>  -0.9000 
  9 O        0.9640     4.6390     1.4600 O.co2 1 <1>  -0.9000 
 10 C        3.9220     1.9120     0.1440 C.ar  1 <1>  -0.0090 
 11 S        5.1930     2.3100    -1.0900 S.o2  1 <1>   1.4470 
 12 O        4.6620     3.1570    -2.1380 O.2   1 <1>  -0.6500 
 13 O        5.8850     1.0940    -1.4660 O.2   1 <1>  -0.6500 
 14 N        6.3060     3.2590    -0.2300 N.am  1 <1>  -0.8490 
 15 C        5.7330     4.5490     0.1780 C.3   1 <1>   0.1960 
 16 C        7.5320     3.4530    -1.0080 C.3   1 <1>   0.1960 
 17 C        6.7250     5.3210     1.0530 C.3   1 <1>  -0.1600 
 18 C        8.5850     4.1910    -0.1750 C.3   1 <1>  -0.1600 
 19 C        8.0570     5.5410     0.3250 C.3   1 <1>  -0.0800 
 20 C        9.0770     6.2210     1.2440 C.3   1 <1>  -0.2400 
 21 H        3.2150    -0.3190     2.5980 H     1 <1>   0.1500 
 22 H        2.6810     3.5920    -0.3190 H     1 <1>   0.1500 
 23 H        4.9080     0.1580     0.8610 H     1 <1>   0.1500 
 24 H        4.8340     4.3910     0.7500 H     1 <1>   0.0800 
 25 H        5.4790     5.1340    -0.6910 H     1 <1>   0.0800 
 26 H        7.3100     4.0100    -1.9040 H     1 <1>   0.0800 
 27 H        7.9330     2.4960    -1.2980 H     1 <1>   0.0800 
 28 H        6.8840     4.7660     1.9610 H     1 <1>   0.0800 
 29 H        6.2920     6.2690     1.3180 H     1 <1>   0.0800 
 30 H        9.4640     4.3440    -0.7760 H     1 <1>   0.0800 
 31 H        8.8590     3.5680     0.6580 H     1 <1>   0.0800 
 32 H        7.8820     6.1790    -0.5260 H     1 <1>   0.0800 
 33 H        9.2750     5.6120     2.1080 H     1 <1>   0.0800 
 34 H        8.7020     7.1740     1.5760 H     1 <1>   0.0800 
 35 H       10.0010     6.3850     0.7190 H     1 <1>   0.0800 
@<TRIPOS>BOND
  1   1   2  1   
  2   2   3  ar  
  3   2   4  ar  
  4   3   5  1   
  5   3   6  ar  
  6   4   7  ar  
  7   4  21  1   
  8   5   8  ar  
  9   5   9  ar  
 10   6  10  ar  
 11   6  22  1   
 12   7  10  ar  
 13   7  23  1   
 14  10  11  1   
 15  11  12  2   
 16  11  13  2   
 17  11  14  am  
 18  14  15  1   
 19  14  16  1   
 20  15  17  1   
 21  15  24  1   
 22  15  25  1   
 23  16  18  1   
 24  16  26  1   
 25  16  27  1   
 26  17  19  1   
 27  17  28  1   
 28  17  29  1   
 29  18  19  1   
 30  18  30  1   
 31  18  31  1   
 32  19  20  1   
 33  19  32  1   
 34  20  33  1   
 35  20  34  1   
 36  20  35  1   
@<TRIPOS>SUBSTRUCTURE
  1 ****  10 GROUP 4 **** **** 0

# MOE 2024.06 (io_trps.svl 2023.06)
