@<TRIPOS>MOLECULE
Structure359
23 24 1 0 0 
SMALL
USER_CHARGES


@<TRIPOS>ATOM
  1 CL      -0.2180    -0.3280     1.2030 Cl    1 <1>  -0.1770 
  2 C       -1.0580    -1.6640     0.4740 C.ar  1 <1>   0.7970 
  3 N       -2.3720    -1.5910     0.5170 N.ar  1 <1>  -0.6200 
  4 N       -0.2830    -2.6030    -0.0420 N.ar  1 <1>  -0.6200 
  5 C       -3.0050    -2.6070    -0.0310 C.ar  1 <1>   0.4100 
  6 C       -0.9390    -3.6020    -0.5950 C.ar  1 <1>   0.1600 
  7 N       -4.3830    -2.5960    -0.0080 N.pl3 1 <1>  -0.8380 
  8 C       -2.3060    -3.6480    -0.6150 C.ar  1 <1>  -0.1500 
  9 C       -5.1210    -1.3080     0.1810 C.3   1 <1>   0.2090 
 10 C       -5.1430    -3.7630     0.5300 C.3   1 <1>   0.2090 
 11 C       -6.5780    -1.4310    -0.3010 C.3   1 <1>   0.1200 
 12 C       -6.5950    -3.7540     0.0180 C.3   1 <1>   0.1200 
 13 O       -7.2170    -2.5290     0.2910 O.3   1 <1>  -0.5600 
 14 H       -0.3620    -4.3950    -1.0400 H     1 <1>   0.1500 
 15 H       -2.8300    -4.4590    -1.0780 H     1 <1>   0.1500 
 16 H       -4.6300    -0.5240    -0.3690 H     1 <1>   0.0800 
 17 H       -5.1110    -1.0400     1.2240 H     1 <1>   0.0800 
 18 H       -5.1500    -3.7150     1.6050 H     1 <1>   0.0800 
 19 H       -4.6710    -4.6850     0.2410 H     1 <1>   0.0800 
 20 H       -6.6080    -1.5500    -1.3690 H     1 <1>   0.0800 
 21 H       -7.1300    -0.5470    -0.0360 H     1 <1>   0.0800 
 22 H       -7.1650    -4.5260     0.5040 H     1 <1>   0.0800 
 23 H       -6.6200    -3.9220    -1.0450 H     1 <1>   0.0800 
@<TRIPOS>BOND
  1   1   2  1   
  2   2   3  ar  
  3   2   4  ar  
  4   3   5  ar  
  5   4   6  ar  
  6   5   7  1   
  7   5   8  ar  
  8   6   8  ar  
  9   6  14  1   
 10   7   9  1   
 11   7  10  1   
 12   8  15  1   
 13   9  11  1   
 14   9  16  1   
 15   9  17  1   
 16  10  12  1   
 17  10  18  1   
 18  10  19  1   
 19  11  13  1   
 20  11  20  1   
 21  11  21  1   
 22  12  13  1   
 23  12  22  1   
 24  12  23  1   
@<TRIPOS>SUBSTRUCTURE
  1 ****   5 GROUP 4 **** **** 0

# MOE 2024.06 (io_trps.svl 2023.06)
