@<TRIPOS>MOLECULE
NONAME
35 36 1 0 0 
SMALL
USER_CHARGES


@<TRIPOS>ATOM
  1 BR      -0.0940    -1.4550     1.6540 Br    1 <1>  -0.1110 
  2 C        1.7260    -1.4040     1.0280 C.ar  1 <1>   0.1110 
  3 C        2.0340    -0.6130    -0.0610 C.ar  1 <1>  -0.1500 
  4 C        2.6760    -2.1610     1.6850 C.ar  1 <1>  -0.1500 
  5 C        3.3430    -0.5720    -0.5150 C.ar  1 <1>  -0.1440 
  6 C        3.9830    -2.1210     1.2320 C.ar  1 <1>  -0.1500 
  7 C        4.3220    -1.3280     0.1320 C.ar  1 <1>   0.0830 
  8 C        3.6900     0.2970    -1.7150 C.3   1 <1>  -0.0960 
  9 O        5.5910    -1.2500    -0.3540 O.3   1 <1>  -0.3630 
 10 C        6.6570    -1.9470     0.2400 C.3   1 <1>   0.1200 
 11 C        7.9180    -1.6170    -0.5640 C.3   1 <1>   0.3430 
 12 N        9.1410    -2.3020    -0.0330 N.4   1 <1>  -0.9590 
 13 C        9.5630    -1.8410     1.3160 C.3   1 <1>   0.3430 
 14 C       10.3210    -2.0970    -0.9090 C.3   1 <1>   0.3430 
 15 C       11.0240    -2.2550     1.4180 C.3   1 <1>  -0.1600 
 16 C       11.5130    -2.4280    -0.0220 C.3   1 <1>  -0.1600 
 17 H        1.2570    -0.0430    -0.5370 H     1 <1>   0.1500 
 18 H        2.3930    -2.7640     2.5290 H     1 <1>   0.1500 
 19 H        4.7110    -2.7140     1.7500 H     1 <1>   0.1500 
 20 H        2.8190     0.8040    -2.0910 H     1 <1>   0.0800 
 21 H        4.0960    -0.3110    -2.5030 H     1 <1>   0.0800 
 22 H        4.4190     1.0360    -1.4340 H     1 <1>   0.0800 
 23 H        6.4360    -2.9990     0.1940 H     1 <1>   0.0800 
 24 H        6.7440    -1.6120     1.2590 H     1 <1>   0.0800 
 25 H        8.0670    -0.5500    -0.5500 H     1 <1>   0.0800 
 26 H        7.7530    -1.9220    -1.5850 H     1 <1>   0.0800 
 27 H        8.9790    -3.3170     0.0160 H     1 <1>   0.4500 
 28 H        8.9670    -2.2850     2.0980 H     1 <1>   0.0800 
 29 H        9.4900    -0.7670     1.3740 H     1 <1>   0.0800 
 30 H       10.3770    -1.0630    -1.2130 H     1 <1>   0.0800 
 31 H       10.2870    -2.7270    -1.7850 H     1 <1>   0.0800 
 32 H       11.1050    -3.1830     1.9580 H     1 <1>   0.0800 
 33 H       11.5900    -1.5050     1.9450 H     1 <1>   0.0800 
 34 H       12.3410    -1.7760    -0.2460 H     1 <1>   0.0800 
 35 H       11.8250    -3.4440    -0.1940 H     1 <1>   0.0800 
@<TRIPOS>BOND
  1   1   2  1   
  2   2   3  ar  
  3   2   4  ar  
  4   3   5  ar  
  5   3  17  1   
  6   4   6  ar  
  7   4  18  1   
  8   5   7  ar  
  9   5   8  1   
 10   6   7  ar  
 11   6  19  1   
 12   7   9  1   
 13   8  20  1   
 14   8  21  1   
 15   8  22  1   
 16   9  10  1   
 17  10  11  1   
 18  10  23  1   
 19  10  24  1   
 20  11  12  1   
 21  11  25  1   
 22  11  26  1   
 23  12  13  1   
 24  12  14  1   
 25  12  27  1   
 26  13  15  1   
 27  13  28  1   
 28  13  29  1   
 29  14  16  1   
 30  14  30  1   
 31  14  31  1   
 32  15  16  1   
 33  15  32  1   
 34  15  33  1   
 35  16  34  1   
 36  16  35  1   
@<TRIPOS>SUBSTRUCTURE
  1 ****   9 GROUP 4 **** **** 0

# MOE 2024.06 (io_trps.svl 2023.06)
