@<TRIPOS>MOLECULE
NONAME
46 47 1 0 0 
SMALL
USER_CHARGES


@<TRIPOS>ATOM
  1 N       -0.1740     0.4300    -0.2890 N.4   1 <1>  -0.9590 
  2 C        1.0440     1.3010    -0.1900 C.3   1 <1>   0.4230 
  3 C       -1.0570     0.4540     0.9260 C.3   1 <1>   0.4230 
  4 C        0.1230    -0.9860    -0.6970 C.3   1 <1>   0.3430 
  5 C        1.6970     1.4920    -1.5610 C.3   1 <1>  -0.1600 
  6 C        2.0710     0.7710     0.8180 C.3   1 <1>  -0.1600 
  7 C       -2.3710    -0.2810     0.6210 C.3   1 <1>  -0.1600 
  8 C       -1.3760     1.8900     1.3480 C.3   1 <1>  -0.2400 
  9 C       -1.1690    -1.7260    -1.0390 C.3   1 <1>  -0.1600 
 10 C        2.8950     2.4370    -1.4530 C.3   1 <1>   0.3430 
 11 C        3.2710     1.7150     0.9040 C.3   1 <1>   0.3430 
 12 C       -2.1410    -1.7170     0.1420 C.3   1 <1>  -0.1600 
 13 N        3.8710     1.9130    -0.4520 N.4   1 <1>  -0.9590 
 14 C        5.0590     2.8200    -0.3930 C.3   1 <1>   0.3430 
 15 C        6.2390     2.1160     0.2820 C.3   1 <1>  -0.1600 
 16 C        7.4930     2.9960     0.2370 C.3   1 <1>  -0.2400 
 17 H       -0.7700     0.8120    -1.0340 H     1 <1>   0.4500 
 18 H        0.7320     2.2790     0.1410 H     1 <1>   0.0800 
 19 H       -0.5640    -0.0530     1.7410 H     1 <1>   0.0800 
 20 H        0.6220    -1.5030     0.1070 H     1 <1>   0.0800 
 21 H        0.7650    -1.0040    -1.5610 H     1 <1>   0.0800 
 22 H        0.9870     1.9260    -2.2430 H     1 <1>   0.0800 
 23 H        2.0370     0.5600    -1.9740 H     1 <1>   0.0800 
 24 H        2.4240    -0.2060     0.5420 H     1 <1>   0.0800 
 25 H        1.6290     0.7060     1.7960 H     1 <1>   0.0800 
 26 H       -2.9300     0.2620    -0.1220 H     1 <1>   0.0800 
 27 H       -2.9750    -0.3110     1.5120 H     1 <1>   0.0800 
 28 H       -1.7740     2.4600     0.5270 H     1 <1>   0.0800 
 29 H       -0.5160     2.3850     1.7580 H     1 <1>   0.0800 
 30 H       -2.1190     1.8770     2.1270 H     1 <1>   0.0800 
 31 H       -0.9350    -2.7450    -1.2950 H     1 <1>   0.0800 
 32 H       -1.6290    -1.2760    -1.9010 H     1 <1>   0.0800 
 33 H        2.5600     3.4180    -1.1550 H     1 <1>   0.0800 
 34 H        3.3710     2.5270    -2.4170 H     1 <1>   0.0800 
 35 H        4.0050     1.2970     1.5760 H     1 <1>   0.0800 
 36 H        2.9590     2.6670     1.3050 H     1 <1>   0.0800 
 37 H       -3.0790    -2.1600    -0.1510 H     1 <1>   0.0800 
 38 H       -1.7390    -2.3080     0.9490 H     1 <1>   0.0800 
 39 H        4.2310     1.0070    -0.7890 H     1 <1>   0.4500 
 40 H        4.8170     3.7250     0.1420 H     1 <1>   0.0800 
 41 H        5.3560     3.0940    -1.3930 H     1 <1>   0.0800 
 42 H        6.4560     1.1920    -0.2250 H     1 <1>   0.0800 
 43 H        6.0180     1.9050     1.3130 H     1 <1>   0.0800 
 44 H        7.7770     3.2110    -0.7790 H     1 <1>   0.0800 
 45 H        8.3160     2.4890     0.7130 H     1 <1>   0.0800 
 46 H        7.3300     3.9260     0.7550 H     1 <1>   0.0800 
@<TRIPOS>BOND
  1   1   2  1   
  2   1   3  1   
  3   1   4  1   
  4   1  17  1   
  5   2   5  1   
  6   2   6  1   
  7   2  18  1   
  8   3   7  1   
  9   3   8  1   
 10   3  19  1   
 11   4   9  1   
 12   4  20  1   
 13   4  21  1   
 14   5  10  1   
 15   5  22  1   
 16   5  23  1   
 17   6  11  1   
 18   6  24  1   
 19   6  25  1   
 20   7  12  1   
 21   7  26  1   
 22   7  27  1   
 23   8  28  1   
 24   8  29  1   
 25   8  30  1   
 26   9  12  1   
 27   9  31  1   
 28   9  32  1   
 29  10  13  1   
 30  10  33  1   
 31  10  34  1   
 32  11  13  1   
 33  11  35  1   
 34  11  36  1   
 35  12  37  1   
 36  12  38  1   
 37  13  14  1   
 38  13  39  1   
 39  14  15  1   
 40  14  40  1   
 41  14  41  1   
 42  15  16  1   
 43  15  42  1   
 44  15  43  1   
 45  16  44  1   
 46  16  45  1   
 47  16  46  1   
@<TRIPOS>SUBSTRUCTURE
  1 ****   2 GROUP 4 **** **** 0

# MOE 2024.06 (io_trps.svl 2023.06)
