@<TRIPOS>MOLECULE
NONAME
50 52 1 0 0 
SMALL
USER_CHARGES


@<TRIPOS>ATOM
  1 N       -2.0830     0.2960     1.2270 N.ar  1 <1>  -0.6200 
  2 C       -1.7600     0.9560     0.1200 C.ar  1 <1>   0.4100 
  3 C       -1.1860     0.3510     2.2010 C.ar  1 <1>   0.1600 
  4 N       -2.6800     0.9130    -0.9060 N.pl3 1 <1>  -0.8380 
  5 C       -0.5760     1.6660    -0.0430 C.ar  1 <1>  -0.1500 
  6 C        0.0180     1.0300     2.1320 C.ar  1 <1>  -0.1500 
  7 C       -2.8660    -0.4270    -1.5390 C.3   1 <1>   0.2090 
  8 C       -3.9570     1.6430    -0.6480 C.3   1 <1>   0.2090 
  9 C        0.3430     1.7120     0.9780 C.ar  1 <1>  -0.1500 
 10 C       -3.8860    -1.2860    -0.7580 C.3   1 <1>   0.3430 
 11 C       -4.9640     0.7630     0.1240 C.3   1 <1>   0.3430 
 12 N       -5.1940    -0.5740    -0.5360 N.4   1 <1>  -0.9590 
 13 C       -6.1250    -1.3880     0.2690 C.3   1 <1>   0.4810 
 14 C       -7.5360    -0.8210     0.1630 C.2   1 <1>  -0.2760 
 15 C       -7.9860     0.0580    -0.7470 C.2   1 <1>  -0.2880 
 16 C       -8.4490    -1.3890     1.2480 C.3   1 <1>  -0.0220 
 17 C       -9.4080     0.6080    -0.7810 C.3   1 <1>  -0.0220 
 18 C       -9.9320    -1.1390     0.9460 C.3   1 <1>  -0.1600 
 19 C      -10.1810     0.3140     0.5150 C.3   1 <1>   0.0580 
 20 C      -11.6680     0.6420     0.3410 C.2   1 <1>  -0.2760 
 21 C      -12.6500    -0.2570     0.2020 C.2   1 <1>  -0.3000 
 22 C      -11.9740     2.1340     0.3460 C.3   1 <1>  -0.1020 
 23 H       -1.4200    -0.1750     3.1110 H     1 <1>   0.1500 
 24 H       -0.3970     2.1710    -0.9730 H     1 <1>   0.1500 
 25 H        0.6930     1.0250     2.9700 H     1 <1>   0.1500 
 26 H       -1.9200    -0.9410    -1.5650 H     1 <1>   0.0800 
 27 H       -3.1940    -0.2980    -2.5560 H     1 <1>   0.0800 
 28 H       -4.3840     1.9570    -1.5840 H     1 <1>   0.0800 
 29 H       -3.7490     2.5290    -0.0710 H     1 <1>   0.0800 
 30 H        1.2700     2.2530     0.8840 H     1 <1>   0.1500 
 31 H       -3.4460    -1.5310     0.1950 H     1 <1>   0.0800 
 32 H       -4.0520    -2.2070    -1.2920 H     1 <1>   0.0800 
 33 H       -5.8970     1.2940     0.2190 H     1 <1>   0.0800 
 34 H       -4.5720     0.6090     1.1160 H     1 <1>   0.0800 
 35 H       -5.6530    -0.4150    -1.4390 H     1 <1>   0.4500 
 36 H       -5.8050    -1.3850     1.2990 H     1 <1>   0.0800 
 37 H       -6.1300    -2.4080    -0.0800 H     1 <1>   0.0800 
 38 H       -7.4030     0.4670    -1.5530 H     1 <1>   0.1500 
 39 H       -8.1990    -0.9380     2.1930 H     1 <1>   0.0800 
 40 H       -8.3040    -2.4520     1.3410 H     1 <1>   0.0800 
 41 H       -9.9310     0.1700    -1.6140 H     1 <1>   0.0800 
 42 H       -9.3740     1.6710    -0.9350 H     1 <1>   0.0800 
 43 H      -10.5180    -1.3650     1.8200 H     1 <1>   0.0800 
 44 H      -10.2420    -1.8000     0.1550 H     1 <1>   0.0800 
 45 H       -9.7910     0.9450     1.2960 H     1 <1>   0.0800 
 46 H      -13.6870     0.0040     0.0860 H     1 <1>   0.1500 
 47 H      -12.5200    -1.3240     0.1890 H     1 <1>   0.1500 
 48 H      -11.4970     2.6250    -0.4820 H     1 <1>   0.0800 
 49 H      -11.6340     2.5820     1.2620 H     1 <1>   0.0800 
 50 H      -13.0330     2.3030     0.2660 H     1 <1>   0.0800 
@<TRIPOS>BOND
  1   1   2  ar  
  2   1   3  ar  
  3   2   4  1   
  4   2   5  ar  
  5   3   6  ar  
  6   3  23  1   
  7   4   7  1   
  8   4   8  1   
  9   5   9  ar  
 10   5  24  1   
 11   6   9  ar  
 12   6  25  1   
 13   7  10  1   
 14   7  26  1   
 15   7  27  1   
 16   8  11  1   
 17   8  28  1   
 18   8  29  1   
 19   9  30  1   
 20  10  12  1   
 21  10  31  1   
 22  10  32  1   
 23  11  12  1   
 24  11  33  1   
 25  11  34  1   
 26  12  13  1   
 27  12  35  1   
 28  13  14  1   
 29  13  36  1   
 30  13  37  1   
 31  14  15  2   
 32  14  16  1   
 33  15  17  1   
 34  15  38  1   
 35  16  18  1   
 36  16  39  1   
 37  16  40  1   
 38  17  19  1   
 39  17  41  1   
 40  17  42  1   
 41  18  19  1   
 42  18  43  1   
 43  18  44  1   
 44  19  20  1   
 45  19  45  1   
 46  20  21  2   
 47  20  22  1   
 48  21  46  1   
 49  21  47  1   
 50  22  48  1   
 51  22  49  1   
 52  22  50  1   
@<TRIPOS>SUBSTRUCTURE
  1 ****  11 GROUP 4 **** **** 0

# MOE 2024.06 (io_trps.svl 2023.06)
