@<TRIPOS>MOLECULE
NONAME
52 54 1 0 0 
SMALL
USER_CHARGES


@<TRIPOS>ATOM
  1 P        0.3810    -0.1320    -0.7130 P.3   1 <1>   1.2420 
  2 O       -0.4770     0.1230    -1.8720 O.2   1 <1>  -0.7000 
  3 O       -0.4760    -0.3690     0.6300 O.3   1 <1>  -0.5510 
  4 O        1.1430    -1.5460    -0.8460 O.3   1 <1>  -0.5510 
  5 C        1.6590     1.1190    -0.3360 C.3   1 <1>   0.4330 
  6 C       -1.0470    -1.6200     0.7940 C.3   1 <1>   0.1200 
  7 C        1.3870    -2.2800     0.3070 C.3   1 <1>   0.1200 
  8 N        2.5750     0.8920     0.8440 N.pl3 1 <1>  -0.8690 
  9 C        1.1050     2.5260    -0.1070 C.ar  1 <1>  -0.1430 
 10 C        0.0540    -2.6980     0.9800 C.3   1 <1>   0.0000 
 11 C        3.9250     0.6560     0.6150 C.ar  1 <1>   0.1000 
 12 C        0.2310     2.7870     0.9420 C.ar  1 <1>  -0.1500 
 13 C        1.4810     3.5690    -0.9430 C.ar  1 <1>  -0.1500 
 14 C        0.3130    -2.9170     2.4800 C.3   1 <1>  -0.2400 
 15 C       -0.4380    -4.0200     0.3680 C.3   1 <1>  -0.2400 
 16 C        4.3650    -0.2840    -0.3090 C.ar  1 <1>  -0.1500 
 17 C        4.8710     1.3710     1.3380 C.ar  1 <1>  -0.1500 
 18 C       -0.2610     4.0640     1.1470 C.ar  1 <1>  -0.1500 
 19 C        0.9890     4.8460    -0.7380 C.ar  1 <1>  -0.1500 
 20 C        5.7140    -0.5060    -0.5190 C.ar  1 <1>   0.0830 
 21 C        6.2230     1.1590     1.1370 C.ar  1 <1>  -0.1500 
 22 C        0.1180     5.0950     0.3060 C.ar  1 <1>  -0.1500 
 23 O        6.0340    -1.4480    -1.4450 O.3   1 <1>  -0.3630 
 24 C        6.6500     0.2240     0.2100 C.ar  1 <1>  -0.1500 
 25 C        7.3650    -1.7880    -1.7690 C.3   1 <1>   0.1200 
 26 C        7.9210    -0.7710    -2.7670 C.3   1 <1>  -0.2400 
 27 H        2.2890     1.1830    -1.2040 H     1 <1>   0.0800 
 28 H       -1.6390    -1.8210    -0.0840 H     1 <1>   0.0800 
 29 H       -1.7040    -1.5810     1.6460 H     1 <1>   0.0800 
 30 H        1.9710    -1.6660     0.9720 H     1 <1>   0.0800 
 31 H        1.9750    -3.1400     0.0390 H     1 <1>   0.0800 
 32 H        2.4060     1.6470     1.5180 H     1 <1>   0.4000 
 33 H       -0.0760     1.9980     1.6090 H     1 <1>   0.1500 
 34 H        2.1600     3.3970    -1.7610 H     1 <1>   0.1500 
 35 H        0.6280    -1.9970     2.9420 H     1 <1>   0.0800 
 36 H        1.0830    -3.6530     2.6290 H     1 <1>   0.0800 
 37 H       -0.5800    -3.2550     2.9760 H     1 <1>   0.0800 
 38 H       -0.5890    -3.9060    -0.6920 H     1 <1>   0.0800 
 39 H       -1.3680    -4.3240     0.8150 H     1 <1>   0.0800 
 40 H        0.2850    -4.8030     0.5210 H     1 <1>   0.0800 
 41 H        3.6620    -0.8620    -0.8750 H     1 <1>   0.1500 
 42 H        4.5470     2.0970     2.0600 H     1 <1>   0.1500 
 43 H       -0.9400     4.2550     1.9590 H     1 <1>   0.1500 
 44 H        1.2850     5.6480    -1.3930 H     1 <1>   0.1500 
 45 H        6.9440     1.7230     1.7030 H     1 <1>   0.1500 
 46 H       -0.2660     6.0880     0.4640 H     1 <1>   0.1500 
 47 H        7.7040     0.0810     0.0730 H     1 <1>   0.1500 
 48 H        7.3390    -2.7640    -2.2210 H     1 <1>   0.0800 
 49 H        7.9500    -1.8470    -0.8680 H     1 <1>   0.0800 
 50 H        7.3160    -0.7630    -3.6560 H     1 <1>   0.0800 
 51 H        8.9250    -1.0420    -3.0390 H     1 <1>   0.0800 
 52 H        7.9380     0.2150    -2.3410 H     1 <1>   0.0800 
@<TRIPOS>BOND
  1   1   2  2   
  2   1   3  1   
  3   1   4  1   
  4   1   5  1   
  5   3   6  1   
  6   4   7  1   
  7   5   8  1   
  8   5   9  1   
  9   5  27  1   
 10   6  10  1   
 11   6  28  1   
 12   6  29  1   
 13   7  10  1   
 14   7  30  1   
 15   7  31  1   
 16   8  11  1   
 17   8  32  1   
 18   9  12  ar  
 19   9  13  ar  
 20  10  14  1   
 21  10  15  1   
 22  11  16  ar  
 23  11  17  ar  
 24  12  18  ar  
 25  12  33  1   
 26  13  19  ar  
 27  13  34  1   
 28  14  35  1   
 29  14  36  1   
 30  14  37  1   
 31  15  38  1   
 32  15  39  1   
 33  15  40  1   
 34  16  20  ar  
 35  16  41  1   
 36  17  21  ar  
 37  17  42  1   
 38  18  22  ar  
 39  18  43  1   
 40  19  22  ar  
 41  19  44  1   
 42  20  23  1   
 43  20  24  ar  
 44  21  24  ar  
 45  21  45  1   
 46  22  46  1   
 47  23  25  1   
 48  24  47  1   
 49  25  26  1   
 50  25  48  1   
 51  25  49  1   
 52  26  50  1   
 53  26  51  1   
 54  26  52  1   
@<TRIPOS>SUBSTRUCTURE
  1 ****   8 GROUP 4 **** **** 0

# MOE 2024.06 (io_trps.svl 2023.06)
