@<TRIPOS>MOLECULE
NONAME
31 32 1 0 0 
SMALL
USER_CHARGES


@<TRIPOS>ATOM
  1 O        0.1920     0.1990     0.6790 O.2   1 <1>  -0.5700 
  2 C        0.6820     1.2760     0.3940 C.2   1 <1>   0.6900 
  3 N        2.0430     1.4180     0.3410 N.am  1 <1>  -0.6600 
  4 N       -0.0940     2.3700     0.1400 N.am  1 <1>  -0.5470 
  5 C        2.7740     2.5820    -0.2060 C.3   1 <1>   0.1400 
  6 C        2.9570     0.2770     0.5700 C.3   1 <1>   0.1400 
  7 C       -1.4840     2.5380     0.0380 C.ar  1 <1>   0.1170 
  8 C        4.2470     2.2020    -0.1040 C.3   1 <1>  -0.1600 
  9 C        4.2570     0.6770    -0.1180 C.3   1 <1>  -0.1600 
 10 C       -2.0500     3.7930     0.2840 C.ar  1 <1>  -0.1440 
 11 C       -2.3220     1.4890    -0.3290 C.ar  1 <1>  -0.1500 
 12 C       -3.4190     3.9690     0.1630 C.ar  1 <1>  -0.1500 
 13 C       -1.1890     4.9820     0.6940 C.3   1 <1>  -0.0970 
 14 C       -3.6860     1.6710    -0.4460 C.ar  1 <1>  -0.1500 
 15 C       -4.2380     2.9150    -0.2000 C.ar  1 <1>  -0.1500 
 16 H        0.4390     3.2280     0.1230 H     1 <1>   0.3700 
 17 H        2.5620     3.4720     0.3600 H     1 <1>   0.0800 
 18 H        2.4930     2.7210    -1.2370 H     1 <1>   0.0800 
 19 H        2.5540    -0.6330     0.1580 H     1 <1>   0.0800 
 20 H        3.1060     0.1580     1.6290 H     1 <1>   0.0800 
 21 H        4.6360     2.5600     0.8330 H     1 <1>   0.0800 
 22 H        4.8260     2.6240    -0.9070 H     1 <1>   0.0800 
 23 H        4.2370     0.3180    -1.1320 H     1 <1>   0.0800 
 24 H        5.1160     0.2650     0.3820 H     1 <1>   0.0800 
 25 H       -1.9050     0.5190    -0.5280 H     1 <1>   0.1500 
 26 H       -3.8630     4.9310     0.3520 H     1 <1>   0.1500 
 27 H       -0.6170     4.7360     1.5710 H     1 <1>   0.0800 
 28 H       -1.7990     5.8370     0.9220 H     1 <1>   0.0800 
 29 H       -0.5210     5.2460    -0.1060 H     1 <1>   0.0800 
 30 H       -4.3160     0.8460    -0.7280 H     1 <1>   0.1500 
 31 H       -5.3000     3.0610    -0.2900 H     1 <1>   0.1500 
@<TRIPOS>BOND
  1   1   2  2   
  2   2   3  am  
  3   2   4  am  
  4   3   5  1   
  5   3   6  1   
  6   4   7  1   
  7   4  16  1   
  8   5   8  1   
  9   5  17  1   
 10   5  18  1   
 11   6   9  1   
 12   6  19  1   
 13   6  20  1   
 14   7  10  ar  
 15   7  11  ar  
 16   8   9  1   
 17   8  21  1   
 18   8  22  1   
 19   9  23  1   
 20   9  24  1   
 21  10  12  ar  
 22  10  13  1   
 23  11  14  ar  
 24  11  25  1   
 25  12  15  ar  
 26  12  26  1   
 27  13  27  1   
 28  13  28  1   
 29  13  29  1   
 30  14  15  ar  
 31  14  30  1   
 32  15  31  1   
@<TRIPOS>SUBSTRUCTURE
  1 ****   4 GROUP 4 **** **** 0

# MOE 2024.06 (io_trps.svl 2023.06)
