@<TRIPOS>MOLECULE
NONAME
36 37 1 0 0 
SMALL
USER_CHARGES


@<TRIPOS>ATOM
  1 O        0.0110     0.6710    -1.2960 O.2   1 <1>  -0.5700 
  2 C        0.0810     1.5340    -0.4440 C.2   1 <1>   0.5440 
  3 N       -0.9520     1.6920     0.4350 N.am  1 <1>  -0.7300 
  4 C        1.2550     2.3840    -0.3530 C.ar  1 <1>   0.0860 
  5 C       -2.2550     1.0170     0.4610 C.3   1 <1>   0.5000 
  6 C        2.5050     1.9120    -0.7720 C.ar  1 <1>  -0.1500 
  7 C        1.1800     3.6950     0.1490 C.ar  1 <1>  -0.1500 
  8 C       -2.9860     1.6740     1.5890 C.1   1 <1>  -0.2000 
  9 C       -3.0230     1.2460    -0.8630 C.3   1 <1>  -0.1600 
 10 C       -2.0440    -0.4800     0.7810 C.3   1 <1>  -0.1600 
 11 C        3.6070     2.7340    -0.6670 C.ar  1 <1>   0.0830 
 12 C        2.2980     4.5110     0.2500 C.ar  1 <1>  -0.1500 
 13 C       -3.5650     2.1980     2.4870 C.1   1 <1>  -0.1770 
 14 C       -3.1380     2.7110    -1.3290 C.3   1 <1>  -0.2400 
 15 C       -3.3270    -1.3120     0.9770 C.3   1 <1>  -0.2400 
 16 O        4.8740     2.4710    -1.0050 O.3   1 <1>  -0.3620 
 17 C        3.5100     3.9990    -0.1680 C.ar  1 <1>   0.0830 
 18 C        5.6300     3.6440    -0.7080 C.3   1 <1>   0.4000 
 19 O        4.7060     4.5880    -0.1690 O.3   1 <1>  -0.3630 
 20 H       -0.8620     2.3530     1.2010 H     1 <1>   0.3700 
 21 H        2.6080     0.9200    -1.1730 H     1 <1>   0.1500 
 22 H        0.2280     4.0880     0.4590 H     1 <1>   0.1500 
 23 H       -4.0180     0.8570    -0.7500 H     1 <1>   0.0800 
 24 H       -2.5530     0.6710    -1.6400 H     1 <1>   0.0800 
 25 H       -1.4540    -0.5560     1.6770 H     1 <1>   0.0800 
 26 H       -1.4800    -0.9310    -0.0160 H     1 <1>   0.0800 
 27 H        2.2390     5.5130     0.6350 H     1 <1>   0.1500 
 28 H       -4.0970     2.6660     3.2970 H     1 <1>   0.1770 
 29 H       -3.6220     3.3150    -0.5820 H     1 <1>   0.0800 
 30 H       -3.7180     2.7600    -2.2340 H     1 <1>   0.0800 
 31 H       -2.1650     3.1220    -1.5330 H     1 <1>   0.0800 
 32 H       -3.9270    -0.9150     1.7770 H     1 <1>   0.0800 
 33 H       -3.0650    -2.3260     1.2260 H     1 <1>   0.0800 
 34 H       -3.9140    -1.3310     0.0760 H     1 <1>   0.0800 
 35 H        6.0600     4.0360    -1.6130 H     1 <1>   0.0800 
 36 H        6.3810     3.4140     0.0260 H     1 <1>   0.0800 
@<TRIPOS>BOND
  1   1   2  2   
  2   2   3  am  
  3   2   4  1   
  4   3   5  1   
  5   3  20  1   
  6   4   6  ar  
  7   4   7  ar  
  8   5   8  1   
  9   5   9  1   
 10   5  10  1   
 11   6  11  ar  
 12   6  21  1   
 13   7  12  ar  
 14   7  22  1   
 15   8  13  3   
 16   9  14  1   
 17   9  23  1   
 18   9  24  1   
 19  10  15  1   
 20  10  25  1   
 21  10  26  1   
 22  11  16  1   
 23  11  17  ar  
 24  12  17  ar  
 25  12  27  1   
 26  13  28  1   
 27  14  29  1   
 28  14  30  1   
 29  14  31  1   
 30  15  32  1   
 31  15  33  1   
 32  15  34  1   
 33  16  18  1   
 34  17  19  1   
 35  18  19  1   
 36  18  35  1   
 37  18  36  1   
@<TRIPOS>SUBSTRUCTURE
  1 ****   2 GROUP 4 **** **** 0

# MOE 2024.06 (io_trps.svl 2023.06)
