@<TRIPOS>MOLECULE
NONAME
49 51 1 0 0 
SMALL
USER_CHARGES


@<TRIPOS>ATOM
  1 O        0.0830     0.4160    -1.2030 O.2   1 <1>  -0.5700 
  2 C        0.0980     1.6210    -1.0330 C.2   1 <1>   0.5440 
  3 N        1.2490     2.3310    -1.3190 N.am  1 <1>  -0.6600 
  4 C       -1.0930     2.2820    -0.5350 C.ar  1 <1>   0.0860 
  5 C        1.3500     3.8120    -1.2070 C.3   1 <1>   0.1400 
  6 C        2.5080     1.6490    -1.7240 C.3   1 <1>   0.1400 
  7 C       -1.3430     2.4350     0.8340 C.ar  1 <1>  -0.1440 
  8 C       -2.0210     2.8020    -1.4360 C.ar  1 <1>  -0.1500 
  9 C        2.4570     4.1800    -0.2160 C.3   1 <1>  -0.1600 
 10 C        3.6170     1.9950    -0.7270 C.3   1 <1>  -0.1600 
 11 C       -2.4770     3.1030     1.2650 C.ar  1 <1>  -0.1500 
 12 C       -0.3740     1.8620     1.8600 C.3   1 <1>  -0.0970 
 13 C       -3.1520     3.4660    -1.0020 C.ar  1 <1>  -0.1500 
 14 C        3.8000     3.5170    -0.5830 C.3   1 <1>  -0.0190 
 15 C       -3.3800     3.6200     0.3530 C.ar  1 <1>  -0.1500 
 16 C        4.9010     3.8370     0.4290 C.2   1 <1>   0.5690 
 17 O        4.6360     3.8320     1.6060 O.2   1 <1>  -0.5700 
 18 N        6.1500     4.0920    -0.0670 N.am  1 <1>  -0.5470 
 19 C        7.3590     4.4160     0.5730 C.ar  1 <1>   0.1170 
 20 C        8.5700     4.1580    -0.0750 C.ar  1 <1>  -0.1430 
 21 C        7.3880     5.0090     1.8320 C.ar  1 <1>  -0.1500 
 22 C        9.7670     4.4910     0.5390 C.ar  1 <1>  -0.1500 
 23 C        8.6120     3.5080    -1.4530 C.3   1 <1>  -0.0970 
 24 C        8.5860     5.3360     2.4390 C.ar  1 <1>  -0.1500 
 25 C        9.7790     5.0770     1.7920 C.ar  1 <1>  -0.1500 
 26 H        0.4210     4.2430    -0.8770 H     1 <1>   0.0800 
 27 H        1.5770     4.2190    -2.1770 H     1 <1>   0.0800 
 28 H        2.7800     1.9740    -2.7130 H     1 <1>   0.0800 
 29 H        2.3750     0.5800    -1.7520 H     1 <1>   0.0800 
 30 H       -1.8440     2.6760    -2.4900 H     1 <1>   0.1500 
 31 H        2.1540     3.8710     0.7690 H     1 <1>   0.0800 
 32 H        2.5760     5.2490    -0.1950 H     1 <1>   0.0800 
 33 H        4.5370     1.5430    -1.0510 H     1 <1>   0.0800 
 34 H        3.3650     1.5680     0.2300 H     1 <1>   0.0800 
 35 H       -2.6690     3.2240     2.3180 H     1 <1>   0.1500 
 36 H        0.5980     2.3060     1.7440 H     1 <1>   0.0800 
 37 H       -0.2840     0.7990     1.7220 H     1 <1>   0.0800 
 38 H       -0.7140     2.0460     2.8630 H     1 <1>   0.0800 
 39 H       -3.8560     3.8600    -1.7150 H     1 <1>   0.1500 
 40 H        4.1020     3.9080    -1.5380 H     1 <1>   0.0800 
 41 H       -4.2590     4.1370     0.6980 H     1 <1>   0.1500 
 42 H        6.2480     3.9730    -1.0700 H     1 <1>   0.3700 
 43 H        6.4710     5.2240     2.3480 H     1 <1>   0.1500 
 44 H       10.7050     4.2960     0.0490 H     1 <1>   0.1500 
 45 H        8.0780     2.5740    -1.4370 H     1 <1>   0.0800 
 46 H        9.6250     3.3060    -1.7520 H     1 <1>   0.0800 
 47 H        8.1700     4.1610    -2.1830 H     1 <1>   0.0800 
 48 H        8.5870     5.7920     3.4140 H     1 <1>   0.1500 
 49 H       10.7130     5.3310     2.2620 H     1 <1>   0.1500 
@<TRIPOS>BOND
  1   1   2  2   
  2   2   3  am  
  3   2   4  1   
  4   3   5  1   
  5   3   6  1   
  6   4   7  ar  
  7   4   8  ar  
  8   5   9  1   
  9   5  26  1   
 10   5  27  1   
 11   6  10  1   
 12   6  28  1   
 13   6  29  1   
 14   7  11  ar  
 15   7  12  1   
 16   8  13  ar  
 17   8  30  1   
 18   9  14  1   
 19   9  31  1   
 20   9  32  1   
 21  10  14  1   
 22  10  33  1   
 23  10  34  1   
 24  11  15  ar  
 25  11  35  1   
 26  12  36  1   
 27  12  37  1   
 28  12  38  1   
 29  13  15  ar  
 30  13  39  1   
 31  14  16  1   
 32  14  40  1   
 33  15  41  1   
 34  16  17  2   
 35  16  18  am  
 36  18  19  1   
 37  18  42  1   
 38  19  20  ar  
 39  19  21  ar  
 40  20  22  ar  
 41  20  23  1   
 42  21  24  ar  
 43  21  43  1   
 44  22  25  ar  
 45  22  44  1   
 46  23  45  1   
 47  23  46  1   
 48  23  47  1   
 49  24  25  ar  
 50  24  48  1   
 51  25  49  1   
@<TRIPOS>SUBSTRUCTURE
  1 ****  14 GROUP 4 **** **** 0

# MOE 2024.06 (io_trps.svl 2023.06)
