@<TRIPOS>MOLECULE
NONAME
44 46 1 0 0 
SMALL
USER_CHARGES


@<TRIPOS>ATOM
  1 O        1.4190    -2.2690     1.4080 O.2   1 <1>  -0.5700 
  2 C        0.8220    -2.6600     0.4260 C.2   1 <1>   0.7060 
  3 O       -0.3860    -3.1980     0.6200 O.3   1 <1>  -0.2320 
  4 C        1.3390    -2.6110    -0.9110 C.2   1 <1>   0.0290 
  5 C       -1.1570    -3.7040    -0.3740 C.ar  1 <1>   0.0830 
  6 C        2.6310    -2.0190    -1.1050 C.2   1 <1>   0.6160 
  7 C        0.5890    -3.0960    -1.9380 C.2   1 <1>  -0.1780 
  8 C       -2.4030    -4.2550    -0.0730 C.ar  1 <1>   0.0830 
  9 C       -0.6910    -3.6660    -1.6930 C.ar  1 <1>   0.0280 
 10 O        2.6910    -0.9660    -1.7130 O.2   1 <1>  -0.5700 
 11 N        3.8040    -2.6170    -0.6900 N.am  1 <1>  -0.6600 
 12 O       -2.7930    -4.2630     1.2320 O.3   1 <1>  -0.3630 
 13 C       -3.1870    -4.7680    -1.1000 C.ar  1 <1>  -0.1500 
 14 C       -1.4980    -4.1870    -2.7040 C.ar  1 <1>  -0.1500 
 15 C        5.0830    -1.8420    -0.7590 C.3   1 <1>   0.1400 
 16 C        3.8690    -3.9510    -0.0140 C.3   1 <1>   0.1400 
 17 C       -4.0460    -4.7740     1.6290 C.3   1 <1>   0.0400 
 18 C       -2.7310    -4.7310    -2.4100 C.ar  1 <1>  -0.1500 
 19 C        6.3110    -2.7290    -0.4950 C.3   1 <1>  -0.0800 
 20 C        4.7650    -3.8580     1.2280 C.3   1 <1>  -0.0800 
 21 C        6.2100    -3.4570     0.8610 C.3   1 <1>  -0.1600 
 22 C        7.6080    -1.9130    -0.5740 C.3   1 <1>  -0.2400 
 23 C        4.7470    -5.1680     2.0260 C.3   1 <1>  -0.2400 
 24 H        0.9430    -3.0540    -2.9540 H     1 <1>   0.1500 
 25 H       -4.1510    -5.2000    -0.9080 H     1 <1>   0.1500 
 26 H       -1.1530    -4.1620    -3.7220 H     1 <1>   0.1500 
 27 H        5.0430    -1.0530    -0.0280 H     1 <1>   0.0800 
 28 H        5.1700    -1.3900    -1.7330 H     1 <1>   0.0800 
 29 H        4.2720    -4.6750    -0.7010 H     1 <1>   0.0800 
 30 H        2.8910    -4.2840     0.2810 H     1 <1>   0.0800 
 31 H       -4.1280    -4.6620     2.6950 H     1 <1>   0.0800 
 32 H       -4.0970    -5.8160     1.3670 H     1 <1>   0.0800 
 33 H       -4.8230    -4.2120     1.1420 H     1 <1>   0.0800 
 34 H       -3.3460    -5.1310    -3.1990 H     1 <1>   0.1500 
 35 H        6.3440    -3.4670    -1.2790 H     1 <1>   0.0800 
 36 H        4.3470    -3.0880     1.8570 H     1 <1>   0.0800 
 37 H        6.5880    -2.8250     1.6470 H     1 <1>   0.0800 
 38 H        6.8420    -4.3270     0.8190 H     1 <1>   0.0800 
 39 H        7.6150    -1.1390     0.1730 H     1 <1>   0.0800 
 40 H        7.7010    -1.4540    -1.5430 H     1 <1>   0.0800 
 41 H        8.4600    -2.5510    -0.4180 H     1 <1>   0.0800 
 42 H        5.1210    -5.9830     1.4310 H     1 <1>   0.0800 
 43 H        3.7440    -5.3990     2.3370 H     1 <1>   0.0800 
 44 H        5.3590    -5.0740     2.9060 H     1 <1>   0.0800 
@<TRIPOS>BOND
  1   1   2  2   
  2   2   3  1   
  3   2   4  1   
  4   3   5  1   
  5   4   6  1   
  6   4   7  2   
  7   5   8  ar  
  8   5   9  ar  
  9   6  10  2   
 10   6  11  am  
 11   7   9  1   
 12   7  24  1   
 13   8  12  1   
 14   8  13  ar  
 15   9  14  ar  
 16  11  15  1   
 17  11  16  1   
 18  12  17  1   
 19  13  18  ar  
 20  13  25  1   
 21  14  18  ar  
 22  14  26  1   
 23  15  19  1   
 24  15  27  1   
 25  15  28  1   
 26  16  20  1   
 27  16  29  1   
 28  16  30  1   
 29  17  31  1   
 30  17  32  1   
 31  17  33  1   
 32  18  34  1   
 33  19  21  1   
 34  19  22  1   
 35  19  35  1   
 36  20  21  1   
 37  20  23  1   
 38  20  36  1   
 39  21  37  1   
 40  21  38  1   
 41  22  39  1   
 42  22  40  1   
 43  22  41  1   
 44  23  42  1   
 45  23  43  1   
 46  23  44  1   
@<TRIPOS>SUBSTRUCTURE
  1 ****   4 GROUP 4 **** **** 0

# MOE 2024.06 (io_trps.svl 2023.06)
