@<TRIPOS>MOLECULE
NONAME
47 49 1 0 0 
SMALL
USER_CHARGES


@<TRIPOS>ATOM
  1 S        0.3170     0.8190     1.5860 S.o2  1 <1>   1.4470 
  2 O        0.3250    -0.0940     2.7070 O.2   1 <1>  -0.6500 
  3 O        1.0170     2.0820     1.6870 O.2   1 <1>  -0.6500 
  4 N        0.9880    -0.0210     0.2780 N.am  1 <1>  -0.8490 
  5 C       -1.3950     1.0820     1.0480 C.ar  1 <1>  -0.0090 
  6 C        2.2860    -0.5930     0.5840 C.3   1 <1>   0.1960 
  7 C        1.1900     0.7790    -0.9190 C.3   1 <1>   0.1960 
  8 C       -2.1920     0.0030     0.6920 C.ar  1 <1>  -0.1500 
  9 C       -1.9480     2.3550     0.9740 C.ar  1 <1>  -0.1500 
 10 C        2.8810    -0.9420    -0.7760 C.3   1 <1>  -0.1600 
 11 C        2.1310    -0.0590    -1.7740 C.3   1 <1>  -0.1600 
 12 C       -3.5040     0.1600     0.2650 C.ar  1 <1>   0.1170 
 13 C       -3.2540     2.5380     0.5540 C.ar  1 <1>  -0.1500 
 14 N       -4.2410    -0.9870    -0.0670 N.am  1 <1>  -0.5470 
 15 C       -4.0250     1.4470     0.2030 C.ar  1 <1>  -0.1500 
 16 C       -5.3560    -1.1420    -0.8440 C.2   1 <1>   0.5690 
 17 O       -5.9010    -0.2410    -1.4300 O.2   1 <1>  -0.5700 
 18 C       -5.9350    -2.5340    -0.9710 C.3   1 <1>  -0.0990 
 19 C       -7.0840    -2.7440     0.0200 C.3   1 <1>  -0.0170 
 20 C       -7.6050    -4.1690    -0.0740 C.ar  1 <1>  -0.1430 
 21 C       -7.1560    -5.1430     0.8040 C.ar  1 <1>  -0.1500 
 22 C       -8.5340    -4.5060    -1.0470 C.ar  1 <1>  -0.1500 
 23 C       -7.6290    -6.4400     0.7100 C.ar  1 <1>  -0.1500 
 24 C       -9.0070    -5.8030    -1.1420 C.ar  1 <1>  -0.1500 
 25 C       -8.5540    -6.7710    -0.2630 C.ar  1 <1>  -0.1500 
 26 H        2.1860    -1.4590     1.2170 H     1 <1>   0.0800 
 27 H        2.9040     0.1410     1.0760 H     1 <1>   0.0800 
 28 H        1.6690     1.7130    -0.6710 H     1 <1>   0.0800 
 29 H        0.2570     0.9750    -1.4210 H     1 <1>   0.0800 
 30 H       -1.7670    -0.9840     0.7460 H     1 <1>   0.1500 
 31 H       -1.3520     3.2110     1.2470 H     1 <1>   0.1500 
 32 H        2.7080    -1.9820    -0.9920 H     1 <1>   0.0800 
 33 H        3.9400    -0.7530    -0.7850 H     1 <1>   0.0800 
 34 H        2.7950     0.5680    -2.3420 H     1 <1>   0.0800 
 35 H        1.5560    -0.6680    -2.4500 H     1 <1>   0.0800 
 36 H       -3.6700     3.5290     0.5010 H     1 <1>   0.1500 
 37 H       -3.8580    -1.8540     0.3050 H     1 <1>   0.3700 
 38 H       -5.0400     1.6040    -0.1160 H     1 <1>   0.1500 
 39 H       -5.1680    -3.2670    -0.8020 H     1 <1>   0.0800 
 40 H       -6.2990    -2.6640    -1.9740 H     1 <1>   0.0800 
 41 H       -7.8800    -2.0520    -0.1980 H     1 <1>   0.0800 
 42 H       -6.7470    -2.5460     1.0230 H     1 <1>   0.0800 
 43 H       -6.4370    -4.8980     1.5660 H     1 <1>   0.1500 
 44 H       -8.8910    -3.7600    -1.7350 H     1 <1>   0.1500 
 45 H       -7.2780    -7.1930     1.3950 H     1 <1>   0.1500 
 46 H       -9.7270    -6.0580    -1.8990 H     1 <1>   0.1500 
 47 H       -8.9220    -7.7800    -0.3370 H     1 <1>   0.1500 
@<TRIPOS>BOND
  1   1   2  2   
  2   1   3  2   
  3   1   4  am  
  4   1   5  1   
  5   4   6  1   
  6   4   7  1   
  7   5   8  ar  
  8   5   9  ar  
  9   6  10  1   
 10   6  26  1   
 11   6  27  1   
 12   7  11  1   
 13   7  28  1   
 14   7  29  1   
 15   8  12  ar  
 16   8  30  1   
 17   9  13  ar  
 18   9  31  1   
 19  10  11  1   
 20  10  32  1   
 21  10  33  1   
 22  11  34  1   
 23  11  35  1   
 24  12  14  1   
 25  12  15  ar  
 26  13  15  ar  
 27  13  36  1   
 28  14  16  am  
 29  14  37  1   
 30  15  38  1   
 31  16  17  2   
 32  16  18  1   
 33  18  19  1   
 34  18  39  1   
 35  18  40  1   
 36  19  20  1   
 37  19  41  1   
 38  19  42  1   
 39  20  21  ar  
 40  20  22  ar  
 41  21  23  ar  
 42  21  43  1   
 43  22  24  ar  
 44  22  44  1   
 45  23  25  ar  
 46  23  45  1   
 47  24  25  ar  
 48  24  46  1   
 49  25  47  1   
@<TRIPOS>SUBSTRUCTURE
  1 ****  14 GROUP 4 **** **** 0

# MOE 2024.06 (io_trps.svl 2023.06)
