@<TRIPOS>MOLECULE
NONAME
35 36 1 0 0 
SMALL
USER_CHARGES


@<TRIPOS>ATOM
  1 CL       0.4580     1.3000     2.5480 Cl    1 <1>  -0.1770 
  2 C        1.7520     1.6210     1.4190 C.ar  1 <1>   0.1770 
  3 C        1.7600     2.7620     0.6230 C.ar  1 <1>  -0.1790 
  4 C        2.7830     0.7030     1.3710 C.ar  1 <1>  -0.1500 
  5 C        0.7140     3.7560     0.6560 C.2   1 <1>   0.9790 
  6 C        2.8570     2.9420    -0.2200 C.ar  1 <1>  -0.1500 
  7 C        3.8610     0.9180     0.5300 C.ar  1 <1>  -0.1500 
  8 O       -0.4770     3.4490     0.4960 O.co2 1 <1>  -0.9000 
  9 O        1.0250     4.9530     0.7760 O.co2 1 <1>  -0.9000 
 10 C        3.9180     2.0470    -0.2790 C.ar  1 <1>  -0.0090 
 11 S        5.3610     2.3720    -1.3330 S.o2  1 <1>   1.4470 
 12 O        6.0000     1.1130    -1.6600 O.2   1 <1>  -0.6500 
 13 O        5.0300     3.2820    -2.4100 O.2   1 <1>  -0.6500 
 14 N        6.4250     3.2090    -0.3110 N.am  1 <1>  -0.8490 
 15 C        5.9070     4.5330     0.0600 C.3   1 <1>   0.1960 
 16 C        7.7520     3.3170    -0.9200 C.3   1 <1>   0.1960 
 17 C        6.8340     5.2030     1.0780 C.3   1 <1>  -0.1600 
 18 C        8.7440     3.9490     0.0620 C.3   1 <1>  -0.1600 
 19 C        8.2630     5.3280     0.5330 C.3   1 <1>  -0.0800 
 20 C        9.2050     5.9030     1.5960 C.3   1 <1>  -0.2400 
 21 H        2.7410    -0.1690     1.9980 H     1 <1>   0.1500 
 22 H        2.8710     3.8260    -0.8380 H     1 <1>   0.1500 
 23 H        4.6700     0.2070     0.5030 H     1 <1>   0.1500 
 24 H        4.9310     4.4380     0.5060 H     1 <1>   0.0800 
 25 H        5.8150     5.1540    -0.8170 H     1 <1>   0.0800 
 26 H        7.6930     3.9090    -1.8200 H     1 <1>   0.0800 
 27 H        8.1110     2.3370    -1.1860 H     1 <1>   0.0800 
 28 H        6.8300     4.6180     1.9810 H     1 <1>   0.0800 
 29 H        6.4470     6.1780     1.3150 H     1 <1>   0.0800 
 30 H        9.7020     4.0420    -0.4160 H     1 <1>   0.0800 
 31 H        8.8580     3.2890     0.9040 H     1 <1>   0.0800 
 32 H        8.2510     5.9950    -0.3130 H     1 <1>   0.0800 
 33 H        9.2420     5.2610     2.4580 H     1 <1>   0.0800 
 34 H        8.8670     6.8760     1.9060 H     1 <1>   0.0800 
 35 H       10.2000     6.0010     1.1980 H     1 <1>   0.0800 
@<TRIPOS>BOND
  1   1   2  1   
  2   2   3  ar  
  3   2   4  ar  
  4   3   5  1   
  5   3   6  ar  
  6   4   7  ar  
  7   4  21  1   
  8   5   8  ar  
  9   5   9  ar  
 10   6  10  ar  
 11   6  22  1   
 12   7  10  ar  
 13   7  23  1   
 14  10  11  1   
 15  11  12  2   
 16  11  13  2   
 17  11  14  am  
 18  14  15  1   
 19  14  16  1   
 20  15  17  1   
 21  15  24  1   
 22  15  25  1   
 23  16  18  1   
 24  16  26  1   
 25  16  27  1   
 26  17  19  1   
 27  17  28  1   
 28  17  29  1   
 29  18  19  1   
 30  18  30  1   
 31  18  31  1   
 32  19  20  1   
 33  19  32  1   
 34  20  33  1   
 35  20  34  1   
 36  20  35  1   
@<TRIPOS>SUBSTRUCTURE
  1 ****  10 GROUP 4 **** **** 0

# MOE 2024.06 (io_trps.svl 2023.06)
