@<TRIPOS>MOLECULE
NONAME
31 31 1 0 0 
SMALL
USER_CHARGES


@<TRIPOS>ATOM
  1 O       -1.3100     2.1010    -1.5840 O.3   1 <1>  -0.6800 
  2 C       -2.2400     2.6980    -0.7470 C.3   1 <1>   0.1200 
  3 C       -3.5730     1.8640    -0.5880 C.3   1 <1>  -0.0800 
  4 C       -3.7730     0.3310     0.0010 C.3   1 <1>   0.5030 
  5 C       -4.4390     2.9290     0.1710 C.3   1 <1>  -0.1600 
  6 N       -2.3090     0.1010    -0.1000 N.4   1 <1>  -0.9060 
  7 C       -5.3790     0.4720     0.0930 C.3   1 <1>  -0.1600 
  8 C       -3.8900    -1.1300     0.6310 C.3   1 <1>  -0.2400 
  9 C       -5.8930     2.8880    -0.2840 C.3   1 <1>  -0.1600 
 10 C       -1.8920    -0.7580    -1.2650 C.3   1 <1>   0.2630 
 11 C       -6.2400     1.4730    -0.7040 C.3   1 <1>  -0.1600 
 12 H       -0.6810     2.7720    -1.9360 H     1 <1>   0.4000 
 13 H       -1.7730     2.8780     0.2080 H     1 <1>   0.0800 
 14 H       -2.4590     3.6540    -1.1980 H     1 <1>   0.0800 
 15 H       -3.9170     1.8290    -1.6070 H     1 <1>   0.0800 
 16 H       -4.3840     2.7430     1.2310 H     1 <1>   0.0800 
 17 H       -4.1150     3.9480     0.0320 H     1 <1>   0.0800 
 18 H       -1.8220     0.9870    -0.2640 H     1 <1>   0.4500 
 19 H       -1.9540    -0.2670     0.7850 H     1 <1>   0.4500 
 20 H       -5.8720    -0.4470    -0.1880 H     1 <1>   0.0800 
 21 H       -5.6370     0.6440     1.1270 H     1 <1>   0.0800 
 22 H       -4.5920    -1.1910     1.4490 H     1 <1>   0.0800 
 23 H       -3.0230    -1.5850     1.0890 H     1 <1>   0.0800 
 24 H       -4.2270    -1.8270    -0.1200 H     1 <1>   0.0800 
 25 H       -6.5300     3.2090     0.5230 H     1 <1>   0.0800 
 26 H       -6.0500     3.5540    -1.1160 H     1 <1>   0.0800 
 27 H       -2.2460    -0.3230    -2.1860 H     1 <1>   0.0800 
 28 H       -2.2890    -1.7550    -1.1750 H     1 <1>   0.0800 
 29 H       -0.8170    -0.8180    -1.3120 H     1 <1>   0.0800 
 30 H       -6.0850     1.3400    -1.7620 H     1 <1>   0.0800 
 31 H       -7.2860     1.2970    -0.5140 H     1 <1>   0.0800 
@<TRIPOS>BOND
  1   1   2  1   
  2   1  12  1   
  3   2   3  1   
  4   2  13  1   
  5   2  14  1   
  6   3   4  1   
  7   3   5  1   
  8   3  15  1   
  9   4   6  1   
 10   4   7  1   
 11   4   8  1   
 12   5   9  1   
 13   5  16  1   
 14   5  17  1   
 15   6  10  1   
 16   6  18  1   
 17   6  19  1   
 18   7  11  1   
 19   7  20  1   
 20   7  21  1   
 21   8  22  1   
 22   8  23  1   
 23   8  24  1   
 24   9  11  1   
 25   9  25  1   
 26   9  26  1   
 27  10  27  1   
 28  10  28  1   
 29  10  29  1   
 30  11  30  1   
 31  11  31  1   
@<TRIPOS>SUBSTRUCTURE
  1 ****   3 GROUP 4 **** **** 0

# MOE 2024.06 (io_trps.svl 2023.06)
