@<TRIPOS>MOLECULE
NONAME
50 50 1 0 0 
SMALL
USER_CHARGES


@<TRIPOS>ATOM
  1 O       -0.1600     0.4160    -0.5900 O.2   1 <1>  -0.5700 
  2 C       -0.6920     1.3900    -0.0950 C.2   1 <1>   0.5440 
  3 N       -1.9650     1.2680     0.3910 N.am  1 <1>  -0.7300 
  4 C        0.0160     2.6550    -0.0060 C.ar  1 <1>   0.0860 
  5 C       -2.7880     0.0410     0.3260 C.3   1 <1>   0.1400 
  6 C        1.4030     2.6950     0.1210 C.ar  1 <1>  -0.1500 
  7 C       -0.6480     3.8830    -0.0420 C.ar  1 <1>  -0.1500 
  8 C       -4.2310     0.4260    -0.0110 C.3   1 <1>  -0.1600 
  9 C        2.0890     3.8910     0.2150 C.ar  1 <1>  -0.1500 
 10 C        0.0380     5.0800     0.0530 C.ar  1 <1>  -0.1500 
 11 C       -5.1940    -0.7760     0.0070 C.3   1 <1>  -0.0800 
 12 C        1.4280     5.1180     0.1800 C.ar  1 <1>   0.0860 
 13 C       -4.8480    -1.8090    -1.0740 C.3   1 <1>  -0.2400 
 14 C       -6.6330    -0.2890    -0.1960 C.3   1 <1>  -0.2400 
 15 C        2.1620     6.3670     0.2720 C.2   1 <1>   0.5440 
 16 O        3.2060     6.4270     0.8900 O.2   1 <1>  -0.5700 
 17 N        1.7000     7.4950    -0.3480 N.am  1 <1>  -0.7300 
 18 C        2.3470     8.8240    -0.2980 C.3   1 <1>   0.1400 
 19 C        1.2710     9.8940    -0.1000 C.3   1 <1>  -0.1600 
 20 C        1.8550    11.3060     0.0820 C.3   1 <1>  -0.0800 
 21 C        0.7310    12.2930     0.4170 C.3   1 <1>  -0.2400 
 22 C        2.6020    11.7890    -1.1690 C.3   1 <1>  -0.2400 
 23 H       -2.3600     2.0290     0.9420 H     1 <1>   0.3700 
 24 H       -2.7480    -0.4620     1.2770 H     1 <1>   0.0800 
 25 H       -2.3920    -0.6200    -0.4270 H     1 <1>   0.0800 
 26 H        1.9480     1.7650     0.1460 H     1 <1>   0.1500 
 27 H       -1.7180     3.8990    -0.1520 H     1 <1>   0.1500 
 28 H       -4.2520     0.8860    -0.9840 H     1 <1>   0.0800 
 29 H       -4.5700     1.1460     0.7120 H     1 <1>   0.0800 
 30 H        3.1610     3.8840     0.3180 H     1 <1>   0.1500 
 31 H       -0.5140     6.0030     0.0350 H     1 <1>   0.1500 
 32 H       -5.1360    -1.2550     0.9710 H     1 <1>   0.0800 
 33 H       -4.8430    -1.3520    -2.0480 H     1 <1>   0.0800 
 34 H       -5.5720    -2.6040    -1.0740 H     1 <1>   0.0800 
 35 H       -3.8820    -2.2470    -0.8940 H     1 <1>   0.0800 
 36 H       -6.7390     0.1950    -1.1520 H     1 <1>   0.0800 
 37 H       -6.9070     0.4100     0.5750 H     1 <1>   0.0800 
 38 H       -7.3170    -1.1180    -0.1550 H     1 <1>   0.0800 
 39 H        0.9100     7.4200    -0.9890 H     1 <1>   0.3700 
 40 H        2.8820     8.9860    -1.2170 H     1 <1>   0.0800 
 41 H        3.0510     8.8580     0.5180 H     1 <1>   0.0800 
 42 H        0.7060     9.6420     0.7810 H     1 <1>   0.0800 
 43 H        0.6030     9.8910    -0.9440 H     1 <1>   0.0800 
 44 H        2.5450    11.2920     0.9110 H     1 <1>   0.0800 
 45 H        0.0170    12.3440    -0.3860 H     1 <1>   0.0800 
 46 H        1.1340    13.2780     0.5800 H     1 <1>   0.0800 
 47 H        0.2200    11.9890     1.3130 H     1 <1>   0.0800 
 48 H        1.9570    11.7680    -2.0290 H     1 <1>   0.0800 
 49 H        3.4620    11.1750    -1.3650 H     1 <1>   0.0800 
 50 H        2.9470    12.7980    -1.0280 H     1 <1>   0.0800 
@<TRIPOS>BOND
  1   1   2  2   
  2   2   3  am  
  3   2   4  1   
  4   3   5  1   
  5   3  23  1   
  6   4   6  ar  
  7   4   7  ar  
  8   5   8  1   
  9   5  24  1   
 10   5  25  1   
 11   6   9  ar  
 12   6  26  1   
 13   7  10  ar  
 14   7  27  1   
 15   8  11  1   
 16   8  28  1   
 17   8  29  1   
 18   9  12  ar  
 19   9  30  1   
 20  10  12  ar  
 21  10  31  1   
 22  11  13  1   
 23  11  14  1   
 24  11  32  1   
 25  12  15  1   
 26  13  33  1   
 27  13  34  1   
 28  13  35  1   
 29  14  36  1   
 30  14  37  1   
 31  14  38  1   
 32  15  16  2   
 33  15  17  am  
 34  17  18  1   
 35  17  39  1   
 36  18  19  1   
 37  18  40  1   
 38  18  41  1   
 39  19  20  1   
 40  19  42  1   
 41  19  43  1   
 42  20  21  1   
 43  20  22  1   
 44  20  44  1   
 45  21  45  1   
 46  21  46  1   
 47  21  47  1   
 48  22  48  1   
 49  22  49  1   
 50  22  50  1   
@<TRIPOS>SUBSTRUCTURE
  1 ****   7 GROUP 4 **** **** 0

# MOE 2024.06 (io_trps.svl 2023.06)
