@<TRIPOS>MOLECULE
NONAME
38 38 1 0 0 
SMALL
USER_CHARGES


@<TRIPOS>ATOM
  1 S        0.0480    -0.9440    -0.7200 S.3   1 <1>  -0.3710 
  2 C       -1.0780     0.3290    -0.1460 C.2   1 <1>   0.6510 
  3 C        1.4250    -0.0330    -1.5960 C.3   1 <1>   0.1310 
  4 N       -0.7660     1.5360    -0.4260 N.2   1 <1>  -0.6210 
  5 N       -2.1790    -0.0810     0.5750 N.am  1 <1>  -0.4200 
  6 C        2.7640    -0.2280    -0.8870 C.2   1 <1>   0.5690 
  7 C       -1.5520     2.5320     0.0680 C.2   1 <1>   0.0210 
  8 C       -3.0150     0.9160     1.0590 C.2   1 <1>   0.6160 
  9 C       -2.4930    -1.5040     0.8390 C.3   1 <1>   0.2780 
 10 O        3.4270    -1.1790    -1.2410 O.2   1 <1>  -0.5700 
 11 N        3.2260     0.6420     0.0780 N.am  1 <1>  -0.6600 
 12 O       -1.1880     3.6890    -0.1490 O.3   1 <1>  -0.8500 
 13 C       -2.6840     2.2330     0.7980 C.2   1 <1>  -0.1360 
 14 O       -4.0150     0.5980     1.7280 O.2   1 <1>  -0.5700 
 15 C       -3.2390    -2.0980    -0.3440 C.2   1 <1>  -0.2880 
 16 C        2.4150     1.7660     0.6340 C.3   1 <1>   0.1400 
 17 C        4.5290     0.3970     0.7500 C.3   1 <1>   0.1400 
 18 C       -4.4960    -2.5540    -0.3120 C.2   1 <1>  -0.3000 
 19 C        2.5600     3.0250    -0.2190 C.3   1 <1>  -0.2400 
 20 C        5.6430     1.1330     0.0100 C.3   1 <1>  -0.2400 
 21 H        1.1770     1.0030    -1.6930 H     1 <1>   0.0800 
 22 H        1.4820    -0.4580    -2.5800 H     1 <1>   0.0800 
 23 H       -3.0950    -1.5880     1.7260 H     1 <1>   0.0800 
 24 H       -1.5900    -2.0570     1.0240 H     1 <1>   0.0800 
 25 H       -3.2950     3.0300     1.1650 H     1 <1>   0.1500 
 26 H       -2.6420    -2.1110    -1.2400 H     1 <1>   0.1500 
 27 H        2.7220     1.9830     1.6420 H     1 <1>   0.0800 
 28 H        1.3850     1.4770     0.6860 H     1 <1>   0.0800 
 29 H        4.7400    -0.6590     0.7520 H     1 <1>   0.0800 
 30 H        4.4860     0.7220     1.7750 H     1 <1>   0.0800 
 31 H       -5.0070    -2.9680    -1.1630 H     1 <1>   0.1500 
 32 H       -5.1200    -2.5410     0.5660 H     1 <1>   0.1500 
 33 H        3.5480     3.4340    -0.1390 H     1 <1>   0.0800 
 34 H        1.8530     3.7590     0.1290 H     1 <1>   0.0800 
 35 H        2.3310     2.8240    -1.2480 H     1 <1>   0.0800 
 36 H        5.6710     0.8150    -1.0180 H     1 <1>   0.0800 
 37 H        6.5890     0.9040     0.4640 H     1 <1>   0.0800 
 38 H        5.4910     2.1940     0.0540 H     1 <1>   0.0800 
@<TRIPOS>BOND
  1   1   2  1   
  2   1   3  1   
  3   2   4  2   
  4   2   5  1   
  5   3   6  1   
  6   3  21  1   
  7   3  22  1   
  8   4   7  1   
  9   5   8  am  
 10   5   9  1   
 11   6  10  2   
 12   6  11  am  
 13   7  12  1   
 14   7  13  2   
 15   8  13  1   
 16   8  14  2   
 17   9  15  1   
 18   9  23  1   
 19   9  24  1   
 20  11  16  1   
 21  11  17  1   
 22  13  25  1   
 23  15  18  2   
 24  15  26  1   
 25  16  19  1   
 26  16  27  1   
 27  16  28  1   
 28  17  20  1   
 29  17  29  1   
 30  17  30  1   
 31  18  31  1   
 32  18  32  1   
 33  19  33  1   
 34  19  34  1   
 35  19  35  1   
 36  20  36  1   
 37  20  37  1   
 38  20  38  1   
@<TRIPOS>SUBSTRUCTURE
  1 ****   2 GROUP 4 **** **** 0

# MOE 2024.06 (io_trps.svl 2023.06)
