@<TRIPOS>MOLECULE
NONAME
48 50 1 0 0 
SMALL
USER_CHARGES


@<TRIPOS>ATOM
  1 O        0.2030     0.0700     0.6050 O.2   1 <1>  -0.5700 
  2 C        0.2110    -1.1290     0.4020 C.2   1 <1>   0.6900 
  3 N        1.3580    -1.8590     0.5960 N.am  1 <1>  -0.6600 
  4 N       -0.9020    -1.7750    -0.0520 N.am  1 <1>  -0.5470 
  5 C        1.3850    -3.3120     0.9070 C.3   1 <1>   0.1400 
  6 C        2.6810    -1.1890     0.7110 C.3   1 <1>   0.1400 
  7 C       -2.2250    -1.3390    -0.2220 C.ar  1 <1>   0.1170 
  8 C        2.3570    -4.0150    -0.0440 C.3   1 <1>  -0.1600 
  9 C        3.6840    -1.8750    -0.2220 C.3   1 <1>  -0.1600 
 10 C       -3.0340    -1.9930    -1.1450 C.ar  1 <1>  -0.1500 
 11 C       -2.7730    -0.2920     0.5110 C.ar  1 <1>  -0.1500 
 12 C        3.7640    -3.3940     0.0270 C.3   1 <1>  -0.0800 
 13 C       -4.3510    -1.6140    -1.3380 C.ar  1 <1>  -0.1500 
 14 C       -4.0880     0.0920     0.3230 C.ar  1 <1>  -0.1500 
 15 C        4.7120    -4.0890    -0.9680 C.3   1 <1>  -0.0170 
 16 C       -4.8870    -0.5630    -0.5990 C.ar  1 <1>   0.0820 
 17 C        6.1400    -3.5760    -0.8540 C.ar  1 <1>  -0.1430 
 18 O       -6.1690    -0.1250    -0.7220 O.3   1 <1>  -0.3630 
 19 C        6.9450    -3.9870     0.1980 C.ar  1 <1>  -0.1500 
 20 C        6.6510    -2.6960    -1.7960 C.ar  1 <1>  -0.1500 
 21 C       -7.0470    -0.7050    -1.6590 C.3   1 <1>   0.0400 
 22 C        8.2440    -3.5210     0.3090 C.ar  1 <1>  -0.1500 
 23 C        7.9500    -2.2300    -1.6870 C.ar  1 <1>  -0.1500 
 24 C        8.7470    -2.6420    -0.6330 C.ar  1 <1>  -0.1500 
 25 H       -0.6840    -2.6830    -0.4410 H     1 <1>   0.3700 
 26 H        0.4060    -3.7480     0.8270 H     1 <1>   0.0800 
 27 H        1.7180    -3.4400     1.9240 H     1 <1>   0.0800 
 28 H        3.0200    -1.2520     1.7310 H     1 <1>   0.0800 
 29 H        2.6030    -0.1470     0.4480 H     1 <1>   0.0800 
 30 H        1.9740    -3.9440    -1.0470 H     1 <1>   0.0800 
 31 H        2.4070    -5.0580     0.2170 H     1 <1>   0.0800 
 32 H        4.6500    -1.4270    -0.0700 H     1 <1>   0.0800 
 33 H        3.3920    -1.6830    -1.2400 H     1 <1>   0.0800 
 34 H       -2.6300    -2.8030    -1.7230 H     1 <1>   0.1500 
 35 H       -2.1710     0.2270     1.2350 H     1 <1>   0.1500 
 36 H        4.1490    -3.5490     1.0210 H     1 <1>   0.0800 
 37 H       -4.9400    -2.1430    -2.0610 H     1 <1>   0.1500 
 38 H       -4.5030     0.9040     0.8930 H     1 <1>   0.1500 
 39 H        4.3530    -3.9430    -1.9720 H     1 <1>   0.0800 
 40 H        4.7140    -5.1490    -0.7810 H     1 <1>   0.0800 
 41 H        6.5640    -4.6710     0.9350 H     1 <1>   0.1500 
 42 H        6.0410    -2.3680    -2.6180 H     1 <1>   0.1500 
 43 H       -7.9910    -0.1960    -1.5910 H     1 <1>   0.0800 
 44 H       -7.1750    -1.7460    -1.4200 H     1 <1>   0.0800 
 45 H       -6.6350    -0.5820    -2.6460 H     1 <1>   0.0800 
 46 H        8.8630    -3.8440     1.1280 H     1 <1>   0.1500 
 47 H        8.3400    -1.5470    -2.4210 H     1 <1>   0.1500 
 48 H        9.7570    -2.2800    -0.5480 H     1 <1>   0.1500 
@<TRIPOS>BOND
  1   1   2  2   
  2   2   3  am  
  3   2   4  am  
  4   3   5  1   
  5   3   6  1   
  6   4   7  1   
  7   4  25  1   
  8   5   8  1   
  9   5  26  1   
 10   5  27  1   
 11   6   9  1   
 12   6  28  1   
 13   6  29  1   
 14   7  10  ar  
 15   7  11  ar  
 16   8  12  1   
 17   8  30  1   
 18   8  31  1   
 19   9  12  1   
 20   9  32  1   
 21   9  33  1   
 22  10  13  ar  
 23  10  34  1   
 24  11  14  ar  
 25  11  35  1   
 26  12  15  1   
 27  12  36  1   
 28  13  16  ar  
 29  13  37  1   
 30  14  16  ar  
 31  14  38  1   
 32  15  17  1   
 33  15  39  1   
 34  15  40  1   
 35  16  18  1   
 36  17  19  ar  
 37  17  20  ar  
 38  18  21  1   
 39  19  22  ar  
 40  19  41  1   
 41  20  23  ar  
 42  20  42  1   
 43  21  43  1   
 44  21  44  1   
 45  21  45  1   
 46  22  24  ar  
 47  22  46  1   
 48  23  24  ar  
 49  23  47  1   
 50  24  48  1   
@<TRIPOS>SUBSTRUCTURE
  1 ****   3 GROUP 4 **** **** 0

# MOE 2024.06 (io_trps.svl 2023.06)
