@<TRIPOS>MOLECULE
NONAME
32 32 1 0 0 
SMALL
USER_CHARGES


@<TRIPOS>ATOM
  1 O        0.2800     2.1610    -1.1960 O.2   1 <1>  -0.5700 
  2 C       -0.4780     2.1300    -0.2460 C.2   1 <1>   0.5440 
  3 N        0.0300     2.3910     0.9970 N.am  1 <1>  -0.7300 
  4 C       -1.8850     1.8220    -0.4330 C.ar  1 <1>   0.0860 
  5 C        1.4590     2.6670     1.2650 C.3   1 <1>   0.1400 
  6 C       -2.3400     1.1190    -1.5390 C.ar  1 <1>  -0.1500 
  7 C       -2.8790     2.2030     0.4600 C.ar  1 <1>  -0.1500 
  8 C        1.7570     4.1350     0.9740 C.3   1 <1>  -0.0990 
  9 C       -3.6830     0.8350    -1.6880 C.ar  1 <1>   0.1600 
 10 C       -4.1990     1.8700     0.2220 C.ar  1 <1>   0.1600 
 11 C        3.2480     4.3390     0.9040 C.2   1 <1>   0.5690 
 12 N       -4.6230     1.1920    -0.8300 N.ar  1 <1>  -0.6200 
 13 O        3.8400     4.7110     1.8870 O.2   1 <1>  -0.5700 
 14 N        3.8760     4.0810    -0.2690 N.am  1 <1>  -0.7300 
 15 C        5.3380     4.2010    -0.4800 C.3   1 <1>   0.1400 
 16 C        5.6950     5.6310    -0.8910 C.3   1 <1>   0.1200 
 17 O        7.0700     5.7370    -1.0410 O.3   1 <1>  -0.6800 
 18 H       -0.5650     2.2890     1.8200 H     1 <1>   0.3700 
 19 H        2.0610     2.0400     0.6270 H     1 <1>   0.0800 
 20 H        1.6980     2.4330     2.2890 H     1 <1>   0.0800 
 21 H       -1.6380     0.7930    -2.2870 H     1 <1>   0.1500 
 22 H       -2.6330     2.7670     1.3400 H     1 <1>   0.1500 
 23 H        1.3490     4.7560     1.7500 H     1 <1>   0.0800 
 24 H        1.3280     4.4250     0.0330 H     1 <1>   0.0800 
 25 H       -4.0040     0.2860    -2.5580 H     1 <1>   0.1500 
 26 H       -4.9490     2.1770     0.9310 H     1 <1>   0.1500 
 27 H        3.3260     3.7640    -1.0730 H     1 <1>   0.3700 
 28 H        5.6450     3.5120    -1.2480 H     1 <1>   0.0800 
 29 H        5.8460     3.9530     0.4370 H     1 <1>   0.0800 
 30 H        5.3820     6.3350    -0.1380 H     1 <1>   0.0800 
 31 H        5.2410     5.8770    -1.8340 H     1 <1>   0.0800 
 32 H        7.5120     5.6840    -0.1700 H     1 <1>   0.4000 
@<TRIPOS>BOND
  1   1   2  2   
  2   2   3  am  
  3   2   4  1   
  4   3   5  1   
  5   3  18  1   
  6   4   6  ar  
  7   4   7  ar  
  8   5   8  1   
  9   5  19  1   
 10   5  20  1   
 11   6   9  ar  
 12   6  21  1   
 13   7  10  ar  
 14   7  22  1   
 15   8  11  1   
 16   8  23  1   
 17   8  24  1   
 18   9  12  ar  
 19   9  25  1   
 20  10  12  ar  
 21  10  26  1   
 22  11  13  2   
 23  11  14  am  
 24  14  15  1   
 25  14  27  1   
 26  15  16  1   
 27  15  28  1   
 28  15  29  1   
 29  16  17  1   
 30  16  30  1   
 31  16  31  1   
 32  17  32  1   
@<TRIPOS>SUBSTRUCTURE
  1 ****   1 GROUP 4 **** **** 0

# MOE 2024.06 (io_trps.svl 2023.06)
