@<TRIPOS>MOLECULE
NONAME
35 36 1 0 0 
SMALL
USER_CHARGES


@<TRIPOS>ATOM
  1 CL      -1.3410    -3.5240    -2.2220 Cl    1 <1>  -0.1770 
  2 C       -0.5610    -2.9200    -0.7820 C.ar  1 <1>   0.1770 
  3 C       -1.1620    -1.9290    -0.0150 C.ar  1 <1>  -0.0090 
  4 C        0.6580    -3.4840    -0.4490 C.ar  1 <1>  -0.1500 
  5 S       -2.7560    -1.2110    -0.4690 S.o2  1 <1>   1.6670 
  6 C       -0.4840    -1.5060     1.1250 C.ar  1 <1>  -0.1500 
  7 C        1.3230    -3.0590     0.6960 C.ar  1 <1>   0.0820 
  8 O       -2.7330    -0.6780    -1.8070 O.2   1 <1>  -0.6500 
  9 O       -3.2580    -0.4180     0.6230 O.2   1 <1>  -0.6500 
 10 N       -3.8530    -2.5580    -0.5470 N.pl3 1 <1>  -0.7020 
 11 C        0.7320    -2.0660     1.4700 C.ar  1 <1>   0.1770 
 12 O        2.5160    -3.5650     1.0970 O.3   1 <1>  -0.3630 
 13 C       -4.1780    -3.4210     0.3720 C.cat 1 <1>   0.6040 
 14 C       -4.6550    -2.7440    -1.7770 C.3   1 <1>   0.3300 
 15 CL       1.5150    -1.4920     2.9240 Cl    1 <1>  -0.1770 
 16 C        3.2200    -4.5240     0.3410 C.3   1 <1>   0.1200 
 17 N       -5.0880    -4.2600    -0.0390 N.pl3 1 <1>  -0.7940 
 18 C       -3.5990    -3.4820     1.7670 C.3   1 <1>  -0.1350 
 19 C       -5.5120    -3.9770    -1.4320 C.3   1 <1>   0.3290 
 20 C        4.5250    -4.8290     1.0690 C.3   1 <1>  -0.2400 
 21 H        1.0670    -4.2450    -1.0870 H     1 <1>   0.1500 
 22 H       -0.8930    -0.7350     1.7590 H     1 <1>   0.1500 
 23 H       -4.0280    -2.9310    -2.6330 H     1 <1>   0.0800 
 24 H       -5.2740    -1.8820    -1.9630 H     1 <1>   0.0800 
 25 H        3.4180    -4.1140    -0.6350 H     1 <1>   0.0800 
 26 H        2.6160    -5.4110     0.2610 H     1 <1>   0.0800 
 27 H       -5.5110    -5.0290     0.4930 H     1 <1>   0.4500 
 28 H       -3.6630    -2.5190     2.2420 H     1 <1>   0.0800 
 29 H       -2.5720    -3.7960     1.7320 H     1 <1>   0.0800 
 30 H       -4.1470    -4.1850     2.3680 H     1 <1>   0.0800 
 31 H       -5.2820    -4.8050    -2.0820 H     1 <1>   0.0800 
 32 H       -6.5630    -3.7470    -1.4800 H     1 <1>   0.0800 
 33 H        5.1160    -3.9350     1.1600 H     1 <1>   0.0800 
 34 H        5.0890    -5.5580     0.5170 H     1 <1>   0.0800 
 35 H        4.3200    -5.2230     2.0480 H     1 <1>   0.0800 
@<TRIPOS>BOND
  1   1   2  1   
  2   2   3  ar  
  3   2   4  ar  
  4   3   5  1   
  5   3   6  ar  
  6   4   7  ar  
  7   4  21  1   
  8   5   8  2   
  9   5   9  2   
 10   5  10  1   
 11   6  11  ar  
 12   6  22  1   
 13   7  11  ar  
 14   7  12  1   
 15  10  13  ar  
 16  10  14  1   
 17  11  15  1   
 18  12  16  1   
 19  13  17  ar  
 20  13  18  1   
 21  14  19  1   
 22  14  23  1   
 23  14  24  1   
 24  16  20  1   
 25  16  25  1   
 26  16  26  1   
 27  17  19  1   
 28  17  27  1   
 29  18  28  1   
 30  18  29  1   
 31  18  30  1   
 32  19  31  1   
 33  19  32  1   
 34  20  33  1   
 35  20  34  1   
 36  20  35  1   
@<TRIPOS>SUBSTRUCTURE
  1 ****   3 GROUP 4 **** **** 0

# MOE 2024.06 (io_trps.svl 2023.06)
