@<TRIPOS>MOLECULE
NONAME
51 54 1 0 0 
SMALL
USER_CHARGES


@<TRIPOS>ATOM
  1 S        0.2140    -0.1790    -1.8200 S.3   1 <1>  -0.0800 
  2 C        1.5570    -0.9750    -1.0350 C.2   1 <1>   0.1660 
  3 C       -0.8940    -1.4460    -1.3070 C.2   1 <1>  -0.1400 
  4 N        2.8040    -0.4560    -1.0650 N.2   1 <1>  -0.5760 
  5 C        1.1670    -2.1260    -0.4280 C.2   1 <1>  -0.0860 
  6 C       -0.2450    -2.3890    -0.5910 C.2   1 <1>  -0.1810 
  7 C       -2.3350    -1.2630    -1.7450 C.3   1 <1>  -0.0600 
  8 C        3.6850    -1.1580    -0.4410 C.2   1 <1>   0.6510 
  9 C        2.1900    -2.8620     0.2480 C.2   1 <1>   0.7160 
 10 C       -0.8790    -3.6320     0.0160 C.3   1 <1>  -0.0590 
 11 S        5.3530    -0.5240    -0.4450 S.3   1 <1>  -0.3710 
 12 N        3.4760    -2.3480     0.2300 N.am  1 <1>  -0.2370 
 13 O        1.9590    -3.9130     0.8300 O.2   1 <1>  -0.5700 
 14 C        5.2500     1.0610    -1.4250 C.3   1 <1>   0.1310 
 15 C        4.5280    -3.0280     0.8790 C.ar  1 <1>   0.1170 
 16 C        6.6060     1.7450    -1.5300 C.2   1 <1>   0.5690 
 17 C        4.8280    -2.7590     2.2100 C.ar  1 <1>  -0.1500 
 18 C        5.2850    -3.9740     0.1970 C.ar  1 <1>  -0.1500 
 19 O        6.6850     2.7840    -2.1400 O.2   1 <1>  -0.5700 
 20 N        7.6860     1.1740    -0.9390 N.am  1 <1>  -0.7300 
 21 C        5.8690    -3.4150     2.8430 C.ar  1 <1>  -0.1500 
 22 C        6.3260    -4.6300     0.8280 C.ar  1 <1>  -0.1500 
 23 C        9.0620     1.6890    -0.9370 C.3   1 <1>   0.2200 
 24 C        6.6190    -4.3500     2.1520 C.ar  1 <1>  -0.1500 
 25 C        9.9810     0.6110    -1.4970 C.3   1 <1>  -0.1600 
 26 C        9.5240     1.8230     0.5080 C.3   1 <1>  -0.1600 
 27 C       10.2240    -0.3690    -0.3420 C.3   1 <1>  -0.1600 
 28 C        9.9310     0.4100     0.9470 C.3   1 <1>  -0.1600 
 29 H       -2.3860    -1.2270    -2.8180 H     1 <1>   0.0800 
 30 H       -2.7200    -0.3410    -1.3490 H     1 <1>   0.0800 
 31 H       -2.9530    -2.0690    -1.3980 H     1 <1>   0.0800 
 32 H       -1.9310    -3.6810    -0.1940 H     1 <1>   0.0800 
 33 H       -0.7460    -3.6280     1.0830 H     1 <1>   0.0800 
 34 H       -0.4130    -4.5140    -0.3850 H     1 <1>   0.0800 
 35 H        4.5490     1.7050    -0.9270 H     1 <1>   0.0800 
 36 H        4.8850     0.8130    -2.4040 H     1 <1>   0.0800 
 37 H        4.2460    -2.0360     2.7520 H     1 <1>   0.1500 
 38 H        5.0590    -4.1980    -0.8310 H     1 <1>   0.1500 
 39 H        7.5610     0.2930    -0.4350 H     1 <1>   0.3700 
 40 H        6.0940    -3.2000     3.8730 H     1 <1>   0.1500 
 41 H        6.9070    -5.3610     0.2920 H     1 <1>   0.1500 
 42 H        9.1270     2.6160    -1.4830 H     1 <1>   0.0800 
 43 H        7.4290    -4.8620     2.6440 H     1 <1>   0.1500 
 44 H       10.9150     1.0690    -1.7700 H     1 <1>   0.0800 
 45 H        9.5660     0.1350    -2.3680 H     1 <1>   0.0800 
 46 H        8.7670     2.2550     1.1390 H     1 <1>   0.0800 
 47 H       10.3920     2.4590     0.5290 H     1 <1>   0.0800 
 48 H       11.2350    -0.7380    -0.3590 H     1 <1>   0.0800 
 49 H        9.5490    -1.2040    -0.4220 H     1 <1>   0.0800 
 50 H        9.1170    -0.0570     1.4750 H     1 <1>   0.0800 
 51 H       10.7910     0.4420     1.5930 H     1 <1>   0.0800 
@<TRIPOS>BOND
  1   1   2  1   
  2   1   3  1   
  3   2   4  1   
  4   2   5  2   
  5   3   6  2   
  6   3   7  1   
  7   4   8  2   
  8   5   6  1   
  9   5   9  1   
 10   6  10  1   
 11   7  29  1   
 12   7  30  1   
 13   7  31  1   
 14   8  11  1   
 15   8  12  1   
 16   9  12  am  
 17   9  13  2   
 18  10  32  1   
 19  10  33  1   
 20  10  34  1   
 21  11  14  1   
 22  12  15  1   
 23  14  16  1   
 24  14  35  1   
 25  14  36  1   
 26  15  17  ar  
 27  15  18  ar  
 28  16  19  2   
 29  16  20  am  
 30  17  21  ar  
 31  17  37  1   
 32  18  22  ar  
 33  18  38  1   
 34  20  23  1   
 35  20  39  1   
 36  21  24  ar  
 37  21  40  1   
 38  22  24  ar  
 39  22  41  1   
 40  23  25  1   
 41  23  26  1   
 42  23  42  1   
 43  24  43  1   
 44  25  27  1   
 45  25  44  1   
 46  25  45  1   
 47  26  28  1   
 48  26  46  1   
 49  26  47  1   
 50  27  28  1   
 51  27  48  1   
 52  27  49  1   
 53  28  50  1   
 54  28  51  1   
@<TRIPOS>SUBSTRUCTURE
  1 ****   8 GROUP 4 **** **** 0

# MOE 2024.06 (io_trps.svl 2023.06)
