@<TRIPOS>MOLECULE
NONAME
40 41 1 0 0 
SMALL
USER_CHARGES


@<TRIPOS>ATOM
  1 O       -0.3790     0.3150     0.6260 O.3   1 <1>  -0.3630 
  2 C       -1.5770     0.9360     0.7640 C.ar  1 <1>   0.0830 
  3 C        0.6630     0.8960    -0.1260 C.3   1 <1>   0.1200 
  4 C       -2.5600     0.2490     1.4570 C.ar  1 <1>  -0.1500 
  5 C       -1.8600     2.1990     0.2510 C.ar  1 <1>  -0.1500 
  6 C        1.8650    -0.0610    -0.1590 C.3   1 <1>  -0.0800 
  7 C       -3.8120     0.8090     1.6390 C.ar  1 <1>  -0.1500 
  8 C       -3.1130     2.7580     0.4360 C.ar  1 <1>  -0.1500 
  9 C        3.0400     0.5890    -0.9000 C.3   1 <1>  -0.2400 
 10 C        1.5090    -1.3980    -0.8260 C.3   1 <1>  -0.2400 
 11 C       -4.0930     2.0680     1.1330 C.ar  1 <1>  -0.1430 
 12 C       -5.4780     2.6590     1.3410 C.3   1 <1>   0.1220 
 13 C       -6.4540     2.0070     0.3820 C.2   1 <1>  -0.1240 
 14 C       -7.2990     1.0010     0.8070 C.2   1 <1>   0.1530 
 15 C       -6.5270     2.3720    -0.9520 C.2   1 <1>   0.8990 
 16 O       -7.4130     0.5280     1.9210 O.3   1 <1>  -0.8500 
 17 N       -8.1260     0.4320    -0.0950 N.pl3 1 <1>  -0.8200 
 18 O       -5.8810     3.2670    -1.5000 O.2   1 <1>  -0.5700 
 19 N       -7.3940     1.7310    -1.7950 N.pl3 1 <1>  -0.8600 
 20 C       -8.1660     0.7780    -1.3520 C.cat 1 <1>   1.2000 
 21 N       -8.9780     0.1760    -2.1610 N.pl3 1 <1>  -0.9670 
 22 H        0.9350     1.8250     0.3440 H     1 <1>   0.0800 
 23 H        0.3000     1.0780    -1.1230 H     1 <1>   0.0800 
 24 H       -2.3430    -0.7270     1.8510 H     1 <1>   0.1500 
 25 H       -1.1250     2.7590    -0.2930 H     1 <1>   0.1500 
 26 H        2.1710    -0.2480     0.8570 H     1 <1>   0.0800 
 27 H       -4.5780     0.2650     2.1710 H     1 <1>   0.1500 
 28 H       -3.3260     3.7320     0.0290 H     1 <1>   0.1500 
 29 H        2.7760     0.7970    -1.9220 H     1 <1>   0.0800 
 30 H        3.8930    -0.0660    -0.8920 H     1 <1>   0.0800 
 31 H        3.3190     1.5110    -0.4220 H     1 <1>   0.0800 
 32 H        1.1860    -1.2430    -1.8400 H     1 <1>   0.0800 
 33 H        0.7150    -1.8850    -0.2860 H     1 <1>   0.0800 
 34 H        2.3610    -2.0540    -0.8300 H     1 <1>   0.0800 
 35 H       -5.4610     3.7230     1.1850 H     1 <1>   0.0800 
 36 H       -5.7930     2.4840     2.3560 H     1 <1>   0.0800 
 37 H       -8.6770    -0.2940     0.3410 H     1 <1>   0.4500 
 38 H       -7.3660     2.0520    -2.7440 H     1 <1>   0.4500 
 39 H       -9.0540     0.4010    -3.1450 H     1 <1>   0.4500 
 40 H       -9.5790    -0.5650    -1.8160 H     1 <1>   0.4500 
@<TRIPOS>BOND
  1   1   2  1   
  2   1   3  1   
  3   2   4  ar  
  4   2   5  ar  
  5   3   6  1   
  6   3  22  1   
  7   3  23  1   
  8   4   7  ar  
  9   4  24  1   
 10   5   8  ar  
 11   5  25  1   
 12   6   9  1   
 13   6  10  1   
 14   6  26  1   
 15   7  11  ar  
 16   7  27  1   
 17   8  11  ar  
 18   8  28  1   
 19   9  29  1   
 20   9  30  1   
 21   9  31  1   
 22  10  32  1   
 23  10  33  1   
 24  10  34  1   
 25  11  12  1   
 26  12  13  1   
 27  12  35  1   
 28  12  36  1   
 29  13  14  2   
 30  13  15  1   
 31  14  16  1   
 32  14  17  1   
 33  15  18  2   
 34  15  19  1   
 35  17  20  ar  
 36  17  37  1   
 37  19  20  ar  
 38  19  38  1   
 39  20  21  ar  
 40  21  39  1   
 41  21  40  1   
@<TRIPOS>SUBSTRUCTURE
  1 ****  11 GROUP 4 **** **** 0

# MOE 2024.06 (io_trps.svl 2023.06)
