@<TRIPOS>MOLECULE
NONAME
36 36 1 0 0 
SMALL
USER_CHARGES


@<TRIPOS>ATOM
  1 O        1.5150     3.4380    -1.5140 O.2   1 <1>  -0.5700 
  2 C        0.7430     2.8220    -0.8030 C.2   1 <1>   0.5440 
  3 N        1.2790     2.1210     0.2370 N.am  1 <1>  -0.7300 
  4 C       -0.6930     2.8460    -1.0640 C.ar  1 <1>   0.0860 
  5 C        2.7030     2.0430     0.6090 C.3   1 <1>   0.2200 
  6 C       -1.6240     1.9540    -0.4940 C.ar  1 <1>   0.0830 
  7 C       -1.1980     3.8160    -1.9370 C.ar  1 <1>  -0.1500 
  8 C        3.4390     1.1070    -0.3640 C.3   1 <1>   0.1200 
  9 C        2.7630     1.5640     2.0610 C.3   1 <1>  -0.2400 
 10 O       -1.1800     0.9890     0.3540 O.3   1 <1>  -0.3630 
 11 C       -2.9810     2.0590    -0.8010 C.ar  1 <1>  -0.1500 
 12 C       -2.5420     3.9140    -2.2370 C.ar  1 <1>  -0.1500 
 13 O        4.7600     0.9090     0.0520 O.3   1 <1>  -0.5600 
 14 C       -2.0180     0.0350     0.9630 C.3   1 <1>   0.1200 
 15 C       -3.4380     3.0320    -1.6660 C.ar  1 <1>  -0.1500 
 16 C        5.5120     0.1390    -0.8270 C.3   1 <1>   0.0400 
 17 C       -1.1450    -0.8610     1.8360 C.3   1 <1>  -0.2400 
 18 H        0.6400     1.5180     0.7640 H     1 <1>   0.3700 
 19 H        3.1350     3.0270     0.5310 H     1 <1>   0.0800 
 20 H       -0.5150     4.5140    -2.3920 H     1 <1>   0.1500 
 21 H        3.4510     1.5500    -1.3460 H     1 <1>   0.0800 
 22 H        2.9490     0.1500    -0.3980 H     1 <1>   0.0800 
 23 H        2.3620     0.5710     2.1490 H     1 <1>   0.0800 
 24 H        2.2160     2.2370     2.6960 H     1 <1>   0.0800 
 25 H        3.7860     1.5470     2.3920 H     1 <1>   0.0800 
 26 H       -3.7050     1.3900    -0.3770 H     1 <1>   0.1500 
 27 H       -2.8900     4.6760    -2.9140 H     1 <1>   0.1500 
 28 H       -2.5010    -0.5400     0.1910 H     1 <1>   0.0800 
 29 H       -2.7500     0.5520     1.5600 H     1 <1>   0.0800 
 30 H       -4.4870     3.1060    -1.8980 H     1 <1>   0.1500 
 31 H        6.5030     0.0400    -0.4210 H     1 <1>   0.0800 
 32 H        5.5590     0.6350    -1.7820 H     1 <1>   0.0800 
 33 H        5.0600    -0.8320    -0.9260 H     1 <1>   0.0800 
 34 H       -0.4050    -1.3580     1.2350 H     1 <1>   0.0800 
 35 H       -1.7540    -1.6070     2.3150 H     1 <1>   0.0800 
 36 H       -0.6590    -0.2770     2.5980 H     1 <1>   0.0800 
@<TRIPOS>BOND
  1   1   2  2   
  2   2   3  am  
  3   2   4  1   
  4   3   5  1   
  5   3  18  1   
  6   4   6  ar  
  7   4   7  ar  
  8   5   8  1   
  9   5   9  1   
 10   5  19  1   
 11   6  10  1   
 12   6  11  ar  
 13   7  12  ar  
 14   7  20  1   
 15   8  13  1   
 16   8  21  1   
 17   8  22  1   
 18   9  23  1   
 19   9  24  1   
 20   9  25  1   
 21  10  14  1   
 22  11  15  ar  
 23  11  26  1   
 24  12  15  ar  
 25  12  27  1   
 26  13  16  1   
 27  14  17  1   
 28  14  28  1   
 29  14  29  1   
 30  15  30  1   
 31  16  31  1   
 32  16  32  1   
 33  16  33  1   
 34  17  34  1   
 35  17  35  1   
 36  17  36  1   
@<TRIPOS>SUBSTRUCTURE
  1 ****   3 GROUP 4 **** **** 0

# MOE 2024.06 (io_trps.svl 2023.06)
