@<TRIPOS>MOLECULE
NONAME
37 38 1 0 0 
SMALL
USER_CHARGES


@<TRIPOS>ATOM
  1 S       -2.3780    -5.2800    -0.9440 S.o2  1 <1>   1.4470 
  2 O       -2.7420    -4.8960    -2.2910 O.2   1 <1>  -0.6500 
  3 O       -2.6870    -6.6140    -0.4780 O.2   1 <1>  -0.6500 
  4 N       -3.1700    -4.2010     0.0940 N.am  1 <1>  -0.8490 
  5 C       -0.6210    -4.9250    -0.6390 C.ar  1 <1>  -0.0090 
  6 C       -4.5130    -4.6760     0.4790 C.3   1 <1>   0.1960 
  7 C       -3.2300    -2.8270    -0.4130 C.3   1 <1>   0.1960 
  8 C       -0.1230    -4.8360     0.6550 C.ar  1 <1>  -0.1500 
  9 C        0.2760    -4.7520    -1.6860 C.ar  1 <1>  -0.1500 
 10 C       -5.4500    -3.5540     0.9830 C.3   1 <1>   0.1200 
 11 C       -3.8360    -1.8640     0.6360 C.3   1 <1>   0.1200 
 12 C        1.2170    -4.5850     0.8980 C.ar  1 <1>  -0.1500 
 13 C        1.6180    -4.4990    -1.4540 C.ar  1 <1>  -0.1500 
 14 O       -4.7260    -2.4880     1.5250 O.3   1 <1>  -0.5600 
 15 C        2.0990    -4.4140    -0.1570 C.ar  1 <1>  -0.1430 
 16 C        3.5710    -4.1490     0.1060 C.3   1 <1>  -0.0170 
 17 C        3.8020    -2.6430     0.2560 C.3   1 <1>   0.3430 
 18 N        5.2390    -2.3420     0.5140 N.4   1 <1>  -0.8530 
 19 H       -4.4050    -5.4170     1.2530 H     1 <1>   0.0800 
 20 H       -4.9880    -5.1600    -0.3590 H     1 <1>   0.0800 
 21 H       -3.8340    -2.7960    -1.3050 H     1 <1>   0.0800 
 22 H       -2.2450    -2.4840    -0.6760 H     1 <1>   0.0800 
 23 H       -0.8000    -4.9720     1.4830 H     1 <1>   0.1500 
 24 H       -0.0830    -4.8210    -2.7010 H     1 <1>   0.1500 
 25 H       -6.1090    -3.9340     1.7440 H     1 <1>   0.0800 
 26 H       -6.0490    -3.1750     0.1730 H     1 <1>   0.0800 
 27 H       -4.3580    -1.0630     0.1440 H     1 <1>   0.0800 
 28 H       -3.0490    -1.4370     1.2310 H     1 <1>   0.0800 
 29 H        1.5550    -4.5340     1.9190 H     1 <1>   0.1500 
 30 H        2.2760    -4.3800    -2.2980 H     1 <1>   0.1500 
 31 H        4.1510    -4.5360    -0.7140 H     1 <1>   0.0800 
 32 H        3.8650    -4.6630     1.0050 H     1 <1>   0.0800 
 33 H        3.1960    -2.2760     1.0690 H     1 <1>   0.0800 
 34 H        3.4780    -2.1480    -0.6470 H     1 <1>   0.0800 
 35 H        5.5660    -2.7890     1.3790 H     1 <1>   0.4500 
 36 H        5.3880    -1.3300     0.6150 H     1 <1>   0.4500 
 37 H        5.8350    -2.6670    -0.2560 H     1 <1>   0.4500 
@<TRIPOS>BOND
  1   1   2  2   
  2   1   3  2   
  3   1   4  am  
  4   1   5  1   
  5   4   6  1   
  6   4   7  1   
  7   5   8  ar  
  8   5   9  ar  
  9   6  10  1   
 10   6  19  1   
 11   6  20  1   
 12   7  11  1   
 13   7  21  1   
 14   7  22  1   
 15   8  12  ar  
 16   8  23  1   
 17   9  13  ar  
 18   9  24  1   
 19  10  14  1   
 20  10  25  1   
 21  10  26  1   
 22  11  14  1   
 23  11  27  1   
 24  11  28  1   
 25  12  15  ar  
 26  12  29  1   
 27  13  15  ar  
 28  13  30  1   
 29  15  16  1   
 30  16  17  1   
 31  16  31  1   
 32  16  32  1   
 33  17  18  1   
 34  17  33  1   
 35  17  34  1   
 36  18  35  1   
 37  18  36  1   
 38  18  37  1   
@<TRIPOS>SUBSTRUCTURE
  1 ****   5 GROUP 4 **** **** 0

# MOE 2024.06 (io_trps.svl 2023.06)
