@<TRIPOS>MOLECULE
NONAME
32 32 1 0 0 
SMALL
USER_CHARGES


@<TRIPOS>ATOM
  1 O       -0.8580    -0.0750    -0.8500 O.3   1 <1>  -0.5600 
  2 C       -1.2730     0.3820     0.4010 C.3   1 <1>   0.2640 
  3 C       -0.1370    -1.2630    -0.8130 C.3   1 <1>   0.0400 
  4 C       -2.0630     1.6850     0.2360 C.ar  1 <1>  -0.1440 
  5 C       -1.4200     2.9270     0.2350 C.ar  1 <1>  -0.1440 
  6 C       -3.4470     1.6290     0.1030 C.ar  1 <1>  -0.1440 
  7 C       -2.1700     4.1060     0.1750 C.ar  1 <1>  -0.1430 
  8 C        0.1110     2.9860     0.2870 C.3   1 <1>  -0.0970 
  9 C       -4.1740     2.8000     0.0110 C.ar  1 <1>  -0.1500 
 10 C       -4.2080     0.3090     0.0400 C.3   1 <1>  -0.0970 
 11 C       -3.5560     4.0340     0.0490 C.ar  1 <1>  -0.1430 
 12 C       -1.4980     5.4800     0.2610 C.3   1 <1>   0.3170 
 13 C       -4.4360     5.2740    -0.0610 C.3   1 <1>  -0.0970 
 14 N       -1.1370     5.9740    -1.0600 N.2   1 <1>  -0.1710 
 15 O       -1.5380     7.0310    -1.3640 O.2   1 <1>  -0.1620 
 16 H       -0.4070     0.5330     1.0200 H     1 <1>   0.0800 
 17 H       -1.8740    -0.3810     0.8610 H     1 <1>   0.0800 
 18 H        0.1320    -1.5200    -1.8230 H     1 <1>   0.0800 
 19 H       -0.7520    -2.0400    -0.3930 H     1 <1>   0.0800 
 20 H        0.7540    -1.1210    -0.2260 H     1 <1>   0.0800 
 21 H        0.5490     2.1420    -0.2130 H     1 <1>   0.0800 
 22 H        0.4460     3.0010     1.3080 H     1 <1>   0.0800 
 23 H        0.4950     3.8480    -0.2230 H     1 <1>   0.0800 
 24 H       -5.2430     2.7480    -0.0940 H     1 <1>   0.1500 
 25 H       -4.2080    -0.1640     1.0050 H     1 <1>   0.0800 
 26 H       -3.7480    -0.3460    -0.6790 H     1 <1>   0.0800 
 27 H       -5.2270     0.4650    -0.2620 H     1 <1>   0.0800 
 28 H       -0.6110     5.4270     0.8610 H     1 <1>   0.0800 
 29 H       -2.1480     6.1880     0.7410 H     1 <1>   0.0800 
 30 H       -4.4360     5.8140     0.8680 H     1 <1>   0.0800 
 31 H       -5.4510     5.0080    -0.2940 H     1 <1>   0.0800 
 32 H       -4.0790     5.9160    -0.8470 H     1 <1>   0.0800 
@<TRIPOS>BOND
  1   1   2  1   
  2   1   3  1   
  3   2   4  1   
  4   2  16  1   
  5   2  17  1   
  6   3  18  1   
  7   3  19  1   
  8   3  20  1   
  9   4   5  ar  
 10   4   6  ar  
 11   5   7  ar  
 12   5   8  1   
 13   6   9  ar  
 14   6  10  1   
 15   7  11  ar  
 16   7  12  1   
 17   8  21  1   
 18   8  22  1   
 19   8  23  1   
 20   9  11  ar  
 21   9  24  1   
 22  10  25  1   
 23  10  26  1   
 24  10  27  1   
 25  11  13  1   
 26  12  14  1   
 27  12  28  1   
 28  12  29  1   
 29  13  30  1   
 30  13  31  1   
 31  13  32  1   
 32  14  15  2   
@<TRIPOS>SUBSTRUCTURE
  1 ****   5 GROUP 4 **** **** 0

# MOE 2024.06 (io_trps.svl 2023.06)
