@<TRIPOS>MOLECULE
NONAME
42 44 1 0 0 
SMALL
USER_CHARGES


@<TRIPOS>ATOM
  1 S        0.7970    -0.5080     1.2220 S.3   1 <1>  -0.0800 
  2 C        1.6190     0.9910     0.7700 C.2   1 <1>  -0.0450 
  3 C       -0.4070    -0.3230    -0.0330 C.2   1 <1>  -0.1400 
  4 C        2.7800     1.3860     1.5200 C.2   1 <1>   0.5940 
  5 C        0.9510     1.5400    -0.2810 C.2   1 <1>  -0.1500 
  6 C       -0.1820     0.8040    -0.7310 C.2   1 <1>  -0.1500 
  7 C       -1.4660    -1.3990    -0.1440 C.3   1 <1>  -0.0600 
  8 O        3.1820     0.8050     2.4970 O.2   1 <1>  -0.5700 
  9 C        3.5410     2.6300     1.1260 C.3   1 <1>  -0.0990 
 10 C        4.5380     2.3750    -0.0050 C.3   1 <1>   0.4840 
 11 O        3.8500     2.2310    -1.2080 O.3   1 <1>  -0.6800 
 12 C        5.5290     1.2150     0.2250 C.2   1 <1>   0.5690 
 13 C        5.5180     3.5340    -0.1260 C.ar  1 <1>  -0.1440 
 14 O        5.2220     0.0440     0.1850 O.2   1 <1>  -0.5700 
 15 N        6.7960     1.7060     0.3730 N.am  1 <1>  -0.4770 
 16 C        6.7980     3.0800     0.1340 C.ar  1 <1>   0.1170 
 17 C        5.2830     4.8640    -0.4270 C.ar  1 <1>  -0.1500 
 18 C        7.9940     0.8630     0.5710 C.3   1 <1>   0.1400 
 19 C        7.8690     3.9620     0.1150 C.ar  1 <1>  -0.1500 
 20 C        6.3530     5.7450    -0.4500 C.ar  1 <1>  -0.1500 
 21 C        8.6480     0.5580    -0.7800 C.3   1 <1>  -0.1600 
 22 C        7.6390     5.2970    -0.1770 C.ar  1 <1>  -0.1500 
 23 C        9.9060    -0.3010    -0.6100 C.3   1 <1>  -0.2400 
 24 H        1.2210     2.4590    -0.7720 H     1 <1>   0.1500 
 25 H       -0.7770     1.1510    -1.5570 H     1 <1>   0.1500 
 26 H       -1.0020    -2.3500    -0.3350 H     1 <1>   0.0800 
 27 H       -2.1430    -1.1740    -0.9480 H     1 <1>   0.0800 
 28 H       -2.0220    -1.4610     0.7740 H     1 <1>   0.0800 
 29 H        4.0860     2.9690     1.9880 H     1 <1>   0.0800 
 30 H        2.8620     3.4130     0.8490 H     1 <1>   0.0800 
 31 H        3.8360     1.2770    -1.4360 H     1 <1>   0.4000 
 32 H        4.2860     5.2080    -0.6440 H     1 <1>   0.1500 
 33 H        7.7020    -0.0570     1.0500 H     1 <1>   0.0800 
 34 H        8.6860     1.3750     1.2170 H     1 <1>   0.0800 
 35 H        8.8640     3.6130     0.3200 H     1 <1>   0.1500 
 36 H        6.1870     6.7830    -0.6830 H     1 <1>   0.1500 
 37 H        8.9140     1.4780    -1.2710 H     1 <1>   0.0800 
 38 H        7.9440     0.0310    -1.4010 H     1 <1>   0.0800 
 39 H        8.4610     5.9910    -0.1970 H     1 <1>   0.1500 
 40 H       10.6350     0.2100    -0.0050 H     1 <1>   0.0800 
 41 H       10.3430    -0.5070    -1.5710 H     1 <1>   0.0800 
 42 H        9.6600    -1.2390    -0.1410 H     1 <1>   0.0800 
@<TRIPOS>BOND
  1   1   2  1   
  2   1   3  1   
  3   2   4  1   
  4   2   5  2   
  5   3   6  2   
  6   3   7  1   
  7   4   8  2   
  8   4   9  1   
  9   5   6  1   
 10   5  24  1   
 11   6  25  1   
 12   7  26  1   
 13   7  27  1   
 14   7  28  1   
 15   9  10  1   
 16   9  29  1   
 17   9  30  1   
 18  10  11  1   
 19  10  12  1   
 20  10  13  1   
 21  11  31  1   
 22  12  14  2   
 23  12  15  am  
 24  13  16  ar  
 25  13  17  ar  
 26  15  16  1   
 27  15  18  1   
 28  16  19  ar  
 29  17  20  ar  
 30  17  32  1   
 31  18  21  1   
 32  18  33  1   
 33  18  34  1   
 34  19  22  ar  
 35  19  35  1   
 36  20  22  ar  
 37  20  36  1   
 38  21  23  1   
 39  21  37  1   
 40  21  38  1   
 41  22  39  1   
 42  23  40  1   
 43  23  41  1   
 44  23  42  1   
@<TRIPOS>SUBSTRUCTURE
  1 ****  10 GROUP 4 **** **** 0

# MOE 2024.06 (io_trps.svl 2023.06)
