@<TRIPOS>MOLECULE
NONAME
37 38 1 0 0 
SMALL
USER_CHARGES


@<TRIPOS>ATOM
  1 S       -0.0600    -0.0950    -0.6570 S.o2  1 <1>   1.5760 
  2 O       -0.0140    -0.6120    -2.0010 O.2   1 <1>  -0.6500 
  3 O        0.1020    -0.9230     0.5130 O.2   1 <1>  -0.6500 
  4 N       -1.4770     0.7920    -0.4800 N.am  1 <1>  -0.8490 
  5 N        1.0210     1.2220    -0.6140 N.am  1 <1>  -0.7570 
  6 C       -2.6520     0.0590    -0.9860 C.3   1 <1>   0.1960 
  7 C       -1.7000     1.2570     0.8930 C.3   1 <1>   0.1960 
  8 C        2.3770     1.1130    -0.3430 C.ar  1 <1>   0.1990 
  9 C       -3.9900     0.5070    -0.3540 C.3   1 <1>   0.1200 
 10 C       -2.9530     2.1600     0.9840 C.3   1 <1>   0.1200 
 11 C        3.2990     1.6350    -1.2430 C.ar  1 <1>  -0.1500 
 12 C        2.8480     0.5070     0.8160 C.ar  1 <1>  -0.1500 
 13 O       -3.9460     1.8470     0.0380 O.3   1 <1>  -0.5600 
 14 C        4.6590     1.5510    -1.0000 C.ar  1 <1>  -0.1500 
 15 C        4.2060     0.4190     1.0640 C.ar  1 <1>  -0.1500 
 16 C        5.1200     0.9380     0.1620 C.ar  1 <1>   0.0820 
 17 O        6.4360     0.8080     0.4830 O.3   1 <1>  -0.3630 
 18 C        7.4410     1.2620    -0.3920 C.3   1 <1>   0.1200 
 19 C        8.7930     0.9480     0.2410 C.3   1 <1>  -0.2400 
 20 H        0.7800     1.7990    -1.4090 H     1 <1>   0.4200 
 21 H       -2.5370    -0.9980    -0.8080 H     1 <1>   0.0800 
 22 H       -2.7040     0.1970    -2.0530 H     1 <1>   0.0800 
 23 H       -0.8440     1.8090     1.2430 H     1 <1>   0.0800 
 24 H       -1.8290     0.4110     1.5470 H     1 <1>   0.0800 
 25 H       -4.2120    -0.0890     0.5140 H     1 <1>   0.0800 
 26 H       -4.7930     0.3910    -1.0600 H     1 <1>   0.0800 
 27 H       -2.6710     3.1840     0.8140 H     1 <1>   0.0800 
 28 H       -3.3880     2.0890     1.9650 H     1 <1>   0.0800 
 29 H        2.9510     2.1080    -2.1420 H     1 <1>   0.1500 
 30 H        2.1530     0.1050     1.5300 H     1 <1>   0.1500 
 31 H        5.3380     1.9650    -1.7200 H     1 <1>   0.1500 
 32 H        4.5660    -0.0530     1.9600 H     1 <1>   0.1500 
 33 H        7.3220     2.3230    -0.5280 H     1 <1>   0.0800 
 34 H        7.3330     0.7480    -1.3320 H     1 <1>   0.0800 
 35 H        8.8840     1.4520     1.1860 H     1 <1>   0.0800 
 36 H        9.5840     1.2830    -0.4050 H     1 <1>   0.0800 
 37 H        8.8950    -0.1120     0.3870 H     1 <1>   0.0800 
@<TRIPOS>BOND
  1   1   2  2   
  2   1   3  2   
  3   1   4  am  
  4   1   5  am  
  5   4   6  1   
  6   4   7  1   
  7   5   8  1   
  8   5  20  1   
  9   6   9  1   
 10   6  21  1   
 11   6  22  1   
 12   7  10  1   
 13   7  23  1   
 14   7  24  1   
 15   8  11  ar  
 16   8  12  ar  
 17   9  13  1   
 18   9  25  1   
 19   9  26  1   
 20  10  13  1   
 21  10  27  1   
 22  10  28  1   
 23  11  14  ar  
 24  11  29  1   
 25  12  15  ar  
 26  12  30  1   
 27  14  16  ar  
 28  14  31  1   
 29  15  16  ar  
 30  15  32  1   
 31  16  17  1   
 32  17  18  1   
 33  18  19  1   
 34  18  33  1   
 35  18  34  1   
 36  19  35  1   
 37  19  36  1   
 38  19  37  1   
@<TRIPOS>SUBSTRUCTURE
  1 ****   5 GROUP 4 **** **** 0

# MOE 2024.06 (io_trps.svl 2023.06)
