@<TRIPOS>MOLECULE
NONAME
41 42 1 0 0 
SMALL
USER_CHARGES


@<TRIPOS>ATOM
  1 F       -2.7370    -0.0700     1.9450 F     1 <1>  -0.3400 
  2 C       -3.3410     0.6230     0.9920 C.3   1 <1>   1.1640 
  3 F       -4.4770     1.0780     1.5140 F     1 <1>  -0.3400 
  4 F       -3.7040    -0.2470     0.0590 F     1 <1>  -0.3400 
  5 C       -2.5160     1.7820     0.4040 C.ar  1 <1>  -0.1440 
  6 C       -2.9590     2.5290    -0.6980 C.ar  1 <1>  -0.1440 
  7 C       -1.2910     2.1100     0.9830 C.ar  1 <1>  -0.1500 
  8 C       -2.1680     3.5580    -1.1930 C.ar  1 <1>  -0.1500 
  9 C       -4.2850     2.2670    -1.4090 C.3   1 <1>   0.4870 
 10 C       -0.5200     3.1430     0.4850 C.ar  1 <1>  -0.1500 
 11 C       -0.9580     3.8670    -0.6040 C.ar  1 <1>  -0.1500 
 12 N       -5.4140     2.7840    -0.5850 N.4   1 <1>  -0.9590 
 13 C       -6.7240     2.3270    -1.1260 C.3   1 <1>   0.4860 
 14 C       -5.3580     4.2770    -0.4190 C.3   1 <1>   0.3430 
 15 C       -7.7910     2.5750    -0.0810 C.ar  1 <1>  -0.1430 
 16 C       -5.5690     4.7150     1.0370 C.3   1 <1>   0.1200 
 17 C       -7.8800     1.7550     1.0350 C.ar  1 <1>  -0.1500 
 18 C       -8.6810     3.6310    -0.2270 C.ar  1 <1>  -0.1500 
 19 O       -5.4740     6.0950     1.0730 O.3   1 <1>  -0.6800 
 20 C       -8.8390     1.9980     2.0020 C.ar  1 <1>  -0.1500 
 21 C       -9.6390     3.8710     0.7420 C.ar  1 <1>  -0.1500 
 22 C       -9.7170     3.0570     1.8570 C.ar  1 <1>  -0.1500 
 23 H       -0.9140     1.5640     1.8330 H     1 <1>   0.1500 
 24 H       -2.4780     4.1390    -2.0460 H     1 <1>   0.1500 
 25 H       -4.4010     1.2090    -1.5790 H     1 <1>   0.0800 
 26 H       -4.2800     2.7560    -2.3700 H     1 <1>   0.0800 
 27 H        0.4250     3.3820     0.9450 H     1 <1>   0.1500 
 28 H       -0.3510     4.6680    -0.9930 H     1 <1>   0.1500 
 29 H       -5.3390     2.3740     0.3560 H     1 <1>   0.4500 
 30 H       -6.6900     1.2710    -1.3440 H     1 <1>   0.0800 
 31 H       -6.9630     2.8570    -2.0340 H     1 <1>   0.0800 
 32 H       -6.1090     4.7450    -1.0340 H     1 <1>   0.0800 
 33 H       -4.3950     4.6460    -0.7290 H     1 <1>   0.0800 
 34 H       -4.8020     4.3120     1.6760 H     1 <1>   0.0800 
 35 H       -6.5440     4.4400     1.4000 H     1 <1>   0.0800 
 36 H       -7.2150     0.9180     1.1700 H     1 <1>   0.1500 
 37 H       -8.6430     4.2780    -1.0870 H     1 <1>   0.1500 
 38 H       -5.6210     6.4410     1.9800 H     1 <1>   0.4000 
 39 H       -8.9090     1.3620     2.8690 H     1 <1>   0.1500 
 40 H      -10.3290     4.6910     0.6300 H     1 <1>   0.1500 
 41 H      -10.4640     3.2450     2.6100 H     1 <1>   0.1500 
@<TRIPOS>BOND
  1   1   2  1   
  2   2   3  1   
  3   2   4  1   
  4   2   5  1   
  5   5   6  ar  
  6   5   7  ar  
  7   6   8  ar  
  8   6   9  1   
  9   7  10  ar  
 10   7  23  1   
 11   8  11  ar  
 12   8  24  1   
 13   9  12  1   
 14   9  25  1   
 15   9  26  1   
 16  10  11  ar  
 17  10  27  1   
 18  11  28  1   
 19  12  13  1   
 20  12  14  1   
 21  12  29  1   
 22  13  15  1   
 23  13  30  1   
 24  13  31  1   
 25  14  16  1   
 26  14  32  1   
 27  14  33  1   
 28  15  17  ar  
 29  15  18  ar  
 30  16  19  1   
 31  16  34  1   
 32  16  35  1   
 33  17  20  ar  
 34  17  36  1   
 35  18  21  ar  
 36  18  37  1   
 37  19  38  1   
 38  20  22  ar  
 39  20  39  1   
 40  21  22  ar  
 41  21  40  1   
 42  22  41  1   
@<TRIPOS>SUBSTRUCTURE
  1 ****  12 GROUP 4 **** **** 0

# MOE 2024.06 (io_trps.svl 2023.06)
