@<TRIPOS>MOLECULE
NONAME
37 39 1 0 0 
SMALL
USER_CHARGES


@<TRIPOS>ATOM
  1 BR       0.8610    -0.3340     2.8520 Br    1 <1>  -0.1110 
  2 C        2.1420    -1.0340     1.5990 C.ar  1 <1>   0.1110 
  3 C        2.5370    -2.3520     1.7180 C.ar  1 <1>  -0.1500 
  4 C        2.6330    -0.2010     0.6130 C.ar  1 <1>  -0.1500 
  5 C        3.4600    -2.8520     0.8140 C.ar  1 <1>  -0.1500 
  6 C        3.5560    -0.7120    -0.2840 C.ar  1 <1>  -0.1500 
  7 C        3.9730    -2.0350    -0.1880 C.ar  1 <1>  -0.1430 
  8 C        4.9920    -2.5750    -1.1810 C.3   1 <1>   0.2840 
  9 N        6.3240    -1.9820    -0.9050 N.am  1 <1>  -0.4690 
 10 C        6.8220    -0.9750    -1.7180 C.2   1 <1>   0.8410 
 11 C        7.0300    -2.3750     0.2000 C.2   1 <1>  -0.0410 
 12 O        6.1660    -0.5860    -2.6750 O.2   1 <1>  -0.5700 
 13 N        8.0270    -0.3980    -1.4830 N.2   1 <1>  -0.6610 
 14 C        8.2200    -1.7850     0.4370 C.2   1 <1>  -0.1360 
 15 C        8.7100    -0.7920    -0.4550 C.2   1 <1>   0.4860 
 16 N        9.9370    -0.2090    -0.2400 N.pl3 1 <1>  -0.7880 
 17 C       10.2920     1.1050    -0.8620 C.3   1 <1>   0.2090 
 18 C       11.1340    -0.9240     0.2990 C.3   1 <1>   0.2090 
 19 C       11.1920     1.9300     0.0750 C.3   1 <1>   0.1200 
 20 C       11.9690     0.0150     1.1880 C.3   1 <1>   0.1200 
 21 O       12.3030     1.1870     0.4990 O.3   1 <1>  -0.5600 
 22 H        2.1320    -2.9700     2.4990 H     1 <1>   0.1500 
 23 H        2.3050     0.8200     0.5490 H     1 <1>   0.1500 
 24 H        3.7760    -3.8770     0.8970 H     1 <1>   0.1500 
 25 H        3.9540    -0.0770    -1.0590 H     1 <1>   0.1500 
 26 H        4.6710    -2.3530    -2.1840 H     1 <1>   0.0800 
 27 H        5.0620    -3.6440    -1.0960 H     1 <1>   0.0800 
 28 H        6.6060    -3.1270     0.8450 H     1 <1>   0.1500 
 29 H        8.8000    -2.0370     1.3000 H     1 <1>   0.1500 
 30 H        9.4010     1.6700    -1.0750 H     1 <1>   0.0800 
 31 H       10.8050     0.9310    -1.7920 H     1 <1>   0.0800 
 32 H       11.7440    -1.2520    -0.5260 H     1 <1>   0.0800 
 33 H       10.8520    -1.7920     0.8620 H     1 <1>   0.0800 
 34 H       10.6370     2.2440     0.9420 H     1 <1>   0.0800 
 35 H       11.5560     2.8030    -0.4370 H     1 <1>   0.0800 
 36 H       12.8850    -0.4670     1.4780 H     1 <1>   0.0800 
 37 H       11.4200     0.2810     2.0750 H     1 <1>   0.0800 
@<TRIPOS>BOND
  1   1   2  1   
  2   2   3  ar  
  3   2   4  ar  
  4   3   5  ar  
  5   3  22  1   
  6   4   6  ar  
  7   4  23  1   
  8   5   7  ar  
  9   5  24  1   
 10   6   7  ar  
 11   6  25  1   
 12   7   8  1   
 13   8   9  1   
 14   8  26  1   
 15   8  27  1   
 16   9  10  am  
 17   9  11  1   
 18  10  12  2   
 19  10  13  1   
 20  11  14  2   
 21  11  28  1   
 22  13  15  2   
 23  14  15  1   
 24  14  29  1   
 25  15  16  1   
 26  16  17  1   
 27  16  18  1   
 28  17  19  1   
 29  17  30  1   
 30  17  31  1   
 31  18  20  1   
 32  18  32  1   
 33  18  33  1   
 34  19  21  1   
 35  19  34  1   
 36  19  35  1   
 37  20  21  1   
 38  20  36  1   
 39  20  37  1   
@<TRIPOS>SUBSTRUCTURE
  1 ****   9 GROUP 4 **** **** 0

# MOE 2024.06 (io_trps.svl 2023.06)
