@<TRIPOS>MOLECULE
NONAME
57 58 1 0 0 
SMALL
USER_CHARGES


@<TRIPOS>ATOM
  1 O        0.5580    -1.8550     0.6880 O.3   1 <1>  -0.3630 
  2 C       -0.7940    -1.8640     0.5380 C.ar  1 <1>   0.0830 
  3 C        1.3560    -0.8390     0.1250 C.3   1 <1>   0.1200 
  4 C       -1.5000    -2.9070     1.1290 C.ar  1 <1>  -0.1440 
  5 C       -1.4830    -0.8840    -0.1750 C.ar  1 <1>  -0.1500 
  6 C        2.8100    -1.1320     0.4810 C.3   1 <1>   0.1200 
  7 C       -2.8770    -2.9560     1.0010 C.ar  1 <1>  -0.1500 
  8 C       -0.7740    -3.9910     1.9130 C.3   1 <1>  -0.0960 
  9 C       -2.8630    -0.9340    -0.3030 C.ar  1 <1>  -0.1430 
 10 O        3.6190    -0.1330    -0.0660 O.3   1 <1>  -0.5600 
 11 C       -3.5530    -1.9790     0.2920 C.ar  1 <1>  -0.1500 
 12 C       -3.6270     0.1360    -1.0810 C.3   1 <1>   0.0630 
 13 C        4.9730    -0.2920     0.1890 C.3   1 <1>   0.1200 
 14 C       -3.1970     0.1530    -2.5520 C.3   1 <1>  -0.2400 
 15 C       -3.4410     1.5160    -0.4430 C.3   1 <1>  -0.2400 
 16 C        5.7050     0.8700    -0.4940 C.3   1 <1>   0.3430 
 17 N        7.1960     0.7910    -0.3480 N.4   1 <1>  -0.9590 
 18 C        7.6410     0.9920     1.0650 C.3   1 <1>   0.3430 
 19 C        7.8480     1.7760    -1.2610 C.3   1 <1>   0.3430 
 20 C        9.1540     0.7970     1.1620 C.3   1 <1>  -0.1600 
 21 C        9.3650     1.5970    -1.2150 C.3   1 <1>  -0.1600 
 22 C        9.9080     1.7400     0.2140 C.3   1 <1>  -0.0800 
 23 C       11.4130     1.4550     0.2520 C.3   1 <1>  -0.2400 
 24 H        1.0480     0.1030     0.5420 H     1 <1>   0.0800 
 25 H        1.2190    -0.8530    -0.9420 H     1 <1>   0.0800 
 26 H       -0.9580    -0.0740    -0.6370 H     1 <1>   0.1500 
 27 H        3.1020    -2.0830     0.0690 H     1 <1>   0.0800 
 28 H        2.9310    -1.1310     1.5510 H     1 <1>   0.0800 
 29 H       -3.4350    -3.7560     1.4540 H     1 <1>   0.1500 
 30 H       -0.0720    -4.4930     1.2730 H     1 <1>   0.0800 
 31 H       -1.4640    -4.7170     2.3030 H     1 <1>   0.0800 
 32 H       -0.2400    -3.5490     2.7350 H     1 <1>   0.0800 
 33 H       -4.6230    -2.0400     0.2080 H     1 <1>   0.1500 
 34 H       -4.6770    -0.1000    -1.0510 H     1 <1>   0.0800 
 35 H        5.2870    -1.2360    -0.2220 H     1 <1>   0.0800 
 36 H        5.1180    -0.2740     1.2550 H     1 <1>   0.0800 
 37 H       -2.1650     0.4360    -2.6470 H     1 <1>   0.0800 
 38 H       -3.7980     0.8520    -3.1070 H     1 <1>   0.0800 
 39 H       -3.3250    -0.8250    -2.9800 H     1 <1>   0.0800 
 40 H       -2.4140     1.8280    -0.4930 H     1 <1>   0.0800 
 41 H       -3.7380     1.4810     0.5910 H     1 <1>   0.0800 
 42 H       -4.0470     2.2450    -0.9490 H     1 <1>   0.0800 
 43 H        5.3480     1.7980    -0.0770 H     1 <1>   0.0800 
 44 H        5.4490     0.8500    -1.5400 H     1 <1>   0.0800 
 45 H        7.5110    -0.1410    -0.6460 H     1 <1>   0.4500 
 46 H        7.1510     0.2870     1.7160 H     1 <1>   0.0800 
 47 H        7.3850     1.9880     1.3900 H     1 <1>   0.0800 
 48 H        7.5950     2.7790    -0.9580 H     1 <1>   0.0800 
 49 H        7.5020     1.6290    -2.2720 H     1 <1>   0.0800 
 50 H        9.3960    -0.2280     0.9400 H     1 <1>   0.0800 
 51 H        9.4640     0.9880     2.1750 H     1 <1>   0.0800 
 52 H        9.8210     2.3410    -1.8450 H     1 <1>   0.0800 
 53 H        9.6230     0.6330    -1.6180 H     1 <1>   0.0800 
 54 H        9.7520     2.7560     0.5420 H     1 <1>   0.0800 
 55 H       11.6250     0.4500    -0.0680 H     1 <1>   0.0800 
 56 H       11.7940     1.5820     1.2510 H     1 <1>   0.0800 
 57 H       11.9410     2.1360    -0.3930 H     1 <1>   0.0800 
@<TRIPOS>BOND
  1   1   2  1   
  2   1   3  1   
  3   2   4  ar  
  4   2   5  ar  
  5   3   6  1   
  6   3  24  1   
  7   3  25  1   
  8   4   7  ar  
  9   4   8  1   
 10   5   9  ar  
 11   5  26  1   
 12   6  10  1   
 13   6  27  1   
 14   6  28  1   
 15   7  11  ar  
 16   7  29  1   
 17   8  30  1   
 18   8  31  1   
 19   8  32  1   
 20   9  11  ar  
 21   9  12  1   
 22  10  13  1   
 23  11  33  1   
 24  12  14  1   
 25  12  15  1   
 26  12  34  1   
 27  13  16  1   
 28  13  35  1   
 29  13  36  1   
 30  14  37  1   
 31  14  38  1   
 32  14  39  1   
 33  15  40  1   
 34  15  41  1   
 35  15  42  1   
 36  16  17  1   
 37  16  43  1   
 38  16  44  1   
 39  17  18  1   
 40  17  19  1   
 41  17  45  1   
 42  18  20  1   
 43  18  46  1   
 44  18  47  1   
 45  19  21  1   
 46  19  48  1   
 47  19  49  1   
 48  20  22  1   
 49  20  50  1   
 50  20  51  1   
 51  21  22  1   
 52  21  52  1   
 53  21  53  1   
 54  22  23  1   
 55  22  54  1   
 56  23  55  1   
 57  23  56  1   
 58  23  57  1   
@<TRIPOS>SUBSTRUCTURE
  1 ****   6 GROUP 4 **** **** 0

# MOE 2024.06 (io_trps.svl 2023.06)
