@<TRIPOS>MOLECULE
NONAME
43 46 1 0 0 
SMALL
USER_CHARGES


@<TRIPOS>ATOM
  1 CL      -0.6570    -1.9570     2.5400 Cl    1 <1>  -0.1770 
  2 C       -1.6500    -1.9070     1.0930 C.ar  1 <1>   0.1770 
  3 C       -1.1890    -2.4600    -0.1090 C.ar  1 <1>   0.1000 
  4 C       -2.8900    -1.3060     1.1890 C.ar  1 <1>  -0.1500 
  5 N        0.0560    -3.0820    -0.2710 N.pl3 1 <1>  -0.8380 
  6 C       -2.0290    -2.3830    -1.2130 C.ar  1 <1>  -0.1500 
  7 C       -3.7070    -1.2430     0.0740 C.ar  1 <1>  -0.1500 
  8 C        0.2290    -4.3960     0.4190 C.3   1 <1>   0.2090 
  9 C        1.2500    -2.1850    -0.2140 C.3   1 <1>   0.2090 
 10 C       -3.2740    -1.7820    -1.1260 C.ar  1 <1>  -0.1500 
 11 C        1.5110    -5.1090    -0.0600 C.3   1 <1>   0.3430 
 12 C        2.5220    -2.9230    -0.6810 C.3   1 <1>   0.3430 
 13 N        2.7320    -4.2320     0.0470 N.4   1 <1>  -0.9590 
 14 C        3.9600    -4.9300    -0.4160 C.3   1 <1>   0.4860 
 15 C        5.1590    -4.0640    -0.0850 C.ar  1 <1>  -0.1430 
 16 C        5.7820    -3.3340    -1.0940 C.ar  1 <1>  -0.1500 
 17 C        5.6350    -3.9910     1.2270 C.ar  1 <1>  -0.1500 
 18 C        6.8570    -2.5380    -0.7520 C.ar  1 <1>   0.0830 
 19 C        6.7200    -3.1850     1.5470 C.ar  1 <1>  -0.1500 
 20 O        7.5890    -1.7540    -1.5480 O.3   1 <1>  -0.3620 
 21 C        7.3130    -2.4640     0.5300 C.ar  1 <1>   0.0830 
 22 C        8.5910    -1.1560    -0.7250 C.3   1 <1>   0.4000 
 23 O        8.3560    -1.6320     0.6000 O.3   1 <1>  -0.3620 
 24 H       -3.2140    -0.8910     2.1270 H     1 <1>   0.1500 
 25 H       -1.7000    -2.7990    -2.1470 H     1 <1>   0.1500 
 26 H       -4.6760    -0.7770     0.1380 H     1 <1>   0.1500 
 27 H       -0.6250    -5.0180     0.2100 H     1 <1>   0.0800 
 28 H        0.2760    -4.2490     1.4830 H     1 <1>   0.0800 
 29 H        1.3930    -1.8250     0.7890 H     1 <1>   0.0800 
 30 H        1.0810    -1.3310    -0.8480 H     1 <1>   0.0800 
 31 H       -3.9080    -1.7340    -1.9950 H     1 <1>   0.1500 
 32 H        1.3640    -5.3990    -1.0870 H     1 <1>   0.0800 
 33 H        1.6480    -6.0060     0.5220 H     1 <1>   0.0800 
 34 H        3.3720    -2.2770    -0.5310 H     1 <1>   0.0800 
 35 H        2.4310    -3.1090    -1.7380 H     1 <1>   0.0800 
 36 H        2.8750    -3.9940     1.0370 H     1 <1>   0.4500 
 37 H        3.9130    -5.1060    -1.4780 H     1 <1>   0.0800 
 38 H        4.0600    -5.8800     0.0840 H     1 <1>   0.0800 
 39 H        5.4640    -3.3660    -2.1210 H     1 <1>   0.1500 
 40 H        5.1730    -4.5610     2.0150 H     1 <1>   0.1500 
 41 H        7.1040    -3.1150     2.5500 H     1 <1>   0.1500 
 42 H        8.4890    -0.0860    -0.7490 H     1 <1>   0.0800 
 43 H        9.5650    -1.4720    -1.0540 H     1 <1>   0.0800 
@<TRIPOS>BOND
  1   1   2  1   
  2   2   3  ar  
  3   2   4  ar  
  4   3   5  1   
  5   3   6  ar  
  6   4   7  ar  
  7   4  24  1   
  8   5   8  1   
  9   5   9  1   
 10   6  10  ar  
 11   6  25  1   
 12   7  10  ar  
 13   7  26  1   
 14   8  11  1   
 15   8  27  1   
 16   8  28  1   
 17   9  12  1   
 18   9  29  1   
 19   9  30  1   
 20  10  31  1   
 21  11  13  1   
 22  11  32  1   
 23  11  33  1   
 24  12  13  1   
 25  12  34  1   
 26  12  35  1   
 27  13  14  1   
 28  13  36  1   
 29  14  15  1   
 30  14  37  1   
 31  14  38  1   
 32  15  16  ar  
 33  15  17  ar  
 34  16  18  ar  
 35  16  39  1   
 36  17  19  ar  
 37  17  40  1   
 38  18  20  1   
 39  18  21  ar  
 40  19  21  ar  
 41  19  41  1   
 42  20  22  1   
 43  21  23  1   
 44  22  23  1   
 45  22  42  1   
 46  22  43  1   
@<TRIPOS>SUBSTRUCTURE
  1 ****  12 GROUP 4 **** **** 0

# MOE 2024.06 (io_trps.svl 2023.06)
