@<TRIPOS>MOLECULE
NONAME
54 56 1 0 0 
SMALL
USER_CHARGES


@<TRIPOS>ATOM
  1 S       -0.1000    -0.9320     2.8000 S.3   1 <1>  -0.0800 
  2 C       -1.2570    -1.2290     1.5160 C.2   1 <1>   0.1040 
  3 C        1.0140    -0.1960     1.6680 C.2   1 <1>  -0.1400 
  4 N       -2.4840    -1.7900     1.7990 N.am  1 <1>  -0.4940 
  5 C       -0.7820    -0.8170     0.3010 C.2   1 <1>  -0.0860 
  6 C        0.5320    -0.2170     0.4150 C.2   1 <1>  -0.1810 
  7 C        2.3170     0.3770     2.1770 C.3   1 <1>   0.0200 
  8 C       -3.1900    -2.1160     2.9230 C.2   1 <1>   0.5690 
  9 C       -1.5450    -0.9790    -0.9140 C.2   1 <1>   0.7160 
 10 C        1.3430     0.4070    -0.7180 C.3   1 <1>   0.0210 
 11 C        2.9040     1.3180     1.1070 C.3   1 <1>  -0.0800 
 12 O       -2.7510    -2.1430     4.0440 O.2   1 <1>  -0.5700 
 13 C       -4.6680    -2.4220     2.6580 C.3   1 <1>   0.1710 
 14 O       -2.7670    -0.9310    -0.9320 O.2   1 <1>  -0.5700 
 15 N       -0.9530    -1.2520    -2.0960 N.am  1 <1>  -0.8000 
 16 C        2.8010     0.6890    -0.2970 C.3   1 <1>  -0.1600 
 17 C        4.3570     1.6800     1.4380 C.3   1 <1>  -0.2400 
 18 N       -5.1300    -1.7910     1.3780 N.3   1 <1>  -0.8100 
 19 C       -6.2460    -2.4610     0.6920 C.3   1 <1>   0.1100 
 20 C       -5.3760    -0.3320     1.5120 C.3   1 <1>   0.1100 
 21 C       -6.4200    -1.9030    -0.7460 C.3   1 <1>   0.3430 
 22 C       -5.8440     0.3210     0.1880 C.3   1 <1>   0.3430 
 23 N       -5.6750    -0.6120    -0.9770 N.4   1 <1>  -0.9590 
 24 C       -5.9880    -0.0150    -2.2980 C.3   1 <1>   0.3430 
 25 C       -5.0060     1.1050    -2.6240 C.3   1 <1>  -0.2400 
 26 H       -3.1130    -1.8220     0.9880 H     1 <1>   0.3700 
 27 H        2.9930    -0.4340     2.3840 H     1 <1>   0.0800 
 28 H        2.1470     0.9230     3.0890 H     1 <1>   0.0800 
 29 H        0.8710     1.3290    -1.0090 H     1 <1>   0.0800 
 30 H        1.3720    -0.2410    -1.5720 H     1 <1>   0.0800 
 31 H        2.3210     2.2250     1.1080 H     1 <1>   0.0800 
 32 H       -5.2600    -2.0770     3.4870 H     1 <1>   0.0800 
 33 H       -4.7670    -3.4910     2.5960 H     1 <1>   0.0800 
 34 H       -1.5190    -1.4710    -2.9130 H     1 <1>   0.3700 
 35 H        0.0280    -1.5270    -2.1390 H     1 <1>   0.3700 
 36 H        3.2560     1.3380    -1.0240 H     1 <1>   0.0800 
 37 H        3.3460    -0.2400    -0.3000 H     1 <1>   0.0800 
 38 H        4.9790     0.8020     1.4330 H     1 <1>   0.0800 
 39 H        4.4150     2.1380     2.4100 H     1 <1>   0.0800 
 40 H        4.7420     2.3770     0.7140 H     1 <1>   0.0800 
 41 H       -7.1560    -2.3170     1.2510 H     1 <1>   0.0800 
 42 H       -6.0610    -3.5200     0.6340 H     1 <1>   0.0800 
 43 H       -4.4690     0.1550     1.8280 H     1 <1>   0.0800 
 44 H       -6.1170    -0.1510     2.2730 H     1 <1>   0.0800 
 45 H       -7.4710    -1.7610    -0.9350 H     1 <1>   0.0800 
 46 H       -6.0650    -2.6430    -1.4440 H     1 <1>   0.0800 
 47 H       -5.2750     1.2220     0.0300 H     1 <1>   0.0800 
 48 H       -6.8800     0.6000     0.2800 H     1 <1>   0.0800 
 49 H       -4.6610    -0.8590    -0.9580 H     1 <1>   0.4500 
 50 H       -6.9960     0.3680    -2.3020 H     1 <1>   0.0800 
 51 H       -5.9130    -0.7740    -3.0600 H     1 <1>   0.0800 
 52 H       -5.1170     1.9360    -1.9530 H     1 <1>   0.0800 
 53 H       -5.2000     1.4620    -3.6200 H     1 <1>   0.0800 
 54 H       -3.9930     0.7460    -2.5940 H     1 <1>   0.0800 
@<TRIPOS>BOND
  1   1   2  1   
  2   1   3  1   
  3   2   4  1   
  4   2   5  2   
  5   3   6  2   
  6   3   7  1   
  7   4   8  am  
  8   4  26  1   
  9   5   6  1   
 10   5   9  1   
 11   6  10  1   
 12   7  11  1   
 13   7  27  1   
 14   7  28  1   
 15   8  12  2   
 16   8  13  1   
 17   9  14  2   
 18   9  15  am  
 19  10  16  1   
 20  10  29  1   
 21  10  30  1   
 22  11  16  1   
 23  11  17  1   
 24  11  31  1   
 25  13  18  1   
 26  13  32  1   
 27  13  33  1   
 28  15  34  1   
 29  15  35  1   
 30  16  36  1   
 31  16  37  1   
 32  17  38  1   
 33  17  39  1   
 34  17  40  1   
 35  18  19  1   
 36  18  20  1   
 37  19  21  1   
 38  19  41  1   
 39  19  42  1   
 40  20  22  1   
 41  20  43  1   
 42  20  44  1   
 43  21  23  1   
 44  21  45  1   
 45  21  46  1   
 46  22  23  1   
 47  22  47  1   
 48  22  48  1   
 49  23  24  1   
 50  23  49  1   
 51  24  25  1   
 52  24  50  1   
 53  24  51  1   
 54  25  52  1   
 55  25  53  1   
 56  25  54  1   
@<TRIPOS>SUBSTRUCTURE
  1 ****   5 GROUP 4 **** **** 0

# MOE 2024.06 (io_trps.svl 2023.06)
