@<TRIPOS>MOLECULE
NONAME
44 45 1 0 0 
SMALL
USER_CHARGES


@<TRIPOS>ATOM
  1 S        0.2460    -0.6780     0.4640 S.o2  1 <1>   1.4470 
  2 O        1.0160    -1.8070     0.9360 O.2   1 <1>  -0.6500 
  3 O        0.4130     0.6240     1.0660 O.2   1 <1>  -0.6500 
  4 N        0.6630    -0.4270    -1.1430 N.am  1 <1>  -0.9140 
  5 C       -1.5150    -1.1130     0.3770 C.ar  1 <1>  -0.0090 
  6 C        2.0930    -0.5730    -1.4010 C.3   1 <1>   0.1160 
  7 C       -1.9460    -2.1890    -0.3940 C.ar  1 <1>  -0.1500 
  8 C       -2.4760    -0.3880     1.0770 C.ar  1 <1>  -0.1500 
  9 C       -3.2870    -2.5290    -0.4690 C.ar  1 <1>  -0.1500 
 10 C       -3.8210    -0.7160     1.0130 C.ar  1 <1>  -0.1500 
 11 C       -4.2190    -1.7900     0.2340 C.ar  1 <1>   0.1010 
 12 S       -5.9430    -2.2920     0.0860 S.3   1 <1>  -0.3310 
 13 C       -6.9380    -1.1200     1.1410 C.3   1 <1>   0.1310 
 14 C       -8.4290    -1.4330     1.1070 C.2   1 <1>   0.5690 
 15 O       -9.1670    -0.7380     1.7620 O.2   1 <1>  -0.5700 
 16 N       -8.8900    -2.4670     0.3560 N.am  1 <1>  -0.7300 
 17 C      -10.2940    -2.8820     0.2290 C.3   1 <1>   0.2200 
 18 C      -10.4310    -4.3220     0.7320 C.3   1 <1>  -0.1600 
 19 C      -10.7140    -2.7630    -1.2400 C.3   1 <1>  -0.1600 
 20 C      -11.8570    -4.8510     0.5220 C.3   1 <1>  -0.1600 
 21 C      -12.1410    -3.2880    -1.4540 C.3   1 <1>  -0.1600 
 22 C      -12.2820    -4.7310    -0.9480 C.3   1 <1>  -0.1600 
 23 H        0.4220     0.5520    -1.2940 H     1 <1>   0.4200 
 24 H        2.3970    -1.5930    -1.2270 H     1 <1>   0.0800 
 25 H        2.6600     0.0760    -0.7540 H     1 <1>   0.0800 
 26 H        2.3060    -0.3230    -2.4260 H     1 <1>   0.0800 
 27 H       -1.2200    -2.7660    -0.9420 H     1 <1>   0.1500 
 28 H       -2.1660     0.4480     1.6830 H     1 <1>   0.1500 
 29 H       -3.6070    -3.3620    -1.0690 H     1 <1>   0.1500 
 30 H       -4.5290    -0.1310     1.5670 H     1 <1>   0.1500 
 31 H       -6.7680    -0.1290     0.7660 H     1 <1>   0.0800 
 32 H       -6.5730    -1.2060     2.1470 H     1 <1>   0.0800 
 33 H       -8.2170    -3.0210    -0.1780 H     1 <1>   0.3700 
 34 H      -10.9190    -2.2380     0.8280 H     1 <1>   0.0800 
 35 H      -10.1900    -4.3560     1.7800 H     1 <1>   0.0800 
 36 H       -9.7410    -4.9560     0.2030 H     1 <1>   0.0800 
 37 H      -10.0370    -3.3280    -1.8550 H     1 <1>   0.0800 
 38 H      -10.6670    -1.7300    -1.5380 H     1 <1>   0.0800 
 39 H      -12.5390    -4.2880     1.1370 H     1 <1>   0.0800 
 40 H      -11.9100    -5.8810     0.8300 H     1 <1>   0.0800 
 41 H      -12.3880    -3.2460    -2.5010 H     1 <1>   0.0800 
 42 H      -12.8350    -2.6570    -0.9260 H     1 <1>   0.0800 
 43 H      -13.3050    -5.0510    -1.0550 H     1 <1>   0.0800 
 44 H      -11.6700    -5.3810    -1.5500 H     1 <1>   0.0800 
@<TRIPOS>BOND
  1   1   2  2   
  2   1   3  2   
  3   1   4  am  
  4   1   5  1   
  5   4   6  1   
  6   4  23  1   
  7   5   7  ar  
  8   5   8  ar  
  9   6  24  1   
 10   6  25  1   
 11   6  26  1   
 12   7   9  ar  
 13   7  27  1   
 14   8  10  ar  
 15   8  28  1   
 16   9  11  ar  
 17   9  29  1   
 18  10  11  ar  
 19  10  30  1   
 20  11  12  1   
 21  12  13  1   
 22  13  14  1   
 23  13  31  1   
 24  13  32  1   
 25  14  15  2   
 26  14  16  am  
 27  16  17  1   
 28  16  33  1   
 29  17  18  1   
 30  17  19  1   
 31  17  34  1   
 32  18  20  1   
 33  18  35  1   
 34  18  36  1   
 35  19  21  1   
 36  19  37  1   
 37  19  38  1   
 38  20  22  1   
 39  20  39  1   
 40  20  40  1   
 41  21  22  1   
 42  21  41  1   
 43  21  42  1   
 44  22  43  1   
 45  22  44  1   
@<TRIPOS>SUBSTRUCTURE
  1 ****  12 GROUP 4 **** **** 0

# MOE 2024.06 (io_trps.svl 2023.06)
