@<TRIPOS>MOLECULE
NONAME
28 29 1 0 0 
SMALL
USER_CHARGES


@<TRIPOS>ATOM
  1 CL      -0.6510     0.8590     2.1810 Cl    1 <1>  -0.1230 
  2 C       -0.7110     2.0830     0.9200 C.2   1 <1>   0.1230 
  3 C        0.2990     2.9320     0.6180 C.2   1 <1>  -0.0260 
  4 C       -1.7770     2.3590     0.0640 C.2   1 <1>   0.2030 
  5 N        1.5700     3.0990     1.1420 N.2   1 <1>  -0.5760 
  6 N       -0.1930     3.6940    -0.4150 N.pl3 1 <1>   0.6010 
  7 N       -1.4510     3.3560    -0.7580 N.2   1 <1>  -0.7070 
  8 C       -3.0640     1.6800     0.0480 C.2   1 <1>   0.7160 
  9 C        2.2980     4.0230     0.6110 C.2   1 <1>   0.3760 
 10 C        0.6030     4.6770    -0.9670 C.2   1 <1>  -0.1810 
 11 O       -3.3540     0.7880     0.8230 O.2   1 <1>  -0.5700 
 12 N       -4.0000     2.0640    -0.8710 N.am  1 <1>  -0.7300 
 13 C        1.8520     4.8500    -0.4610 C.2   1 <1>  -0.1360 
 14 C       -5.3360     1.4500    -1.0740 C.3   1 <1>   0.1400 
 15 C       -6.3170     1.9370    -0.0080 C.3   1 <1>   0.1200 
 16 O       -7.5920     1.4860    -0.3440 O.3   1 <1>  -0.5600 
 17 C       -8.5650     1.8030     0.5970 C.3   1 <1>   0.0400 
 18 H        3.2930     4.1880     0.9860 H     1 <1>   0.0600 
 19 H        0.1740     5.2460    -1.7710 H     1 <1>   0.1500 
 20 H       -3.7260     2.8240    -1.5010 H     1 <1>   0.3700 
 21 H        2.5300     5.5930    -0.8390 H     1 <1>   0.1500 
 22 H       -5.2500     0.3780    -1.0120 H     1 <1>   0.0800 
 23 H       -5.7020     1.7160    -2.0510 H     1 <1>   0.0800 
 24 H       -6.3350     3.0120     0.0240 H     1 <1>   0.0800 
 25 H       -6.0460     1.5350     0.9530 H     1 <1>   0.0800 
 26 H       -9.5070     1.4190     0.2460 H     1 <1>   0.0800 
 27 H       -8.6250     2.8720     0.7010 H     1 <1>   0.0800 
 28 H       -8.3140     1.3420     1.5370 H     1 <1>   0.0800 
@<TRIPOS>BOND
  1   1   2  1   
  2   2   3  2   
  3   2   4  1   
  4   3   5  1   
  5   3   6  1   
  6   4   7  2   
  7   4   8  1   
  8   5   9  2   
  9   6   7  1   
 10   6  10  1   
 11   8  11  2   
 12   8  12  am  
 13   9  13  1   
 14   9  18  1   
 15  10  13  2   
 16  10  19  1   
 17  12  14  1   
 18  12  20  1   
 19  13  21  1   
 20  14  15  1   
 21  14  22  1   
 22  14  23  1   
 23  15  16  1   
 24  15  24  1   
 25  15  25  1   
 26  16  17  1   
 27  17  26  1   
 28  17  27  1   
 29  17  28  1   
@<TRIPOS>SUBSTRUCTURE
  1 ****   4 GROUP 4 **** **** 0

# MOE 2024.06 (io_trps.svl 2023.06)
