@<TRIPOS>MOLECULE
NONAME
51 53 1 0 0 
SMALL
USER_CHARGES


@<TRIPOS>ATOM
  1 S       -0.8180    -0.3010     1.3910 S.o2  1 <1>   1.4470 
  2 O       -1.6950    -0.3450     2.5360 O.2   1 <1>  -0.6500 
  3 O       -0.0710    -1.4830     1.0360 O.2   1 <1>  -0.6500 
  4 N        0.3510     0.8720     1.8300 N.am  1 <1>  -0.7570 
  5 C       -1.6840     0.4830    -0.0100 C.ar  1 <1>  -0.0090 
  6 C        1.3680     1.2450     0.9730 C.ar  1 <1>   0.1990 
  7 C       -1.3360     0.3060    -1.3540 C.ar  1 <1>  -0.1440 
  8 C       -2.7390     1.3430     0.2740 C.ar  1 <1>  -0.1500 
  9 C        2.5790     0.5690     0.9720 C.ar  1 <1>  -0.1500 
 10 C        1.1870     2.2970     0.0880 C.ar  1 <1>  -0.1500 
 11 C       -2.0420     0.9700    -2.3460 C.ar  1 <1>  -0.1500 
 12 C       -0.1880    -0.5980    -1.7900 C.3   1 <1>  -0.0970 
 13 C       -3.4690     2.0110    -0.7060 C.ar  1 <1>   0.0860 
 14 C        3.5980     0.9250     0.1030 C.ar  1 <1>  -0.1430 
 15 C        2.1960     2.6600    -0.7830 C.ar  1 <1>  -0.1500 
 16 C       -3.0890     1.8090    -2.0270 C.ar  1 <1>  -0.1500 
 17 C       -4.5720     2.8940    -0.3720 C.2   1 <1>   0.5440 
 18 C        3.4050     1.9800    -0.7840 C.ar  1 <1>  -0.1430 
 19 C        4.9050     0.1460     0.1380 C.3   1 <1>  -0.0970 
 20 O       -4.6200     3.9960    -0.8830 O.2   1 <1>  -0.5700 
 21 N       -5.5730     2.5200     0.5010 N.am  1 <1>  -0.6600 
 22 C        4.4920     2.4090    -1.7590 C.3   1 <1>  -0.0970 
 23 C       -5.9100     1.1040     0.8390 C.3   1 <1>   0.1400 
 24 C       -6.5790     3.4970     1.0190 C.3   1 <1>   0.1400 
 25 C       -7.3780     0.7980     0.4940 C.3   1 <1>   0.1200 
 26 C       -8.0040     3.0530     0.6510 C.3   1 <1>   0.1200 
 27 O       -8.2360     1.7390     1.0750 O.3   1 <1>  -0.5600 
 28 H        0.6360     0.6670     2.7810 H     1 <1>   0.4200 
 29 H       -3.0100     1.5120     1.3030 H     1 <1>   0.1500 
 30 H        2.7130    -0.2500     1.6540 H     1 <1>   0.1500 
 31 H        0.2540     2.8300     0.0840 H     1 <1>   0.1500 
 32 H       -1.7770     0.8400    -3.3820 H     1 <1>   0.1500 
 33 H        0.7240    -0.3270    -1.2890 H     1 <1>   0.0800 
 34 H       -0.0110    -0.5210    -2.8480 H     1 <1>   0.0800 
 35 H       -0.4160    -1.6240    -1.5650 H     1 <1>   0.0800 
 36 H        2.0330     3.4790    -1.4610 H     1 <1>   0.1500 
 37 H       -3.6240     2.3250    -2.8060 H     1 <1>   0.1500 
 38 H        4.8710    -0.6340     0.8770 H     1 <1>   0.0800 
 39 H        5.7200     0.8040     0.3800 H     1 <1>   0.0800 
 40 H        5.0910    -0.3060    -0.8200 H     1 <1>   0.0800 
 41 H        4.7430     1.5950    -2.4140 H     1 <1>   0.0800 
 42 H        5.3720     2.7100    -1.2190 H     1 <1>   0.0800 
 43 H        4.1670     3.2380    -2.3610 H     1 <1>   0.0800 
 44 H       -5.7530     0.9440     1.8920 H     1 <1>   0.0800 
 45 H       -5.2800     0.4210     0.2990 H     1 <1>   0.0800 
 46 H       -6.4000     4.4800     0.6220 H     1 <1>   0.0800 
 47 H       -6.4940     3.5560     2.0900 H     1 <1>   0.0800 
 48 H       -7.6540    -0.1720     0.8700 H     1 <1>   0.0800 
 49 H       -7.5260     0.8100    -0.5720 H     1 <1>   0.0800 
 50 H       -8.1520     3.1070    -0.4140 H     1 <1>   0.0800 
 51 H       -8.7260     3.6870     1.1330 H     1 <1>   0.0800 
@<TRIPOS>BOND
  1   1   2  2   
  2   1   3  2   
  3   1   4  am  
  4   1   5  1   
  5   4   6  1   
  6   4  28  1   
  7   5   7  ar  
  8   5   8  ar  
  9   6   9  ar  
 10   6  10  ar  
 11   7  11  ar  
 12   7  12  1   
 13   8  13  ar  
 14   8  29  1   
 15   9  14  ar  
 16   9  30  1   
 17  10  15  ar  
 18  10  31  1   
 19  11  16  ar  
 20  11  32  1   
 21  12  33  1   
 22  12  34  1   
 23  12  35  1   
 24  13  16  ar  
 25  13  17  1   
 26  14  18  ar  
 27  14  19  1   
 28  15  18  ar  
 29  15  36  1   
 30  16  37  1   
 31  17  20  2   
 32  17  21  am  
 33  18  22  1   
 34  19  38  1   
 35  19  39  1   
 36  19  40  1   
 37  21  23  1   
 38  21  24  1   
 39  22  41  1   
 40  22  42  1   
 41  22  43  1   
 42  23  25  1   
 43  23  44  1   
 44  23  45  1   
 45  24  26  1   
 46  24  46  1   
 47  24  47  1   
 48  25  27  1   
 49  25  48  1   
 50  25  49  1   
 51  26  27  1   
 52  26  50  1   
 53  26  51  1   
@<TRIPOS>SUBSTRUCTURE
  1 ****   5 GROUP 4 **** **** 0

# MOE 2024.06 (io_trps.svl 2023.06)
