@<TRIPOS>MOLECULE
NONAME
40 41 1 0 0 
SMALL
USER_CHARGES


@<TRIPOS>ATOM
  1 S       -0.0280     0.0650    -0.6820 S.o2  1 <1>   1.5760 
  2 O        0.5580    -0.9410     0.1770 O.2   1 <1>  -0.6500 
  3 O        0.4600     0.2730    -2.0280 O.2   1 <1>  -0.6500 
  4 N       -1.6880    -0.2210    -0.7660 N.am  1 <1>  -0.8490 
  5 N       -0.0150     1.5550     0.1380 N.am  1 <1>  -0.8490 
  6 C       -2.4110     0.7810    -1.5680 C.3   1 <1>   0.1960 
  7 C       -2.3170    -0.3890     0.5560 C.3   1 <1>   0.1960 
  8 C        0.6340     1.4930     1.4510 C.3   1 <1>   0.1160 
  9 C        0.5400     2.6540    -0.6570 C.3   1 <1>   0.1160 
 10 C       -3.9040     0.4310    -1.7210 C.3   1 <1>   0.2090 
 11 C       -3.8080    -0.7600     0.4430 C.3   1 <1>   0.2090 
 12 N       -4.5490     0.2330    -0.3890 N.pl3 1 <1>  -0.8380 
 13 C       -5.9390     0.1400    -0.3790 C.ar  1 <1>   0.1000 
 14 C       -6.7160     1.1400     0.2060 C.ar  1 <1>  -0.1430 
 15 C       -6.5750    -0.9560    -0.9540 C.ar  1 <1>  -0.1500 
 16 C       -8.0970     1.0310     0.2070 C.ar  1 <1>  -0.1500 
 17 C       -6.0540     2.3530     0.8440 C.3   1 <1>  -0.0970 
 18 C       -7.9530    -1.0610    -0.9510 C.ar  1 <1>  -0.1500 
 19 C       -8.7170    -0.0650    -0.3690 C.ar  1 <1>  -0.1500 
 20 H       -1.9700     0.8420    -2.5480 H     1 <1>   0.0800 
 21 H       -2.3330     1.7490    -1.1040 H     1 <1>   0.0800 
 22 H       -2.2350     0.5240     1.1200 H     1 <1>   0.0800 
 23 H       -1.8090    -1.1660     1.0990 H     1 <1>   0.0800 
 24 H        0.1530     0.7500     2.0650 H     1 <1>   0.0800 
 25 H        0.5570     2.4440     1.9500 H     1 <1>   0.0800 
 26 H        1.6730     1.2310     1.3440 H     1 <1>   0.0800 
 27 H       -0.0080     2.7560    -1.5780 H     1 <1>   0.0800 
 28 H        1.5750     2.4620    -0.8910 H     1 <1>   0.0800 
 29 H        0.4660     3.5810    -0.1150 H     1 <1>   0.0800 
 30 H       -3.9970    -0.4670    -2.3050 H     1 <1>   0.0800 
 31 H       -4.4080     1.2260    -2.2420 H     1 <1>   0.0800 
 32 H       -4.2450    -0.7940     1.4250 H     1 <1>   0.0800 
 33 H       -3.8950    -1.7380     0.0020 H     1 <1>   0.0800 
 34 H       -5.9810    -1.7280    -1.4050 H     1 <1>   0.1500 
 35 H       -8.7010     1.7990     0.6560 H     1 <1>   0.1500 
 36 H       -5.4690     2.8730     0.1080 H     1 <1>   0.0800 
 37 H       -5.4020     2.0320     1.6360 H     1 <1>   0.0800 
 38 H       -6.7840     3.0290     1.2480 H     1 <1>   0.0800 
 39 H       -8.4320    -1.9140    -1.3990 H     1 <1>   0.1500 
 40 H       -9.7900    -0.1420    -0.3630 H     1 <1>   0.1500 
@<TRIPOS>BOND
  1   1   2  2   
  2   1   3  2   
  3   1   4  am  
  4   1   5  am  
  5   4   6  1   
  6   4   7  1   
  7   5   8  1   
  8   5   9  1   
  9   6  10  1   
 10   6  20  1   
 11   6  21  1   
 12   7  11  1   
 13   7  22  1   
 14   7  23  1   
 15   8  24  1   
 16   8  25  1   
 17   8  26  1   
 18   9  27  1   
 19   9  28  1   
 20   9  29  1   
 21  10  12  1   
 22  10  30  1   
 23  10  31  1   
 24  11  12  1   
 25  11  32  1   
 26  11  33  1   
 27  12  13  1   
 28  13  14  ar  
 29  13  15  ar  
 30  14  16  ar  
 31  14  17  1   
 32  15  18  ar  
 33  15  34  1   
 34  16  19  ar  
 35  16  35  1   
 36  17  36  1   
 37  17  37  1   
 38  17  38  1   
 39  18  19  ar  
 40  18  39  1   
 41  19  40  1   
@<TRIPOS>SUBSTRUCTURE
  1 ****  12 GROUP 4 **** **** 0

# MOE 2024.06 (io_trps.svl 2023.06)
