@<TRIPOS>MOLECULE
NONAME
38 39 1 0 0 
SMALL
USER_CHARGES


@<TRIPOS>ATOM
  1 F       -0.1970     0.1300     0.4120 F     1 <1>  -0.1900 
  2 C        0.9330     0.7410     0.1410 C.ar  1 <1>   0.1900 
  3 C        0.9540     2.1350     0.0620 C.ar  1 <1>   0.1170 
  4 C        2.0630    -0.0340    -0.0320 C.ar  1 <1>  -0.1500 
  5 N       -0.1990     2.9190     0.2370 N.am  1 <1>  -0.5470 
  6 C        2.1790     2.7430    -0.1870 C.ar  1 <1>  -0.1500 
  7 C        3.2700     0.5970    -0.2850 C.ar  1 <1>  -0.1500 
  8 C       -1.3490     2.7940    -0.4940 C.2   1 <1>   0.5690 
  9 C        3.3240     1.9810    -0.3590 C.ar  1 <1>  -0.1500 
 10 O       -1.3840     2.2240    -1.5580 O.2   1 <1>  -0.5700 
 11 C       -2.6830     3.3250     0.0490 C.3   1 <1>   0.4040 
 12 N       -3.8350     2.3950    -0.2550 N.4   1 <1>  -0.9590 
 13 C       -5.1640     3.0060     0.0220 C.3   1 <1>   0.3430 
 14 C       -3.6580     1.0630     0.4000 C.3   1 <1>   0.3430 
 15 C       -6.2720     2.0710    -0.4640 C.3   1 <1>  -0.1600 
 16 C       -4.7480     0.1060    -0.0800 C.3   1 <1>  -0.1600 
 17 C       -6.1540     0.6740     0.1630 C.3   1 <1>  -0.0800 
 18 C       -7.2210    -0.2650    -0.4080 C.3   1 <1>  -0.2400 
 19 H        2.0020    -1.1060     0.0330 H     1 <1>   0.1500 
 20 H       -0.1520     3.5870     1.0080 H     1 <1>   0.3700 
 21 H        2.2410     3.8140    -0.2560 H     1 <1>   0.1500 
 22 H        4.1650     0.0140    -0.4230 H     1 <1>   0.1500 
 23 H        4.2660     2.4660    -0.5570 H     1 <1>   0.1500 
 24 H       -2.8650     4.2830    -0.4090 H     1 <1>   0.0800 
 25 H       -2.6000     3.4660     1.1120 H     1 <1>   0.0800 
 26 H       -3.7670     2.2040    -1.2700 H     1 <1>   0.4500 
 27 H       -5.2510     3.9550    -0.4840 H     1 <1>   0.0800 
 28 H       -5.2760     3.1720     1.0820 H     1 <1>   0.0800 
 29 H       -3.7170     1.1680     1.4710 H     1 <1>   0.0800 
 30 H       -2.6920     0.6500     0.1490 H     1 <1>   0.0800 
 31 H       -6.2300     2.0010    -1.5380 H     1 <1>   0.0800 
 32 H       -7.2250     2.4990    -0.2070 H     1 <1>   0.0800 
 33 H       -4.6430    -0.8280     0.4430 H     1 <1>   0.0800 
 34 H       -4.6020    -0.0960    -1.1280 H     1 <1>   0.0800 
 35 H       -6.3140     0.7570     1.2260 H     1 <1>   0.0800 
 36 H       -7.1040    -0.3830    -1.4710 H     1 <1>   0.0800 
 37 H       -8.2060     0.1240    -0.2150 H     1 <1>   0.0800 
 38 H       -7.1510    -1.2360     0.0510 H     1 <1>   0.0800 
@<TRIPOS>BOND
  1   1   2  1   
  2   2   3  ar  
  3   2   4  ar  
  4   3   5  1   
  5   3   6  ar  
  6   4   7  ar  
  7   4  19  1   
  8   5   8  am  
  9   5  20  1   
 10   6   9  ar  
 11   6  21  1   
 12   7   9  ar  
 13   7  22  1   
 14   8  10  2   
 15   8  11  1   
 16   9  23  1   
 17  11  12  1   
 18  11  24  1   
 19  11  25  1   
 20  12  13  1   
 21  12  14  1   
 22  12  26  1   
 23  13  15  1   
 24  13  27  1   
 25  13  28  1   
 26  14  16  1   
 27  14  29  1   
 28  14  30  1   
 29  15  17  1   
 30  15  31  1   
 31  15  32  1   
 32  16  17  1   
 33  16  33  1   
 34  16  34  1   
 35  17  18  1   
 36  17  35  1   
 37  18  36  1   
 38  18  37  1   
 39  18  38  1   
@<TRIPOS>SUBSTRUCTURE
  1 ****   8 GROUP 4 **** **** 0

# MOE 2024.06 (io_trps.svl 2023.06)
