@<TRIPOS>MOLECULE
NONAME
44 45 1 0 0 
SMALL
USER_CHARGES


@<TRIPOS>ATOM
  1 O      -10.0880     0.9260    -0.6230 O.3   1 <1>  -0.3630 
  2 C      -11.3890     0.5700    -0.7820 C.ar  1 <1>   0.0830 
  3 C       -9.5710     2.1290    -1.1410 C.3   1 <1>   0.1200 
  4 C      -11.8860    -0.5090    -0.0430 C.ar  1 <1>  -0.1440 
  5 C      -12.2290     1.2520    -1.6620 C.ar  1 <1>  -0.1500 
  6 C       -8.1440     2.2780    -0.6150 C.3   1 <1>  -0.1600 
  7 C      -13.2170    -0.8720    -0.2070 C.ar  1 <1>  -0.1500 
  8 C      -11.0490    -1.3300     0.9490 C.3   1 <1>   0.0640 
  9 C      -13.5490     0.8740    -1.8090 C.ar  1 <1>  -0.1500 
 10 C       -7.3440     1.0070    -0.9030 C.3   1 <1>   0.3430 
 11 C      -14.0440    -0.1890    -1.0800 C.ar  1 <1>  -0.1500 
 12 C      -10.4910    -0.4780     2.0960 C.3   1 <1>  -0.2400 
 13 C       -9.9430    -2.1200     0.2410 C.3   1 <1>  -0.2400 
 14 N       -6.0000     1.0760    -0.2690 N.4   1 <1>  -0.9590 
 15 C       -5.1060    -0.0140    -0.7280 C.3   1 <1>   0.3430 
 16 C       -6.0400     0.9630     1.2120 C.3   1 <1>   0.3430 
 17 C       -4.0200    -0.0830     0.3360 C.3   1 <1>  -0.1600 
 18 C       -4.6340     0.5240     1.6000 C.3   1 <1>  -0.1600 
 19 H      -10.1910     2.9440    -0.8050 H     1 <1>   0.0800 
 20 H       -9.5870     2.0690    -2.2160 H     1 <1>   0.0800 
 21 H      -11.8790     2.0800    -2.2480 H     1 <1>   0.1500 
 22 H       -8.2040     2.4640     0.4410 H     1 <1>   0.0800 
 23 H       -7.6830     3.1250    -1.0910 H     1 <1>   0.0800 
 24 H      -13.6280    -1.6970     0.3470 H     1 <1>   0.1500 
 25 H      -11.6980    -2.0580     1.4060 H     1 <1>   0.0800 
 26 H      -14.1930     1.4050    -2.4890 H     1 <1>   0.1500 
 27 H       -7.2430     0.8880    -1.9700 H     1 <1>   0.0800 
 28 H       -7.8780     0.1510    -0.5230 H     1 <1>   0.0800 
 29 H      -15.0720    -0.4870    -1.1910 H     1 <1>   0.1500 
 30 H       -9.7490     0.2130     1.7480 H     1 <1>   0.0800 
 31 H      -10.0480    -1.1110     2.8440 H     1 <1>   0.0800 
 32 H      -11.2900     0.0790     2.5530 H     1 <1>   0.0800 
 33 H       -9.2270    -1.4620    -0.2090 H     1 <1>   0.0800 
 34 H      -10.3760    -2.7320    -0.5300 H     1 <1>   0.0800 
 35 H       -9.4370    -2.7600     0.9410 H     1 <1>   0.0800 
 36 H       -5.5520     1.9700    -0.5080 H     1 <1>   0.4500 
 37 H       -4.6980     0.1860    -1.7060 H     1 <1>   0.0800 
 38 H       -5.6480    -0.9460    -0.7480 H     1 <1>   0.0800 
 39 H       -6.7480     0.2020     1.5000 H     1 <1>   0.0800 
 40 H       -6.3100     1.8980     1.6780 H     1 <1>   0.0800 
 41 H       -3.1650     0.4910     0.0210 H     1 <1>   0.0800 
 42 H       -3.7080    -1.1020     0.4900 H     1 <1>   0.0800 
 43 H       -4.6760    -0.1890     2.4060 H     1 <1>   0.0800 
 44 H       -4.0610     1.3740     1.9270 H     1 <1>   0.0800 
@<TRIPOS>BOND
  1   1   2  1   
  2   1   3  1   
  3   2   4  ar  
  4   2   5  ar  
  5   3   6  1   
  6   3  19  1   
  7   3  20  1   
  8   4   7  ar  
  9   4   8  1   
 10   5   9  ar  
 11   5  21  1   
 12   6  10  1   
 13   6  22  1   
 14   6  23  1   
 15   7  11  ar  
 16   7  24  1   
 17   8  12  1   
 18   8  13  1   
 19   8  25  1   
 20   9  11  ar  
 21   9  26  1   
 22  10  14  1   
 23  10  27  1   
 24  10  28  1   
 25  11  29  1   
 26  12  30  1   
 27  12  31  1   
 28  12  32  1   
 29  13  33  1   
 30  13  34  1   
 31  13  35  1   
 32  14  15  1   
 33  14  16  1   
 34  14  36  1   
 35  15  17  1   
 36  15  37  1   
 37  15  38  1   
 38  16  18  1   
 39  16  39  1   
 40  16  40  1   
 41  17  18  1   
 42  17  41  1   
 43  17  42  1   
 44  18  43  1   
 45  18  44  1   
@<TRIPOS>SUBSTRUCTURE
  1 ****   1 GROUP 4 **** **** 0

# MOE 2024.06 (io_trps.svl 2023.06)
