@<TRIPOS>MOLECULE
NONAME
45 46 1 0 0 
SMALL
USER_CHARGES


@<TRIPOS>ATOM
  1 O       -0.1160    -1.6970    -1.3060 O.2   1 <1>  -0.5700 
  2 C        0.0420    -1.0180    -0.3110 C.2   1 <1>   0.6900 
  3 N       -0.9990    -0.4690     0.3720 N.am  1 <1>  -0.5470 
  4 N        1.2880    -0.7730     0.1620 N.am  1 <1>  -0.7300 
  5 C       -2.3980    -0.5220     0.2150 C.ar  1 <1>   0.1170 
  6 C        2.5390    -1.2620    -0.4420 C.3   1 <1>   0.2200 
  7 C       -3.1780     0.3710     0.9590 C.ar  1 <1>   0.0830 
  8 C       -3.0360    -1.4220    -0.6310 C.ar  1 <1>  -0.1500 
  9 C        3.1110    -2.3400     0.4860 C.3   1 <1>  -0.1600 
 10 C        3.4560    -0.0530    -0.6720 C.3   1 <1>  -0.1600 
 11 O       -2.5180     1.2360     1.7900 O.3   1 <1>  -0.3630 
 12 C       -4.5630     0.3540     0.8380 C.ar  1 <1>  -0.1500 
 13 C       -4.4150    -1.4360    -0.7500 C.ar  1 <1>  -0.1500 
 14 C        4.4730    -2.9120     0.0580 C.3   1 <1>  -0.1600 
 15 C        4.6450    -0.3850    -1.5870 C.3   1 <1>  -0.1600 
 16 C       -3.2230     2.1990     2.5430 C.3   1 <1>   0.0400 
 17 C       -5.1850    -0.5430    -0.0130 C.ar  1 <1>   0.0830 
 18 C        5.6250    -1.9240     0.2900 C.3   1 <1>  -0.1600 
 19 C        5.8810    -0.9460    -0.8670 C.3   1 <1>  -0.1600 
 20 O       -6.5430    -0.4880    -0.0700 O.3   1 <1>  -0.3620 
 21 C       -7.2660    -1.3490    -0.9200 C.3   1 <1>   0.0400 
 22 H       -0.7300     0.2020     1.0860 H     1 <1>   0.3700 
 23 H        1.3980    -0.2810     1.0430 H     1 <1>   0.3700 
 24 H        2.3160    -1.7120    -1.3960 H     1 <1>   0.0800 
 25 H       -2.4610    -2.1240    -1.2060 H     1 <1>   0.1500 
 26 H        2.4050    -3.1520     0.5100 H     1 <1>   0.0800 
 27 H        3.1920    -1.9510     1.4860 H     1 <1>   0.0800 
 28 H        3.8010     0.3510     0.2630 H     1 <1>   0.0800 
 29 H        2.8740     0.7040    -1.1680 H     1 <1>   0.0800 
 30 H       -5.1900     1.0240     1.3910 H     1 <1>   0.1500 
 31 H       -4.8620    -2.1470    -1.4170 H     1 <1>   0.1500 
 32 H        4.4460    -3.2360    -0.9680 H     1 <1>   0.0800 
 33 H        4.6610    -3.7840     0.6610 H     1 <1>   0.0800 
 34 H        4.9440     0.5120    -2.1020 H     1 <1>   0.0800 
 35 H        4.3260    -1.0810    -2.3450 H     1 <1>   0.0800 
 36 H       -2.5090     2.7750     3.1040 H     1 <1>   0.0800 
 37 H       -3.8940     1.6940     3.2160 H     1 <1>   0.0800 
 38 H       -3.7630     2.8420     1.8710 H     1 <1>   0.0800 
 39 H        6.5300    -2.4830     0.4510 H     1 <1>   0.0800 
 40 H        5.4440    -1.3680     1.1940 H     1 <1>   0.0800 
 41 H        6.4580    -0.1230    -0.4810 H     1 <1>   0.0800 
 42 H        6.4950    -1.4360    -1.6030 H     1 <1>   0.0800 
 43 H       -8.3120    -1.1270    -0.8100 H     1 <1>   0.0800 
 44 H       -7.0760    -2.3670    -0.6300 H     1 <1>   0.0800 
 45 H       -6.9600    -1.1740    -1.9370 H     1 <1>   0.0800 
@<TRIPOS>BOND
  1   1   2  2   
  2   2   3  am  
  3   2   4  am  
  4   3   5  1   
  5   3  22  1   
  6   4   6  1   
  7   4  23  1   
  8   5   7  ar  
  9   5   8  ar  
 10   6   9  1   
 11   6  10  1   
 12   6  24  1   
 13   7  11  1   
 14   7  12  ar  
 15   8  13  ar  
 16   8  25  1   
 17   9  14  1   
 18   9  26  1   
 19   9  27  1   
 20  10  15  1   
 21  10  28  1   
 22  10  29  1   
 23  11  16  1   
 24  12  17  ar  
 25  12  30  1   
 26  13  17  ar  
 27  13  31  1   
 28  14  18  1   
 29  14  32  1   
 30  14  33  1   
 31  15  19  1   
 32  15  34  1   
 33  15  35  1   
 34  16  36  1   
 35  16  37  1   
 36  16  38  1   
 37  17  20  1   
 38  18  19  1   
 39  18  39  1   
 40  18  40  1   
 41  19  41  1   
 42  19  42  1   
 43  20  21  1   
 44  21  43  1   
 45  21  44  1   
 46  21  45  1   
@<TRIPOS>SUBSTRUCTURE
  1 ****   3 GROUP 4 **** **** 0

# MOE 2024.06 (io_trps.svl 2023.06)
