@<TRIPOS>MOLECULE
ka-07841
38 38 1 0 0 
SMALL
USER_CHARGES


@<TRIPOS>ATOM
  1 O        0.6530    -0.6990     1.8210 O.2   1 <1>  -0.5700 
  2 C        0.9550    -1.5220     0.9850 C.2   1 <1>   0.7800 
  3 O        2.2310    -1.6150     0.6300 O.3   1 <1>  -0.4300 
  4 N        0.0260    -2.3380     0.4150 N.am  1 <1>  -0.7300 
  5 C        2.7340    -2.6620    -0.1670 C.3   1 <1>   0.2630 
  6 C       -1.4010    -2.3450     0.7880 C.3   1 <1>   0.1400 
  7 C        4.2440    -2.5300    -0.2880 C.ar  1 <1>  -0.1430 
  8 C       -2.1460    -1.3170    -0.0670 C.3   1 <1>  -0.1600 
  9 C        4.8600    -2.6320    -1.5270 C.ar  1 <1>  -0.1500 
 10 C        5.0240    -2.3170     0.8400 C.ar  1 <1>  -0.1500 
 11 C       -3.6040    -1.1610     0.3860 C.3   1 <1>  -0.1600 
 12 C        6.2360    -2.5250    -1.6370 C.ar  1 <1>  -0.1500 
 13 C        6.4000    -2.2110     0.7320 C.ar  1 <1>  -0.1500 
 14 C       -4.3120    -0.0600    -0.4180 C.3   1 <1>  -0.1600 
 15 C        7.0070    -2.3150    -0.5070 C.ar  1 <1>  -0.1500 
 16 C       -5.7400     0.1490     0.0810 C.3   1 <1>   0.3430 
 17 N       -6.3660     1.2480    -0.6880 N.4   1 <1>  -0.8530 
 18 H        0.2940    -2.9320    -0.3650 H     1 <1>   0.3700 
 19 H        2.2710    -2.6000    -1.1360 H     1 <1>   0.0800 
 20 H        2.4860    -3.5980     0.3040 H     1 <1>   0.0800 
 21 H       -1.4930    -2.0880     1.8320 H     1 <1>   0.0800 
 22 H       -1.8100    -3.3310     0.6440 H     1 <1>   0.0800 
 23 H       -2.1120    -1.6210    -1.0990 H     1 <1>   0.0800 
 24 H       -1.6440    -0.3690     0.0280 H     1 <1>   0.0800 
 25 H        4.2750    -2.7930    -2.4150 H     1 <1>   0.1500 
 26 H        4.5590    -2.2290     1.8070 H     1 <1>   0.1500 
 27 H       -3.6160    -0.9060     1.4340 H     1 <1>   0.0800 
 28 H       -4.1190    -2.1000     0.2620 H     1 <1>   0.0800 
 29 H        6.7070    -2.6040    -2.6010 H     1 <1>   0.1500 
 30 H        6.9960    -2.0440     1.6120 H     1 <1>   0.1500 
 31 H       -4.3220    -0.3400    -1.4580 H     1 <1>   0.0800 
 32 H       -3.7540     0.8550    -0.3100 H     1 <1>   0.0800 
 33 H        8.0760    -2.2320    -0.5920 H     1 <1>   0.1500 
 34 H       -5.7210     0.3970     1.1320 H     1 <1>   0.0800 
 35 H       -6.3050    -0.7620    -0.0430 H     1 <1>   0.0800 
 36 H       -5.8260     2.1150    -0.5820 H     1 <1>   0.4500 
 37 H       -7.3230     1.4270    -0.3650 H     1 <1>   0.4500 
 38 H       -6.4030     1.0180    -1.6880 H     1 <1>   0.4500 
@<TRIPOS>BOND
  1   1   2  2   
  2   2   3  1   
  3   2   4  am  
  4   3   5  1   
  5   4   6  1   
  6   4  18  1   
  7   5   7  1   
  8   5  19  1   
  9   5  20  1   
 10   6   8  1   
 11   6  21  1   
 12   6  22  1   
 13   7   9  ar  
 14   7  10  ar  
 15   8  11  1   
 16   8  23  1   
 17   8  24  1   
 18   9  12  ar  
 19   9  25  1   
 20  10  13  ar  
 21  10  26  1   
 22  11  14  1   
 23  11  27  1   
 24  11  28  1   
 25  12  15  ar  
 26  12  29  1   
 27  13  15  ar  
 28  13  30  1   
 29  14  16  1   
 30  14  31  1   
 31  14  32  1   
 32  15  33  1   
 33  16  17  1   
 34  16  34  1   
 35  16  35  1   
 36  17  36  1   
 37  17  37  1   
 38  17  38  1   
@<TRIPOS>SUBSTRUCTURE
  1 ****   2 GROUP 4 **** **** 0

# MOE 2024.06 (io_trps.svl 2023.06)
