@<TRIPOS>MOLECULE
NONAME
46 48 1 0 0 
SMALL
USER_CHARGES


@<TRIPOS>ATOM
  1 S       -0.3480     0.1950    -0.3160 S.o2  1 <1>   1.5760 
  2 O       -0.5230    -0.1890    -1.6980 O.2   1 <1>  -0.6500 
  3 O       -0.1470    -0.8090     0.7050 O.2   1 <1>  -0.6500 
  4 N       -1.6620     1.1540     0.1270 N.am  1 <1>  -0.8490 
  5 N        0.8990     1.3250    -0.2040 N.am  1 <1>  -0.8490 
  6 C       -1.9430     2.1860    -0.8870 C.3   1 <1>   0.1960 
  7 C       -2.8560     0.3260     0.3430 C.3   1 <1>   0.1960 
  8 C        1.1700     1.6890     1.1900 C.3   1 <1>   0.1960 
  9 C        2.1080     0.8280    -0.8620 C.3   1 <1>   0.1960 
 10 C       -3.1010     3.0980    -0.4530 C.3   1 <1>   0.1400 
 11 C       -4.0600     1.1670     0.8060 C.3   1 <1>   0.1400 
 12 C        2.2080     2.8140     1.2500 C.3   1 <1>  -0.1600 
 13 C        3.1890     1.9150    -0.8750 C.3   1 <1>  -0.1600 
 14 N       -4.3240     2.2960    -0.1390 N.am  1 <1>  -0.6600 
 15 C        3.5060     2.4100     0.5400 C.3   1 <1>  -0.1600 
 16 C       -5.4970     2.4440    -0.8510 C.2   1 <1>   0.5440 
 17 O       -5.4920     3.1260    -1.8580 O.2   1 <1>  -0.5700 
 18 C       -6.7290     1.7960    -0.4380 C.ar  1 <1>   0.0860 
 19 C       -7.2290     1.9350     0.8570 C.ar  1 <1>  -0.1500 
 20 C       -7.4550     1.0090    -1.3300 C.ar  1 <1>  -0.1500 
 21 C       -8.3940     1.3010     1.2500 C.ar  1 <1>  -0.1500 
 22 C       -8.6210     0.3720    -0.9440 C.ar  1 <1>  -0.1500 
 23 C       -9.0900     0.5160     0.3490 C.ar  1 <1>  -0.1500 
 24 H       -2.1950     1.7280    -1.8290 H     1 <1>   0.0800 
 25 H       -1.0670     2.7930    -1.0390 H     1 <1>   0.0800 
 26 H       -2.6470    -0.4160     1.0950 H     1 <1>   0.0800 
 27 H       -3.1140    -0.1890    -0.5680 H     1 <1>   0.0800 
 28 H        1.5300     0.8300     1.7330 H     1 <1>   0.0800 
 29 H        0.2610     2.0260     1.6610 H     1 <1>   0.0800 
 30 H        1.8820     0.5530    -1.8790 H     1 <1>   0.0800 
 31 H        2.4700    -0.0490    -0.3490 H     1 <1>   0.0800 
 32 H       -3.3010     3.8110    -1.2340 H     1 <1>   0.0800 
 33 H       -2.8060     3.6480     0.4230 H     1 <1>   0.0800 
 34 H       -3.8530     1.5680     1.7830 H     1 <1>   0.0800 
 35 H       -4.9170     0.5240     0.8840 H     1 <1>   0.0800 
 36 H        2.4160     3.0540     2.2770 H     1 <1>   0.0800 
 37 H        1.7940     3.6910     0.7830 H     1 <1>   0.0800 
 38 H        2.8430     2.7350    -1.4790 H     1 <1>   0.0800 
 39 H        4.0810     1.5240    -1.3310 H     1 <1>   0.0800 
 40 H        3.9860     1.6230     1.0960 H     1 <1>   0.0800 
 41 H        4.1790     3.2490     0.4960 H     1 <1>   0.0800 
 42 H       -6.6950     2.5530     1.5570 H     1 <1>   0.1500 
 43 H       -7.0940     0.9050    -2.3390 H     1 <1>   0.1500 
 44 H       -8.7640     1.4210     2.2540 H     1 <1>   0.1500 
 45 H       -9.1640    -0.2320    -1.6500 H     1 <1>   0.1500 
 46 H       -9.9980     0.0210     0.6520 H     1 <1>   0.1500 
@<TRIPOS>BOND
  1   1   2  2   
  2   1   3  2   
  3   1   4  am  
  4   1   5  am  
  5   4   6  1   
  6   4   7  1   
  7   5   8  1   
  8   5   9  1   
  9   6  10  1   
 10   6  24  1   
 11   6  25  1   
 12   7  11  1   
 13   7  26  1   
 14   7  27  1   
 15   8  12  1   
 16   8  28  1   
 17   8  29  1   
 18   9  13  1   
 19   9  30  1   
 20   9  31  1   
 21  10  14  1   
 22  10  32  1   
 23  10  33  1   
 24  11  14  1   
 25  11  34  1   
 26  11  35  1   
 27  12  15  1   
 28  12  36  1   
 29  12  37  1   
 30  13  15  1   
 31  13  38  1   
 32  13  39  1   
 33  14  16  am  
 34  15  40  1   
 35  15  41  1   
 36  16  17  2   
 37  16  18  1   
 38  18  19  ar  
 39  18  20  ar  
 40  19  21  ar  
 41  19  42  1   
 42  20  22  ar  
 43  20  43  1   
 44  21  23  ar  
 45  21  44  1   
 46  22  23  ar  
 47  22  45  1   
 48  23  46  1   
@<TRIPOS>SUBSTRUCTURE
  1 ****   4 GROUP 4 **** **** 0

# MOE 2024.06 (io_trps.svl 2023.06)
