@<TRIPOS>MOLECULE
NONAME
59 62 1 0 0 
SMALL
USER_CHARGES


@<TRIPOS>ATOM
  1 O        0.1640     0.8630    -0.5390 O.3   1 <1>  -0.3630 
  2 C        1.4050     1.2690    -0.1310 C.ar  1 <1>   0.0830 
  3 C       -0.0440    -0.4330    -1.0560 C.3   1 <1>   0.0400 
  4 C        1.5490     2.6090     0.2450 C.ar  1 <1>   0.1000 
  5 C        2.4970     0.4110    -0.0770 C.ar  1 <1>  -0.1500 
  6 N        0.4260     3.4540     0.1820 N.pl3 1 <1>  -0.6000 
  7 C        2.7900     3.0510     0.6890 C.ar  1 <1>  -0.1500 
  8 C        3.7310     0.8660     0.3540 C.ar  1 <1>   0.0830 
  9 C        0.2590     4.7850    -0.0660 C.ar  1 <1>   0.7200 
 10 C        3.8750     2.1950     0.7410 C.ar  1 <1>  -0.1500 
 11 O        4.7430    -0.0420     0.3720 O.3   1 <1>  -0.3630 
 12 N        1.3030     5.5330    -0.2900 N.ar  1 <1>  -0.6200 
 13 N       -0.9830     5.1720    -0.0690 N.ar  1 <1>  -0.6200 
 14 C        6.0370     0.3250     0.7970 C.3   1 <1>   0.0400 
 15 C        1.0220     6.7860    -0.5260 C.ar  1 <1>   0.7200 
 16 C       -1.1420     6.4470    -0.3160 C.ar  1 <1>   0.7200 
 17 N       -0.1790     7.2990    -0.5520 N.ar  1 <1>  -0.6200 
 18 N        2.0810     7.6360    -0.7670 N.pl3 1 <1>  -0.8380 
 19 N       -2.4350     6.9290    -0.3290 N.pl3 1 <1>  -0.8380 
 20 C        2.0010     9.1030    -0.5260 C.3   1 <1>   0.2090 
 21 C        3.4190     7.1530    -1.2080 C.3   1 <1>   0.2090 
 22 C       -3.5470     6.2700     0.4110 C.3   1 <1>   0.2090 
 23 C       -2.8120     8.2030    -1.0020 C.3   1 <1>   0.2090 
 24 C        3.0480     9.5040     0.5190 C.3   1 <1>  -0.1600 
 25 C        4.4660     7.5310    -0.1570 C.3   1 <1>  -0.1600 
 26 C       -4.1090     7.2410     1.4550 C.3   1 <1>  -0.1600 
 27 C       -3.3540     9.1860     0.0390 C.3   1 <1>  -0.1600 
 28 C        4.4600     9.0400     0.1290 C.3   1 <1>  -0.1600 
 29 C       -4.5230     8.5830     0.8320 C.3   1 <1>  -0.1600 
 30 H       -1.0720    -0.5110    -1.3590 H     1 <1>   0.0800 
 31 H        0.1660    -1.1540    -0.2860 H     1 <1>   0.0800 
 32 H        0.6000    -0.5760    -1.9060 H     1 <1>   0.0800 
 33 H        2.4230    -0.6200    -0.3600 H     1 <1>   0.1500 
 34 H       -0.4520     2.9500     0.0760 H     1 <1>   0.4000 
 35 H        2.9100     4.0710     1.0010 H     1 <1>   0.1500 
 36 H        4.8150     2.5810     1.0870 H     1 <1>   0.1500 
 37 H        6.6690    -0.5420     0.7300 H     1 <1>   0.0800 
 38 H        5.9870     0.6630     1.8170 H     1 <1>   0.0800 
 39 H        6.4100     1.1000     0.1510 H     1 <1>   0.0800 
 40 H        1.0250     9.3890    -0.1740 H     1 <1>   0.0800 
 41 H        2.1860     9.6200    -1.4520 H     1 <1>   0.0800 
 42 H        3.6620     7.6170    -2.1480 H     1 <1>   0.0800 
 43 H        3.4220     6.0870    -1.3600 H     1 <1>   0.0800 
 44 H       -3.2120     5.3760     0.9070 H     1 <1>   0.0800 
 45 H       -4.3160     5.9950    -0.2900 H     1 <1>   0.0800 
 46 H       -3.5720     7.9940    -1.7350 H     1 <1>   0.0800 
 47 H       -1.9740     8.6400    -1.5170 H     1 <1>   0.0800 
 48 H        2.7710     9.0640     1.4610 H     1 <1>   0.0800 
 49 H        3.0370    10.5720     0.6390 H     1 <1>   0.0800 
 50 H        5.4390     7.2300    -0.5020 H     1 <1>   0.0800 
 51 H        4.2530     6.9870     0.7470 H     1 <1>   0.0800 
 52 H       -3.3540     7.4080     2.2030 H     1 <1>   0.0800 
 53 H       -4.9560     6.7890     1.9390 H     1 <1>   0.0800 
 54 H       -3.6760    10.0850    -0.4560 H     1 <1>   0.0800 
 55 H       -2.5540     9.4470     0.7100 H     1 <1>   0.0800 
 56 H        5.1490     9.2640     0.9250 H     1 <1>   0.0800 
 57 H        4.7800     9.5720    -0.7500 H     1 <1>   0.0800 
 58 H       -4.8290     9.2650     1.6060 H     1 <1>   0.0800 
 59 H       -5.3590     8.4270     0.1720 H     1 <1>   0.0800 
@<TRIPOS>BOND
  1   1   2  1   
  2   1   3  1   
  3   2   4  ar  
  4   2   5  ar  
  5   3  30  1   
  6   3  31  1   
  7   3  32  1   
  8   4   6  1   
  9   4   7  ar  
 10   5   8  ar  
 11   5  33  1   
 12   6   9  1   
 13   6  34  1   
 14   7  10  ar  
 15   7  35  1   
 16   8  10  ar  
 17   8  11  1   
 18   9  12  ar  
 19   9  13  ar  
 20  10  36  1   
 21  11  14  1   
 22  12  15  ar  
 23  13  16  ar  
 24  14  37  1   
 25  14  38  1   
 26  14  39  1   
 27  15  17  ar  
 28  15  18  1   
 29  16  17  ar  
 30  16  19  1   
 31  18  20  1   
 32  18  21  1   
 33  19  22  1   
 34  19  23  1   
 35  20  24  1   
 36  20  40  1   
 37  20  41  1   
 38  21  25  1   
 39  21  42  1   
 40  21  43  1   
 41  22  26  1   
 42  22  44  1   
 43  22  45  1   
 44  23  27  1   
 45  23  46  1   
 46  23  47  1   
 47  24  28  1   
 48  24  48  1   
 49  24  49  1   
 50  25  28  1   
 51  25  50  1   
 52  25  51  1   
 53  26  29  1   
 54  26  52  1   
 55  26  53  1   
 56  27  29  1   
 57  27  54  1   
 58  27  55  1   
 59  28  56  1   
 60  28  57  1   
 61  29  58  1   
 62  29  59  1   
@<TRIPOS>SUBSTRUCTURE
  1 ****  12 GROUP 4 **** **** 0

# MOE 2024.06 (io_trps.svl 2023.06)
