@<TRIPOS>MOLECULE
NONAME
30 31 1 0 0 
SMALL
USER_CHARGES


@<TRIPOS>ATOM
  1 S        0.0370    -0.3980     0.5980 S.o2  1 <1>   1.5010 
  2 O        0.1270    -1.1880    -0.6070 O.2   1 <1>  -0.6500 
  3 O       -0.0290    -1.0450     1.8890 O.2   1 <1>  -0.6500 
  4 N       -1.3980     0.4300     0.4030 N.am  1 <1>  -0.9140 
  5 C        1.2730     0.9030     0.6070 C.2   1 <1>  -0.0630 
  6 C       -2.5280    -0.3860     0.7810 C.3   1 <1>   0.3760 
  7 C        1.9300     1.3420     1.7480 C.2   1 <1>   0.1390 
  8 C        1.7790     1.6880    -0.3780 C.2   1 <1>  -0.3020 
  9 C       -3.7750     0.2060     0.1590 C.2   1 <1>  -0.1400 
 10 N        2.7710     2.3020     1.5070 N.2   1 <1>  -0.7070 
 11 N        2.6760     2.5190     0.1850 N.pl3 1 <1>   0.3140 
 12 S       -4.3310     1.7600     0.7640 S.3   1 <1>  -0.0800 
 13 C       -4.5920    -0.2390    -0.8150 C.2   1 <1>  -0.1500 
 14 C        3.4830     3.5510    -0.4990 C.3   1 <1>   0.0960 
 15 C       -5.6870     1.7600    -0.3500 C.2   1 <1>  -0.1100 
 16 C       -5.6800     0.6460    -1.1050 C.2   1 <1>  -0.1500 
 17 C        2.6500     4.8080    -0.7810 C.3   1 <1>  -0.2400 
 18 H       -1.4790     0.5600    -0.6020 H     1 <1>   0.4200 
 19 H       -2.6210    -0.4130     1.8540 H     1 <1>   0.0800 
 20 H       -2.4030    -1.3940     0.4190 H     1 <1>   0.0800 
 21 H        1.7640     0.9340     2.7320 H     1 <1>   0.1500 
 22 H        1.5500     1.6960    -1.4280 H     1 <1>   0.1500 
 23 H       -4.4820    -1.1630    -1.3550 H     1 <1>   0.1500 
 24 H        3.8600     3.1370    -1.4160 H     1 <1>   0.0800 
 25 H        4.3160     3.7980     0.1340 H     1 <1>   0.0800 
 26 H       -6.3520     2.6040    -0.3200 H     1 <1>   0.1500 
 27 H       -6.4030     0.4030    -1.8650 H     1 <1>   0.1500 
 28 H        1.8230     4.5760    -1.4280 H     1 <1>   0.0800 
 29 H        3.2630     5.5500    -1.2600 H     1 <1>   0.0800 
 30 H        2.2780     5.2170     0.1420 H     1 <1>   0.0800 
@<TRIPOS>BOND
  1   1   2  2   
  2   1   3  2   
  3   1   4  am  
  4   1   5  1   
  5   4   6  1   
  6   4  18  1   
  7   5   7  1   
  8   5   8  2   
  9   6   9  1   
 10   6  19  1   
 11   6  20  1   
 12   7  10  2   
 13   7  21  1   
 14   8  11  1   
 15   8  22  1   
 16   9  12  1   
 17   9  13  2   
 18  10  11  1   
 19  11  14  1   
 20  12  15  1   
 21  13  16  1   
 22  13  23  1   
 23  14  17  1   
 24  14  24  1   
 25  14  25  1   
 26  15  16  2   
 27  15  26  1   
 28  16  27  1   
 29  17  28  1   
 30  17  29  1   
 31  17  30  1   
@<TRIPOS>SUBSTRUCTURE
  1 ****   4 GROUP 4 **** **** 0

# MOE 2024.06 (io_trps.svl 2023.06)
