@<TRIPOS>MOLECULE
NONAME
53 55 1 0 0 
SMALL
USER_CHARGES


@<TRIPOS>ATOM
  1 O       -0.1060     0.7930    -1.0300 O.3   1 <1>  -0.3630 
  2 C       -1.2350     1.0700    -0.3020 C.ar  1 <1>   0.0830 
  3 C       -0.0340    -0.3490    -1.8570 C.3   1 <1>   0.0400 
  4 C       -1.2460     2.2240     0.5040 C.ar  1 <1>   0.1000 
  5 C       -2.3590     0.2490    -0.3390 C.ar  1 <1>  -0.1500 
  6 N       -0.1680     3.1150     0.6120 N.pl3 1 <1>  -0.8380 
  7 C       -2.3830     2.5130     1.2430 C.ar  1 <1>  -0.1500 
  8 C       -3.4830     0.5600     0.4080 C.ar  1 <1>  -0.1500 
  9 C        0.1330     3.8700    -0.6380 C.3   1 <1>   0.2090 
 10 C        1.0390     2.5430     1.2730 C.3   1 <1>   0.2090 
 11 C       -3.4950     1.6920     1.2000 C.ar  1 <1>  -0.1500 
 12 C        1.2280     4.9280    -0.4010 C.3   1 <1>   0.3430 
 13 C        2.1220     3.6190     1.4850 C.3   1 <1>   0.3430 
 14 N        2.4890     4.3510     0.2100 N.4   1 <1>  -0.9590 
 15 C        3.5630     5.3730     0.4100 C.3   1 <1>   0.4230 
 16 C        3.9090     6.0510    -0.9280 C.3   1 <1>  -0.1600 
 17 C        4.8220     4.7110     1.0010 C.3   1 <1>  -0.1600 
 18 C        5.0780     7.0360    -0.7910 C.3   1 <1>  -0.1600 
 19 C        5.9950     5.6950     1.1280 C.3   1 <1>  -0.1600 
 20 C        6.3320     6.3620    -0.2150 C.3   1 <1>  -0.0800 
 21 C        7.4610     7.4010    -0.0800 C.3   1 <1>  -0.1600 
 22 C        8.8070     6.7910     0.3320 C.3   1 <1>  -0.2400 
 23 H        0.9330    -0.3640    -2.3260 H     1 <1>   0.0800 
 24 H       -0.8010    -0.2870    -2.6090 H     1 <1>   0.0800 
 25 H       -0.1580    -1.2290    -1.2510 H     1 <1>   0.0800 
 26 H       -2.3910    -0.6380    -0.9410 H     1 <1>   0.1500 
 27 H       -2.3930     3.3930     1.8590 H     1 <1>   0.1500 
 28 H       -4.3470    -0.0810     0.3740 H     1 <1>   0.1500 
 29 H       -0.7660     4.3570    -0.9760 H     1 <1>   0.0800 
 30 H        0.4490     3.1930    -1.4120 H     1 <1>   0.0800 
 31 H        1.4400     1.7410     0.6790 H     1 <1>   0.0800 
 32 H        0.7520     2.1330     2.2270 H     1 <1>   0.0800 
 33 H       -4.3670     1.9340     1.7820 H     1 <1>   0.1500 
 34 H        0.8260     5.6850     0.2520 H     1 <1>   0.0800 
 35 H        1.4520     5.3910    -1.3460 H     1 <1>   0.0800 
 36 H        2.9900     3.1380     1.9000 H     1 <1>   0.0800 
 37 H        1.7550     4.3240     2.2120 H     1 <1>   0.0800 
 38 H        2.8480     3.6490    -0.4480 H     1 <1>   0.4500 
 39 H        3.2180     6.1280     1.0990 H     1 <1>   0.0800 
 40 H        3.0710     6.6110    -1.2980 H     1 <1>   0.0800 
 41 H        4.1750     5.3040    -1.6560 H     1 <1>   0.0800 
 42 H        5.1320     3.8940     0.3730 H     1 <1>   0.0800 
 43 H        4.6260     4.3330     1.9870 H     1 <1>   0.0800 
 44 H        4.7860     7.8540    -0.1540 H     1 <1>   0.0800 
 45 H        5.3070     7.4480    -1.7610 H     1 <1>   0.0800 
 46 H        6.8530     5.1580     1.4940 H     1 <1>   0.0800 
 47 H        5.7530     6.4540     1.8540 H     1 <1>   0.0800 
 48 H        6.6580     5.6020    -0.9070 H     1 <1>   0.0800 
 49 H        7.1830     8.1570     0.6350 H     1 <1>   0.0800 
 50 H        7.5990     7.8920    -1.0290 H     1 <1>   0.0800 
 51 H        8.7690     6.4020     1.3330 H     1 <1>   0.0800 
 52 H        9.5730     7.5460     0.2990 H     1 <1>   0.0800 
 53 H        9.0860     5.9990    -0.3420 H     1 <1>   0.0800 
@<TRIPOS>BOND
  1   1   2  1   
  2   1   3  1   
  3   2   4  ar  
  4   2   5  ar  
  5   3  23  1   
  6   3  24  1   
  7   3  25  1   
  8   4   6  1   
  9   4   7  ar  
 10   5   8  ar  
 11   5  26  1   
 12   6   9  1   
 13   6  10  1   
 14   7  11  ar  
 15   7  27  1   
 16   8  11  ar  
 17   8  28  1   
 18   9  12  1   
 19   9  29  1   
 20   9  30  1   
 21  10  13  1   
 22  10  31  1   
 23  10  32  1   
 24  11  33  1   
 25  12  14  1   
 26  12  34  1   
 27  12  35  1   
 28  13  14  1   
 29  13  36  1   
 30  13  37  1   
 31  14  15  1   
 32  14  38  1   
 33  15  16  1   
 34  15  17  1   
 35  15  39  1   
 36  16  18  1   
 37  16  40  1   
 38  16  41  1   
 39  17  19  1   
 40  17  42  1   
 41  17  43  1   
 42  18  20  1   
 43  18  44  1   
 44  18  45  1   
 45  19  20  1   
 46  19  46  1   
 47  19  47  1   
 48  20  21  1   
 49  20  48  1   
 50  21  22  1   
 51  21  49  1   
 52  21  50  1   
 53  22  51  1   
 54  22  52  1   
 55  22  53  1   
@<TRIPOS>SUBSTRUCTURE
  1 ****  14 GROUP 4 **** **** 0

# MOE 2024.06 (io_trps.svl 2023.06)
