@<TRIPOS>MOLECULE
NONAME
52 53 1 0 0 
SMALL
USER_CHARGES


@<TRIPOS>ATOM
  1 O       -4.5850     1.2820    -1.2050 O.3   1 <1>  -0.5600 
  2 C       -4.6110     2.1300    -0.0830 C.3   1 <1>   0.7670 
  3 C       -4.7860    -0.0830    -0.9920 C.3   1 <1>   0.1200 
  4 C       -3.3070     1.9410     0.6390 C.1   1 <1>  -0.2000 
  5 C       -5.8740     1.8460     0.7620 C.ar  1 <1>  -0.1440 
  6 C       -4.5850     3.5930    -0.5700 C.ar  1 <1>  -0.1440 
  7 C       -4.4770    -0.7960    -2.3020 C.3   1 <1>  -0.2400 
  8 C       -2.2150     1.9400     1.1120 C.1   1 <1>  -0.2000 
  9 C       -5.8240     1.3220     2.0520 C.ar  1 <1>  -0.1500 
 10 C       -7.1210     2.1210     0.2110 C.ar  1 <1>  -0.1500 
 11 C       -4.9290     4.6210     0.3050 C.ar  1 <1>  -0.1500 
 12 C       -4.1950     3.9350    -1.8630 C.ar  1 <1>  -0.1500 
 13 C       -0.8130     2.1400     1.5470 C.3   1 <1>   0.5430 
 14 C       -6.9870     1.0850     2.7650 C.ar  1 <1>  -0.1500 
 15 C       -8.2840     1.8860     0.9220 C.ar  1 <1>  -0.1500 
 16 C       -4.8830     5.9450    -0.0970 C.ar  1 <1>  -0.1500 
 17 C       -4.1490     5.2580    -2.2660 C.ar  1 <1>  -0.1500 
 18 N       -0.2280     3.0630     0.5430 N.4   1 <1>  -0.9590 
 19 C       -8.2180     1.3680     2.2020 C.ar  1 <1>  -0.1500 
 20 C       -4.4920     6.2650    -1.3830 C.ar  1 <1>  -0.1500 
 21 C        1.0000     2.4910    -0.0610 C.3   1 <1>   0.3430 
 22 C       -0.0350     4.4430     1.0680 C.3   1 <1>   0.3430 
 23 C        1.2560     3.1490    -1.4120 C.3   1 <1>  -0.2400 
 24 C       -1.3810     5.1480     1.1910 C.3   1 <1>  -0.2400 
 25 H       -5.8130    -0.2510    -0.7130 H     1 <1>   0.0800 
 26 H       -4.1320    -0.4320    -0.2110 H     1 <1>   0.0800 
 27 H       -5.1330    -0.4420    -3.0780 H     1 <1>   0.0800 
 28 H       -4.6270    -1.8540    -2.1850 H     1 <1>   0.0800 
 29 H       -3.4550    -0.6230    -2.5880 H     1 <1>   0.0800 
 30 H       -4.8870     1.0860     2.5230 H     1 <1>   0.1500 
 31 H       -7.1880     2.5240    -0.7870 H     1 <1>   0.1500 
 32 H       -5.2400     4.3970     1.3120 H     1 <1>   0.1500 
 33 H       -3.9270     3.1710    -2.5730 H     1 <1>   0.1500 
 34 H       -0.2960     1.1940     1.5510 H     1 <1>   0.0800 
 35 H       -0.7800     2.5690     2.5350 H     1 <1>   0.0800 
 36 H       -6.9360     0.6800     3.7610 H     1 <1>   0.1500 
 37 H       -9.2390     2.1070     0.4790 H     1 <1>   0.1500 
 38 H       -5.1590     6.7260     0.5910 H     1 <1>   0.1500 
 39 H       -3.8520     5.5030    -3.2710 H     1 <1>   0.1500 
 40 H       -0.9450     3.1180    -0.1960 H     1 <1>   0.4500 
 41 H       -9.1220     1.1840     2.7560 H     1 <1>   0.1500 
 42 H       -4.4610     7.2930    -1.6980 H     1 <1>   0.1500 
 43 H        0.8690     1.4310    -0.2160 H     1 <1>   0.0800 
 44 H        1.8460     2.6360     0.5930 H     1 <1>   0.0800 
 45 H        0.5820     5.0090     0.3890 H     1 <1>   0.0800 
 46 H        0.4620     4.4160     2.0250 H     1 <1>   0.0800 
 47 H        0.4110     3.0200    -2.0650 H     1 <1>   0.0800 
 48 H        2.1060     2.6800    -1.8750 H     1 <1>   0.0800 
 49 H        1.4780     4.1950    -1.3090 H     1 <1>   0.0800 
 50 H       -1.8950     5.1590     0.2460 H     1 <1>   0.0800 
 51 H       -1.2200     6.1690     1.4900 H     1 <1>   0.0800 
 52 H       -2.0050     4.6860     1.9340 H     1 <1>   0.0800 
@<TRIPOS>BOND
  1   1   2  1   
  2   1   3  1   
  3   2   4  1   
  4   2   5  1   
  5   2   6  1   
  6   3   7  1   
  7   3  25  1   
  8   3  26  1   
  9   4   8  3   
 10   5   9  ar  
 11   5  10  ar  
 12   6  11  ar  
 13   6  12  ar  
 14   7  27  1   
 15   7  28  1   
 16   7  29  1   
 17   8  13  1   
 18   9  14  ar  
 19   9  30  1   
 20  10  15  ar  
 21  10  31  1   
 22  11  16  ar  
 23  11  32  1   
 24  12  17  ar  
 25  12  33  1   
 26  13  18  1   
 27  13  34  1   
 28  13  35  1   
 29  14  19  ar  
 30  14  36  1   
 31  15  19  ar  
 32  15  37  1   
 33  16  20  ar  
 34  16  38  1   
 35  17  20  ar  
 36  17  39  1   
 37  18  21  1   
 38  18  22  1   
 39  18  40  1   
 40  19  41  1   
 41  20  42  1   
 42  21  23  1   
 43  21  43  1   
 44  21  44  1   
 45  22  24  1   
 46  22  45  1   
 47  22  46  1   
 48  23  47  1   
 49  23  48  1   
 50  23  49  1   
 51  24  50  1   
 52  24  51  1   
 53  24  52  1   
@<TRIPOS>SUBSTRUCTURE
  1 ****   2 GROUP 4 **** **** 0

# MOE 2024.06 (io_trps.svl 2023.06)
