@<TRIPOS>MOLECULE
NONAME
33 34 1 0 0 
SMALL
USER_CHARGES


@<TRIPOS>ATOM
  1 S       -0.2820     0.4270     1.0860 S.2   1 <1>  -0.3800 
  2 C       -0.8990     1.8310     0.5870 C.2   1 <1>   0.5900 
  3 O       -2.1570     2.1430     0.7870 O.3   1 <1>  -0.2270 
  4 N       -0.2490     2.8120    -0.0620 N.am  1 <1>  -0.4200 
  5 C       -2.4040     3.3690     0.2680 C.2   1 <1>   0.0910 
  6 C       -1.1600     3.8020    -0.2860 C.2   1 <1>   0.6160 
  7 C        1.1700     2.8500    -0.4740 C.3   1 <1>   0.1400 
  8 C       -3.6440     3.9250     0.3430 C.2   1 <1>  -0.1500 
  9 O       -0.8890     4.8410    -0.8640 O.2   1 <1>  -0.5700 
 10 C        2.0120     3.4850     0.6320 C.3   1 <1>  -0.2400 
 11 C       -4.0510     5.1970    -0.1480 C.2   1 <1>  -0.1500 
 12 C       -5.2900     5.7540    -0.1840 C.2   1 <1>  -0.0380 
 13 N       -6.5130     5.2430     0.1830 N.pl3 1 <1>  -0.8380 
 14 C       -5.4990     7.1710    -0.6690 C.3   1 <1>  -0.0220 
 15 C       -7.5930     6.2460     0.1150 C.3   1 <1>   0.2090 
 16 C       -6.8980     3.8100     0.2030 C.3   1 <1>   0.1290 
 17 C       -6.8480     7.5640    -0.0690 C.3   1 <1>  -0.1600 
 18 H        1.5150     1.8490    -0.6710 H     1 <1>   0.0800 
 19 H        1.2620     3.4250    -1.3810 H     1 <1>   0.0800 
 20 H       -4.4090     3.3610     0.8370 H     1 <1>   0.1500 
 21 H        1.9400     2.9100     1.5380 H     1 <1>   0.0800 
 22 H        1.6840     4.4930     0.8170 H     1 <1>   0.0800 
 23 H        3.0430     3.5140     0.3290 H     1 <1>   0.0800 
 24 H       -3.2440     5.7970    -0.5290 H     1 <1>   0.1500 
 25 H       -4.7110     7.8290    -0.3500 H     1 <1>   0.0800 
 26 H       -5.5590     7.1660    -1.7430 H     1 <1>   0.0800 
 27 H       -8.2200     6.0430    -0.7370 H     1 <1>   0.0800 
 28 H       -8.1780     6.2440     1.0180 H     1 <1>   0.0800 
 29 H       -7.9170     3.6930    -0.1210 H     1 <1>   0.0800 
 30 H       -6.8000     3.4250     1.2030 H     1 <1>   0.0800 
 31 H       -6.2630     3.2520    -0.4620 H     1 <1>   0.0800 
 32 H       -7.3920     8.2510    -0.6910 H     1 <1>   0.0800 
 33 H       -6.6930     8.0070     0.8990 H     1 <1>   0.0800 
@<TRIPOS>BOND
  1   1   2  2   
  2   2   3  1   
  3   2   4  am  
  4   3   5  1   
  5   4   6  am  
  6   4   7  1   
  7   5   6  1   
  8   5   8  2   
  9   6   9  2   
 10   7  10  1   
 11   7  18  1   
 12   7  19  1   
 13   8  11  1   
 14   8  20  1   
 15  10  21  1   
 16  10  22  1   
 17  10  23  1   
 18  11  12  2   
 19  11  24  1   
 20  12  13  1   
 21  12  14  1   
 22  13  15  1   
 23  13  16  1   
 24  14  17  1   
 25  14  25  1   
 26  14  26  1   
 27  15  17  1   
 28  15  27  1   
 29  15  28  1   
 30  16  29  1   
 31  16  30  1   
 32  16  31  1   
 33  17  32  1   
 34  17  33  1   
@<TRIPOS>SUBSTRUCTURE
  1 ****   8 GROUP 4 **** **** 0

# MOE 2024.06 (io_trps.svl 2023.06)
