@<TRIPOS>MOLECULE
NONAME
37 38 1 0 0 
SMALL
USER_CHARGES


@<TRIPOS>ATOM
  1 F       -2.5070     1.1330     1.5160 F     1 <1>  -0.1900 
  2 C       -1.6130     2.0280     1.1830 C.ar  1 <1>   0.1900 
  3 C       -1.6390     2.5740    -0.0960 C.ar  1 <1>  -0.1440 
  4 C       -0.6760     2.3880     2.1380 C.ar  1 <1>  -0.1500 
  5 C       -0.6720     3.5180    -0.4190 C.ar  1 <1>  -0.1500 
  6 C       -2.6880     2.1530    -1.1140 C.3   1 <1>   0.2540 
  7 C        0.2820     3.3340     1.8100 C.ar  1 <1>  -0.1500 
  8 C        0.2630     3.8780     0.5370 C.ar  1 <1>   0.1900 
  9 N       -4.0030     2.7210    -0.7600 N.3   1 <1>  -0.8100 
 10 F        1.1620     4.7710     0.2240 F     1 <1>  -0.1900 
 11 C       -4.0410     4.2040    -0.8230 C.3   1 <1>   0.1100 
 12 C       -5.1010     2.1300    -1.5570 C.3   1 <1>   0.1100 
 13 C       -5.4340     4.7690    -0.4460 C.3   1 <1>   0.3430 
 14 C       -6.4890     2.6430    -1.0950 C.3   1 <1>   0.3430 
 15 N       -6.3550     3.6700    -0.0050 N.4   1 <1>  -0.9590 
 16 C       -7.6500     4.1860     0.5350 C.3   1 <1>   0.3430 
 17 C       -8.4510     3.1110     1.2830 C.3   1 <1>   0.1200 
 18 O       -9.6270     3.6910     1.7230 O.3   1 <1>  -0.6800 
 19 H       -0.6980     1.9350     3.1130 H     1 <1>   0.1500 
 20 H       -0.6310     3.9740    -1.3920 H     1 <1>   0.1500 
 21 H       -2.7490     1.0780    -1.1160 H     1 <1>   0.0800 
 22 H       -2.4010     2.4710    -2.1020 H     1 <1>   0.0800 
 23 H        1.0290     3.6430     2.5200 H     1 <1>   0.1500 
 24 H       -3.7750     4.5400    -1.8110 H     1 <1>   0.0800 
 25 H       -3.3160     4.6110    -0.1380 H     1 <1>   0.0800 
 26 H       -5.0800     1.0580    -1.4570 H     1 <1>   0.0800 
 27 H       -4.9640     2.3620    -2.6000 H     1 <1>   0.0800 
 28 H       -5.8520     5.2800    -1.2970 H     1 <1>   0.0800 
 29 H       -5.3140     5.4910     0.3450 H     1 <1>   0.0800 
 30 H       -7.0640     1.8040    -0.7410 H     1 <1>   0.0800 
 31 H       -7.0100     3.0640    -1.9390 H     1 <1>   0.0800 
 32 H       -5.8120     3.1880     0.7310 H     1 <1>   0.4500 
 33 H       -8.2520     4.5700    -0.2730 H     1 <1>   0.0800 
 34 H       -7.4540     4.9920     1.2220 H     1 <1>   0.0800 
 35 H       -7.9090     2.7580     2.1440 H     1 <1>   0.0800 
 36 H       -8.7100     2.2910     0.6380 H     1 <1>   0.0800 
 37 H      -10.1730     3.0620     2.2420 H     1 <1>   0.4000 
@<TRIPOS>BOND
  1   1   2  1   
  2   2   3  ar  
  3   2   4  ar  
  4   3   5  ar  
  5   3   6  1   
  6   4   7  ar  
  7   4  19  1   
  8   5   8  ar  
  9   5  20  1   
 10   6   9  1   
 11   6  21  1   
 12   6  22  1   
 13   7   8  ar  
 14   7  23  1   
 15   8  10  1   
 16   9  11  1   
 17   9  12  1   
 18  11  13  1   
 19  11  24  1   
 20  11  25  1   
 21  12  14  1   
 22  12  26  1   
 23  12  27  1   
 24  13  15  1   
 25  13  28  1   
 26  13  29  1   
 27  14  15  1   
 28  14  30  1   
 29  14  31  1   
 30  15  16  1   
 31  15  32  1   
 32  16  17  1   
 33  16  33  1   
 34  16  34  1   
 35  17  18  1   
 36  17  35  1   
 37  17  36  1   
 38  18  37  1   
@<TRIPOS>SUBSTRUCTURE
  1 ****   9 GROUP 4 **** **** 0

# MOE 2024.06 (io_trps.svl 2023.06)
