@<TRIPOS>MOLECULE
NONAME
42 42 1 0 0 
SMALL
USER_CHARGES


@<TRIPOS>ATOM
  1 O       -0.7860    -0.1400     1.1050 O.2   1 <1>  -0.5700 
  2 C       -1.0720    -0.9700     0.2620 C.2   1 <1>   0.6900 
  3 N       -2.3520    -1.0740    -0.2300 N.am  1 <1>  -0.6600 
  4 N       -0.1180    -1.8160    -0.1970 N.am  1 <1>  -0.7300 
  5 C       -3.4080    -0.1230     0.2180 C.3   1 <1>   0.1400 
  6 C       -2.7100    -1.9400    -1.3860 C.3   1 <1>   0.1400 
  7 C        1.2770    -1.8790     0.2670 C.3   1 <1>   0.2200 
  8 C       -4.3740    -0.8220     1.1690 C.3   1 <1>  -0.2400 
  9 C       -2.9490    -3.3760    -0.9200 C.3   1 <1>  -0.2400 
 10 C        2.1800    -1.8560    -0.9750 C.3   1 <1>  -0.1600 
 11 C        1.4030    -3.1380     1.1340 C.3   1 <1>  -0.1600 
 12 C        3.5980    -1.3130    -0.7090 C.3   1 <1>  -0.1600 
 13 C        2.7690    -3.3350     1.8110 C.3   1 <1>  -0.1600 
 14 C        4.7070    -2.3700    -0.8140 C.3   1 <1>  -0.1600 
 15 C        3.8090    -4.0580     0.9350 C.3   1 <1>  -0.1600 
 16 C        4.9690    -3.1640     0.4730 C.3   1 <1>  -0.1600 
 17 H       -0.4250    -2.5780    -0.7900 H     1 <1>   0.3700 
 18 H       -3.9380     0.2630    -0.6350 H     1 <1>   0.0800 
 19 H       -2.9620     0.7170     0.7250 H     1 <1>   0.0800 
 20 H       -1.9160    -1.9130    -2.1140 H     1 <1>   0.0800 
 21 H       -3.5990    -1.5640    -1.8630 H     1 <1>   0.0800 
 22 H        1.4800    -1.0090     0.8700 H     1 <1>   0.0800 
 23 H       -4.9220    -1.5910     0.6580 H     1 <1>   0.0800 
 24 H       -5.0760    -0.1080     1.5590 H     1 <1>   0.0800 
 25 H       -3.8310    -1.2500     1.9930 H     1 <1>   0.0800 
 26 H       -2.0740    -3.7770    -0.4420 H     1 <1>   0.0800 
 27 H       -3.1890    -3.9940    -1.7660 H     1 <1>   0.0800 
 28 H       -3.7710    -3.4150    -0.2300 H     1 <1>   0.0800 
 29 H        1.7280    -1.1920    -1.6920 H     1 <1>   0.0800 
 30 H        2.2150    -2.8320    -1.4240 H     1 <1>   0.0800 
 31 H        1.1480    -4.0110     0.5610 H     1 <1>   0.0800 
 32 H        0.6720    -3.0460     1.9200 H     1 <1>   0.0800 
 33 H        3.6540    -0.8070     0.2400 H     1 <1>   0.0800 
 34 H        3.7990    -0.5690    -1.4610 H     1 <1>   0.0800 
 35 H        2.6020    -3.9500     2.6790 H     1 <1>   0.0800 
 36 H        3.1420    -2.3930     2.1730 H     1 <1>   0.0800 
 37 H        5.6210    -1.8580    -1.0610 H     1 <1>   0.0800 
 38 H        4.5030    -3.0450    -1.6280 H     1 <1>   0.0800 
 39 H        3.3490    -4.5380     0.0890 H     1 <1>   0.0800 
 40 H        4.2380    -4.8430     1.5340 H     1 <1>   0.0800 
 41 H        5.2610    -2.4940     1.2640 H     1 <1>   0.0800 
 42 H        5.8150    -3.8020     0.2830 H     1 <1>   0.0800 
@<TRIPOS>BOND
  1   1   2  2   
  2   2   3  am  
  3   2   4  am  
  4   3   5  1   
  5   3   6  1   
  6   4   7  1   
  7   4  17  1   
  8   5   8  1   
  9   5  18  1   
 10   5  19  1   
 11   6   9  1   
 12   6  20  1   
 13   6  21  1   
 14   7  10  1   
 15   7  11  1   
 16   7  22  1   
 17   8  23  1   
 18   8  24  1   
 19   8  25  1   
 20   9  26  1   
 21   9  27  1   
 22   9  28  1   
 23  10  12  1   
 24  10  29  1   
 25  10  30  1   
 26  11  13  1   
 27  11  31  1   
 28  11  32  1   
 29  12  14  1   
 30  12  33  1   
 31  12  34  1   
 32  13  15  1   
 33  13  35  1   
 34  13  36  1   
 35  14  16  1   
 36  14  37  1   
 37  14  38  1   
 38  15  16  1   
 39  15  39  1   
 40  15  40  1   
 41  16  41  1   
 42  16  42  1   
@<TRIPOS>SUBSTRUCTURE
  1 ****   4 GROUP 4 **** **** 0

# MOE 2024.06 (io_trps.svl 2023.06)
