@<TRIPOS>MOLECULE
NONAME
43 45 1 0 0 
SMALL
USER_CHARGES


@<TRIPOS>ATOM
  1 CL       0.4000    -0.0090    -0.7860 Cl    1 <1>  -0.1770 
  2 C        0.2230    -1.7090    -0.3820 C.ar  1 <1>   0.1770 
  3 C        1.3530    -2.4680    -0.1860 C.ar  1 <1>   0.0830 
  4 C       -1.0820    -2.2400    -0.2700 C.ar  1 <1>   0.0000 
  5 O        2.5720    -1.8780    -0.3110 O.3   1 <1>  -0.3630 
  6 C        1.2080    -3.8300     0.1390 C.ar  1 <1>  -0.1500 
  7 C       -1.2070    -3.6090     0.0580 C.ar  1 <1>   0.0000 
  8 C       -2.2650    -1.4910    -0.4650 C.ar  1 <1>  -0.1500 
  9 C        3.7710    -2.5510    -0.0090 C.3   1 <1>   0.1200 
 10 C       -0.0410    -4.3750     0.2560 C.ar  1 <1>  -0.1500 
 11 C       -2.4950    -4.1680     0.1790 C.ar  1 <1>  -0.1500 
 12 C       -3.5020    -2.0610    -0.3420 C.ar  1 <1>  -0.1500 
 13 C        4.9190    -1.5610    -0.2000 C.3   1 <1>  -0.1600 
 14 C       -3.6190    -3.4160    -0.0160 C.ar  1 <1>  -0.1500 
 15 C        6.2590    -2.1920     0.1840 C.3   1 <1>   0.1100 
 16 N        7.3780    -1.3200    -0.2100 N.3   1 <1>  -0.8100 
 17 C        8.6490    -2.0710    -0.2520 C.3   1 <1>   0.1100 
 18 C        7.4890    -0.1070     0.6290 C.3   1 <1>   0.1100 
 19 C        9.8060    -1.1840    -0.7540 C.3   1 <1>   0.3430 
 20 C        8.6320     0.8070     0.1420 C.3   1 <1>   0.3430 
 21 N        9.9350     0.0670     0.0640 N.4   1 <1>  -0.9060 
 22 H        2.0680    -4.4520     0.2960 H     1 <1>   0.1500 
 23 H       -2.1870    -0.4490    -0.7160 H     1 <1>   0.1500 
 24 H        3.8710    -3.3870    -0.6790 H     1 <1>   0.0800 
 25 H        3.7200    -2.8880     1.0120 H     1 <1>   0.0800 
 26 H       -0.1530    -5.4160     0.5040 H     1 <1>   0.1500 
 27 H       -2.5810    -5.2110     0.4290 H     1 <1>   0.1500 
 28 H       -4.3950    -1.4800    -0.4930 H     1 <1>   0.1500 
 29 H        4.7230    -0.7010     0.4140 H     1 <1>   0.0800 
 30 H        4.9480    -1.2640    -1.2340 H     1 <1>   0.0800 
 31 H       -4.6000    -3.8490     0.0770 H     1 <1>   0.1500 
 32 H        6.3460    -3.1320    -0.3370 H     1 <1>   0.0800 
 33 H        6.2920    -2.3920     1.2430 H     1 <1>   0.0800 
 34 H        8.5440    -2.9060    -0.9250 H     1 <1>   0.0800 
 35 H        8.8810    -2.4600     0.7250 H     1 <1>   0.0800 
 36 H        7.6500    -0.3810     1.6580 H     1 <1>   0.0800 
 37 H        6.5730     0.4560     0.5780 H     1 <1>   0.0800 
 38 H        9.6090    -0.9260    -1.7820 H     1 <1>   0.0800 
 39 H       10.7260    -1.7440    -0.7230 H     1 <1>   0.0800 
 40 H        8.7230     1.6500     0.8070 H     1 <1>   0.0800 
 41 H        8.3680     1.1800    -0.8340 H     1 <1>   0.0800 
 42 H       10.6590     0.6750    -0.3370 H     1 <1>   0.4500 
 43 H       10.2290    -0.1860     1.0130 H     1 <1>   0.4500 
@<TRIPOS>BOND
  1   1   2  1   
  2   2   3  ar  
  3   2   4  ar  
  4   3   5  1   
  5   3   6  ar  
  6   4   7  ar  
  7   4   8  ar  
  8   5   9  1   
  9   6  10  ar  
 10   6  22  1   
 11   7  10  ar  
 12   7  11  ar  
 13   8  12  ar  
 14   8  23  1   
 15   9  13  1   
 16   9  24  1   
 17   9  25  1   
 18  10  26  1   
 19  11  14  ar  
 20  11  27  1   
 21  12  14  ar  
 22  12  28  1   
 23  13  15  1   
 24  13  29  1   
 25  13  30  1   
 26  14  31  1   
 27  15  16  1   
 28  15  32  1   
 29  15  33  1   
 30  16  17  1   
 31  16  18  1   
 32  17  19  1   
 33  17  34  1   
 34  17  35  1   
 35  18  20  1   
 36  18  36  1   
 37  18  37  1   
 38  19  21  1   
 39  19  38  1   
 40  19  39  1   
 41  20  21  1   
 42  20  40  1   
 43  20  41  1   
 44  21  42  1   
 45  21  43  1   
@<TRIPOS>SUBSTRUCTURE
  1 ****   5 GROUP 4 **** **** 0

# MOE 2024.06 (io_trps.svl 2023.06)
