@<TRIPOS>MOLECULE
NONAME
40 42 1 0 0 
SMALL
USER_CHARGES


@<TRIPOS>ATOM
  1 CL       3.4200    -2.6800     3.4740 Cl    1 <1>  -0.1770 
  2 C        3.4800    -1.9320     1.8940 C.ar  1 <1>   0.1770 
  3 C        2.3150    -1.6700     1.1920 C.ar  1 <1>   0.1770 
  4 C        4.7110    -1.6080     1.3580 C.ar  1 <1>  -0.1500 
  5 CL       0.7500    -2.0770     1.8610 Cl    1 <1>  -0.1770 
  6 C        2.3770    -1.0780    -0.0560 C.ar  1 <1>  -0.1500 
  7 C        4.7930    -1.0140     0.1030 C.ar  1 <1>   0.1170 
  8 C        3.6120    -0.7520    -0.5920 C.ar  1 <1>  -0.1500 
  9 N        6.0620    -0.7000    -0.4030 N.am  1 <1>  -0.5470 
 10 C        6.5140    -0.3460    -1.6420 C.2   1 <1>   0.5690 
 11 O        5.8130    -0.2290    -2.6180 O.2   1 <1>  -0.5700 
 12 C        8.0180    -0.0930    -1.7620 C.3   1 <1>   0.1710 
 13 N        8.8160    -0.7170    -0.6610 N.3   1 <1>  -0.8100 
 14 C       10.1400    -0.0820    -0.5620 C.3   1 <1>   0.1100 
 15 C        8.9530    -2.1710    -0.8820 C.3   1 <1>   0.1100 
 16 C       10.8870    -0.6350     0.6520 C.3   1 <1>  -0.1600 
 17 C        9.6440    -2.8090     0.3210 C.3   1 <1>  -0.1600 
 18 C       11.0000    -2.1570     0.5590 C.3   1 <1>   0.5600 
 19 O       11.8650    -2.5160    -0.4690 O.3   1 <1>  -0.5600 
 20 O       11.5620    -2.6790     1.7130 O.3   1 <1>  -0.5600 
 21 C       13.1320    -2.7120     0.0480 C.3   1 <1>   0.1200 
 22 C       12.9310    -2.7580     1.5500 C.3   1 <1>   0.1200 
 23 H        5.6020    -1.8200     1.9190 H     1 <1>   0.1500 
 24 H        1.4700    -0.8750    -0.5980 H     1 <1>   0.1500 
 25 H        3.6500    -0.2880    -1.5610 H     1 <1>   0.1500 
 26 H        6.8550    -0.8060     0.2410 H     1 <1>   0.3700 
 27 H        8.1550     0.9730    -1.7440 H     1 <1>   0.0800 
 28 H        8.3600    -0.4520    -2.7170 H     1 <1>   0.0800 
 29 H       10.0260     0.9830    -0.4470 H     1 <1>   0.0800 
 30 H       10.7080    -0.2710    -1.4590 H     1 <1>   0.0800 
 31 H        9.5310    -2.3560    -1.7730 H     1 <1>   0.0800 
 32 H        7.9840    -2.6230    -1.0100 H     1 <1>   0.0800 
 33 H       10.3390    -0.3770     1.5390 H     1 <1>   0.0800 
 34 H       11.8620    -0.1910     0.7120 H     1 <1>   0.0800 
 35 H        9.7790    -3.8610     0.1550 H     1 <1>   0.0800 
 36 H        9.0280    -2.6740     1.1900 H     1 <1>   0.0800 
 37 H       13.7650    -1.8940    -0.2450 H     1 <1>   0.0800 
 38 H       13.5220    -3.6400    -0.3320 H     1 <1>   0.0800 
 39 H       13.2860    -3.6770     1.9820 H     1 <1>   0.0800 
 40 H       13.3900    -1.9150     2.0360 H     1 <1>   0.0800 
@<TRIPOS>BOND
  1   1   2  1   
  2   2   3  ar  
  3   2   4  ar  
  4   3   5  1   
  5   3   6  ar  
  6   4   7  ar  
  7   4  23  1   
  8   6   8  ar  
  9   6  24  1   
 10   7   8  ar  
 11   7   9  1   
 12   8  25  1   
 13   9  10  am  
 14   9  26  1   
 15  10  11  2   
 16  10  12  1   
 17  12  13  1   
 18  12  27  1   
 19  12  28  1   
 20  13  14  1   
 21  13  15  1   
 22  14  16  1   
 23  14  29  1   
 24  14  30  1   
 25  15  17  1   
 26  15  31  1   
 27  15  32  1   
 28  16  18  1   
 29  16  33  1   
 30  16  34  1   
 31  17  18  1   
 32  17  35  1   
 33  17  36  1   
 34  18  19  1   
 35  18  20  1   
 36  19  21  1   
 37  20  22  1   
 38  21  22  1   
 39  21  37  1   
 40  21  38  1   
 41  22  39  1   
 42  22  40  1   
@<TRIPOS>SUBSTRUCTURE
  1 ****   9 GROUP 4 **** **** 0

# MOE 2024.06 (io_trps.svl 2023.06)
