@<TRIPOS>MOLECULE
NONAME
37 38 1 0 0 
SMALL
USER_CHARGES


@<TRIPOS>ATOM
  1 O        0.1670    -0.0020    -0.3510 O.2   1 <1>  -0.5700 
  2 C        0.6720     1.1050    -0.3310 C.2   1 <1>   0.6900 
  3 N        2.0220     1.2550    -0.5220 N.am  1 <1>  -0.6600 
  4 N       -0.0780     2.2200    -0.0880 N.am  1 <1>  -0.5470 
  5 C        2.9460     0.0920    -0.4070 C.3   1 <1>   0.1400 
  6 C        2.6670     2.4930    -1.0360 C.3   1 <1>   0.1400 
  7 C       -1.4630     2.4120     0.0120 C.ar  1 <1>   0.1170 
  8 C        4.1280     0.4500     0.5110 C.3   1 <1>  -0.0800 
  9 C        3.8230     2.8860    -0.1120 C.3   1 <1>  -0.1600 
 10 C       -2.3890     1.5560    -0.5750 C.ar  1 <1>  -0.1500 
 11 C       -1.9390     3.5160     0.7080 C.ar  1 <1>  -0.1500 
 12 C        4.8300     1.7350     0.0410 C.3   1 <1>  -0.1600 
 13 C        5.1290    -0.7100     0.5820 C.3   1 <1>  -0.2400 
 14 C       -3.7470     1.7940    -0.4650 C.ar  1 <1>  -0.1500 
 15 C       -3.2970     3.7580     0.8200 C.ar  1 <1>  -0.1500 
 16 C       -4.2110     2.8960     0.2350 C.ar  1 <1>  -0.1430 
 17 C       -5.7010     3.1570     0.3540 C.3   1 <1>  -0.0970 
 18 H        0.4930     3.0110     0.1800 H     1 <1>   0.3700 
 19 H        3.3040    -0.1680    -1.3880 H     1 <1>   0.0800 
 20 H        2.4270    -0.7610    -0.0030 H     1 <1>   0.0800 
 21 H        1.9610     3.3010    -1.1090 H     1 <1>   0.0800 
 22 H        3.0450     2.2990    -2.0260 H     1 <1>   0.0800 
 23 H        3.7350     0.6120     1.5010 H     1 <1>   0.0800 
 24 H        3.4280     3.1530     0.8520 H     1 <1>   0.0800 
 25 H        4.3230     3.7490    -0.5140 H     1 <1>   0.0800 
 26 H       -2.0490     0.6970    -1.1250 H     1 <1>   0.1500 
 27 H       -1.2460     4.1920     1.1710 H     1 <1>   0.1500 
 28 H        5.3080     1.5570    -0.9080 H     1 <1>   0.0800 
 29 H        5.5910     2.0160     0.7490 H     1 <1>   0.0800 
 30 H        5.5440    -0.9160    -0.3890 H     1 <1>   0.0800 
 31 H        4.6430    -1.5990     0.9440 H     1 <1>   0.0800 
 32 H        5.9330    -0.4680     1.2550 H     1 <1>   0.0800 
 33 H       -4.4410     1.1150    -0.9280 H     1 <1>   0.1500 
 34 H       -3.6410     4.6190     1.3640 H     1 <1>   0.1500 
 35 H       -6.2430     2.2280     0.3620 H     1 <1>   0.0800 
 36 H       -6.0340     3.7470    -0.4800 H     1 <1>   0.0800 
 37 H       -5.9190     3.6850     1.2650 H     1 <1>   0.0800 
@<TRIPOS>BOND
  1   1   2  2   
  2   2   3  am  
  3   2   4  am  
  4   3   5  1   
  5   3   6  1   
  6   4   7  1   
  7   4  18  1   
  8   5   8  1   
  9   5  19  1   
 10   5  20  1   
 11   6   9  1   
 12   6  21  1   
 13   6  22  1   
 14   7  10  ar  
 15   7  11  ar  
 16   8  12  1   
 17   8  13  1   
 18   8  23  1   
 19   9  12  1   
 20   9  24  1   
 21   9  25  1   
 22  10  14  ar  
 23  10  26  1   
 24  11  15  ar  
 25  11  27  1   
 26  12  28  1   
 27  12  29  1   
 28  13  30  1   
 29  13  31  1   
 30  13  32  1   
 31  14  16  ar  
 32  14  33  1   
 33  15  16  ar  
 34  15  34  1   
 35  16  17  1   
 36  17  35  1   
 37  17  36  1   
 38  17  37  1   
@<TRIPOS>SUBSTRUCTURE
  1 ****   4 GROUP 4 **** **** 0

# MOE 2024.06 (io_trps.svl 2023.06)
