@<TRIPOS>MOLECULE
NONAME
37 38 1 0 0 
SMALL
USER_CHARGES


@<TRIPOS>ATOM
  1 S        1.3550    -2.7900     1.8300 S.3   1 <1>  -0.4600 
  2 C        1.7880    -3.5610     0.2480 C.3   1 <1>   0.0700 
  3 C        2.8700    -1.8900     2.2580 C.3   1 <1>   0.0700 
  4 C        2.3110    -2.4830    -0.7100 C.3   1 <1>   0.3430 
  5 C        3.2740    -0.9980     1.0780 C.3   1 <1>   0.3430 
  6 N        3.5270    -1.7930    -0.1700 N.4   1 <1>  -0.9590 
  7 C        4.2190    -0.9850    -1.2090 C.3   1 <1>   0.4860 
  8 C        5.5990    -0.6040    -0.7030 C.ar  1 <1>  -0.1430 
  9 C        6.4950    -1.5860    -0.2870 C.ar  1 <1>   0.0820 
 10 C        5.9740     0.7300    -0.6520 C.ar  1 <1>  -0.1500 
 11 O        6.0760    -2.8760    -0.3300 O.3   1 <1>  -0.3630 
 12 C        7.7610    -1.2270     0.1640 C.ar  1 <1>  -0.1500 
 13 C        7.2310     1.0830    -0.1920 C.ar  1 <1>  -0.1500 
 14 C        6.6450    -3.8610     0.5040 C.3   1 <1>   0.2580 
 15 C        8.1230     0.1070     0.2130 C.ar  1 <1>  -0.1500 
 16 C        5.5940    -4.9410     0.6610 C.2   1 <1>  -0.2880 
 17 C        4.9730    -5.2590     1.8010 C.2   1 <1>  -0.3000 
 18 H        0.8930    -4.0200    -0.1340 H     1 <1>   0.0800 
 19 H        2.5280    -4.3180     0.4400 H     1 <1>   0.0800 
 20 H        3.6310    -2.6140     2.4900 H     1 <1>   0.0800 
 21 H        2.6510    -1.3030     3.1330 H     1 <1>   0.0800 
 22 H        1.5300    -1.7610    -0.8850 H     1 <1>   0.0800 
 23 H        2.5510    -2.9510    -1.6510 H     1 <1>   0.0800 
 24 H        4.1680    -0.4600     1.3520 H     1 <1>   0.0800 
 25 H        2.4940    -0.2770     0.9000 H     1 <1>   0.0800 
 26 H        4.2290    -2.5190     0.0660 H     1 <1>   0.4500 
 27 H        3.6470    -0.1000    -1.4380 H     1 <1>   0.0800 
 28 H        4.3320    -1.5650    -2.1100 H     1 <1>   0.0800 
 29 H        5.3020     1.5100    -0.9700 H     1 <1>   0.1500 
 30 H        8.4780    -1.9660     0.4710 H     1 <1>   0.1500 
 31 H        7.5210     2.1210    -0.1540 H     1 <1>   0.1500 
 32 H        6.8820    -3.4230     1.4580 H     1 <1>   0.0800 
 33 H        7.5380    -4.2400     0.0360 H     1 <1>   0.0800 
 34 H        9.1020     0.3880     0.5630 H     1 <1>   0.1500 
 35 H        5.3950    -5.4500    -0.2680 H     1 <1>   0.1500 
 36 H        4.2340    -6.0390     1.8860 H     1 <1>   0.1500 
 37 H        5.1510    -4.7830     2.7510 H     1 <1>   0.1500 
@<TRIPOS>BOND
  1   1   2  1   
  2   1   3  1   
  3   2   4  1   
  4   2  18  1   
  5   2  19  1   
  6   3   5  1   
  7   3  20  1   
  8   3  21  1   
  9   4   6  1   
 10   4  22  1   
 11   4  23  1   
 12   5   6  1   
 13   5  24  1   
 14   5  25  1   
 15   6   7  1   
 16   6  26  1   
 17   7   8  1   
 18   7  27  1   
 19   7  28  1   
 20   8   9  ar  
 21   8  10  ar  
 22   9  11  1   
 23   9  12  ar  
 24  10  13  ar  
 25  10  29  1   
 26  11  14  1   
 27  12  15  ar  
 28  12  30  1   
 29  13  15  ar  
 30  13  31  1   
 31  14  16  1   
 32  14  32  1   
 33  14  33  1   
 34  15  34  1   
 35  16  17  2   
 36  16  35  1   
 37  17  36  1   
 38  17  37  1   
@<TRIPOS>SUBSTRUCTURE
  1 ****   6 GROUP 4 **** **** 0

# MOE 2024.06 (io_trps.svl 2023.06)
