@<TRIPOS>MOLECULE
NONAME
28 28 1 0 0 
SMALL
USER_CHARGES


@<TRIPOS>ATOM
  1 CL      -0.4990     0.1400     0.0270 Cl    1 <1>  -0.1770 
  2 C       -0.3040    -1.6000     0.0130 C.ar  1 <1>   0.1770 
  3 C       -1.4280    -2.4240     0.0070 C.ar  1 <1>   0.0830 
  4 C        0.9790    -2.1180     0.0070 C.ar  1 <1>  -0.1500 
  5 O       -2.6530    -1.8340     0.0130 O.3   1 <1>  -0.3630 
  6 C       -1.2450    -3.8050    -0.0040 C.ar  1 <1>  -0.1500 
  7 C        1.1550    -3.4920    -0.0040 C.ar  1 <1>  -0.1500 
  8 C       -3.8460    -2.5760     0.0080 C.3   1 <1>   0.1200 
  9 C        0.0410    -4.3140    -0.0090 C.ar  1 <1>   0.1770 
 10 C       -4.9950    -1.5630     0.0180 C.3   1 <1>   0.3430 
 11 CL       0.2620    -6.0440    -0.0240 Cl    1 <1>  -0.1770 
 12 N       -6.3330    -2.2280     0.0140 N.4   1 <1>  -0.9060 
 13 C       -7.4370    -1.2440     0.0220 C.3   1 <1>   0.3430 
 14 C       -8.7520    -2.0080     0.0180 C.3   1 <1>  -0.2400 
 15 H        1.8250    -1.4530     0.0120 H     1 <1>   0.1500 
 16 H       -2.0630    -4.4980    -0.0090 H     1 <1>   0.1500 
 17 H        2.1410    -3.9240    -0.0080 H     1 <1>   0.1500 
 18 H       -3.8620    -3.1900     0.8920 H     1 <1>   0.0800 
 19 H       -3.8630    -3.1760    -0.8850 H     1 <1>   0.0800 
 20 H       -4.9020    -0.9320    -0.8520 H     1 <1>   0.0800 
 21 H       -4.9010    -0.9460     0.8970 H     1 <1>   0.0800 
 22 H       -6.4310    -2.8370     0.8360 H     1 <1>   0.4500 
 23 H       -6.4330    -2.8240    -0.8180 H     1 <1>   0.4500 
 24 H       -7.3800    -0.6090    -0.8490 H     1 <1>   0.0800 
 25 H       -7.3780    -0.6230     0.9030 H     1 <1>   0.0800 
 26 H       -8.8460    -2.6120    -0.8670 H     1 <1>   0.0800 
 27 H       -9.5680    -1.3060     0.0240 H     1 <1>   0.0800 
 28 H       -8.8440    -2.6260     0.8930 H     1 <1>   0.0800 
@<TRIPOS>BOND
  1   1   2  1   
  2   2   3  ar  
  3   2   4  ar  
  4   3   5  1   
  5   3   6  ar  
  6   4   7  ar  
  7   4  15  1   
  8   5   8  1   
  9   6   9  ar  
 10   6  16  1   
 11   7   9  ar  
 12   7  17  1   
 13   8  10  1   
 14   8  18  1   
 15   8  19  1   
 16   9  11  1   
 17  10  12  1   
 18  10  20  1   
 19  10  21  1   
 20  12  13  1   
 21  12  22  1   
 22  12  23  1   
 23  13  14  1   
 24  13  24  1   
 25  13  25  1   
 26  14  26  1   
 27  14  27  1   
 28  14  28  1   
@<TRIPOS>SUBSTRUCTURE
  1 ****   5 GROUP 4 **** **** 0

# MOE 2024.06 (io_trps.svl 2023.06)
