@<TRIPOS>MOLECULE
NONAME
41 41 1 0 0 
SMALL
USER_CHARGES


@<TRIPOS>ATOM
  1 O       -7.4400     2.5640     1.2800 O.2   1 <1>  -0.5700 
  2 C       -7.8720     1.6750     0.5750 C.2   1 <1>   0.6340 
  3 O       -7.0030     0.7660     0.1130 O.3   1 <1>  -0.4300 
  4 C       -9.2680     1.5470     0.2060 C.ar  1 <1>   0.0860 
  5 C       -5.6330     0.8400     0.4440 C.3   1 <1>   0.1200 
  6 C       -9.7220     0.5120    -0.6160 C.ar  1 <1>  -0.1500 
  7 C      -10.2230     2.4630     0.6610 C.ar  1 <1>  -0.1500 
  8 C       -4.9070    -0.3160    -0.2520 C.3   1 <1>   0.3430 
  9 C      -11.0530     0.4070    -0.9570 C.ar  1 <1>   0.0830 
 10 C      -11.5610     2.3610     0.3210 C.ar  1 <1>  -0.1500 
 11 N       -3.4400    -0.3590     0.0810 N.4   1 <1>  -0.9590 
 12 O      -11.4510    -0.6010    -1.7500 O.3   1 <1>  -0.5330 
 13 C      -11.9940     1.3240    -0.4990 C.ar  1 <1>   0.0830 
 14 C       -2.7080     0.7880    -0.5280 C.3   1 <1>   0.3430 
 15 C       -2.8400    -1.6590    -0.3320 C.3   1 <1>   0.3430 
 16 O      -13.2860     1.1480    -0.8820 O.3   1 <1>  -0.3630 
 17 C       -1.3980     1.0100     0.2180 C.3   1 <1>  -0.2400 
 18 C       -3.2370    -2.7430     0.6630 C.3   1 <1>  -0.2400 
 19 C      -14.3040     2.0310    -0.4630 C.3   1 <1>   0.0400 
 20 H       -5.5470     0.7620     1.5140 H     1 <1>   0.0800 
 21 H       -5.2670     1.7960     0.1100 H     1 <1>   0.0800 
 22 H       -9.0390    -0.2240    -0.9980 H     1 <1>   0.1500 
 23 H       -9.9050     3.2730     1.2970 H     1 <1>   0.1500 
 24 H       -5.0340    -0.2210    -1.3180 H     1 <1>   0.0800 
 25 H       -5.3740    -1.2330     0.0630 H     1 <1>   0.0800 
 26 H      -12.2470     3.0940     0.7010 H     1 <1>   0.1500 
 27 H       -3.3380    -0.2870     1.1020 H     1 <1>   0.4500 
 28 H      -12.4160    -0.5360    -1.8980 H     1 <1>   0.4500 
 29 H       -3.2990     1.6870    -0.4550 H     1 <1>   0.0800 
 30 H       -2.5170     0.5980    -1.5730 H     1 <1>   0.0800 
 31 H       -1.7650    -1.5820    -0.3430 H     1 <1>   0.0800 
 32 H       -3.1670    -1.9250    -1.3250 H     1 <1>   0.0800 
 33 H       -1.5790     1.2020     1.2610 H     1 <1>   0.0800 
 34 H       -0.9020     1.8710    -0.1930 H     1 <1>   0.0800 
 35 H       -0.7330     0.1720     0.1140 H     1 <1>   0.0800 
 36 H       -2.9180    -2.4860     1.6580 H     1 <1>   0.0800 
 37 H       -2.7510    -3.6630     0.3900 H     1 <1>   0.0800 
 38 H       -4.2970    -2.9230     0.6560 H     1 <1>   0.0800 
 39 H      -15.2340     1.6960    -0.8860 H     1 <1>   0.0800 
 40 H      -14.0770     3.0200    -0.8180 H     1 <1>   0.0800 
 41 H      -14.3630     2.0110     0.6110 H     1 <1>   0.0800 
@<TRIPOS>BOND
  1   1   2  2   
  2   2   3  1   
  3   2   4  1   
  4   3   5  1   
  5   4   6  ar  
  6   4   7  ar  
  7   5   8  1   
  8   5  20  1   
  9   5  21  1   
 10   6   9  ar  
 11   6  22  1   
 12   7  10  ar  
 13   7  23  1   
 14   8  11  1   
 15   8  24  1   
 16   8  25  1   
 17   9  12  1   
 18   9  13  ar  
 19  10  13  ar  
 20  10  26  1   
 21  11  14  1   
 22  11  15  1   
 23  11  27  1   
 24  12  28  1   
 25  13  16  1   
 26  14  17  1   
 27  14  29  1   
 28  14  30  1   
 29  15  18  1   
 30  15  31  1   
 31  15  32  1   
 32  16  19  1   
 33  17  33  1   
 34  17  34  1   
 35  17  35  1   
 36  18  36  1   
 37  18  37  1   
 38  18  38  1   
 39  19  39  1   
 40  19  40  1   
 41  19  41  1   
@<TRIPOS>SUBSTRUCTURE
  1 ****   3 GROUP 4 **** **** 0

# MOE 2024.06 (io_trps.svl 2023.06)
