@<TRIPOS>MOLECULE
NONAME
32 32 1 0 0 
SMALL
USER_CHARGES


@<TRIPOS>ATOM
  1 S       -0.0070     0.0670    -0.1870 S.o2  1 <1>   1.3330 
  2 O        0.6310     1.3290    -0.4610 O.2   1 <1>  -0.6500 
  3 O       -0.7140    -0.1520     1.0520 O.2   1 <1>  -0.6500 
  4 N        1.2170    -1.0590    -0.3000 N.am  1 <1>  -0.9140 
  5 C       -1.0650    -0.3760    -1.5460 C.3   1 <1>  -0.1350 
  6 C        1.9920    -1.1450     0.9080 C.3   1 <1>   0.4190 
  7 C        3.4750    -1.1140     0.5210 C.ar  1 <1>  -0.1430 
  8 C        1.5810    -2.3800     1.7060 C.3   1 <1>  -0.2400 
  9 C        4.1430    -2.0870    -0.2300 C.ar  1 <1>  -0.1440 
 10 C        4.1930    -0.0040     0.9530 C.ar  1 <1>  -0.1500 
 11 C        5.4940    -1.9280    -0.5080 C.ar  1 <1>  -0.1500 
 12 C        3.4820    -3.3480    -0.7780 C.3   1 <1>  -0.0970 
 13 C        5.5360     0.1430     0.6650 C.ar  1 <1>  -0.1500 
 14 C        6.1970    -0.8230    -0.0670 C.ar  1 <1>  -0.1430 
 15 C        7.6730    -0.6740    -0.3880 C.3   1 <1>  -0.0970 
 16 H        1.8780    -0.6320    -0.9480 H     1 <1>   0.4200 
 17 H       -1.8990     0.2960    -1.5950 H     1 <1>   0.0800 
 18 H       -1.4350    -1.3740    -1.4140 H     1 <1>   0.0800 
 19 H       -0.5250    -0.3250    -2.4700 H     1 <1>   0.0800 
 20 H        1.8000    -0.2850     1.5300 H     1 <1>   0.0800 
 21 H        1.5640    -3.2600     1.0960 H     1 <1>   0.0800 
 22 H        0.6010    -2.2320     2.1220 H     1 <1>   0.0800 
 23 H        2.2710    -2.5290     2.5160 H     1 <1>   0.0800 
 24 H        3.7090     0.7710     1.5220 H     1 <1>   0.1500 
 25 H        6.0120    -2.6780    -1.0790 H     1 <1>   0.1500 
 26 H        2.4860    -3.1540    -1.1250 H     1 <1>   0.0800 
 27 H        3.4500    -4.1020    -0.0130 H     1 <1>   0.0800 
 28 H        4.0400    -3.7380    -1.6100 H     1 <1>   0.0800 
 29 H        6.0620     1.0150     1.0140 H     1 <1>   0.1500 
 30 H        8.1580    -1.6340    -0.3710 H     1 <1>   0.0800 
 31 H        8.1550    -0.0390     0.3320 H     1 <1>   0.0800 
 32 H        7.7900    -0.2420    -1.3660 H     1 <1>   0.0800 
@<TRIPOS>BOND
  1   1   2  2   
  2   1   3  2   
  3   1   4  am  
  4   1   5  1   
  5   4   6  1   
  6   4  16  1   
  7   5  17  1   
  8   5  18  1   
  9   5  19  1   
 10   6   7  1   
 11   6   8  1   
 12   6  20  1   
 13   7   9  ar  
 14   7  10  ar  
 15   8  21  1   
 16   8  22  1   
 17   8  23  1   
 18   9  11  ar  
 19   9  12  1   
 20  10  13  ar  
 21  10  24  1   
 22  11  14  ar  
 23  11  25  1   
 24  12  26  1   
 25  12  27  1   
 26  12  28  1   
 27  13  14  ar  
 28  13  29  1   
 29  14  15  1   
 30  15  30  1   
 31  15  31  1   
 32  15  32  1   
@<TRIPOS>SUBSTRUCTURE
  1 ****   7 GROUP 4 **** **** 0

# MOE 2024.06 (io_trps.svl 2023.06)
