@<TRIPOS>MOLECULE
NONAME
27 28 1 0 0 
SMALL
USER_CHARGES


@<TRIPOS>ATOM
  1 F       -2.0290     1.9620     1.6720 F     1 <1>  -0.3400 
  2 C       -1.1140     1.6930     0.7450 C.3   1 <1>   0.6000 
  3 F        0.0520     1.8590     1.3700 F     1 <1>  -0.3400 
  4 C       -1.2120     2.6540    -0.4860 C.3   1 <1>   0.5600 
  5 O       -2.3410     2.3160    -1.2750 O.3   1 <1>  -0.3630 
  6 O       -0.1330     2.4450    -1.3340 O.3   1 <1>  -0.6800 
  7 C       -1.2310     4.1490    -0.1460 C.3   1 <1>  -0.0990 
  8 C       -3.5740     2.7610    -0.9410 C.ar  1 <1>   0.0830 
  9 C       -2.5820     4.5650     0.3840 C.2   1 <1>   0.4230 
 10 C       -3.7390     3.8630    -0.0970 C.ar  1 <1>   0.0860 
 11 C       -4.6680     2.0890    -1.4580 C.ar  1 <1>  -0.1500 
 12 O       -2.6190     5.4810     1.1640 O.2   1 <1>  -0.5700 
 13 C       -5.0390     4.2470     0.2370 C.ar  1 <1>  -0.1500 
 14 C       -5.9460     2.4910    -1.1230 C.ar  1 <1>  -0.1500 
 15 C       -6.1390     3.5670    -0.2700 C.ar  1 <1>   0.0830 
 16 O       -7.4260     3.8930     0.0150 O.3   1 <1>  -0.3630 
 17 C       -7.7310     4.9560     0.8910 C.3   1 <1>   0.0400 
 18 H       -1.2050     0.6570     0.4740 H     1 <1>   0.0800 
 19 H        0.6990     2.5910    -0.8430 H     1 <1>   0.4000 
 20 H       -1.0280     4.7270    -1.0290 H     1 <1>   0.0800 
 21 H       -0.4800     4.3720     0.5890 H     1 <1>   0.0800 
 22 H       -4.5160     1.2530    -2.1180 H     1 <1>   0.1500 
 23 H       -5.1580     5.0870     0.8950 H     1 <1>   0.1500 
 24 H       -6.8050     1.9750    -1.5160 H     1 <1>   0.1500 
 25 H       -8.8010     5.0220     0.9750 H     1 <1>   0.0800 
 26 H       -7.3400     5.8700     0.4820 H     1 <1>   0.0800 
 27 H       -7.3020     4.7490     1.8550 H     1 <1>   0.0800 
@<TRIPOS>BOND
  1   1   2  1   
  2   2   3  1   
  3   2   4  1   
  4   2  18  1   
  5   4   5  1   
  6   4   6  1   
  7   4   7  1   
  8   5   8  1   
  9   6  19  1   
 10   7   9  1   
 11   7  20  1   
 12   7  21  1   
 13   8  10  ar  
 14   8  11  ar  
 15   9  10  1   
 16   9  12  2   
 17  10  13  ar  
 18  11  14  ar  
 19  11  22  1   
 20  13  15  ar  
 21  13  23  1   
 22  14  15  ar  
 23  14  24  1   
 24  15  16  1   
 25  16  17  1   
 26  17  25  1   
 27  17  26  1   
 28  17  27  1   
@<TRIPOS>SUBSTRUCTURE
  1 ****  10 GROUP 4 **** **** 0

# MOE 2024.06 (io_trps.svl 2023.06)
