@<TRIPOS>MOLECULE
NONAME
45 47 1 0 0 
SMALL
USER_CHARGES


@<TRIPOS>ATOM
  1 O        0.4070     0.1150     1.0070 O.2   1 <1>  -0.5700 
  2 C        0.8940    -0.7800     0.3410 C.2   1 <1>   0.6900 
  3 N        2.1850    -0.6800    -0.1090 N.am  1 <1>  -0.6600 
  4 N        0.1770    -1.9040     0.0530 N.am  1 <1>  -0.5470 
  5 C        3.1060     0.3820     0.4040 C.3   1 <1>   0.1400 
  6 C        2.7850    -1.4950    -1.2130 C.3   1 <1>   0.1400 
  7 C       -1.1580    -2.2010     0.3570 C.ar  1 <1>   0.1170 
  8 C        4.4730    -0.2050     0.8000 C.3   1 <1>   0.2090 
  9 C        4.1480    -2.0750    -0.8010 C.3   1 <1>   0.2090 
 10 C       -2.2420    -1.4500    -0.1170 C.ar  1 <1>  -0.1440 
 11 C       -1.3980    -3.3130     1.1530 C.ar  1 <1>  -0.1500 
 12 N        5.0690    -1.0040    -0.3120 N.pl3 1 <1>  -0.8380 
 13 C       -3.5390    -1.8130     0.2410 C.ar  1 <1>  -0.1440 
 14 C       -2.0010    -0.2390    -1.0210 C.3   1 <1>  -0.0970 
 15 C       -2.6830    -3.6790     1.4920 C.ar  1 <1>  -0.1500 
 16 C        6.4090    -1.3170    -0.1900 C.ar  1 <1>   0.4100 
 17 C       -3.7500    -2.9280     1.0380 C.ar  1 <1>  -0.1500 
 18 C       -4.7590    -1.0200    -0.2100 C.3   1 <1>  -0.0970 
 19 N        6.7160    -2.5690     0.1310 N.ar  1 <1>  -0.6200 
 20 C        7.3650    -0.3260    -0.3940 C.ar  1 <1>  -0.1500 
 21 C        8.0060    -2.8330     0.2540 C.ar  1 <1>   0.1600 
 22 C        8.7030    -0.6140    -0.2630 C.ar  1 <1>  -0.1500 
 23 C        9.0240    -1.9130     0.0730 C.ar  1 <1>  -0.1500 
 24 H        0.7610    -2.6990    -0.1720 H     1 <1>   0.3700 
 25 H        2.6770     0.8720     1.2610 H     1 <1>   0.0800 
 26 H        3.2490     1.1230    -0.3630 H     1 <1>   0.0800 
 27 H        2.9290    -0.8610    -2.0710 H     1 <1>   0.0800 
 28 H        2.1310    -2.2950    -1.5060 H     1 <1>   0.0800 
 29 H        4.3500    -0.8370     1.6620 H     1 <1>   0.0800 
 30 H        5.1390     0.5960     1.0690 H     1 <1>   0.0800 
 31 H        4.5980    -2.5700    -1.6440 H     1 <1>   0.0800 
 32 H        4.0080    -2.8060    -0.0230 H     1 <1>   0.0800 
 33 H       -0.5700    -3.8920     1.5180 H     1 <1>   0.1500 
 34 H       -1.1060    -0.3590    -1.6020 H     1 <1>   0.0800 
 35 H       -1.8980     0.6440    -0.4150 H     1 <1>   0.0800 
 36 H       -2.8060    -0.0940    -1.7140 H     1 <1>   0.0800 
 37 H       -2.8570    -4.5410     2.1120 H     1 <1>   0.1500 
 38 H       -4.7480    -3.2180     1.3150 H     1 <1>   0.1500 
 39 H       -4.6150     0.0260    -0.0090 H     1 <1>   0.0800 
 40 H       -5.6430    -1.3380     0.3130 H     1 <1>   0.0800 
 41 H       -4.9190    -1.1600    -1.2630 H     1 <1>   0.0800 
 42 H        7.0370     0.6600    -0.6610 H     1 <1>   0.1500 
 43 H        8.2680    -3.8440     0.5150 H     1 <1>   0.1500 
 44 H        9.4630     0.1330    -0.4160 H     1 <1>   0.1500 
 45 H       10.0500    -2.2100     0.1920 H     1 <1>   0.1500 
@<TRIPOS>BOND
  1   1   2  2   
  2   2   3  am  
  3   2   4  am  
  4   3   5  1   
  5   3   6  1   
  6   4   7  1   
  7   4  24  1   
  8   5   8  1   
  9   5  25  1   
 10   5  26  1   
 11   6   9  1   
 12   6  27  1   
 13   6  28  1   
 14   7  10  ar  
 15   7  11  ar  
 16   8  12  1   
 17   8  29  1   
 18   8  30  1   
 19   9  12  1   
 20   9  31  1   
 21   9  32  1   
 22  10  13  ar  
 23  10  14  1   
 24  11  15  ar  
 25  11  33  1   
 26  12  16  1   
 27  13  17  ar  
 28  13  18  1   
 29  14  34  1   
 30  14  35  1   
 31  14  36  1   
 32  15  17  ar  
 33  15  37  1   
 34  16  19  ar  
 35  16  20  ar  
 36  17  38  1   
 37  18  39  1   
 38  18  40  1   
 39  18  41  1   
 40  19  21  ar  
 41  20  22  ar  
 42  20  42  1   
 43  21  23  ar  
 44  21  43  1   
 45  22  23  ar  
 46  22  44  1   
 47  23  45  1   
@<TRIPOS>SUBSTRUCTURE
  1 ****   3 GROUP 4 **** **** 0

# MOE 2024.06 (io_trps.svl 2023.06)
