@<TRIPOS>MOLECULE
NONAME
48 49 1 0 0 
SMALL
USER_CHARGES


@<TRIPOS>ATOM
  1 O        1.3970     0.4010    -1.6520 O.3   1 <1>  -0.3630 
  2 C        1.8900     1.0630    -0.5660 C.ar  1 <1>   0.0830 
  3 C        0.0230     0.4020    -1.9710 C.3   1 <1>   0.0400 
  4 C        1.3100     2.1760     0.0680 C.ar  1 <1>   0.0830 
  5 C        3.0840     0.5520    -0.0870 C.ar  1 <1>  -0.1500 
  6 O        0.1520     2.7140    -0.4150 O.3   1 <1>  -0.3630 
  7 C        1.9500     2.7200     1.1800 C.ar  1 <1>  -0.1500 
  8 C        3.7210     1.1100     1.0080 C.ar  1 <1>  -0.1430 
  9 C       -0.4340     3.8720     0.1390 C.3   1 <1>   0.0400 
 10 C        3.1420     2.1940     1.6450 C.ar  1 <1>  -0.1500 
 11 C        5.0430     0.5400     1.4810 C.3   1 <1>  -0.0170 
 12 C        6.1420     1.0480     0.5500 C.3   1 <1>   0.3430 
 13 N        7.4670     0.4880     0.9350 N.4   1 <1>  -0.9060 
 14 C        8.5600     0.9050     0.0340 C.3   1 <1>   0.4230 
 15 C        9.7690    -0.0150     0.2720 C.3   1 <1>  -0.1600 
 16 C        8.9190     2.3770     0.2680 C.3   1 <1>  -0.1600 
 17 C       11.1240     0.6540    -0.0420 C.3   1 <1>  -0.0800 
 18 C       10.0100     2.8420    -0.7150 C.3   1 <1>  -0.1600 
 19 C       10.9720     1.7160    -1.1400 C.3   1 <1>  -0.1600 
 20 C       12.1710    -0.3930    -0.4360 C.3   1 <1>  -0.2400 
 21 H       -0.1610    -0.4000    -2.6620 H     1 <1>   0.0800 
 22 H       -0.2260     1.3420    -2.4290 H     1 <1>   0.0800 
 23 H       -0.5470     0.2510    -1.0710 H     1 <1>   0.0800 
 24 H        3.5010    -0.2990    -0.5960 H     1 <1>   0.1500 
 25 H        1.5370     3.5610     1.7040 H     1 <1>   0.1500 
 26 H       -1.3140     4.1060    -0.4320 H     1 <1>   0.0800 
 27 H        0.2680     4.6850     0.0740 H     1 <1>   0.0800 
 28 H       -0.7050     3.6730     1.1600 H     1 <1>   0.0800 
 29 H        3.6070     2.6420     2.5060 H     1 <1>   0.1500 
 30 H        4.9910    -0.5340     1.4530 H     1 <1>   0.0800 
 31 H        5.2330     0.8540     2.4930 H     1 <1>   0.0800 
 32 H        6.1650     2.1250     0.5930 H     1 <1>   0.0800 
 33 H        5.9030     0.7620    -0.4620 H     1 <1>   0.0800 
 34 H        7.4190    -0.5370     0.9250 H     1 <1>   0.4500 
 35 H        7.7110     0.7710     1.8910 H     1 <1>   0.4500 
 36 H        8.2480     0.7940    -0.9930 H     1 <1>   0.0800 
 37 H        9.6470    -0.8800    -0.3570 H     1 <1>   0.0800 
 38 H        9.8050    -0.3510     1.2940 H     1 <1>   0.0800 
 39 H        9.2890     2.4960     1.2720 H     1 <1>   0.0800 
 40 H        8.0630     3.0160     0.1450 H     1 <1>   0.0800 
 41 H       11.4790     1.1520     0.8470 H     1 <1>   0.0800 
 42 H       10.5750     3.6350    -0.2510 H     1 <1>   0.0800 
 43 H        9.5560     3.2560    -1.6000 H     1 <1>   0.0800 
 44 H       10.6040     1.2480    -2.0380 H     1 <1>   0.0800 
 45 H       11.9320     2.1450    -1.3760 H     1 <1>   0.0800 
 46 H       11.8900    -0.9000    -1.3420 H     1 <1>   0.0800 
 47 H       12.2870    -1.1230     0.3460 H     1 <1>   0.0800 
 48 H       13.1260     0.0770    -0.5950 H     1 <1>   0.0800 
@<TRIPOS>BOND
  1   1   2  1   
  2   1   3  1   
  3   2   4  ar  
  4   2   5  ar  
  5   3  21  1   
  6   3  22  1   
  7   3  23  1   
  8   4   6  1   
  9   4   7  ar  
 10   5   8  ar  
 11   5  24  1   
 12   6   9  1   
 13   7  10  ar  
 14   7  25  1   
 15   8  10  ar  
 16   8  11  1   
 17   9  26  1   
 18   9  27  1   
 19   9  28  1   
 20  10  29  1   
 21  11  12  1   
 22  11  30  1   
 23  11  31  1   
 24  12  13  1   
 25  12  32  1   
 26  12  33  1   
 27  13  14  1   
 28  13  34  1   
 29  13  35  1   
 30  14  15  1   
 31  14  16  1   
 32  14  36  1   
 33  15  17  1   
 34  15  37  1   
 35  15  38  1   
 36  16  18  1   
 37  16  39  1   
 38  16  40  1   
 39  17  19  1   
 40  17  20  1   
 41  17  41  1   
 42  18  19  1   
 43  18  42  1   
 44  18  43  1   
 45  19  44  1   
 46  19  45  1   
 47  20  46  1   
 48  20  47  1   
 49  20  48  1   
@<TRIPOS>SUBSTRUCTURE
  1 ****  12 GROUP 4 **** **** 0

# MOE 2024.06 (io_trps.svl 2023.06)
