@<TRIPOS>MOLECULE
NONAME
37 38 1 0 0 
SMALL
USER_CHARGES


@<TRIPOS>ATOM
  1 S        1.2340     0.1200     1.4200 S.o2  1 <1>   1.3330 
  2 O        2.2440     0.8160     2.1810 O.2   1 <1>  -0.6500 
  3 O        1.1210    -1.3130     1.5190 O.2   1 <1>  -0.6500 
  4 N        1.5630     0.4700    -0.2380 N.am  1 <1>  -0.6930 
  5 C       -0.3710     0.8440     1.6860 C.3   1 <1>  -0.1350 
  6 C        1.3440     1.7490    -0.7490 C.ar  1 <1>   0.1990 
  7 C        2.6340    -0.3830    -0.8530 C.3   1 <1>   0.3370 
  8 C        2.0630     2.8540    -0.2940 C.ar  1 <1>  -0.1500 
  9 C        0.3660     1.9340    -1.7240 C.ar  1 <1>  -0.1500 
 10 C        4.0600     0.2160    -0.7380 C.2   1 <1>   0.5690 
 11 C        2.2230    -0.7280    -2.2930 C.3   1 <1>  -0.2400 
 12 C        1.8170     4.1180    -0.8040 C.ar  1 <1>  -0.1500 
 13 C        0.1080     3.1910    -2.2440 C.ar  1 <1>  -0.1500 
 14 O        4.7640     0.2860    -1.7210 O.2   1 <1>  -0.5700 
 15 N        4.5070     0.6380     0.4800 N.am  1 <1>  -0.5790 
 16 C        0.8420     4.2620    -1.7710 C.ar  1 <1>   0.1900 
 17 C        5.8160     1.2360     0.7620 C.3   1 <1>   0.0490 
 18 F        0.6020     5.4540    -2.2540 F     1 <1>  -0.1900 
 19 C        6.4210     0.9910     2.1040 C.3   1 <1>  -0.2000 
 20 C        5.8700     2.3420     1.7620 C.3   1 <1>  -0.2000 
 21 H       -0.6950     0.6600     2.6910 H     1 <1>   0.0800 
 22 H       -1.0860     0.4170     1.0110 H     1 <1>   0.0800 
 23 H       -0.3340     1.9040     1.5280 H     1 <1>   0.0800 
 24 H        2.6710    -1.3190    -0.3240 H     1 <1>   0.0800 
 25 H        2.8190     2.7310     0.4590 H     1 <1>   0.1500 
 26 H       -0.1910     1.0840    -2.0750 H     1 <1>   0.1500 
 27 H        2.2530     0.1490    -2.9150 H     1 <1>   0.0800 
 28 H        1.2370    -1.1560    -2.3090 H     1 <1>   0.0800 
 29 H        2.9120    -1.4450    -2.7010 H     1 <1>   0.0800 
 30 H        2.3700     4.9750    -0.4620 H     1 <1>   0.1500 
 31 H       -0.6420     3.3430    -2.9990 H     1 <1>   0.1500 
 32 H        3.8590     0.6410     1.2820 H     1 <1>   0.3700 
 33 H        6.4640     1.2810    -0.1000 H     1 <1>   0.1000 
 34 H        7.4880     0.8790     2.1750 H     1 <1>   0.1000 
 35 H        5.8900     0.3710     2.8050 H     1 <1>   0.1000 
 36 H        4.9580     2.6640     2.2360 H     1 <1>   0.1000 
 37 H        6.5630     3.1490     1.6030 H     1 <1>   0.1000 
@<TRIPOS>BOND
  1   1   2  2   
  2   1   3  2   
  3   1   4  am  
  4   1   5  1   
  5   4   6  1   
  6   4   7  1   
  7   5  21  1   
  8   5  22  1   
  9   5  23  1   
 10   6   8  ar  
 11   6   9  ar  
 12   7  10  1   
 13   7  11  1   
 14   7  24  1   
 15   8  12  ar  
 16   8  25  1   
 17   9  13  ar  
 18   9  26  1   
 19  10  14  2   
 20  10  15  am  
 21  11  27  1   
 22  11  28  1   
 23  11  29  1   
 24  12  16  ar  
 25  12  30  1   
 26  13  16  ar  
 27  13  31  1   
 28  15  17  1   
 29  15  32  1   
 30  16  18  1   
 31  17  19  1   
 32  17  20  1   
 33  17  33  1   
 34  19  20  1   
 35  19  34  1   
 36  19  35  1   
 37  20  36  1   
 38  20  37  1   
@<TRIPOS>SUBSTRUCTURE
  1 ****   6 GROUP 4 **** **** 0

# MOE 2024.06 (io_trps.svl 2023.06)
