@<TRIPOS>MOLECULE
NONAME
51 53 1 0 0 
SMALL
USER_CHARGES


@<TRIPOS>ATOM
  1 BR       1.3770     0.9480     0.8750 Br    1 <1>  -0.1110 
  2 C        1.6570    -0.8260     0.1710 C.ar  1 <1>   0.1110 
  3 C        2.0660    -1.0000    -1.1440 C.ar  1 <1>   0.0820 
  4 C        1.4280    -1.8980     1.0130 C.ar  1 <1>  -0.1500 
  5 O        2.2680     0.0460    -1.9720 O.3   1 <1>  -0.3630 
  6 C        2.2440    -2.2880    -1.6200 C.ar  1 <1>  -0.1500 
  7 C        1.6030    -3.1880     0.5280 C.ar  1 <1>  -0.1430 
  8 C        3.5500     0.6320    -1.9370 C.3   1 <1>   0.0400 
  9 C        2.0170    -3.3740    -0.7880 C.ar  1 <1>  -0.1500 
 10 C        1.3280    -4.3820     1.4230 C.3   1 <1>   0.4870 
 11 N        0.0630    -5.0240     0.9850 N.4   1 <1>  -0.9590 
 12 C       -1.1330    -4.1140     0.9890 C.3   1 <1>   0.3430 
 13 C       -0.2440    -6.3180     1.6750 C.3   1 <1>   0.3430 
 14 C       -2.3690    -4.8190     0.3750 C.3   1 <1>   0.1100 
 15 C       -1.4900    -6.9940     1.0530 C.3   1 <1>   0.1100 
 16 N       -2.0650    -6.2010    -0.0650 N.3   1 <1>  -0.8100 
 17 C       -3.2410    -6.8550    -0.6740 C.3   1 <1>   0.2530 
 18 C       -2.8580    -8.2130    -1.2420 C.ar  1 <1>  -0.1430 
 19 C       -3.4050    -9.3770    -0.7210 C.ar  1 <1>  -0.1500 
 20 C       -1.9490    -8.2940    -2.2860 C.ar  1 <1>  -0.1500 
 21 C       -3.0390   -10.6180    -1.2370 C.ar  1 <1>   0.0830 
 22 C       -1.5830    -9.5250    -2.8030 C.ar  1 <1>  -0.1500 
 23 O       -3.5280   -11.7980    -0.7820 O.3   1 <1>  -0.3630 
 24 C       -2.1270   -10.6820    -2.2770 C.ar  1 <1>  -0.1500 
 25 C       -4.5540   -11.8500     0.1840 C.3   1 <1>   0.0400 
 26 H        1.1180    -1.7060     2.0260 H     1 <1>   0.1500 
 27 H        2.5560    -2.4310    -2.6400 H     1 <1>   0.1500 
 28 H        3.5670     1.4430    -2.6420 H     1 <1>   0.0800 
 29 H        4.2800    -0.1090    -2.2100 H     1 <1>   0.0800 
 30 H        3.7410     1.0030    -0.9460 H     1 <1>   0.0800 
 31 H        2.1680    -4.3640    -1.1850 H     1 <1>   0.1500 
 32 H        1.2470    -4.0620     2.4490 H     1 <1>   0.0800 
 33 H        2.1440    -5.0820     1.3450 H     1 <1>   0.0800 
 34 H        0.1480    -5.2840    -0.0090 H     1 <1>   0.4500 
 35 H       -0.9230    -3.2270     0.4140 H     1 <1>   0.0800 
 36 H       -1.3620    -3.8060     1.9950 H     1 <1>   0.0800 
 37 H       -0.4200    -6.1480     2.7240 H     1 <1>   0.0800 
 38 H        0.5930    -6.9910     1.5860 H     1 <1>   0.0800 
 39 H       -2.7100    -4.2430    -0.4690 H     1 <1>   0.0800 
 40 H       -3.1660    -4.8310     1.1010 H     1 <1>   0.0800 
 41 H       -2.2340    -7.1440     1.8180 H     1 <1>   0.0800 
 42 H       -1.1980    -7.9680     0.6950 H     1 <1>   0.0800 
 43 H       -3.6160    -6.2430    -1.4770 H     1 <1>   0.0800 
 44 H       -4.0240    -6.9640     0.0580 H     1 <1>   0.0800 
 45 H       -4.1100    -9.3100     0.0840 H     1 <1>   0.1500 
 46 H       -1.5220    -7.3960    -2.6970 H     1 <1>   0.1500 
 47 H       -0.8780    -9.5830    -3.6140 H     1 <1>   0.1500 
 48 H       -1.8500   -11.6430    -2.6710 H     1 <1>   0.1500 
 49 H       -4.8100   -12.8820     0.3430 H     1 <1>   0.0800 
 50 H       -5.4090   -11.3140    -0.1880 H     1 <1>   0.0800 
 51 H       -4.1930   -11.4180     1.1000 H     1 <1>   0.0800 
@<TRIPOS>BOND
  1   1   2  1   
  2   2   3  ar  
  3   2   4  ar  
  4   3   5  1   
  5   3   6  ar  
  6   4   7  ar  
  7   4  26  1   
  8   5   8  1   
  9   6   9  ar  
 10   6  27  1   
 11   7   9  ar  
 12   7  10  1   
 13   8  28  1   
 14   8  29  1   
 15   8  30  1   
 16   9  31  1   
 17  10  11  1   
 18  10  32  1   
 19  10  33  1   
 20  11  12  1   
 21  11  13  1   
 22  11  34  1   
 23  12  14  1   
 24  12  35  1   
 25  12  36  1   
 26  13  15  1   
 27  13  37  1   
 28  13  38  1   
 29  14  16  1   
 30  14  39  1   
 31  14  40  1   
 32  15  16  1   
 33  15  41  1   
 34  15  42  1   
 35  16  17  1   
 36  17  18  1   
 37  17  43  1   
 38  17  44  1   
 39  18  19  ar  
 40  18  20  ar  
 41  19  21  ar  
 42  19  45  1   
 43  20  22  ar  
 44  20  46  1   
 45  21  23  1   
 46  21  24  ar  
 47  22  24  ar  
 48  22  47  1   
 49  23  25  1   
 50  24  48  1   
 51  25  49  1   
 52  25  50  1   
 53  25  51  1   
@<TRIPOS>SUBSTRUCTURE
  1 ****  11 GROUP 4 **** **** 0

# MOE 2024.06 (io_trps.svl 2023.06)
