@<TRIPOS>MOLECULE
NONAME
42 43 1 0 0 
SMALL
USER_CHARGES


@<TRIPOS>ATOM
  1 S        0.0420     0.1200     0.2040 S.o2  1 <1>   1.3330 
  2 O        0.0800     0.6000     1.5660 O.2   1 <1>  -0.6500 
  3 O        0.5720    -1.1840    -0.1160 O.2   1 <1>  -0.6500 
  4 N       -1.6020     0.0930    -0.2280 N.am  1 <1>  -0.8490 
  5 C        0.7630     1.3350    -0.9110 C.3   1 <1>  -0.0550 
  6 C       -2.3740     1.1760     0.4170 C.3   1 <1>   0.1960 
  7 C       -2.1950    -1.2280     0.0620 C.3   1 <1>   0.1960 
  8 C        2.2750     1.5490    -0.7210 C.3   1 <1>  -0.2400 
  9 C       -3.8660     1.1390     0.0200 C.3   1 <1>   0.3430 
 10 C       -3.6890    -1.3010    -0.3180 C.3   1 <1>   0.3430 
 11 N       -4.4980    -0.1960     0.3180 N.4   1 <1>  -0.9590 
 12 C       -5.9300    -0.2060    -0.1210 C.3   1 <1>   0.3430 
 13 C       -6.6880    -1.4270     0.4050 C.3   1 <1>  -0.0170 
 14 C       -8.1460    -1.2910     0.0120 C.ar  1 <1>  -0.1440 
 15 C       -8.5910    -1.7810    -1.2060 C.ar  1 <1>  -0.1500 
 16 C       -9.0430    -0.6640     0.8640 C.ar  1 <1>  -0.1500 
 17 C       -9.9190    -1.6400    -1.5720 C.ar  1 <1>  -0.1500 
 18 C      -10.3710    -0.5230     0.4980 C.ar  1 <1>  -0.1500 
 19 C      -10.8080    -1.0100    -0.7210 C.ar  1 <1>  -0.1500 
 20 H        0.2700     2.2770    -0.7750 H     1 <1>   0.0800 
 21 H        0.5910     1.0190    -1.9230 H     1 <1>   0.0800 
 22 H       -1.9620     2.1290     0.1300 H     1 <1>   0.0800 
 23 H       -2.3010     1.0990     1.4900 H     1 <1>   0.0800 
 24 H       -2.0720    -1.4630     1.1060 H     1 <1>   0.0800 
 25 H       -1.6760    -1.9860    -0.5030 H     1 <1>   0.0800 
 26 H        2.4790     1.8900     0.2800 H     1 <1>   0.0800 
 27 H        2.6400     2.2820    -1.4180 H     1 <1>   0.0800 
 28 H        2.8030     0.6250    -0.8820 H     1 <1>   0.0800 
 29 H       -3.9410     1.3480    -1.0340 H     1 <1>   0.0800 
 30 H       -4.3900     1.9180     0.5500 H     1 <1>   0.0800 
 31 H       -4.0760    -2.2610    -0.0200 H     1 <1>   0.0800 
 32 H       -3.7660    -1.2330    -1.3900 H     1 <1>   0.0800 
 33 H       -4.4690    -0.3300     1.3390 H     1 <1>   0.4500 
 34 H       -5.9880    -0.1880    -1.1970 H     1 <1>   0.0800 
 35 H       -6.4250     0.6780     0.2480 H     1 <1>   0.0800 
 36 H       -6.6130    -1.4820     1.4760 H     1 <1>   0.0800 
 37 H       -6.2960    -2.3350    -0.0170 H     1 <1>   0.0800 
 38 H       -7.9200    -2.2800    -1.8830 H     1 <1>   0.1500 
 39 H       -8.7270    -0.2820     1.8190 H     1 <1>   0.1500 
 40 H      -10.2640    -2.0220    -2.5170 H     1 <1>   0.1500 
 41 H      -11.0670    -0.0380     1.1610 H     1 <1>   0.1500 
 42 H      -11.8410    -0.9010    -1.0050 H     1 <1>   0.1500 
@<TRIPOS>BOND
  1   1   2  2   
  2   1   3  2   
  3   1   4  am  
  4   1   5  1   
  5   4   6  1   
  6   4   7  1   
  7   5   8  1   
  8   5  20  1   
  9   5  21  1   
 10   6   9  1   
 11   6  22  1   
 12   6  23  1   
 13   7  10  1   
 14   7  24  1   
 15   7  25  1   
 16   8  26  1   
 17   8  27  1   
 18   8  28  1   
 19   9  11  1   
 20   9  29  1   
 21   9  30  1   
 22  10  11  1   
 23  10  31  1   
 24  10  32  1   
 25  11  12  1   
 26  11  33  1   
 27  12  13  1   
 28  12  34  1   
 29  12  35  1   
 30  13  14  1   
 31  13  36  1   
 32  13  37  1   
 33  14  15  ar  
 34  14  16  ar  
 35  15  17  ar  
 36  15  38  1   
 37  16  18  ar  
 38  16  39  1   
 39  17  19  ar  
 40  17  40  1   
 41  18  19  ar  
 42  18  41  1   
 43  19  42  1   
@<TRIPOS>SUBSTRUCTURE
  1 ****  11 GROUP 4 **** **** 0

# MOE 2024.06 (io_trps.svl 2023.06)
