@<TRIPOS>MOLECULE
NONAME
46 47 1 0 0 
SMALL
USER_CHARGES


@<TRIPOS>ATOM
  1 S        0.2110    -0.4180    -0.2330 S.o2  1 <1>   1.0900 
  2 O       -0.0310    -1.7570     0.2510 O.2   1 <1>  -0.6500 
  3 O        0.0360    -0.1130    -1.6350 O.2   1 <1>  -0.6500 
  4 C        1.8630     0.0810     0.2770 C.3   1 <1>   0.0890 
  5 C       -0.8510     0.6730     0.7110 C.3   1 <1>   0.0060 
  6 C        2.9800    -0.7210    -0.3760 C.ar  1 <1>  -0.1440 
  7 C       -1.7600     1.5060    -0.1940 C.2   1 <1>   0.3280 
  8 C        3.3330    -0.4720    -1.6940 C.ar  1 <1>  -0.1500 
  9 C        3.6500    -1.7050     0.3340 C.ar  1 <1>  -0.1500 
 10 N       -2.9540     1.1780    -0.4760 N.2   1 <1>  -0.6290 
 11 C       -1.1350     2.8210    -0.7100 C.3   1 <1>   0.7410 
 12 C        4.3530    -1.1910    -2.2910 C.ar  1 <1>  -0.1500 
 13 C        4.6710    -2.4240    -0.2630 C.ar  1 <1>  -0.1500 
 14 C       -3.5520     0.0080    -0.0270 C.ar  1 <1>   0.1790 
 15 F       -1.4700     3.0450    -1.9830 F     1 <1>  -0.3400 
 16 F        0.1960     2.6980    -0.7580 F     1 <1>  -0.3400 
 17 C       -1.5160     4.0430     0.1480 C.3   1 <1>   0.6800 
 18 C        5.0240    -2.1670    -1.5760 C.ar  1 <1>  -0.1500 
 19 C       -4.4880     0.0590     0.9930 C.ar  1 <1>  -0.1500 
 20 C       -3.2200    -1.2200    -0.5790 C.ar  1 <1>  -0.1500 
 21 F       -2.8400     4.1050     0.3230 F     1 <1>  -0.3400 
 22 F       -1.0460     3.8760     1.3930 F     1 <1>  -0.3400 
 23 C       -1.0180     5.3710    -0.4660 C.3   1 <1>   0.6000 
 24 C       -5.0660    -1.1020     1.4750 C.ar  1 <1>  -0.1500 
 25 C       -3.7930    -2.3830    -0.0960 C.ar  1 <1>  -0.1500 
 26 F        0.3100     5.4640    -0.4280 F     1 <1>  -0.3400 
 27 F       -1.4370     6.4280     0.2290 F     1 <1>  -0.3400 
 28 C       -4.7160    -2.3310     0.9370 C.ar  1 <1>  -0.1430 
 29 C       -5.3420    -3.6090     1.4630 C.3   1 <1>  -0.0970 
 30 H        2.0210     1.1140     0.0380 H     1 <1>   0.0800 
 31 H        1.9530    -0.0190     1.3420 H     1 <1>   0.0800 
 32 H       -1.4550     0.0770     1.3680 H     1 <1>   0.0800 
 33 H       -0.2720     1.3220     1.3380 H     1 <1>   0.0800 
 34 H        2.8130     0.2780    -2.2660 H     1 <1>   0.1500 
 35 H        3.3830    -1.9240     1.3540 H     1 <1>   0.1500 
 36 H        4.6220    -0.9940    -3.3140 H     1 <1>   0.1500 
 37 H        5.1890    -3.1870     0.2920 H     1 <1>   0.1500 
 38 H        5.8170    -2.7260    -2.0410 H     1 <1>   0.1500 
 39 H       -4.7620     1.0120     1.4060 H     1 <1>   0.1500 
 40 H       -2.5130    -1.2680    -1.3880 H     1 <1>   0.1500 
 41 H       -1.3260     5.5050    -1.4870 H     1 <1>   0.0800 
 42 H       -5.7910    -1.0460     2.2690 H     1 <1>   0.1500 
 43 H       -3.5150    -3.3280    -0.5300 H     1 <1>   0.1500 
 44 H       -4.6270    -4.4120     1.4380 H     1 <1>   0.0800 
 45 H       -6.1860    -3.8770     0.8530 H     1 <1>   0.0800 
 46 H       -5.6730    -3.4800     2.4770 H     1 <1>   0.0800 
@<TRIPOS>BOND
  1   1   2  2   
  2   1   3  2   
  3   1   4  1   
  4   1   5  1   
  5   4   6  1   
  6   4  30  1   
  7   4  31  1   
  8   5   7  1   
  9   5  32  1   
 10   5  33  1   
 11   6   8  ar  
 12   6   9  ar  
 13   7  10  2   
 14   7  11  1   
 15   8  12  ar  
 16   8  34  1   
 17   9  13  ar  
 18   9  35  1   
 19  10  14  1   
 20  11  15  1   
 21  11  16  1   
 22  11  17  1   
 23  12  18  ar  
 24  12  36  1   
 25  13  18  ar  
 26  13  37  1   
 27  14  19  ar  
 28  14  20  ar  
 29  17  21  1   
 30  17  22  1   
 31  17  23  1   
 32  18  38  1   
 33  19  24  ar  
 34  19  39  1   
 35  20  25  ar  
 36  20  40  1   
 37  23  26  1   
 38  23  27  1   
 39  23  41  1   
 40  24  28  ar  
 41  24  42  1   
 42  25  28  ar  
 43  25  43  1   
 44  28  29  1   
 45  29  44  1   
 46  29  45  1   
 47  29  46  1   
@<TRIPOS>SUBSTRUCTURE
  1 ****   5 GROUP 4 **** **** 0

# MOE 2024.06 (io_trps.svl 2023.06)
