@<TRIPOS>MOLECULE
NONAME
43 45 1 0 0 
SMALL
USER_CHARGES


@<TRIPOS>ATOM
  1 O        0.4870     0.6030     1.6250 O.2   1 <1>  -0.5700 
  2 C        0.9280     1.4320     0.8520 C.2   1 <1>   0.5440 
  3 N        0.0480     2.1890     0.1290 N.am  1 <1>  -0.7300 
  4 C        2.3590     1.6030     0.6860 C.ar  1 <1>   0.0860 
  5 C       -1.4200     2.1180     0.2130 C.3   1 <1>   0.2200 
  6 C        3.2440     0.5560     0.9460 C.ar  1 <1>  -0.1500 
  7 C        2.9210     2.8110     0.2640 C.ar  1 <1>  -0.1500 
  8 C       -1.9640     1.5630    -1.1080 C.3   1 <1>  -0.1600 
  9 C       -1.9660     3.5210     0.4950 C.3   1 <1>  -0.1600 
 10 C        4.6070     0.6970     0.7760 C.ar  1 <1>  -0.1500 
 11 C        4.2840     2.9550     0.0930 C.ar  1 <1>  -0.1500 
 12 C       -3.4990     1.5700    -1.1230 C.3   1 <1>  -0.1600 
 13 C       -3.5020     3.5310     0.4830 C.3   1 <1>  -0.1600 
 14 C        5.1550     1.8980     0.3390 C.ar  1 <1>   0.1170 
 15 C       -4.0510     2.9740    -0.8370 C.3   1 <1>  -0.1600 
 16 N        6.5400     1.9880     0.1850 N.am  1 <1>  -0.5470 
 17 C        7.3450     2.8510    -0.5200 C.2   1 <1>   0.7150 
 18 O        6.8650     3.7390    -1.1980 O.2   1 <1>  -0.5700 
 19 C        8.7740     2.6670    -0.4460 C.2   1 <1>   0.0550 
 20 O        9.2980     1.6810     0.2810 O.3   1 <1>  -0.2800 
 21 C        9.7930     3.3630    -1.0240 C.2   1 <1>  -0.1500 
 22 C       10.6080     1.7320     0.1820 C.2   1 <1>  -0.0100 
 23 C       10.9810     2.7560    -0.6160 C.2   1 <1>  -0.1500 
 24 H        0.4040     2.7980    -0.6050 H     1 <1>   0.3700 
 25 H       -1.7100     1.4600     1.0170 H     1 <1>   0.0800 
 26 H        2.8430    -0.3850     1.2860 H     1 <1>   0.1500 
 27 H        2.2830     3.6550     0.0740 H     1 <1>   0.1500 
 28 H       -1.6120     0.5550    -1.2380 H     1 <1>   0.0800 
 29 H       -1.6030     2.1610    -1.9270 H     1 <1>   0.0800 
 30 H       -1.6070     4.2060    -0.2530 H     1 <1>   0.0800 
 31 H       -1.6160     3.8490     1.4570 H     1 <1>   0.0800 
 32 H        5.2530    -0.1370     0.9840 H     1 <1>   0.1500 
 33 H        4.6690     3.9050    -0.2290 H     1 <1>   0.1500 
 34 H       -3.8640     0.8860    -0.3750 H     1 <1>   0.0800 
 35 H       -3.8530     1.2300    -2.0810 H     1 <1>   0.0800 
 36 H       -3.8580     4.5370     0.6280 H     1 <1>   0.0800 
 37 H       -3.8670     2.9330     1.3010 H     1 <1>   0.0800 
 38 H       -5.1260     2.9360    -0.7920 H     1 <1>   0.0800 
 39 H       -3.7790     3.6340    -1.6430 H     1 <1>   0.0800 
 40 H        7.0850     1.2590     0.6450 H     1 <1>   0.3700 
 41 H        9.7100     4.2180    -1.6720 H     1 <1>   0.1500 
 42 H       11.2040     1.0060     0.7070 H     1 <1>   0.1500 
 43 H       11.9730     3.0630    -0.8960 H     1 <1>   0.1500 
@<TRIPOS>BOND
  1   1   2  2   
  2   2   3  am  
  3   2   4  1   
  4   3   5  1   
  5   3  24  1   
  6   4   6  ar  
  7   4   7  ar  
  8   5   8  1   
  9   5   9  1   
 10   5  25  1   
 11   6  10  ar  
 12   6  26  1   
 13   7  11  ar  
 14   7  27  1   
 15   8  12  1   
 16   8  28  1   
 17   8  29  1   
 18   9  13  1   
 19   9  30  1   
 20   9  31  1   
 21  10  14  ar  
 22  10  32  1   
 23  11  14  ar  
 24  11  33  1   
 25  12  15  1   
 26  12  34  1   
 27  12  35  1   
 28  13  15  1   
 29  13  36  1   
 30  13  37  1   
 31  14  16  1   
 32  15  38  1   
 33  15  39  1   
 34  16  17  am  
 35  16  40  1   
 36  17  18  2   
 37  17  19  1   
 38  19  20  1   
 39  19  21  2   
 40  20  22  1   
 41  21  23  1   
 42  21  41  1   
 43  22  23  2   
 44  22  42  1   
 45  23  43  1   
@<TRIPOS>SUBSTRUCTURE
  1 ****   7 GROUP 4 **** **** 0

# MOE 2024.06 (io_trps.svl 2023.06)
