@<TRIPOS>MOLECULE
NONAME
43 45 1 0 0 
SMALL
USER_CHARGES


@<TRIPOS>ATOM
  1 O       -0.3590    -0.3700     0.0580 O.2   1 <1>  -0.5700 
  2 C       -0.2530    -1.5530    -0.0510 C.2   1 <1>   0.8520 
  3 N       -1.3350    -2.2910    -0.3550 N.pl3 1 <1>  -0.8600 
  4 C        1.0750    -2.2350     0.1580 C.3   1 <1>  -0.0990 
  5 C       -1.3190    -3.5780    -0.6120 C.cat 1 <1>   1.2000 
  6 C        1.1810    -3.4290    -0.7900 C.3   1 <1>   0.3090 
  7 N       -2.4430    -4.2920    -0.6530 N.pl3 1 <1>  -0.7220 
  8 N       -0.1420    -4.1150    -0.8180 N.pl3 1 <1>  -0.8440 
  9 C        2.3060    -4.4030    -0.3850 C.2   1 <1>   0.5690 
 10 C       -2.4970    -5.7520    -0.9850 C.3   1 <1>   0.1680 
 11 C       -3.8010    -3.7700    -0.2960 C.3   1 <1>   0.1680 
 12 O        1.9730    -5.5350    -0.1210 O.2   1 <1>  -0.5700 
 13 N        3.6050    -3.9620    -0.3430 N.am  1 <1>  -0.5470 
 14 C       -2.9690    -6.5320     0.2450 C.3   1 <1>  -0.1600 
 15 C       -4.3110    -4.5050     0.9480 C.3   1 <1>  -0.1600 
 16 C        4.7830    -4.6410     0.0100 C.ar  1 <1>   0.1170 
 17 C       -4.3320    -6.0260     0.7400 C.3   1 <1>  -0.1600 
 18 C        4.9250    -6.0230    -0.0810 C.ar  1 <1>  -0.1500 
 19 C        5.8680    -3.8940     0.4560 C.ar  1 <1>  -0.1500 
 20 C        6.1140    -6.6380     0.2710 C.ar  1 <1>  -0.1500 
 21 C        7.0580    -4.5060     0.8070 C.ar  1 <1>  -0.1500 
 22 C        7.1820    -5.8800     0.7160 C.ar  1 <1>  -0.1500 
 23 H       -2.2060    -1.7840    -0.3840 H     1 <1>   0.4500 
 24 H        1.1370    -2.5640     1.1800 H     1 <1>   0.0800 
 25 H        1.8730    -1.5370    -0.0210 H     1 <1>   0.0800 
 26 H        1.3950    -3.0760    -1.7850 H     1 <1>   0.0800 
 27 H       -0.0540    -5.1350    -0.8640 H     1 <1>   0.4500 
 28 H       -1.5440    -6.1330    -1.3070 H     1 <1>   0.0800 
 29 H       -3.1940    -5.9050    -1.7940 H     1 <1>   0.0800 
 30 H       -4.4770    -3.9450    -1.1180 H     1 <1>   0.0800 
 31 H       -3.7930    -2.7130    -0.0990 H     1 <1>   0.0800 
 32 H        3.7720    -2.9830    -0.5690 H     1 <1>   0.3700 
 33 H       -2.2380    -6.4400     1.0300 H     1 <1>   0.0800 
 34 H       -3.0470    -7.5770    -0.0030 H     1 <1>   0.0800 
 35 H       -5.3060    -4.1660     1.1800 H     1 <1>   0.0800 
 36 H       -3.6840    -4.2630     1.7890 H     1 <1>   0.0800 
 37 H       -4.5910    -6.5180     1.6620 H     1 <1>   0.0800 
 38 H       -5.0880    -6.2750     0.0140 H     1 <1>   0.0800 
 39 H        4.1140    -6.6330    -0.4300 H     1 <1>   0.1500 
 40 H        5.7910    -2.8260     0.5360 H     1 <1>   0.1500 
 41 H        6.2090    -7.7080     0.1980 H     1 <1>   0.1500 
 42 H        7.8890    -3.9160     1.1530 H     1 <1>   0.1500 
 43 H        8.1060    -6.3600     0.9900 H     1 <1>   0.1500 
@<TRIPOS>BOND
  1   1   2  2   
  2   2   3  1   
  3   2   4  1   
  4   3   5  ar  
  5   3  23  1   
  6   4   6  1   
  7   4  24  1   
  8   4  25  1   
  9   5   7  ar  
 10   5   8  ar  
 11   6   8  1   
 12   6   9  1   
 13   6  26  1   
 14   7  10  1   
 15   7  11  1   
 16   8  27  1   
 17   9  12  2   
 18   9  13  am  
 19  10  14  1   
 20  10  28  1   
 21  10  29  1   
 22  11  15  1   
 23  11  30  1   
 24  11  31  1   
 25  13  16  1   
 26  13  32  1   
 27  14  17  1   
 28  14  33  1   
 29  14  34  1   
 30  15  17  1   
 31  15  35  1   
 32  15  36  1   
 33  16  18  ar  
 34  16  19  ar  
 35  17  37  1   
 36  17  38  1   
 37  18  20  ar  
 38  18  39  1   
 39  19  21  ar  
 40  19  40  1   
 41  20  22  ar  
 42  20  41  1   
 43  21  22  ar  
 44  21  42  1   
 45  22  43  1   
@<TRIPOS>SUBSTRUCTURE
  1 ****   6 GROUP 4 **** **** 0

# MOE 2024.06 (io_trps.svl 2023.06)
