@<TRIPOS>MOLECULE
NONAME
37 39 1 0 0 
SMALL
USER_CHARGES


@<TRIPOS>ATOM
  1 BR      -0.0950    -0.2910     0.6750 Br    1 <1>  -0.0580 
  2 C        1.8170    -0.4090     0.5210 C.2   1 <1>   0.1980 
  3 O        2.3300    -1.5210     0.0640 O.3   1 <1>  -0.2800 
  4 C        2.7470     0.5160     0.8240 C.2   1 <1>  -0.1500 
  5 C        3.6570    -1.3670     0.0480 C.2   1 <1>   0.0550 
  6 C        3.9550    -0.1120     0.5140 C.2   1 <1>  -0.1500 
  7 C        4.5270    -2.4280    -0.4090 C.2   1 <1>   0.7150 
  8 O        4.0900    -3.4950    -0.7940 O.2   1 <1>  -0.5700 
  9 N        5.8840    -2.1940    -0.3960 N.am  1 <1>  -0.4940 
 10 C        7.0060    -2.9280    -0.7410 C.2   1 <1>   0.1040 
 11 S        6.8710    -4.5670    -1.3640 S.3   1 <1>  -0.0800 
 12 C        8.3170    -2.5430    -0.6680 C.2   1 <1>  -0.0860 
 13 C        8.6110    -4.7130    -1.5190 C.2   1 <1>  -0.1100 
 14 C        8.7540    -1.2520    -0.1960 C.2   1 <1>   0.7160 
 15 C        9.2130    -3.5800    -1.1180 C.2   1 <1>  -0.1500 
 16 O        7.9450    -0.4130     0.1720 O.2   1 <1>  -0.5700 
 17 N       10.0800    -0.9380    -0.1510 N.am  1 <1>  -0.7300 
 18 C       10.6620     0.3350     0.3060 C.3   1 <1>   0.2200 
 19 C       11.5350     0.8990    -0.8080 C.3   1 <1>  -0.1600 
 20 C       11.6610     0.0420     1.4180 C.3   1 <1>  -0.1600 
 21 C       12.8690     0.1480    -0.7140 C.3   1 <1>  -0.1600 
 22 C       12.9500    -0.4020     0.7160 C.3   1 <1>  -0.1600 
 23 H        2.6100     1.5090     1.2140 H     1 <1>   0.1500 
 24 H        4.9230     0.3430     0.6340 H     1 <1>   0.1500 
 25 H        6.1280    -1.2610    -0.0510 H     1 <1>   0.3700 
 26 H        8.9920    -5.6440    -1.8990 H     1 <1>   0.1500 
 27 H       10.2780    -3.4400    -1.1240 H     1 <1>   0.1500 
 28 H       10.7670    -1.6230    -0.4530 H     1 <1>   0.3700 
 29 H        9.8950     1.0270     0.6150 H     1 <1>   0.0800 
 30 H       11.7090     1.9420    -0.6080 H     1 <1>   0.0800 
 31 H       11.0720     0.8090    -1.7760 H     1 <1>   0.0800 
 32 H       11.2930    -0.6880     2.1170 H     1 <1>   0.0800 
 33 H       11.8540     0.9580     1.9500 H     1 <1>   0.0800 
 34 H       13.6930     0.8060    -0.9290 H     1 <1>   0.0800 
 35 H       12.8840    -0.6660    -1.4190 H     1 <1>   0.0800 
 36 H       13.0040    -1.4770     0.6900 H     1 <1>   0.0800 
 37 H       13.8160    -0.0260     1.2330 H     1 <1>   0.0800 
@<TRIPOS>BOND
  1   1   2  1   
  2   2   3  1   
  3   2   4  2   
  4   3   5  1   
  5   4   6  1   
  6   4  23  1   
  7   5   6  2   
  8   5   7  1   
  9   6  24  1   
 10   7   8  2   
 11   7   9  am  
 12   9  10  1   
 13   9  25  1   
 14  10  11  1   
 15  10  12  2   
 16  11  13  1   
 17  12  14  1   
 18  12  15  1   
 19  13  15  2   
 20  13  26  1   
 21  14  16  2   
 22  14  17  am  
 23  15  27  1   
 24  17  18  1   
 25  17  28  1   
 26  18  19  1   
 27  18  20  1   
 28  18  29  1   
 29  19  21  1   
 30  19  30  1   
 31  19  31  1   
 32  20  22  1   
 33  20  32  1   
 34  20  33  1   
 35  21  22  1   
 36  21  34  1   
 37  21  35  1   
 38  22  36  1   
 39  22  37  1   
@<TRIPOS>SUBSTRUCTURE
  1 ****  16 GROUP 4 **** **** 0

# MOE 2024.06 (io_trps.svl 2023.06)
