@<TRIPOS>MOLECULE
NONAME
40 41 1 0 0 
SMALL
USER_CHARGES


@<TRIPOS>ATOM
  1 O       -0.1950     0.0710    -0.1990 O.2   1 <1>  -0.5700 
  2 C       -0.6840    -1.0250    -0.3970 C.2   1 <1>   0.6900 
  3 N       -2.0270    -1.1510    -0.6450 N.am  1 <1>  -0.6600 
  4 N        0.0740    -2.1590    -0.3450 N.am  1 <1>  -0.5470 
  5 C       -2.9730    -0.0450    -0.3290 C.3   1 <1>   0.1400 
  6 C       -2.6420    -2.2810    -1.3930 C.3   1 <1>   0.1400 
  7 C        1.4570    -2.3640    -0.2250 C.ar  1 <1>   0.1170 
  8 C       -4.1590    -0.5870     0.4880 C.3   1 <1>  -0.0800 
  9 C       -3.8020    -2.8580    -0.5770 C.3   1 <1>  -0.1600 
 10 C        1.9360    -3.5590     0.3180 C.ar  1 <1>  -0.1440 
 11 C        2.3750    -1.4140    -0.6580 C.ar  1 <1>  -0.1500 
 12 C       -4.8320    -1.7730    -0.2260 C.3   1 <1>  -0.1600 
 13 C       -5.1830     0.5220     0.7590 C.3   1 <1>  -0.2400 
 14 C        3.3020    -3.7740     0.4160 C.ar  1 <1>  -0.1500 
 15 C        0.9830    -4.6390     0.8150 C.3   1 <1>  -0.0970 
 16 C        3.7350    -1.6360    -0.5550 C.ar  1 <1>  -0.1500 
 17 C        4.2080    -2.8190    -0.0150 C.ar  1 <1>  -0.1430 
 18 C        5.7000    -3.0690     0.1000 C.3   1 <1>  -0.0970 
 19 H       -0.4910    -2.9900    -0.2340 H     1 <1>   0.3700 
 20 H       -3.3230     0.3890    -1.2500 H     1 <1>   0.0800 
 21 H       -2.4750     0.7250     0.2350 H     1 <1>   0.0800 
 22 H       -1.9200    -3.0480    -1.6060 H     1 <1>   0.0800 
 23 H       -3.0120    -1.9090    -2.3340 H     1 <1>   0.0800 
 24 H       -3.7740    -0.9260     1.4350 H     1 <1>   0.0800 
 25 H       -3.4130    -3.2960     0.3260 H     1 <1>   0.0800 
 26 H       -4.2800    -3.6390    -1.1410 H     1 <1>   0.0800 
 27 H        2.0260    -0.4910    -1.0830 H     1 <1>   0.1500 
 28 H       -5.3020    -1.4280    -1.1310 H     1 <1>   0.0800 
 29 H       -5.5950    -2.1940     0.4060 H     1 <1>   0.0800 
 30 H       -5.5890     0.9000    -0.1630 H     1 <1>   0.0800 
 31 H       -4.7180     1.3360     1.2880 H     1 <1>   0.0800 
 32 H       -5.9900     0.1450     1.3620 H     1 <1>   0.0800 
 33 H        3.6720    -4.6940     0.8330 H     1 <1>   0.1500 
 34 H        0.4130    -5.0340    -0.0070 H     1 <1>   0.0800 
 35 H        0.3130    -4.2290     1.5500 H     1 <1>   0.0800 
 36 H        1.5240    -5.4490     1.2710 H     1 <1>   0.0800 
 37 H        4.4210    -0.8820    -0.8970 H     1 <1>   0.1500 
 38 H        5.9150    -3.6490     0.9790 H     1 <1>   0.0800 
 39 H        6.2340    -2.1390     0.1680 H     1 <1>   0.0800 
 40 H        6.0460    -3.6060    -0.7650 H     1 <1>   0.0800 
@<TRIPOS>BOND
  1   1   2  2   
  2   2   3  am  
  3   2   4  am  
  4   3   5  1   
  5   3   6  1   
  6   4   7  1   
  7   4  19  1   
  8   5   8  1   
  9   5  20  1   
 10   5  21  1   
 11   6   9  1   
 12   6  22  1   
 13   6  23  1   
 14   7  10  ar  
 15   7  11  ar  
 16   8  12  1   
 17   8  13  1   
 18   8  24  1   
 19   9  12  1   
 20   9  25  1   
 21   9  26  1   
 22  10  14  ar  
 23  10  15  1   
 24  11  16  ar  
 25  11  27  1   
 26  12  28  1   
 27  12  29  1   
 28  13  30  1   
 29  13  31  1   
 30  13  32  1   
 31  14  17  ar  
 32  14  33  1   
 33  15  34  1   
 34  15  35  1   
 35  15  36  1   
 36  16  17  ar  
 37  16  37  1   
 38  17  18  1   
 39  18  38  1   
 40  18  39  1   
 41  18  40  1   
@<TRIPOS>SUBSTRUCTURE
  1 ****   4 GROUP 4 **** **** 0

# MOE 2024.06 (io_trps.svl 2023.06)
