@<TRIPOS>MOLECULE
NONAME
40 41 1 0 0 
SMALL
USER_CHARGES


@<TRIPOS>ATOM
  1 CL       0.6430    -2.5710     3.0020 Cl    1 <1>  -0.1770 
  2 C        2.0740    -2.3600     2.0220 C.ar  1 <1>   0.1770 
  3 C        2.1100    -1.3460     1.0840 C.ar  1 <1>  -0.1500 
  4 C        3.1490    -3.2090     2.1990 C.ar  1 <1>  -0.1500 
  5 C        3.2390    -1.1720     0.2970 C.ar  1 <1>  -0.1440 
  6 C        4.2750    -3.0360     1.4160 C.ar  1 <1>  -0.1500 
  7 C        4.3350    -2.0280     0.4570 C.ar  1 <1>   0.1990 
  8 C        3.2610    -0.0400    -0.7240 C.3   1 <1>  -0.0960 
  9 N        5.4730    -1.8830    -0.3320 N.am  1 <1>  -0.6930 
 10 S        5.9510    -3.1180    -1.4410 S.o2  1 <1>   1.3330 
 11 C        6.5780    -1.0340     0.2160 C.3   1 <1>   0.2570 
 12 O        6.2110    -4.3210    -0.6930 O.2   1 <1>  -0.6500 
 13 O        6.9780    -2.5400    -2.2750 O.2   1 <1>  -0.6500 
 14 C        4.4900    -3.3340    -2.4340 C.3   1 <1>  -0.1350 
 15 C        7.3520    -1.6520     1.3910 C.2   1 <1>   0.5690 
 16 O        6.9210    -1.4540     2.5050 O.2   1 <1>  -0.5700 
 17 N        8.5090    -2.3660     1.2080 N.am  1 <1>  -0.6600 
 18 C        9.1930    -2.6710    -0.0700 C.3   1 <1>   0.1400 
 19 C        9.2570    -2.9390     2.3490 C.3   1 <1>   0.1400 
 20 C       10.5950    -3.0960     0.3440 C.3   1 <1>  -0.1600 
 21 C       10.4060    -3.7230     1.7220 C.3   1 <1>  -0.1600 
 22 H        1.2540    -0.7030     0.9820 H     1 <1>   0.1500 
 23 H        3.1050    -3.9870     2.9400 H     1 <1>   0.1500 
 24 H        5.1230    -3.6850     1.5550 H     1 <1>   0.1500 
 25 H        2.3010     0.4370    -0.7940 H     1 <1>   0.0800 
 26 H        3.5230    -0.4170    -1.6950 H     1 <1>   0.0800 
 27 H        3.9870     0.6980    -0.4330 H     1 <1>   0.0800 
 28 H        6.1480    -0.1160     0.5720 H     1 <1>   0.0800 
 29 H        7.2620    -0.7730    -0.5680 H     1 <1>   0.0800 
 30 H        4.2320    -2.4150    -2.9200 H     1 <1>   0.0800 
 31 H        3.6680    -3.6470    -1.8220 H     1 <1>   0.0800 
 32 H        4.6640    -4.0820    -3.1830 H     1 <1>   0.0800 
 33 H        9.2150    -1.8230    -0.7310 H     1 <1>   0.0800 
 34 H        8.6970    -3.4990    -0.5470 H     1 <1>   0.0800 
 35 H        8.6180    -3.5740     2.9400 H     1 <1>   0.0800 
 36 H        9.6320    -2.1370     2.9610 H     1 <1>   0.0800 
 37 H       11.2190    -2.2220     0.4190 H     1 <1>   0.0800 
 38 H       11.0290    -3.7810    -0.3640 H     1 <1>   0.0800 
 39 H       10.1070    -4.7510     1.6160 H     1 <1>   0.0800 
 40 H       11.2960    -3.6750     2.3220 H     1 <1>   0.0800 
@<TRIPOS>BOND
  1   1   2  1   
  2   2   3  ar  
  3   2   4  ar  
  4   3   5  ar  
  5   3  22  1   
  6   4   6  ar  
  7   4  23  1   
  8   5   7  ar  
  9   5   8  1   
 10   6   7  ar  
 11   6  24  1   
 12   7   9  1   
 13   8  25  1   
 14   8  26  1   
 15   8  27  1   
 16   9  10  am  
 17   9  11  1   
 18  10  12  2   
 19  10  13  2   
 20  10  14  1   
 21  11  15  1   
 22  11  28  1   
 23  11  29  1   
 24  14  30  1   
 25  14  31  1   
 26  14  32  1   
 27  15  16  2   
 28  15  17  am  
 29  17  18  1   
 30  17  19  1   
 31  18  20  1   
 32  18  33  1   
 33  18  34  1   
 34  19  21  1   
 35  19  35  1   
 36  19  36  1   
 37  20  21  1   
 38  20  37  1   
 39  20  38  1   
 40  21  39  1   
 41  21  40  1   
@<TRIPOS>SUBSTRUCTURE
  1 ****   9 GROUP 4 **** **** 0

# MOE 2024.06 (io_trps.svl 2023.06)
