@<TRIPOS>MOLECULE
NONAME
50 52 1 0 0 
SMALL
USER_CHARGES


@<TRIPOS>ATOM
  1 O        0.1780    -1.2360     0.6500 O.3   1 <1>  -0.3630 
  2 C       -0.9740    -1.3850    -0.0780 C.ar  1 <1>   0.0830 
  3 C        0.3800    -0.1050     1.4680 C.3   1 <1>   0.1200 
  4 C       -1.0910    -2.4970    -0.9310 C.ar  1 <1>   0.1000 
  5 C       -2.0230    -0.4720     0.0060 C.ar  1 <1>  -0.1500 
  6 C        1.7670    -0.2140     2.0960 C.3   1 <1>  -0.2400 
  7 N       -0.1000    -3.4780    -1.0890 N.pl3 1 <1>  -0.8380 
  8 C       -2.2530    -2.6530    -1.6720 C.ar  1 <1>  -0.1500 
  9 C       -3.1740    -0.6500    -0.7440 C.ar  1 <1>  -0.1500 
 10 C        1.1310    -3.0780    -1.8360 C.3   1 <1>   0.2090 
 11 C        0.0840    -4.4340     0.0420 C.3   1 <1>   0.2090 
 12 C       -3.2880    -1.7410    -1.5840 C.ar  1 <1>  -0.1500 
 13 C        2.3130    -2.7550    -0.8990 C.3   1 <1>   0.3430 
 14 C        1.2900    -4.0690     0.9340 C.3   1 <1>   0.3430 
 15 N        2.5470    -3.8200     0.1450 N.4   1 <1>  -0.9590 
 16 C        3.6890    -3.4740     1.0290 C.3   1 <1>   0.4860 
 17 C        4.9450    -3.3780     0.1830 C.ar  1 <1>  -0.1430 
 18 C        5.6080    -4.5120    -0.2830 C.ar  1 <1>  -0.1430 
 19 C        5.4300    -2.1170    -0.1350 C.ar  1 <1>  -0.1500 
 20 C        6.7320    -4.3570    -1.0790 C.ar  1 <1>  -0.1500 
 21 C        5.1570    -5.9290     0.0530 C.3   1 <1>  -0.0970 
 22 C        6.5540    -1.9760    -0.9270 C.ar  1 <1>  -0.1500 
 23 C        7.2030    -3.0980    -1.4020 C.ar  1 <1>  -0.1500 
 24 H       -0.3820    -0.0920     2.2290 H     1 <1>   0.0800 
 25 H        0.3090     0.7790     0.8560 H     1 <1>   0.0800 
 26 H       -1.9790     0.3880     0.6450 H     1 <1>   0.1500 
 27 H        1.8330    -1.1000     2.7010 H     1 <1>   0.0800 
 28 H        1.9390     0.6390     2.7270 H     1 <1>   0.0800 
 29 H        2.5220    -0.2250     1.3320 H     1 <1>   0.0800 
 30 H       -2.3420    -3.5020    -2.3250 H     1 <1>   0.1500 
 31 H       -3.9800     0.0600    -0.6740 H     1 <1>   0.1500 
 32 H        0.9150    -2.2130    -2.4390 H     1 <1>   0.0800 
 33 H        1.4080    -3.8750    -2.5030 H     1 <1>   0.0800 
 34 H        0.2140    -5.4240    -0.3570 H     1 <1>   0.0800 
 35 H       -0.8090    -4.4440     0.6460 H     1 <1>   0.0800 
 36 H       -4.1820    -1.8820    -2.1680 H     1 <1>   0.1500 
 37 H        2.1100    -1.8150    -0.4160 H     1 <1>   0.0800 
 38 H        3.2000    -2.6270    -1.4980 H     1 <1>   0.0800 
 39 H        1.4500    -4.8660     1.6410 H     1 <1>   0.0800 
 40 H        1.0340    -3.1840     1.4910 H     1 <1>   0.0800 
 41 H        2.8040    -4.6730    -0.3620 H     1 <1>   0.4500 
 42 H        3.8210    -4.2320     1.7830 H     1 <1>   0.0800 
 43 H        3.5050    -2.5330     1.5200 H     1 <1>   0.0800 
 44 H        4.9430    -1.2270     0.2270 H     1 <1>   0.1500 
 45 H        7.2590    -5.2180    -1.4550 H     1 <1>   0.1500 
 46 H        4.3110    -6.2070    -0.5490 H     1 <1>   0.0800 
 47 H        4.9050    -6.0170     1.0940 H     1 <1>   0.0800 
 48 H        5.9480    -6.6310    -0.1450 H     1 <1>   0.0800 
 49 H        6.9280    -0.9960    -1.1730 H     1 <1>   0.1500 
 50 H        8.0790    -2.9930    -2.0200 H     1 <1>   0.1500 
@<TRIPOS>BOND
  1   1   2  1   
  2   1   3  1   
  3   2   4  ar  
  4   2   5  ar  
  5   3   6  1   
  6   3  24  1   
  7   3  25  1   
  8   4   7  1   
  9   4   8  ar  
 10   5   9  ar  
 11   5  26  1   
 12   6  27  1   
 13   6  28  1   
 14   6  29  1   
 15   7  10  1   
 16   7  11  1   
 17   8  12  ar  
 18   8  30  1   
 19   9  12  ar  
 20   9  31  1   
 21  10  13  1   
 22  10  32  1   
 23  10  33  1   
 24  11  14  1   
 25  11  34  1   
 26  11  35  1   
 27  12  36  1   
 28  13  15  1   
 29  13  37  1   
 30  13  38  1   
 31  14  15  1   
 32  14  39  1   
 33  14  40  1   
 34  15  16  1   
 35  15  41  1   
 36  16  17  1   
 37  16  42  1   
 38  16  43  1   
 39  17  18  ar  
 40  17  19  ar  
 41  18  20  ar  
 42  18  21  1   
 43  19  22  ar  
 44  19  44  1   
 45  20  23  ar  
 46  20  45  1   
 47  21  46  1   
 48  21  47  1   
 49  21  48  1   
 50  22  23  ar  
 51  22  49  1   
 52  23  50  1   
@<TRIPOS>SUBSTRUCTURE
  1 ****  13 GROUP 4 **** **** 0

# MOE 2024.06 (io_trps.svl 2023.06)
