@<TRIPOS>MOLECULE
NONAME
49 52 1 0 0 
SMALL
USER_CHARGES


@<TRIPOS>ATOM
  1 O        0.5050     0.7440    -0.6600 O.2   1 <1>  -0.5700 
  2 C        0.3060     1.8200    -0.1280 C.2   1 <1>   0.5440 
  3 N        1.3300     2.4180     0.5850 N.am  1 <1>  -0.6600 
  4 C       -0.9980     2.4400    -0.2660 C.ar  1 <1>   0.0860 
  5 C        2.6050     1.7010     0.8620 C.3   1 <1>   0.1400 
  6 C        1.3220     3.8520     0.9870 C.3   1 <1>   0.1400 
  7 C       -1.5180     2.7390    -1.5230 C.ar  1 <1>  -0.1500 
  8 C       -1.7760     2.7550     0.8490 C.ar  1 <1>  -0.1500 
  9 C        3.7620     2.4190     0.1630 C.3   1 <1>  -0.1600 
 10 C        2.4770     4.5840     0.2990 C.3   1 <1>  -0.1600 
 11 C       -2.7550     3.3430    -1.6660 C.ar  1 <1>  -0.1500 
 12 C       -3.0140     3.3590     0.7140 C.ar  1 <1>  -0.1500 
 13 C        3.8360     3.9030     0.5690 C.3   1 <1>  -0.0190 
 14 C       -3.5040     3.6560    -0.5450 C.ar  1 <1>  -0.1500 
 15 C        5.0050     4.6050    -0.1260 C.2   1 <1>   0.5690 
 16 O        4.7990     5.2920    -1.0960 O.2   1 <1>  -0.5700 
 17 N        6.2520     4.3980     0.3990 N.am  1 <1>  -0.5470 
 18 C        7.5130     4.8840     0.0120 C.ar  1 <1>   0.1170 
 19 C        8.6420     4.1860     0.4260 C.ar  1 <1>  -0.1500 
 20 C        7.6860     6.0380    -0.7500 C.ar  1 <1>  -0.1500 
 21 C        9.9090     4.6240     0.0870 C.ar  1 <1>   0.0830 
 22 C        8.9510     6.4800    -1.1000 C.ar  1 <1>  -0.1500 
 23 O       10.9830     3.9190     0.5250 O.3   1 <1>  -0.3630 
 24 C       10.0660     5.7730    -0.6900 C.ar  1 <1>   0.0830 
 25 C       12.2470     4.5500     0.4260 C.3   1 <1>   0.1200 
 26 O       11.2990     6.2130    -1.0560 O.3   1 <1>  -0.3630 
 27 C       12.3660     5.2960    -0.9110 C.3   1 <1>   0.1200 
 28 H        2.5540     0.6810     0.5200 H     1 <1>   0.0800 
 29 H        2.7690     1.6820     1.9260 H     1 <1>   0.0800 
 30 H        1.4290     3.9160     2.0570 H     1 <1>   0.0800 
 31 H        0.3970     4.3280     0.7140 H     1 <1>   0.0800 
 32 H       -0.9380     2.4890    -2.3950 H     1 <1>   0.1500 
 33 H       -1.4000     2.5180     1.8280 H     1 <1>   0.1500 
 34 H        3.6230     2.3410    -0.9020 H     1 <1>   0.0800 
 35 H        4.6820     1.9200     0.4080 H     1 <1>   0.0800 
 36 H        2.5090     5.6030     0.6420 H     1 <1>   0.0800 
 37 H        2.2850     4.6050    -0.7610 H     1 <1>   0.0800 
 38 H       -3.1360     3.5660    -2.6470 H     1 <1>   0.1500 
 39 H       -3.5980     3.5950     1.5870 H     1 <1>   0.1500 
 40 H        4.0150     3.9540     1.6280 H     1 <1>   0.0800 
 41 H       -4.4670     4.1250    -0.6540 H     1 <1>   0.1500 
 42 H        6.2860     3.7370     1.1710 H     1 <1>   0.3700 
 43 H        8.5480     3.2940     1.0150 H     1 <1>   0.1500 
 44 H        6.8310     6.6020    -1.0750 H     1 <1>   0.1500 
 45 H        9.0760     7.3680    -1.6920 H     1 <1>   0.1500 
 46 H       13.0030     3.7910     0.5090 H     1 <1>   0.0800 
 47 H       12.3420     5.2380     1.2470 H     1 <1>   0.0800 
 48 H       12.3260     4.6020    -1.7320 H     1 <1>   0.0800 
 49 H       13.2870     5.8480    -0.9590 H     1 <1>   0.0800 
@<TRIPOS>BOND
  1   1   2  2   
  2   2   3  am  
  3   2   4  1   
  4   3   5  1   
  5   3   6  1   
  6   4   7  ar  
  7   4   8  ar  
  8   5   9  1   
  9   5  28  1   
 10   5  29  1   
 11   6  10  1   
 12   6  30  1   
 13   6  31  1   
 14   7  11  ar  
 15   7  32  1   
 16   8  12  ar  
 17   8  33  1   
 18   9  13  1   
 19   9  34  1   
 20   9  35  1   
 21  10  13  1   
 22  10  36  1   
 23  10  37  1   
 24  11  14  ar  
 25  11  38  1   
 26  12  14  ar  
 27  12  39  1   
 28  13  15  1   
 29  13  40  1   
 30  14  41  1   
 31  15  16  2   
 32  15  17  am  
 33  17  18  1   
 34  17  42  1   
 35  18  19  ar  
 36  18  20  ar  
 37  19  21  ar  
 38  19  43  1   
 39  20  22  ar  
 40  20  44  1   
 41  21  23  1   
 42  21  24  ar  
 43  22  24  ar  
 44  22  45  1   
 45  23  25  1   
 46  24  26  1   
 47  25  27  1   
 48  25  46  1   
 49  25  47  1   
 50  26  27  1   
 51  27  48  1   
 52  27  49  1   
@<TRIPOS>SUBSTRUCTURE
  1 ****  13 GROUP 4 **** **** 0

# MOE 2024.06 (io_trps.svl 2023.06)
