@<TRIPOS>MOLECULE
NONAME
44 45 1 0 0 
SMALL
USER_CHARGES


@<TRIPOS>ATOM
  1 BR       0.5440     0.1920    -2.2630 Br    1 <1>  -0.1110 
  2 C        0.0810     1.8130    -1.3280 C.ar  1 <1>   0.1110 
  3 C        1.0780     2.6460    -0.8470 C.ar  1 <1>  -0.1440 
  4 C       -1.2610     2.0940    -1.1660 C.ar  1 <1>  -0.1500 
  5 C        0.6900     3.7980    -0.1820 C.ar  1 <1>  -0.1500 
  6 C        2.5510     2.3160    -1.0360 C.3   1 <1>  -0.0960 
  7 C       -1.6510     3.2490    -0.5000 C.ar  1 <1>  -0.0090 
  8 C       -0.6620     4.1020    -0.0090 C.ar  1 <1>   0.0830 
  9 S       -3.3990     3.6500    -0.2880 S.o2  1 <1>   1.4470 
 10 O       -1.0730     5.2250     0.6400 O.3   1 <1>  -0.3630 
 11 O       -4.2430     2.5010    -0.5300 O.2   1 <1>  -0.6500 
 12 O       -3.7700     4.8820    -0.9430 O.2   1 <1>  -0.6500 
 13 N       -3.5730     3.9830     1.3500 N.am  1 <1>  -0.9140 
 14 C       -0.1750     6.2730     0.9470 C.3   1 <1>   0.0400 
 15 C       -4.8670     4.5510     1.7420 C.3   1 <1>   0.1960 
 16 C       -6.0240     3.5280     1.6270 C.3   1 <1>   0.3430 
 17 N       -7.1520     3.9530     0.7270 N.4   1 <1>  -0.9590 
 18 C       -8.2530     2.9320     0.7190 C.3   1 <1>   0.3430 
 19 C       -6.7510     4.2500    -0.6960 C.3   1 <1>   0.3430 
 20 C       -9.4030     3.3360    -0.2330 C.3   1 <1>   0.1200 
 21 C       -7.9710     4.6500    -1.5570 C.3   1 <1>   0.1200 
 22 O       -9.1620     4.5870    -0.8170 O.3   1 <1>  -0.5600 
 23 H       -1.9950     1.4110    -1.5590 H     1 <1>   0.1500 
 24 H        1.4540     4.4480     0.1990 H     1 <1>   0.1500 
 25 H        2.7820     2.2480    -2.0840 H     1 <1>   0.0800 
 26 H        2.7800     1.3740    -0.5690 H     1 <1>   0.0800 
 27 H        3.1780     3.0720    -0.5990 H     1 <1>   0.0800 
 28 H       -2.8580     4.7050     1.5050 H     1 <1>   0.4200 
 29 H       -0.7390     7.0950     1.3490 H     1 <1>   0.0800 
 30 H        0.3250     6.5830     0.0460 H     1 <1>   0.0800 
 31 H        0.5330     5.9260     1.6800 H     1 <1>   0.0800 
 32 H       -5.0740     5.4360     1.1650 H     1 <1>   0.0800 
 33 H       -4.7940     4.8490     2.7740 H     1 <1>   0.0800 
 34 H       -6.4160     3.3620     2.6170 H     1 <1>   0.0800 
 35 H       -5.6220     2.5900     1.2820 H     1 <1>   0.0800 
 36 H       -7.5900     4.8220     1.0680 H     1 <1>   0.4500 
 37 H       -8.6500     2.8100     1.7140 H     1 <1>   0.0800 
 38 H       -7.8630     1.9770     0.4070 H     1 <1>   0.0800 
 39 H       -6.2850     3.3850    -1.1360 H     1 <1>   0.0800 
 40 H       -6.0340     5.0530    -0.7250 H     1 <1>   0.0800 
 41 H      -10.3310     3.3990     0.3090 H     1 <1>   0.0800 
 42 H       -9.5220     2.6070    -1.0170 H     1 <1>   0.0800 
 43 H       -8.0590     4.0040    -2.4130 H     1 <1>   0.0800 
 44 H       -7.8570     5.6610    -1.9100 H     1 <1>   0.0800 
@<TRIPOS>BOND
  1   1   2  1   
  2   2   3  ar  
  3   2   4  ar  
  4   3   5  ar  
  5   3   6  1   
  6   4   7  ar  
  7   4  23  1   
  8   5   8  ar  
  9   5  24  1   
 10   6  25  1   
 11   6  26  1   
 12   6  27  1   
 13   7   8  ar  
 14   7   9  1   
 15   8  10  1   
 16   9  11  2   
 17   9  12  2   
 18   9  13  am  
 19  10  14  1   
 20  13  15  1   
 21  13  28  1   
 22  14  29  1   
 23  14  30  1   
 24  14  31  1   
 25  15  16  1   
 26  15  32  1   
 27  15  33  1   
 28  16  17  1   
 29  16  34  1   
 30  16  35  1   
 31  17  18  1   
 32  17  19  1   
 33  17  36  1   
 34  18  20  1   
 35  18  37  1   
 36  18  38  1   
 37  19  21  1   
 38  19  39  1   
 39  19  40  1   
 40  20  22  1   
 41  20  41  1   
 42  20  42  1   
 43  21  22  1   
 44  21  43  1   
 45  21  44  1   
@<TRIPOS>SUBSTRUCTURE
  1 ****   9 GROUP 4 **** **** 0

# MOE 2024.06 (io_trps.svl 2023.06)
