@<TRIPOS>MOLECULE
NONAME
28 28 1 0 0 
SMALL
USER_CHARGES


@<TRIPOS>ATOM
  1 CL      -0.0310    -0.5650    -0.1680 Cl    1 <1>  -0.1770 
  2 C       -1.6740    -1.1550    -0.1540 C.ar  1 <1>   0.1770 
  3 C       -1.9050    -2.5170    -0.1100 C.ar  1 <1>  -0.1500 
  4 C       -2.7190    -0.2490    -0.1860 C.ar  1 <1>  -0.1500 
  5 C       -3.2100    -2.9790    -0.0990 C.ar  1 <1>  -0.1500 
  6 C       -4.0240    -0.7150    -0.1750 C.ar  1 <1>  -0.1500 
  7 C       -4.2730    -2.0870    -0.1300 C.ar  1 <1>   0.0830 
  8 O       -5.5170    -2.6250    -0.1150 O.3   1 <1>  -0.3630 
  9 C       -6.6740    -1.8080    -0.0940 C.3   1 <1>   0.1200 
 10 C       -7.9240    -2.6950    -0.0720 C.3   1 <1>   0.2000 
 11 O       -7.8600    -3.5740    -1.1450 O.3   1 <1>  -0.6800 
 12 C       -9.2100    -1.8610    -0.1520 C.3   1 <1>   0.1200 
 13 O      -10.3480    -2.6930    -0.0390 O.3   1 <1>  -0.4300 
 14 C      -11.5640    -2.1680    -0.0810 C.2   1 <1>   0.7800 
 15 O      -11.7350    -0.9720    -0.1650 O.2   1 <1>  -0.5700 
 16 N      -12.5880    -3.0250    -0.0270 N.am  1 <1>  -0.8000 
 17 H       -1.0750    -3.2000    -0.0860 H     1 <1>   0.1500 
 18 H       -2.5080     0.8040    -0.2210 H     1 <1>   0.1500 
 19 H       -3.4110    -4.0350    -0.0650 H     1 <1>   0.1500 
 20 H       -4.8230     0.0010    -0.2020 H     1 <1>   0.1500 
 21 H       -6.6730    -1.1900    -0.9750 H     1 <1>   0.0800 
 22 H       -6.6380    -1.1920     0.7870 H     1 <1>   0.0800 
 23 H       -7.9310    -3.2730     0.8360 H     1 <1>   0.0800 
 24 H       -6.9690    -3.9790    -1.1640 H     1 <1>   0.4000 
 25 H       -9.2610    -1.3370    -1.0920 H     1 <1>   0.0800 
 26 H       -9.2430    -1.1470     0.6530 H     1 <1>   0.0800 
 27 H      -13.5420    -2.6830    -0.1040 H     1 <1>   0.3700 
 28 H      -12.4290    -4.0290    -0.0270 H     1 <1>   0.3700 
@<TRIPOS>BOND
  1   1   2  1   
  2   2   3  ar  
  3   2   4  ar  
  4   3   5  ar  
  5   3  17  1   
  6   4   6  ar  
  7   4  18  1   
  8   5   7  ar  
  9   5  19  1   
 10   6   7  ar  
 11   6  20  1   
 12   7   8  1   
 13   8   9  1   
 14   9  10  1   
 15   9  21  1   
 16   9  22  1   
 17  10  11  1   
 18  10  12  1   
 19  10  23  1   
 20  11  24  1   
 21  12  13  1   
 22  12  25  1   
 23  12  26  1   
 24  13  14  1   
 25  14  15  2   
 26  14  16  am  
 27  16  27  1   
 28  16  28  1   
@<TRIPOS>SUBSTRUCTURE
  1 ****   9 GROUP 4 **** **** 0

# MOE 2024.06 (io_trps.svl 2023.06)
