@<TRIPOS>MOLECULE
NONAME
36 37 1 0 0 
SMALL
USER_CHARGES


@<TRIPOS>ATOM
  1 O       -0.5270     1.1730     1.9630 O.2   1 <1>  -0.5700 
  2 C       -0.5520     2.1770     1.2850 C.2   1 <1>   0.5690 
  3 N        0.1710     2.2430     0.1170 N.am  1 <1>  -0.6600 
  4 C       -1.4010     3.3490     1.8240 C.3   1 <1>   0.2610 
  5 C        1.0350     1.1330    -0.3330 C.3   1 <1>   0.1400 
  6 C        0.1750     3.3480    -0.8700 C.3   1 <1>   0.1400 
  7 O       -2.2010     3.9740     0.8310 O.3   1 <1>  -0.3630 
  8 C       -0.5440     4.4450     2.4660 C.3   1 <1>  -0.2400 
  9 C        1.8720     1.7270    -1.4580 C.3   1 <1>  -0.1600 
 10 C        0.9930     2.8260    -2.0460 C.3   1 <1>  -0.1600 
 11 C       -3.2520     3.3530     0.2290 C.ar  1 <1>   0.0820 
 12 C       -3.9420     4.0690    -0.7470 C.ar  1 <1>  -0.1440 
 13 C       -3.6530     2.0550     0.5410 C.ar  1 <1>  -0.1500 
 14 C       -5.0150     3.4830    -1.3980 C.ar  1 <1>  -0.1500 
 15 C       -3.5310     5.4910    -1.1030 C.3   1 <1>  -0.0970 
 16 C       -4.7260     1.4810    -0.1160 C.ar  1 <1>  -0.1500 
 17 C       -5.4070     2.1930    -1.0860 C.ar  1 <1>  -0.1500 
 18 H       -2.0700     2.9670     2.5740 H     1 <1>   0.0800 
 19 H        0.4120     0.3350    -0.7020 H     1 <1>   0.0800 
 20 H        1.6470     0.7680     0.4740 H     1 <1>   0.0800 
 21 H        0.6470     4.2130    -0.4380 H     1 <1>   0.0800 
 22 H       -0.8250     3.5920    -1.1850 H     1 <1>   0.0800 
 23 H        0.1200     4.8780     1.7420 H     1 <1>   0.0800 
 24 H        0.0450     4.0210     3.2590 H     1 <1>   0.0800 
 25 H       -1.1750     5.2110     2.8790 H     1 <1>   0.0800 
 26 H        2.1470     0.9840    -2.1860 H     1 <1>   0.0800 
 27 H        2.7650     2.1560    -1.0380 H     1 <1>   0.0800 
 28 H        1.5670     3.6070    -2.5120 H     1 <1>   0.0800 
 29 H        0.3210     2.4040    -2.7740 H     1 <1>   0.0800 
 30 H       -3.1490     1.4700     1.2870 H     1 <1>   0.1500 
 31 H       -5.5550     4.0270    -2.1530 H     1 <1>   0.1500 
 32 H       -2.5270     5.4950    -1.4870 H     1 <1>   0.0800 
 33 H       -3.5680     6.1100    -0.2250 H     1 <1>   0.0800 
 34 H       -4.1850     5.9110    -1.8450 H     1 <1>   0.0800 
 35 H       -5.0290     0.4770     0.1270 H     1 <1>   0.1500 
 36 H       -6.2410     1.7450    -1.5970 H     1 <1>   0.1500 
@<TRIPOS>BOND
  1   1   2  2   
  2   2   3  am  
  3   2   4  1   
  4   3   5  1   
  5   3   6  1   
  6   4   7  1   
  7   4   8  1   
  8   4  18  1   
  9   5   9  1   
 10   5  19  1   
 11   5  20  1   
 12   6  10  1   
 13   6  21  1   
 14   6  22  1   
 15   7  11  1   
 16   8  23  1   
 17   8  24  1   
 18   8  25  1   
 19   9  10  1   
 20   9  26  1   
 21   9  27  1   
 22  10  28  1   
 23  10  29  1   
 24  11  12  ar  
 25  11  13  ar  
 26  12  14  ar  
 27  12  15  1   
 28  13  16  ar  
 29  13  30  1   
 30  14  17  ar  
 31  14  31  1   
 32  15  32  1   
 33  15  33  1   
 34  15  34  1   
 35  16  17  ar  
 36  16  35  1   
 37  17  36  1   
@<TRIPOS>SUBSTRUCTURE
  1 ****   7 GROUP 4 **** **** 0

# MOE 2024.06 (io_trps.svl 2023.06)
