@<TRIPOS>MOLECULE
NONAME
51 54 1 0 0 
SMALL
USER_CHARGES


@<TRIPOS>ATOM
  1 O        0.8980    -3.3700     2.0790 O.2   1 <1>  -0.5700 
  2 C        0.6050    -2.9140     0.9950 C.2   1 <1>   0.5690 
  3 N       -0.7010    -3.0410     0.5540 N.am  1 <1>  -0.4770 
  4 C        1.7460    -2.2690     0.1470 C.3   1 <1>   0.0610 
  5 C       -1.3520    -2.2210    -0.3540 C.ar  1 <1>   0.4270 
  6 C       -1.5680    -4.0850     1.1670 C.3   1 <1>   0.1400 
  7 C        1.5250    -0.7600    -0.1460 C.3   1 <1>  -0.1600 
  8 C        1.9150    -3.0150    -1.2030 C.3   1 <1>  -0.1600 
  9 C        3.1070    -2.3880     0.8980 C.3   1 <1>  -0.1600 
 10 N       -1.5490    -2.7070    -1.5740 N.ar  1 <1>  -0.6200 
 11 C       -1.8100    -0.9710     0.0560 C.ar  1 <1>  -0.1500 
 12 C       -1.2340    -5.4550     0.5710 C.3   1 <1>  -0.0990 
 13 C        2.6850    -0.1680    -0.9690 C.3   1 <1>  -0.0800 
 14 C        3.0690    -2.4230    -2.0360 C.3   1 <1>  -0.0800 
 15 C        4.2760    -1.8050     0.0850 C.3   1 <1>  -0.0800 
 16 C       -2.1930    -1.9140    -2.4140 C.ar  1 <1>   0.1600 
 17 C       -2.4800    -0.1580    -0.8280 C.ar  1 <1>  -0.1500 
 18 C       -2.1330    -6.5410     1.1160 C.2   1 <1>   0.6590 
 19 C        2.7920    -0.9320    -2.3020 C.3   1 <1>  -0.1600 
 20 C        4.0000    -0.3170    -0.1880 C.3   1 <1>  -0.1600 
 21 C        4.3840    -2.5610    -1.2500 C.3   1 <1>  -0.1600 
 22 C       -2.6700    -0.6530    -2.1010 C.ar  1 <1>  -0.1500 
 23 O       -3.0660    -6.3080     1.8420 O.2   1 <1>  -0.5700 
 24 O       -1.8300    -7.7750     0.7350 O.3   1 <1>  -0.4300 
 25 C       -2.5840    -8.8900     1.1630 C.3   1 <1>   0.0400 
 26 H       -2.6030    -3.8530     0.9770 H     1 <1>   0.0800 
 27 H       -1.4280    -4.1020     2.2350 H     1 <1>   0.0800 
 28 H        1.4200    -0.2220     0.7790 H     1 <1>   0.0800 
 29 H        0.6330    -0.6140    -0.7190 H     1 <1>   0.0800 
 30 H        1.0120    -2.9500    -1.7800 H     1 <1>   0.0800 
 31 H        2.1010    -4.0580    -1.0170 H     1 <1>   0.0800 
 32 H        3.3130    -3.4230     1.1110 H     1 <1>   0.0800 
 33 H        3.0440    -1.8760     1.8420 H     1 <1>   0.0800 
 34 H       -1.6310    -0.6550     1.0670 H     1 <1>   0.1500 
 35 H       -0.2180    -5.7110     0.8030 H     1 <1>   0.0800 
 36 H       -1.3530    -5.4230    -0.4960 H     1 <1>   0.0800 
 37 H        2.4960     0.8750    -1.1640 H     1 <1>   0.0800 
 38 H        3.1480    -2.9510    -2.9710 H     1 <1>   0.0800 
 39 H        5.1930    -1.9090     0.6390 H     1 <1>   0.0800 
 40 H       -2.3520    -2.2910    -3.4100 H     1 <1>   0.1500 
 41 H       -2.8410     0.8160    -0.5410 H     1 <1>   0.1500 
 42 H        3.5860    -0.5160    -2.8970 H     1 <1>   0.0800 
 43 H        1.8770    -0.8260    -2.8590 H     1 <1>   0.0800 
 44 H        3.9360     0.2190     0.7430 H     1 <1>   0.0800 
 45 H        4.8110     0.1060    -0.7540 H     1 <1>   0.0800 
 46 H        5.1990    -2.1630    -1.8300 H     1 <1>   0.0800 
 47 H        4.5920    -3.6000    -1.0650 H     1 <1>   0.0800 
 48 H       -3.1840    -0.0700    -2.8430 H     1 <1>   0.1500 
 49 H       -2.1560    -9.7770     0.7310 H     1 <1>   0.0800 
 50 H       -3.6010    -8.7690     0.8330 H     1 <1>   0.0800 
 51 H       -2.5460    -8.9430     2.2370 H     1 <1>   0.0800 
@<TRIPOS>BOND
  1   1   2  2   
  2   2   3  am  
  3   2   4  1   
  4   3   5  1   
  5   3   6  1   
  6   4   7  1   
  7   4   8  1   
  8   4   9  1   
  9   5  10  ar  
 10   5  11  ar  
 11   6  12  1   
 12   6  26  1   
 13   6  27  1   
 14   7  13  1   
 15   7  28  1   
 16   7  29  1   
 17   8  14  1   
 18   8  30  1   
 19   8  31  1   
 20   9  15  1   
 21   9  32  1   
 22   9  33  1   
 23  10  16  ar  
 24  11  17  ar  
 25  11  34  1   
 26  12  18  1   
 27  12  35  1   
 28  12  36  1   
 29  13  19  1   
 30  13  20  1   
 31  13  37  1   
 32  14  19  1   
 33  14  21  1   
 34  14  38  1   
 35  15  20  1   
 36  15  21  1   
 37  15  39  1   
 38  16  22  ar  
 39  16  40  1   
 40  17  22  ar  
 41  17  41  1   
 42  18  23  2   
 43  18  24  1   
 44  19  42  1   
 45  19  43  1   
 46  20  44  1   
 47  20  45  1   
 48  21  46  1   
 49  21  47  1   
 50  22  48  1   
 51  24  25  1   
 52  25  49  1   
 53  25  50  1   
 54  25  51  1   
@<TRIPOS>SUBSTRUCTURE
  1 ****   3 GROUP 4 **** **** 0

# MOE 2024.06 (io_trps.svl 2023.06)
