@<TRIPOS>MOLECULE
NONAME
47 48 1 0 0 
SMALL
USER_CHARGES


@<TRIPOS>ATOM
  1 O       -0.6680     0.4810     1.4950 O.2   1 <1>  -0.5700 
  2 C       -1.0160     1.2970     0.6640 C.2   1 <1>   0.5440 
  3 N       -0.0690     2.0850     0.0730 N.am  1 <1>  -0.7300 
  4 C       -2.4120     1.4180     0.2880 C.ar  1 <1>   0.0860 
  5 C        1.3730     2.0630     0.3720 C.3   1 <1>   0.2200 
  6 C       -2.9660     2.6430    -0.0820 C.ar  1 <1>  -0.1500 
  7 C       -3.2440     0.2990     0.2880 C.ar  1 <1>  -0.1500 
  8 C        1.8370     3.4910     0.6710 C.3   1 <1>  -0.1600 
  9 C        2.1190     1.4760    -0.8290 C.3   1 <1>  -0.1600 
 10 C       -4.2990     2.7540    -0.4600 C.ar  1 <1>   0.0830 
 11 C       -4.5790     0.3810    -0.0860 C.ar  1 <1>   0.0830 
 12 C        3.3570     3.5480     0.8830 C.3   1 <1>  -0.1600 
 13 C        3.6400     1.5310    -0.6190 C.3   1 <1>  -0.1600 
 14 O       -4.8650     3.9430    -0.8190 O.3   1 <1>  -0.3630 
 15 C       -5.1050     1.6160    -0.4680 C.ar  1 <1>   0.0830 
 16 O       -5.4070    -0.7040    -0.0950 O.3   1 <1>  -0.3630 
 17 C        4.1130     2.9630    -0.3220 C.3   1 <1>  -0.0800 
 18 C       -4.1280     5.1440    -0.8560 C.3   1 <1>   0.0400 
 19 O       -6.3980     1.7140    -0.8670 O.3   1 <1>  -0.3630 
 20 C       -4.9350    -1.9970     0.2150 C.3   1 <1>   0.0400 
 21 C        5.6240     2.9840    -0.0660 C.3   1 <1>  -0.2400 
 22 C       -7.3480     1.8410     0.1620 C.3   1 <1>   0.0400 
 23 H       -0.3280     2.6600    -0.7260 H     1 <1>   0.3700 
 24 H        1.5590     1.4460     1.2380 H     1 <1>   0.0800 
 25 H       -2.3340     3.5090    -0.0570 H     1 <1>   0.1500 
 26 H       -2.8090    -0.6350     0.5900 H     1 <1>   0.1500 
 27 H        1.3420     3.8460     1.5580 H     1 <1>   0.0800 
 28 H        1.5750     4.1360    -0.1490 H     1 <1>   0.0800 
 29 H        1.8680     2.0290    -1.7170 H     1 <1>   0.0800 
 30 H        1.8170     0.4520    -0.9660 H     1 <1>   0.0800 
 31 H        3.6100     2.9910     1.7700 H     1 <1>   0.0800 
 32 H        3.6570     4.5700     1.0390 H     1 <1>   0.0800 
 33 H        4.1340     1.1600    -1.5000 H     1 <1>   0.0800 
 34 H        3.9050     0.8870     0.2020 H     1 <1>   0.0800 
 35 H        3.9090     3.5770    -1.1840 H     1 <1>   0.0800 
 36 H       -4.7890     5.9300    -1.1730 H     1 <1>   0.0800 
 37 H       -3.3230     5.0390    -1.5620 H     1 <1>   0.0800 
 38 H       -3.7560     5.3570     0.1310 H     1 <1>   0.0800 
 39 H       -5.7570    -2.6830     0.1150 H     1 <1>   0.0800 
 40 H       -4.5730    -2.0050     1.2280 H     1 <1>   0.0800 
 41 H       -4.1550    -2.2600    -0.4780 H     1 <1>   0.0800 
 42 H        5.8730     2.3820     0.7900 H     1 <1>   0.0800 
 43 H        5.9580     3.9910     0.1140 H     1 <1>   0.0800 
 44 H        6.1520     2.6010    -0.9210 H     1 <1>   0.0800 
 45 H       -8.3210     1.9210    -0.2880 H     1 <1>   0.0800 
 46 H       -7.1280     2.7290     0.7280 H     1 <1>   0.0800 
 47 H       -7.3010     0.9700     0.7900 H     1 <1>   0.0800 
@<TRIPOS>BOND
  1   1   2  2   
  2   2   3  am  
  3   2   4  1   
  4   3   5  1   
  5   3  23  1   
  6   4   6  ar  
  7   4   7  ar  
  8   5   8  1   
  9   5   9  1   
 10   5  24  1   
 11   6  10  ar  
 12   6  25  1   
 13   7  11  ar  
 14   7  26  1   
 15   8  12  1   
 16   8  27  1   
 17   8  28  1   
 18   9  13  1   
 19   9  29  1   
 20   9  30  1   
 21  10  14  1   
 22  10  15  ar  
 23  11  15  ar  
 24  11  16  1   
 25  12  17  1   
 26  12  31  1   
 27  12  32  1   
 28  13  17  1   
 29  13  33  1   
 30  13  34  1   
 31  14  18  1   
 32  15  19  1   
 33  16  20  1   
 34  17  21  1   
 35  17  35  1   
 36  18  36  1   
 37  18  37  1   
 38  18  38  1   
 39  19  22  1   
 40  20  39  1   
 41  20  40  1   
 42  20  41  1   
 43  21  42  1   
 44  21  43  1   
 45  21  44  1   
 46  22  45  1   
 47  22  46  1   
 48  22  47  1   
@<TRIPOS>SUBSTRUCTURE
  1 ****   4 GROUP 4 **** **** 0

# MOE 2024.06 (io_trps.svl 2023.06)
