@<TRIPOS>MOLECULE
NONAME
55 57 1 0 0 
SMALL
USER_CHARGES


@<TRIPOS>ATOM
  1 S       -0.3400    -0.1290    -1.9030 S.o2  1 <1>   1.4470 
  2 O       -0.0330    -1.1390    -2.8960 O.2   1 <1>  -0.6500 
  3 O       -0.9500     1.0980    -2.3730 O.2   1 <1>  -0.6500 
  4 N       -1.4580    -0.8530    -0.8520 N.am  1 <1>  -0.8490 
  5 C        1.1440     0.1320    -0.8870 C.ar  1 <1>  -0.0090 
  6 C       -1.9490     0.0890     0.1750 C.3   1 <1>   0.1960 
  7 C       -2.6020    -1.3930    -1.6120 C.3   1 <1>   0.1960 
  8 C        1.3410     1.2810    -0.1260 C.ar  1 <1>   0.0830 
  9 C        2.1250    -0.8510    -0.8370 C.ar  1 <1>  -0.1500 
 10 C       -2.9790    -0.5420     1.1320 C.3   1 <1>   0.2090 
 11 C       -3.6530    -2.0800    -0.7190 C.3   1 <1>   0.2090 
 12 O        0.3810     2.2380    -0.1430 O.3   1 <1>  -0.3630 
 13 C        2.4940     1.4290     0.6390 C.ar  1 <1>  -0.1500 
 14 C        3.2760    -0.7130    -0.0790 C.ar  1 <1>  -0.1440 
 15 N       -4.0990    -1.2140     0.4110 N.pl3 1 <1>  -0.8380 
 16 C        0.6810     3.5900     0.1310 C.3   1 <1>   0.0400 
 17 C        3.4640     0.4430     0.6670 C.ar  1 <1>  -0.1430 
 18 C        4.3050    -1.8350    -0.0860 C.3   1 <1>  -0.0970 
 19 C       -5.3010    -0.5190     0.2720 C.ar  1 <1>   0.1000 
 20 C        4.7110     0.6450     1.5160 C.3   1 <1>  -0.0970 
 21 C       -6.4340    -0.8990     0.9920 C.ar  1 <1>  -0.1430 
 22 C       -5.3920     0.5700    -0.5890 C.ar  1 <1>  -0.1500 
 23 C       -7.6190    -0.1970     0.8410 C.ar  1 <1>  -0.1500 
 24 C       -6.3760    -2.0840     1.9460 C.3   1 <1>  -0.0970 
 25 C       -6.5770     1.2660    -0.7350 C.ar  1 <1>  -0.1500 
 26 C       -7.7000     0.8850    -0.0200 C.ar  1 <1>  -0.1430 
 27 C       -9.0020     1.6480    -0.1760 C.3   1 <1>  -0.0970 
 28 H       -2.3930     0.9500    -0.2940 H     1 <1>   0.0800 
 29 H       -1.1220     0.4320     0.7700 H     1 <1>   0.0800 
 30 H       -2.2470    -2.1180    -2.3250 H     1 <1>   0.0800 
 31 H       -3.0780    -0.6020    -2.1660 H     1 <1>   0.0800 
 32 H        1.9780    -1.7490    -1.4150 H     1 <1>   0.1500 
 33 H       -3.3780     0.2210     1.7780 H     1 <1>   0.0800 
 34 H       -2.4820    -1.2680     1.7510 H     1 <1>   0.0800 
 35 H       -3.2320    -2.9840    -0.3160 H     1 <1>   0.0800 
 36 H       -4.5050    -2.3520    -1.3170 H     1 <1>   0.0800 
 37 H        2.6420     2.3140     1.2290 H     1 <1>   0.1500 
 38 H       -0.1700     4.1830    -0.1540 H     1 <1>   0.0800 
 39 H        1.5390     3.8820    -0.4480 H     1 <1>   0.0800 
 40 H        0.8670     3.7020     1.1840 H     1 <1>   0.0800 
 41 H        3.9930    -2.6430    -0.7230 H     1 <1>   0.0800 
 42 H        4.4350    -2.2220     0.9090 H     1 <1>   0.0800 
 43 H        5.2490    -1.4680    -0.4460 H     1 <1>   0.0800 
 44 H        4.6860     1.5930     2.0230 H     1 <1>   0.0800 
 45 H        5.5880     0.6200     0.8950 H     1 <1>   0.0800 
 46 H        4.7840    -0.1310     2.2560 H     1 <1>   0.0800 
 47 H       -4.5300     0.8750    -1.1480 H     1 <1>   0.1500 
 48 H       -8.4880    -0.4930     1.4000 H     1 <1>   0.1500 
 49 H       -6.0990    -2.9700     1.4040 H     1 <1>   0.0800 
 50 H       -7.3250    -2.2510     2.4210 H     1 <1>   0.0800 
 51 H       -5.6360    -1.9000     2.7040 H     1 <1>   0.0800 
 52 H       -6.6210     2.1050    -1.4060 H     1 <1>   0.1500 
 53 H       -9.8410     1.0010     0.0060 H     1 <1>   0.0800 
 54 H       -9.0890     2.0430    -1.1720 H     1 <1>   0.0800 
 55 H       -9.0310     2.4620     0.5260 H     1 <1>   0.0800 
@<TRIPOS>BOND
  1   1   2  2   
  2   1   3  2   
  3   1   4  am  
  4   1   5  1   
  5   4   6  1   
  6   4   7  1   
  7   5   8  ar  
  8   5   9  ar  
  9   6  10  1   
 10   6  28  1   
 11   6  29  1   
 12   7  11  1   
 13   7  30  1   
 14   7  31  1   
 15   8  12  1   
 16   8  13  ar  
 17   9  14  ar  
 18   9  32  1   
 19  10  15  1   
 20  10  33  1   
 21  10  34  1   
 22  11  15  1   
 23  11  35  1   
 24  11  36  1   
 25  12  16  1   
 26  13  17  ar  
 27  13  37  1   
 28  14  17  ar  
 29  14  18  1   
 30  15  19  1   
 31  16  38  1   
 32  16  39  1   
 33  16  40  1   
 34  17  20  1   
 35  18  41  1   
 36  18  42  1   
 37  18  43  1   
 38  19  21  ar  
 39  19  22  ar  
 40  20  44  1   
 41  20  45  1   
 42  20  46  1   
 43  21  23  ar  
 44  21  24  1   
 45  22  25  ar  
 46  22  47  1   
 47  23  26  ar  
 48  23  48  1   
 49  24  49  1   
 50  24  50  1   
 51  24  51  1   
 52  25  26  ar  
 53  25  52  1   
 54  26  27  1   
 55  27  53  1   
 56  27  54  1   
 57  27  55  1   
@<TRIPOS>SUBSTRUCTURE
  1 ****   6 GROUP 4 **** **** 0

# MOE 2024.06 (io_trps.svl 2023.06)
