@<TRIPOS>MOLECULE
NONAME
42 43 1 0 0 
SMALL
USER_CHARGES


@<TRIPOS>ATOM
  1 O       -2.4950     1.0080    -1.9990 O.2   1 <1>  -0.5700 
  2 C       -2.4760     0.4340    -0.9440 C.2   1 <1>   0.7200 
  3 O       -2.0900    -0.8400    -0.9170 O.3   1 <1>  -0.4300 
  4 C       -2.8350     1.1720     0.3450 C.3   1 <1>   0.1050 
  5 C       -2.1860    -1.7860     0.1290 C.3   1 <1>   0.1200 
  6 C       -1.6140     1.2050     1.1950 C.1   1 <1>   0.4520 
  7 C       -4.2140     0.9940     0.9480 C.3   1 <1>   0.1050 
  8 C       -3.7890     2.3520     0.4530 C.3   1 <1>  -0.1900 
  9 C       -0.7780    -2.2690     0.4620 C.3   1 <1>  -0.2400 
 10 N       -0.6990     1.2210     1.8690 N.1   1 <1>  -0.5570 
 11 C       -4.3240     0.6880     2.3970 C.1   1 <1>   0.4520 
 12 C       -5.2880     0.2070     0.2310 C.2   1 <1>   0.7200 
 13 C       -4.4580     2.9550    -0.8050 C.3   1 <1>  -0.0650 
 14 C       -3.5350     3.4810     1.4850 C.3   1 <1>  -0.0650 
 15 N       -4.3880     0.4470     3.5060 N.1   1 <1>  -0.5570 
 16 O       -5.0690    -0.8900    -0.2100 O.2   1 <1>  -0.5700 
 17 O       -6.4800     0.7850     0.1480 O.3   1 <1>  -0.4300 
 18 C       -3.5900     4.0640    -1.4120 C.3   1 <1>  -0.1600 
 19 C       -2.6580     4.5860     0.8830 C.3   1 <1>  -0.1600 
 20 C       -7.5990     0.1530    -0.4360 C.3   1 <1>   0.1200 
 21 C       -3.2870     5.1660    -0.3890 C.3   1 <1>  -0.1600 
 22 C       -8.2780    -0.7160     0.6200 C.3   1 <1>  -0.2400 
 23 H       -2.7900    -2.6030    -0.2290 H     1 <1>   0.0800 
 24 H       -2.6600    -1.3590     0.9930 H     1 <1>   0.0800 
 25 H       -0.3240    -2.7110    -0.4070 H     1 <1>   0.0800 
 26 H       -0.8240    -3.0130     1.2370 H     1 <1>   0.0800 
 27 H       -0.1680    -1.4550     0.8090 H     1 <1>   0.0800 
 28 H       -5.4100     3.3760    -0.5290 H     1 <1>   0.0800 
 29 H       -4.6520     2.2110    -1.5580 H     1 <1>   0.0800 
 30 H       -3.0650     3.1210     2.3850 H     1 <1>   0.0800 
 31 H       -4.4790     3.9100     1.7760 H     1 <1>   0.0800 
 32 H       -4.0950     4.4920    -2.2610 H     1 <1>   0.0800 
 33 H       -2.6630     3.6440    -1.7650 H     1 <1>   0.0800 
 34 H       -1.6850     4.1870     0.6500 H     1 <1>   0.0800 
 35 H       -2.5240     5.3720     1.6060 H     1 <1>   0.0800 
 36 H       -7.2790    -0.4310    -1.2830 H     1 <1>   0.0800 
 37 H       -8.2700     0.9240    -0.7750 H     1 <1>   0.0800 
 38 H       -4.2010     5.6770    -0.1350 H     1 <1>   0.0800 
 39 H       -2.6190     5.8880    -0.8250 H     1 <1>   0.0800 
 40 H       -7.6170    -1.4990     0.9460 H     1 <1>   0.0800 
 41 H       -9.1570    -1.1710     0.2010 H     1 <1>   0.0800 
 42 H       -8.5740    -0.1180     1.4640 H     1 <1>   0.0800 
@<TRIPOS>BOND
  1   1   2  2   
  2   2   3  1   
  3   2   4  1   
  4   3   5  1   
  5   4   6  1   
  6   4   7  1   
  7   4   8  1   
  8   5   9  1   
  9   5  23  1   
 10   5  24  1   
 11   6  10  3   
 12   7   8  1   
 13   7  11  1   
 14   7  12  1   
 15   8  13  1   
 16   8  14  1   
 17   9  25  1   
 18   9  26  1   
 19   9  27  1   
 20  11  15  3   
 21  12  16  2   
 22  12  17  1   
 23  13  18  1   
 24  13  28  1   
 25  13  29  1   
 26  14  19  1   
 27  14  30  1   
 28  14  31  1   
 29  17  20  1   
 30  18  21  1   
 31  18  32  1   
 32  18  33  1   
 33  19  21  1   
 34  19  34  1   
 35  19  35  1   
 36  20  22  1   
 37  20  36  1   
 38  20  37  1   
 39  21  38  1   
 40  21  39  1   
 41  22  40  1   
 42  22  41  1   
 43  22  42  1   
@<TRIPOS>SUBSTRUCTURE
  1 ****   7 GROUP 4 **** **** 0

# MOE 2024.06 (io_trps.svl 2023.06)
