@<TRIPOS>MOLECULE
NONAME
39 41 1 0 0 
SMALL
USER_CHARGES


@<TRIPOS>ATOM
  1 S       -0.2510     0.3060    -0.3560 S.3   1 <1>  -0.2860 
  2 C        1.3120     1.1870    -0.3830 C.2   1 <1>   0.2420 
  3 C       -1.4920     1.6810    -0.5520 C.3   1 <1>   0.1310 
  4 N        1.4000     2.4650    -0.4850 N.2   1 <1>  -0.3380 
  5 N        2.4880     0.5760    -0.3010 N.pl3 1 <1>   0.0480 
  6 C       -2.9220     1.1640    -0.5280 C.2   1 <1>   0.5690 
  7 N        2.7040     2.7380    -0.4730 N.2   1 <1>  -0.3380 
  8 C        3.3520     1.6100    -0.3550 C.2   1 <1>   0.1330 
  9 C        2.7710    -0.8730    -0.2310 C.3   1 <1>   0.0160 
 10 O       -3.8010     1.9070    -0.8970 O.2   1 <1>  -0.5700 
 11 N       -3.1760    -0.0990    -0.0900 N.am  1 <1>  -0.5790 
 12 C        4.7870     1.4750    -0.3070 C.ar  1 <1>   0.0530 
 13 C       -4.4970    -0.7360    -0.0050 C.3   1 <1>   0.0490 
 14 C        5.4250     0.8000     0.7340 C.ar  1 <1>  -0.1500 
 15 C        5.5820     2.0180    -1.3120 C.ar  1 <1>  -0.1500 
 16 C       -4.7380    -1.7040     1.1050 C.3   1 <1>  -0.2000 
 17 C       -4.5920    -2.1940    -0.3040 C.3   1 <1>  -0.2000 
 18 C        6.8010     0.6500     0.7630 C.ar  1 <1>  -0.1430 
 19 C        6.9560     1.8740    -1.2940 C.ar  1 <1>  -0.1500 
 20 C        7.5650     1.1870    -0.2590 C.ar  1 <1>  -0.1500 
 21 C        7.4790    -0.0910     1.9010 C.3   1 <1>  -0.0970 
 22 H       -1.2860     2.1630    -1.4890 H     1 <1>   0.0800 
 23 H       -1.3330     2.3730     0.2530 H     1 <1>   0.0800 
 24 H        2.0220    -1.4150    -0.7800 H     1 <1>   0.0800 
 25 H        2.7610    -1.1880     0.7960 H     1 <1>   0.0800 
 26 H        3.7350    -1.0760    -0.6610 H     1 <1>   0.0800 
 27 H       -2.3870    -0.6880     0.1820 H     1 <1>   0.3700 
 28 H       -5.3040    -0.0890    -0.3140 H     1 <1>   0.1000 
 29 H        4.8300     0.3980     1.5330 H     1 <1>   0.1500 
 30 H        5.1090     2.5600    -2.1140 H     1 <1>   0.1500 
 31 H       -5.7150    -1.7360     1.5560 H     1 <1>   0.1000 
 32 H       -3.9500    -1.8920     1.8120 H     1 <1>   0.1000 
 33 H       -3.7010    -2.7270    -0.5860 H     1 <1>   0.1000 
 34 H       -5.4690    -2.5590    -0.8090 H     1 <1>   0.1000 
 35 H        7.5520     2.2990    -2.0820 H     1 <1>   0.1500 
 36 H        8.6360     1.0770    -0.2510 H     1 <1>   0.1500 
 37 H        6.7960    -0.2570     2.7140 H     1 <1>   0.0800 
 38 H        8.3100     0.4830     2.2690 H     1 <1>   0.0800 
 39 H        7.8420    -1.0420     1.5530 H     1 <1>   0.0800 
@<TRIPOS>BOND
  1   1   2  1   
  2   1   3  1   
  3   2   4  2   
  4   2   5  1   
  5   3   6  1   
  6   3  22  1   
  7   3  23  1   
  8   4   7  1   
  9   5   8  1   
 10   5   9  1   
 11   6  10  2   
 12   6  11  am  
 13   7   8  2   
 14   8  12  1   
 15   9  24  1   
 16   9  25  1   
 17   9  26  1   
 18  11  13  1   
 19  11  27  1   
 20  12  14  ar  
 21  12  15  ar  
 22  13  16  1   
 23  13  17  1   
 24  13  28  1   
 25  14  18  ar  
 26  14  29  1   
 27  15  19  ar  
 28  15  30  1   
 29  16  17  1   
 30  16  31  1   
 31  16  32  1   
 32  17  33  1   
 33  17  34  1   
 34  18  20  ar  
 35  18  21  1   
 36  19  20  ar  
 37  19  35  1   
 38  20  36  1   
 39  21  37  1   
 40  21  38  1   
 41  21  39  1   
@<TRIPOS>SUBSTRUCTURE
  1 ****   2 GROUP 4 **** **** 0

# MOE 2024.06 (io_trps.svl 2023.06)
