@<TRIPOS>MOLECULE
NONAME
41 41 1 0 0 
SMALL
USER_CHARGES


@<TRIPOS>ATOM
  1 P       -0.2520    -0.8480    -0.9370 P.3   1 <1>   0.8390 
  2 O       -0.2660    -0.6720    -2.3890 O.2   1 <1>  -0.7000 
  3 C        1.2610    -0.1770    -0.2390 C.ar  1 <1>  -0.1390 
  4 C       -0.2930    -2.6300    -0.5550 C.3   1 <1>   0.0000 
  5 C       -1.6140     0.1030    -0.1920 C.3   1 <1>   0.0000 
  6 C        1.6380    -0.2870     1.0970 C.ar  1 <1>  -0.1500 
  7 C        2.1460     0.5160    -1.0570 C.ar  1 <1>  -0.1500 
  8 C       -0.7130    -3.0520     0.8700 C.3   1 <1>  -0.2400 
  9 C       -1.2480    -3.3860    -1.5080 C.3   1 <1>  -0.2400 
 10 C        1.0950    -3.2650    -0.7950 C.3   1 <1>  -0.2400 
 11 C       -3.0040    -0.4560    -0.5640 C.3   1 <1>  -0.2400 
 12 C       -1.5950     0.2650     1.3450 C.3   1 <1>  -0.2400 
 13 C       -1.5900     1.5460    -0.7430 C.3   1 <1>  -0.2400 
 14 C        2.8150     0.2530     1.5800 C.ar  1 <1>  -0.1500 
 15 C        3.3250     1.0610    -0.5820 C.ar  1 <1>  -0.1500 
 16 C        3.6960     0.9460     0.7550 C.ar  1 <1>  -0.1790 
 17 C        4.9370     1.5180     1.2650 C.2   1 <1>   0.9790 
 18 O        5.7090     2.1400     0.5130 O.co2 1 <1>  -0.9000 
 19 O        5.2440     1.3950     2.4660 O.co2 1 <1>  -0.9000 
 20 H        1.0120    -0.7990     1.7980 H     1 <1>   0.1500 
 21 H        1.9100     0.6360    -2.1010 H     1 <1>   0.1500 
 22 H       -0.0680    -2.6270     1.6130 H     1 <1>   0.0800 
 23 H       -0.6600    -4.1220     0.9770 H     1 <1>   0.0800 
 24 H       -1.7250    -2.7630     1.0760 H     1 <1>   0.0800 
 25 H       -2.2610    -3.0540    -1.3900 H     1 <1>   0.0800 
 26 H       -1.2230    -4.4470    -1.3320 H     1 <1>   0.0800 
 27 H       -0.9640    -3.2140    -2.5330 H     1 <1>   0.0800 
 28 H        1.4350    -3.0440    -1.7930 H     1 <1>   0.0800 
 29 H        1.0680    -4.3330    -0.6780 H     1 <1>   0.0800 
 30 H        1.8220    -2.8730    -0.1050 H     1 <1>   0.0800 
 31 H       -3.0780    -0.5830    -1.6310 H     1 <1>   0.0800 
 32 H       -3.7880     0.2100    -0.2510 H     1 <1>   0.0800 
 33 H       -3.1770    -1.4060    -0.0950 H     1 <1>   0.0800 
 34 H       -1.5930    -0.6790     1.8510 H     1 <1>   0.0800 
 35 H       -2.4600     0.8100     1.6800 H     1 <1>   0.0800 
 36 H       -0.7300     0.8220     1.6580 H     1 <1>   0.0800 
 37 H       -1.6860     1.5390    -1.8160 H     1 <1>   0.0800 
 38 H       -0.6570     2.0250    -0.5010 H     1 <1>   0.0800 
 39 H       -2.3890     2.1410    -0.3380 H     1 <1>   0.0800 
 40 H        3.0720     0.1460     2.6210 H     1 <1>   0.1500 
 41 H        3.9830     1.5910    -1.2510 H     1 <1>   0.1500 
@<TRIPOS>BOND
  1   1   2  2   
  2   1   3  1   
  3   1   4  1   
  4   1   5  1   
  5   3   6  ar  
  6   3   7  ar  
  7   4   8  1   
  8   4   9  1   
  9   4  10  1   
 10   5  11  1   
 11   5  12  1   
 12   5  13  1   
 13   6  14  ar  
 14   6  20  1   
 15   7  15  ar  
 16   7  21  1   
 17   8  22  1   
 18   8  23  1   
 19   8  24  1   
 20   9  25  1   
 21   9  26  1   
 22   9  27  1   
 23  10  28  1   
 24  10  29  1   
 25  10  30  1   
 26  11  31  1   
 27  11  32  1   
 28  11  33  1   
 29  12  34  1   
 30  12  35  1   
 31  12  36  1   
 32  13  37  1   
 33  13  38  1   
 34  13  39  1   
 35  14  16  ar  
 36  14  40  1   
 37  15  16  ar  
 38  15  41  1   
 39  16  17  1   
 40  17  18  ar  
 41  17  19  ar  
@<TRIPOS>SUBSTRUCTURE
  1 ****   3 GROUP 4 **** **** 0

# MOE 2024.06 (io_trps.svl 2023.06)
