@<TRIPOS>MOLECULE
NONAME
33 34 1 0 0 
SMALL
USER_CHARGES


@<TRIPOS>ATOM
  1 F        0.0290    -0.6380    -0.4680 F     1 <1>  -0.3400 
  2 C        0.6630    -1.7450    -0.0980 C.3   1 <1>   1.1640 
  3 F        0.3320    -2.6770    -0.9820 F     1 <1>  -0.3400 
  4 F        0.1170    -2.1140     1.0550 F     1 <1>  -0.3400 
  5 C        2.1870    -1.5580    -0.0030 C.ar  1 <1>  -0.1440 
  6 C        2.9470    -2.3150     0.8810 C.ar  1 <1>  -0.1500 
  7 C        2.8470    -0.6340    -0.8060 C.ar  1 <1>  -0.1500 
  8 C        4.3170    -2.1480     0.9610 C.ar  1 <1>  -0.1500 
  9 C        4.2180    -0.4720    -0.7210 C.ar  1 <1>  -0.1500 
 10 C        4.9930    -1.2230     0.1650 C.ar  1 <1>   0.0540 
 11 C        6.4350    -1.0530     0.2550 C.2   1 <1>   0.4620 
 12 N        7.2110    -1.7120     1.0500 N.2   1 <1>  -0.4100 
 13 N        7.1070    -0.1670    -0.5040 N.2   1 <1>  -0.5650 
 14 O        8.3750    -1.2520     0.8030 O.3   1 <1>  -0.0190 
 15 C        8.3290    -0.3320    -0.1190 C.2   1 <1>   0.3930 
 16 C        9.5640     0.3160    -0.5410 C.2   1 <1>   0.7150 
 17 O        9.5710     1.1810    -1.3990 O.2   1 <1>  -0.5700 
 18 N       10.7670    -0.0350     0.0250 N.am  1 <1>  -0.7300 
 19 C       12.0790     0.5350    -0.3050 C.3   1 <1>   0.2200 
 20 C       12.9710    -0.5910    -0.8150 C.3   1 <1>  -0.2400 
 21 C       12.6520     1.1680     0.9570 C.3   1 <1>  -0.2400 
 22 H        2.4730    -3.0460     1.5180 H     1 <1>   0.1500 
 23 H        2.2960    -0.0300    -1.5090 H     1 <1>   0.1500 
 24 H        4.8760    -2.7500     1.6580 H     1 <1>   0.1500 
 25 H        4.6980     0.2530    -1.3560 H     1 <1>   0.1500 
 26 H       10.7830    -0.7570     0.7450 H     1 <1>   0.3700 
 27 H       11.9770     1.2880    -1.0720 H     1 <1>   0.0800 
 28 H       13.0960    -1.3530    -0.0660 H     1 <1>   0.0800 
 29 H       13.9400    -0.2010    -1.0690 H     1 <1>   0.0800 
 30 H       12.5430    -1.0260    -1.7000 H     1 <1>   0.0800 
 31 H       12.7710     0.4370     1.7360 H     1 <1>   0.0800 
 32 H       12.0030     1.9540     1.3000 H     1 <1>   0.0800 
 33 H       13.6130     1.5990     0.7430 H     1 <1>   0.0800 
@<TRIPOS>BOND
  1   1   2  1   
  2   2   3  1   
  3   2   4  1   
  4   2   5  1   
  5   5   6  ar  
  6   5   7  ar  
  7   6   8  ar  
  8   6  22  1   
  9   7   9  ar  
 10   7  23  1   
 11   8  10  ar  
 12   8  24  1   
 13   9  10  ar  
 14   9  25  1   
 15  10  11  1   
 16  11  12  2   
 17  11  13  1   
 18  12  14  1   
 19  13  15  2   
 20  14  15  1   
 21  15  16  1   
 22  16  17  2   
 23  16  18  am  
 24  18  19  1   
 25  18  26  1   
 26  19  20  1   
 27  19  21  1   
 28  19  27  1   
 29  20  28  1   
 30  20  29  1   
 31  20  30  1   
 32  21  31  1   
 33  21  32  1   
 34  21  33  1   
@<TRIPOS>SUBSTRUCTURE
  1 ****  11 GROUP 4 **** **** 0

# MOE 2024.06 (io_trps.svl 2023.06)
