@<TRIPOS>MOLECULE
NONAME
34 35 1 0 0 
SMALL
USER_CHARGES


@<TRIPOS>ATOM
  1 S       -0.5400    -0.8310    -1.4290 S.3   1 <1>  -0.0800 
  2 C        0.8280    -0.2260    -0.5750 C.2   1 <1>   0.4340 
  3 C       -1.5070    -0.0850    -0.1940 C.2   1 <1>   0.4420 
  4 S        2.4350    -0.5910    -1.2630 S.3   1 <1>  -0.2860 
  5 N        0.5520     0.4300     0.4770 N.2   1 <1>  -0.3380 
  6 N       -0.7970     0.5110     0.6980 N.2   1 <1>  -0.3380 
  7 N       -2.8740    -0.2360    -0.3210 N.am  1 <1>  -0.4940 
  8 C        3.5890     0.2260    -0.0770 C.3   1 <1>   0.0700 
  9 C       -3.8920     0.3170     0.4150 C.2   1 <1>   0.5440 
 10 C        5.0200    -0.0150    -0.5600 C.3   1 <1>  -0.1600 
 11 O       -3.6560     1.1840     1.2280 O.2   1 <1>  -0.5700 
 12 C       -5.2550    -0.1190     0.1770 C.ar  1 <1>   0.0860 
 13 C        6.0380     0.6390     0.3820 C.3   1 <1>  -0.1600 
 14 C       -6.3170     0.7820     0.2680 C.ar  1 <1>  -0.1500 
 15 C       -5.5630    -1.4420    -0.1530 C.ar  1 <1>  -0.1500 
 16 C        7.4700     0.3970    -0.1030 C.3   1 <1>  -0.2400 
 17 C       -7.6210     0.3910     0.0220 C.ar  1 <1>  -0.1500 
 18 C       -6.8650    -1.8380    -0.4010 C.ar  1 <1>  -0.1500 
 19 C       -7.8960    -0.9210    -0.3170 C.ar  1 <1>  -0.1500 
 20 H       -3.1710    -0.8100    -1.1040 H     1 <1>   0.3700 
 21 H        3.4140    -0.2100     0.8910 H     1 <1>   0.0800 
 22 H        3.3430     1.2730    -0.0610 H     1 <1>   0.0800 
 23 H        5.1320     0.3930    -1.5500 H     1 <1>   0.0800 
 24 H        5.2030    -1.0750    -0.6080 H     1 <1>   0.0800 
 25 H        5.9270     0.2330     1.3730 H     1 <1>   0.0800 
 26 H        5.8560     1.6990     0.4330 H     1 <1>   0.0800 
 27 H       -6.1100     1.8040     0.5360 H     1 <1>   0.1500 
 28 H       -4.7810    -2.1770    -0.2070 H     1 <1>   0.1500 
 29 H        7.6820    -0.6570    -0.1410 H     1 <1>   0.0800 
 30 H        8.1700     0.8620     0.5690 H     1 <1>   0.0800 
 31 H        7.6110     0.8140    -1.0850 H     1 <1>   0.0800 
 32 H       -8.4210     1.1080     0.0960 H     1 <1>   0.1500 
 33 H       -7.0820    -2.8620    -0.6550 H     1 <1>   0.1500 
 34 H       -8.9110    -1.2270    -0.5090 H     1 <1>   0.1500 
@<TRIPOS>BOND
  1   1   2  1   
  2   1   3  1   
  3   2   4  1   
  4   2   5  2   
  5   3   6  2   
  6   3   7  1   
  7   4   8  1   
  8   5   6  1   
  9   7   9  am  
 10   7  20  1   
 11   8  10  1   
 12   8  21  1   
 13   8  22  1   
 14   9  11  2   
 15   9  12  1   
 16  10  13  1   
 17  10  23  1   
 18  10  24  1   
 19  12  14  ar  
 20  12  15  ar  
 21  13  16  1   
 22  13  25  1   
 23  13  26  1   
 24  14  17  ar  
 25  14  27  1   
 26  15  18  ar  
 27  15  28  1   
 28  16  29  1   
 29  16  30  1   
 30  16  31  1   
 31  17  19  ar  
 32  17  32  1   
 33  18  19  ar  
 34  18  33  1   
 35  19  34  1   
@<TRIPOS>SUBSTRUCTURE
  1 ****   3 GROUP 4 **** **** 0

# MOE 2024.06 (io_trps.svl 2023.06)
