@<TRIPOS>MOLECULE
NONAME
35 36 1 0 0 
SMALL
USER_CHARGES


@<TRIPOS>ATOM
  1 F        0.5980    -0.2650    -0.7070 F     1 <1>  -0.1900 
  2 C        1.6990    -0.8640    -0.3510 C.ar  1 <1>   0.1900 
  3 C        1.7950    -1.3850     0.9260 C.ar  1 <1>  -0.1500 
  4 C        2.7340    -0.9610    -1.2620 C.ar  1 <1>  -0.1500 
  5 C        2.9700    -2.0160     1.2970 C.ar  1 <1>  -0.1500 
  6 C        3.9000    -1.5960    -0.8740 C.ar  1 <1>  -0.1500 
  7 C        4.0450    -2.1250     0.4110 C.ar  1 <1>   0.0860 
  8 C        5.2740    -2.7750     0.8170 C.2   1 <1>   0.5440 
  9 O        5.2750    -3.9820     0.9750 O.2   1 <1>  -0.5700 
 10 N        6.4340    -2.0590     1.0370 N.am  1 <1>  -0.6600 
 11 C        7.7080    -2.7660     1.3560 C.3   1 <1>   0.1400 
 12 C        6.4220    -0.6000     1.3260 C.3   1 <1>   0.1400 
 13 C        8.3530    -3.3490     0.0940 C.3   1 <1>  -0.1600 
 14 C        6.7970     0.2490     0.1050 C.3   1 <1>  -0.1600 
 15 C        9.1680    -2.3560    -0.7510 C.3   1 <1>  -0.1600 
 16 C        8.2180     0.0260    -0.4370 C.3   1 <1>  -0.1600 
 17 C        8.3560    -1.2010    -1.3590 C.3   1 <1>  -0.1600 
 18 H        0.9670    -1.2980     1.6060 H     1 <1>   0.1500 
 19 H        2.6210    -0.5510    -2.2500 H     1 <1>   0.1500 
 20 H        3.0670    -2.4380     2.2820 H     1 <1>   0.1500 
 21 H        4.7180    -1.6920    -1.5670 H     1 <1>   0.1500 
 22 H        7.4890    -3.5710     2.0370 H     1 <1>   0.0800 
 23 H        8.4000    -2.1060     1.8480 H     1 <1>   0.0800 
 24 H        7.1030    -0.3870     2.1320 H     1 <1>   0.0800 
 25 H        5.4420    -0.3100     1.6630 H     1 <1>   0.0800 
 26 H        7.5970    -3.8190    -0.5110 H     1 <1>   0.0800 
 27 H        9.0240    -4.1280     0.4100 H     1 <1>   0.0800 
 28 H        6.7240     1.2780     0.4100 H     1 <1>   0.0800 
 29 H        6.0740     0.1120    -0.6770 H     1 <1>   0.0800 
 30 H        9.5970    -2.9160    -1.5640 H     1 <1>   0.0800 
 31 H        9.9910    -1.9700    -0.1740 H     1 <1>   0.0800 
 32 H        8.9220    -0.0150     0.3760 H     1 <1>   0.0800 
 33 H        8.4740     0.8940    -1.0210 H     1 <1>   0.0800 
 34 H        7.3930    -1.5580    -1.6820 H     1 <1>   0.0800 
 35 H        8.8780    -0.8800    -2.2440 H     1 <1>   0.0800 
@<TRIPOS>BOND
  1   1   2  1   
  2   2   3  ar  
  3   2   4  ar  
  4   3   5  ar  
  5   3  18  1   
  6   4   6  ar  
  7   4  19  1   
  8   5   7  ar  
  9   5  20  1   
 10   6   7  ar  
 11   6  21  1   
 12   7   8  1   
 13   8   9  2   
 14   8  10  am  
 15  10  11  1   
 16  10  12  1   
 17  11  13  1   
 18  11  22  1   
 19  11  23  1   
 20  12  14  1   
 21  12  24  1   
 22  12  25  1   
 23  13  15  1   
 24  13  26  1   
 25  13  27  1   
 26  14  16  1   
 27  14  28  1   
 28  14  29  1   
 29  15  17  1   
 30  15  30  1   
 31  15  31  1   
 32  16  17  1   
 33  16  32  1   
 34  16  33  1   
 35  17  34  1   
 36  17  35  1   
@<TRIPOS>SUBSTRUCTURE
  1 ****   8 GROUP 4 **** **** 0

# MOE 2024.06 (io_trps.svl 2023.06)
