@<TRIPOS>MOLECULE
NONAME
41 43 1 0 0 
SMALL
USER_CHARGES


@<TRIPOS>ATOM
  1 O        0.7770     3.5250    -2.8250 O.2   1 <1>  -0.5700 
  2 C        0.8930     3.4040    -1.6270 C.2   1 <1>   0.5690 
  3 N        1.8980     2.6420    -1.0780 N.am  1 <1>  -0.6600 
  4 C       -0.1250     4.1420    -0.7620 C.3   1 <1>   0.0440 
  5 C        2.0720     2.4020     0.3810 C.3   1 <1>   0.1400 
  6 C        2.8010     1.8390    -1.9450 C.3   1 <1>   0.1400 
  7 C       -0.9500     3.2320     0.1460 C.ar  1 <1>  -0.1440 
  8 C        3.5620     2.3910     0.7290 C.3   1 <1>  -0.1600 
  9 C        4.2260     1.8780    -1.3900 C.3   1 <1>  -0.1600 
 10 C       -1.4490     2.0290    -0.3300 C.ar  1 <1>  -0.1500 
 11 C       -1.2040     3.5990     1.4590 C.ar  1 <1>  -0.1500 
 12 C        4.2770     1.1750     0.0220 C.3   1 <1>   0.5600 
 13 C       -2.1820     1.1900     0.4940 C.ar  1 <1>  -0.1440 
 14 C       -1.9360     2.7670     2.2860 C.ar  1 <1>  -0.1500 
 15 O        4.8450     0.0430    -0.5920 O.3   1 <1>  -0.5600 
 16 O        4.2670     0.4890     1.2500 O.3   1 <1>  -0.5600 
 17 C       -2.4220     1.5640     1.8060 C.ar  1 <1>  -0.1500 
 18 C       -2.7070    -0.1280    -0.0450 C.3   1 <1>  -0.0970 
 19 C        5.9320    -0.4080     0.1220 C.3   1 <1>   0.1200 
 20 C        5.4980    -0.0730     1.5080 C.3   1 <1>   0.1200 
 21 H       -0.7990     4.6740    -1.4080 H     1 <1>   0.0800 
 22 H        0.4020     4.8740    -0.1800 H     1 <1>   0.0800 
 23 H        1.6270     1.4550     0.6410 H     1 <1>   0.0800 
 24 H        1.5890     3.1710     0.9540 H     1 <1>   0.0800 
 25 H        2.7990     2.2280    -2.9490 H     1 <1>   0.0800 
 26 H        2.4500     0.8210    -1.9770 H     1 <1>   0.0800 
 27 H        3.6160     2.3950     1.8080 H     1 <1>   0.0800 
 28 H        3.9840     3.3490     0.4870 H     1 <1>   0.0800 
 29 H        4.5700     2.8960    -1.3890 H     1 <1>   0.0800 
 30 H        4.8540     1.4370    -2.1500 H     1 <1>   0.0800 
 31 H       -1.2630     1.7360    -1.3490 H     1 <1>   0.1500 
 32 H       -0.8340     4.5320     1.8460 H     1 <1>   0.1500 
 33 H       -2.1290     3.0540     3.3050 H     1 <1>   0.1500 
 34 H       -2.9870     0.9210     2.4570 H     1 <1>   0.1500 
 35 H       -3.0870     0.0050    -1.0420 H     1 <1>   0.0800 
 36 H       -3.5020    -0.5030     0.5740 H     1 <1>   0.0800 
 37 H       -1.9130    -0.8520    -0.0690 H     1 <1>   0.0800 
 38 H        6.8120     0.1360    -0.1750 H     1 <1>   0.0800 
 39 H        6.0510    -1.4650    -0.0360 H     1 <1>   0.0800 
 40 H        5.3710    -0.9420     2.1290 H     1 <1>   0.0800 
 41 H        6.1390     0.6550     1.9740 H     1 <1>   0.0800 
@<TRIPOS>BOND
  1   1   2  2   
  2   2   3  am  
  3   2   4  1   
  4   3   5  1   
  5   3   6  1   
  6   4   7  1   
  7   4  21  1   
  8   4  22  1   
  9   5   8  1   
 10   5  23  1   
 11   5  24  1   
 12   6   9  1   
 13   6  25  1   
 14   6  26  1   
 15   7  10  ar  
 16   7  11  ar  
 17   8  12  1   
 18   8  27  1   
 19   8  28  1   
 20   9  12  1   
 21   9  29  1   
 22   9  30  1   
 23  10  13  ar  
 24  10  31  1   
 25  11  14  ar  
 26  11  32  1   
 27  12  15  1   
 28  12  16  1   
 29  13  17  ar  
 30  13  18  1   
 31  14  17  ar  
 32  14  33  1   
 33  15  19  1   
 34  16  20  1   
 35  17  34  1   
 36  18  35  1   
 37  18  36  1   
 38  18  37  1   
 39  19  20  1   
 40  19  38  1   
 41  19  39  1   
 42  20  40  1   
 43  20  41  1   
@<TRIPOS>SUBSTRUCTURE
  1 ****   5 GROUP 4 **** **** 0

# MOE 2024.06 (io_trps.svl 2023.06)
