@<TRIPOS>MOLECULE
NONAME
46 48 1 0 0 
SMALL
USER_CHARGES


@<TRIPOS>ATOM
  1 CL       0.5100    -0.9230     2.1470 Cl    1 <1>  -0.1770 
  2 C        1.7440    -1.1540     0.9350 C.ar  1 <1>   0.1770 
  3 C        2.9280    -0.4530     1.0330 C.ar  1 <1>  -0.1500 
  4 C        1.5130    -2.0380    -0.1040 C.ar  1 <1>  -0.1500 
  5 C        3.9150    -0.6290     0.0740 C.ar  1 <1>   0.1000 
  6 C        2.4940    -2.2190    -1.0640 C.ar  1 <1>  -0.1500 
  7 N        5.1050     0.0800     0.1790 N.pl3 1 <1>  -0.8380 
  8 C        3.6850    -1.5190    -0.9730 C.ar  1 <1>  -0.1500 
  9 C        5.3360     1.1470    -0.8350 C.3   1 <1>   0.2090 
 10 C        6.3200    -0.7050     0.5290 C.3   1 <1>   0.2090 
 11 C        6.5030     2.0630    -0.4080 C.3   1 <1>   0.3430 
 12 C        7.4770     0.2310     0.9400 C.3   1 <1>   0.3430 
 13 N        7.7780     1.3040    -0.0900 N.4   1 <1>  -0.9590 
 14 C        8.8970     2.2080     0.3300 C.3   1 <1>   0.4230 
 15 C        9.1760     3.2550    -0.7660 C.3   1 <1>  -0.1600 
 16 C       10.1700     1.3860     0.6090 C.3   1 <1>  -0.1600 
 17 C       10.3840     4.1410    -0.4270 C.3   1 <1>  -0.1600 
 18 C       11.3750     2.2780     0.9430 C.3   1 <1>  -0.1600 
 19 C       11.6410     3.3030    -0.1660 C.3   1 <1>  -0.0800 
 20 C       12.8170     4.2080     0.2160 C.3   1 <1>  -0.2400 
 21 H        3.0840     0.2280     1.8470 H     1 <1>   0.1500 
 22 H        0.5810    -2.5720    -0.1550 H     1 <1>   0.1500 
 23 H        2.3280    -2.9040    -1.8780 H     1 <1>   0.1500 
 24 H        4.4420    -1.6640    -1.7210 H     1 <1>   0.1500 
 25 H        4.4390     1.7360    -0.9360 H     1 <1>   0.0800 
 26 H        5.5480     0.7010    -1.7910 H     1 <1>   0.0800 
 27 H        6.6170    -1.3100    -0.3110 H     1 <1>   0.0800 
 28 H        6.0890    -1.3660     1.3470 H     1 <1>   0.0800 
 29 H        6.1900     2.6170     0.4610 H     1 <1>   0.0800 
 30 H        6.6800     2.7680    -1.2020 H     1 <1>   0.0800 
 31 H        8.3500    -0.3740     1.1100 H     1 <1>   0.0800 
 32 H        7.2110     0.6960     1.8750 H     1 <1>   0.0800 
 33 H        8.0790     0.8320    -0.9490 H     1 <1>   0.4500 
 34 H        8.6200     2.7260     1.2350 H     1 <1>   0.0800 
 35 H        8.3350     3.9110    -0.8890 H     1 <1>   0.0800 
 36 H        9.3690     2.7600    -1.7020 H     1 <1>   0.0800 
 37 H       10.4150     0.7910    -0.2530 H     1 <1>   0.0800 
 38 H       10.0250     0.7320     1.4500 H     1 <1>   0.0800 
 39 H       10.1620     4.7360     0.4420 H     1 <1>   0.0800 
 40 H       10.5700     4.8180    -1.2450 H     1 <1>   0.0800 
 41 H       12.2490     1.6610     1.0770 H     1 <1>   0.0800 
 42 H       11.1960     2.7920     1.8730 H     1 <1>   0.0800 
 43 H       11.9050     2.7770    -1.0700 H     1 <1>   0.0800 
 44 H       12.6040     4.7570     1.1160 H     1 <1>   0.0800 
 45 H       13.0190     4.9110    -0.5730 H     1 <1>   0.0800 
 46 H       13.7050     3.6220     0.3750 H     1 <1>   0.0800 
@<TRIPOS>BOND
  1   1   2  1   
  2   2   3  ar  
  3   2   4  ar  
  4   3   5  ar  
  5   3  21  1   
  6   4   6  ar  
  7   4  22  1   
  8   5   7  1   
  9   5   8  ar  
 10   6   8  ar  
 11   6  23  1   
 12   7   9  1   
 13   7  10  1   
 14   8  24  1   
 15   9  11  1   
 16   9  25  1   
 17   9  26  1   
 18  10  12  1   
 19  10  27  1   
 20  10  28  1   
 21  11  13  1   
 22  11  29  1   
 23  11  30  1   
 24  12  13  1   
 25  12  31  1   
 26  12  32  1   
 27  13  14  1   
 28  13  33  1   
 29  14  15  1   
 30  14  16  1   
 31  14  34  1   
 32  15  17  1   
 33  15  35  1   
 34  15  36  1   
 35  16  18  1   
 36  16  37  1   
 37  16  38  1   
 38  17  19  1   
 39  17  39  1   
 40  17  40  1   
 41  18  19  1   
 42  18  41  1   
 43  18  42  1   
 44  19  20  1   
 45  19  43  1   
 46  20  44  1   
 47  20  45  1   
 48  20  46  1   
@<TRIPOS>SUBSTRUCTURE
  1 ****  12 GROUP 4 **** **** 0

# MOE 2024.06 (io_trps.svl 2023.06)
