@<TRIPOS>MOLECULE
NONAME
58 61 1 0 0 
SMALL
USER_CHARGES


@<TRIPOS>ATOM
  1 O       -0.2190     0.6870     0.8500 O.2   1 <1>  -0.5700 
  2 C        0.8320     1.2960     0.9840 C.2   1 <1>   0.5440 
  3 N        0.8450     2.6220     0.6070 N.am  1 <1>  -0.6600 
  4 C        2.0250     0.6180     1.5060 C.ar  1 <1>   0.3960 
  5 C       -0.2560     3.6010     0.9780 C.3   1 <1>   0.3610 
  6 C        1.8560     3.0960    -0.3910 C.3   1 <1>   0.3200 
  7 N        2.9720     1.3310     2.1480 N.ar  1 <1>  -0.6200 
  8 C        2.1570    -0.7600     1.3280 C.ar  1 <1>  -0.1500 
  9 C       -1.3630     3.6520    -0.1090 C.2   1 <1>   0.5690 
 10 C       -0.8400     3.2740     2.3700 C.3   1 <1>  -0.1600 
 11 C        0.3620     4.9800     1.3070 C.3   1 <1>  -0.1600 
 12 C        2.5300     1.9720    -1.1680 C.2   1 <1>  -0.0400 
 13 C        4.0200     0.6680     2.5980 C.ar  1 <1>   0.1600 
 14 C        3.2580    -1.4400     1.8000 C.ar  1 <1>  -0.1500 
 15 O       -1.6350     4.7020    -0.6480 O.2   1 <1>  -0.5700 
 16 N       -1.9950     2.4820    -0.4260 N.am  1 <1>  -0.5470 
 17 C        0.2040     3.7380     3.3930 C.3   1 <1>  -0.1600 
 18 C        1.0120     4.8300     2.6860 C.3   1 <1>  -0.1600 
 19 O        1.8170     1.2330    -1.9970 O.3   1 <1>  -0.2800 
 20 C        3.8160     1.5580    -1.1610 C.2   1 <1>  -0.1500 
 21 C        4.2120    -0.6950     2.4540 C.ar  1 <1>  -0.1500 
 22 C       -3.0220     2.2410    -1.3490 C.ar  1 <1>   0.1170 
 23 C        2.6230     0.3370    -2.5300 C.2   1 <1>  -0.0100 
 24 C        3.8770     0.4830    -2.0550 C.2   1 <1>  -0.1500 
 25 C       -4.2980     2.7880    -1.1840 C.ar  1 <1>  -0.1430 
 26 C       -2.7710     1.4100    -2.4430 C.ar  1 <1>  -0.1430 
 27 C       -5.2910     2.5120    -2.1100 C.ar  1 <1>  -0.1500 
 28 C       -4.6400     3.6850     0.0000 C.3   1 <1>  -0.0970 
 29 C       -3.7770     1.1410    -3.3550 C.ar  1 <1>  -0.1500 
 30 C       -1.3910     0.8010    -2.6600 C.3   1 <1>  -0.0970 
 31 C       -5.0340     1.6910    -3.1920 C.ar  1 <1>  -0.1500 
 32 H        2.6130     3.6560     0.1290 H     1 <1>   0.0800 
 33 H        1.3770     3.7470    -1.1020 H     1 <1>   0.0800 
 34 H        1.3810    -1.2940     0.8080 H     1 <1>   0.1500 
 35 H       -1.1240     2.2480     2.5090 H     1 <1>   0.0800 
 36 H       -1.7290     3.8660     2.5060 H     1 <1>   0.0800 
 37 H       -0.4360     5.6970     1.3970 H     1 <1>   0.0800 
 38 H        1.0350     5.3590     0.5620 H     1 <1>   0.0800 
 39 H        4.7730     1.2390     3.1140 H     1 <1>   0.1500 
 40 H        3.3650    -2.5030     1.6650 H     1 <1>   0.1500 
 41 H       -1.5200     1.6430    -0.0620 H     1 <1>   0.3700 
 42 H        0.8550     2.9190     3.6530 H     1 <1>   0.0800 
 43 H       -0.2680     4.1070     4.2870 H     1 <1>   0.0800 
 44 H        0.9930     5.7590     3.2310 H     1 <1>   0.0800 
 45 H        2.0340     4.5060     2.5790 H     1 <1>   0.0800 
 46 H        4.6430     1.9450    -0.5920 H     1 <1>   0.1500 
 47 H        5.0960    -1.1620     2.8490 H     1 <1>   0.1500 
 48 H        2.2200    -0.3650    -3.2390 H     1 <1>   0.1500 
 49 H        4.7590    -0.0860    -2.2900 H     1 <1>   0.1500 
 50 H       -6.2730     2.9340    -1.9940 H     1 <1>   0.1500 
 51 H       -4.2310     4.6660    -0.1600 H     1 <1>   0.0800 
 52 H       -4.2310     3.2780     0.9070 H     1 <1>   0.0800 
 53 H       -5.7040     3.7730     0.1210 H     1 <1>   0.0800 
 54 H       -3.5880     0.5050    -4.2010 H     1 <1>   0.1500 
 55 H       -0.6740     1.5880    -2.8090 H     1 <1>   0.0800 
 56 H       -1.3780     0.1620    -3.5230 H     1 <1>   0.0800 
 57 H       -1.0980     0.2220    -1.8030 H     1 <1>   0.0800 
 58 H       -5.8110     1.4810    -3.9050 H     1 <1>   0.1500 
@<TRIPOS>BOND
  1   1   2  2   
  2   2   3  am  
  3   2   4  1   
  4   3   5  1   
  5   3   6  1   
  6   4   7  ar  
  7   4   8  ar  
  8   5   9  1   
  9   5  10  1   
 10   5  11  1   
 11   6  12  1   
 12   6  32  1   
 13   6  33  1   
 14   7  13  ar  
 15   8  14  ar  
 16   8  34  1   
 17   9  15  2   
 18   9  16  am  
 19  10  17  1   
 20  10  35  1   
 21  10  36  1   
 22  11  18  1   
 23  11  37  1   
 24  11  38  1   
 25  12  19  1   
 26  12  20  2   
 27  13  21  ar  
 28  13  39  1   
 29  14  21  ar  
 30  14  40  1   
 31  16  22  1   
 32  16  41  1   
 33  17  18  1   
 34  17  42  1   
 35  17  43  1   
 36  18  44  1   
 37  18  45  1   
 38  19  23  1   
 39  20  24  1   
 40  20  46  1   
 41  21  47  1   
 42  22  25  ar  
 43  22  26  ar  
 44  23  24  2   
 45  23  48  1   
 46  24  49  1   
 47  25  27  ar  
 48  25  28  1   
 49  26  29  ar  
 50  26  30  1   
 51  27  31  ar  
 52  27  50  1   
 53  28  51  1   
 54  28  52  1   
 55  28  53  1   
 56  29  31  ar  
 57  29  54  1   
 58  30  55  1   
 59  30  56  1   
 60  30  57  1   
 61  31  58  1   
@<TRIPOS>SUBSTRUCTURE
  1 ****   3 GROUP 4 **** **** 0

# MOE 2024.06 (io_trps.svl 2023.06)
