@<TRIPOS>MOLECULE
NONAME
28 28 1 0 0 
SMALL
USER_CHARGES


@<TRIPOS>ATOM
  1 O       -0.7020    -0.3030    -0.0730 O.2   1 <1>  -0.5700 
  2 C       -1.3290     0.6890    -0.3630 C.2   1 <1>   0.6900 
  3 N       -1.8470     1.4620     0.6200 N.am  1 <1>  -0.5470 
  4 N       -1.4680     1.0260    -1.6510 N.am  1 <1>  -0.8000 
  5 C       -2.7010     2.5680     0.5520 C.ar  1 <1>   0.1170 
  6 C       -3.8240     2.5710    -0.2680 C.ar  1 <1>  -0.1500 
  7 C       -2.4380     3.6880     1.3290 C.ar  1 <1>  -0.1500 
  8 C       -4.6620     3.6720    -0.3220 C.ar  1 <1>  -0.1500 
  9 C       -3.2730     4.7900     1.2790 C.ar  1 <1>  -0.1500 
 10 C       -4.3880     4.7940     0.4560 C.ar  1 <1>   0.0820 
 11 O       -5.1490     5.9210     0.4790 O.3   1 <1>  -0.3630 
 12 C       -6.3280     6.0680    -0.2820 C.3   1 <1>   0.2000 
 13 C       -5.9490     6.4860    -1.7050 C.3   1 <1>  -0.2400 
 14 C       -7.1670     7.1460     0.4000 C.3   1 <1>  -0.2400 
 15 H       -1.5380     1.1650     1.5430 H     1 <1>   0.3700 
 16 H       -0.9620     0.4910    -2.3530 H     1 <1>   0.3700 
 17 H       -1.8090     1.9490    -1.9110 H     1 <1>   0.3700 
 18 H       -4.0480     1.7020    -0.8600 H     1 <1>   0.1500 
 19 H       -1.5760     3.7010     1.9710 H     1 <1>   0.1500 
 20 H       -5.5160     3.6340    -0.9680 H     1 <1>   0.1500 
 21 H       -3.0660     5.6580     1.8790 H     1 <1>   0.1500 
 22 H       -6.8720     5.1400    -0.2700 H     1 <1>   0.0800 
 23 H       -5.4000     7.4100    -1.6860 H     1 <1>   0.0800 
 24 H       -6.8380     6.6280    -2.2930 H     1 <1>   0.0800 
 25 H       -5.3490     5.7310    -2.1770 H     1 <1>   0.0800 
 26 H       -6.6290     8.0760     0.4320 H     1 <1>   0.0800 
 27 H       -7.4080     6.8400     1.4020 H     1 <1>   0.0800 
 28 H       -8.0840     7.2960    -0.1400 H     1 <1>   0.0800 
@<TRIPOS>BOND
  1   1   2  2   
  2   2   3  am  
  3   2   4  am  
  4   3   5  1   
  5   3  15  1   
  6   4  16  1   
  7   4  17  1   
  8   5   6  ar  
  9   5   7  ar  
 10   6   8  ar  
 11   6  18  1   
 12   7   9  ar  
 13   7  19  1   
 14   8  10  ar  
 15   8  20  1   
 16   9  10  ar  
 17   9  21  1   
 18  10  11  1   
 19  11  12  1   
 20  12  13  1   
 21  12  14  1   
 22  12  22  1   
 23  13  23  1   
 24  13  24  1   
 25  13  25  1   
 26  14  26  1   
 27  14  27  1   
 28  14  28  1   
@<TRIPOS>SUBSTRUCTURE
  1 ****   8 GROUP 4 **** **** 0

# MOE 2024.06 (io_trps.svl 2023.06)
