@<TRIPOS>MOLECULE
NONAME
46 48 1 0 0 
SMALL
USER_CHARGES


@<TRIPOS>ATOM
  1 O        0.0020     1.4450     2.0230 O.2   1 <1>  -0.5700 
  2 C       -0.0490     1.9950     0.9420 C.2   1 <1>   0.5440 
  3 N        1.0510     2.0210     0.1160 N.am  1 <1>  -0.5470 
  4 C       -1.2720     2.6570     0.5290 C.ar  1 <1>   0.0860 
  5 C        2.2890     1.3650     0.2020 C.ar  1 <1>   0.1170 
  6 C       -1.7060     2.6560    -0.7980 C.ar  1 <1>  -0.1500 
  7 C       -2.0720     3.3200     1.4580 C.ar  1 <1>  -0.1500 
  8 C        3.3780     1.9030    -0.4760 C.ar  1 <1>  -0.1500 
  9 C        2.4750     0.1860     0.9160 C.ar  1 <1>  -0.1500 
 10 C       -2.8780     3.2860    -1.1760 C.ar  1 <1>  -0.1500 
 11 C       -3.2440     3.9540     1.0890 C.ar  1 <1>  -0.1500 
 12 C        4.6200     1.2900    -0.4460 C.ar  1 <1>  -0.1430 
 13 C        3.7110    -0.4320     0.9540 C.ar  1 <1>  -0.1500 
 14 C       -3.6610     3.9360    -0.2340 C.ar  1 <1>  -0.1430 
 15 C        4.7830     0.1190     0.2750 C.ar  1 <1>  -0.1500 
 16 C        5.8030     1.8880    -1.1860 C.3   1 <1>  -0.0970 
 17 C       -4.9600     4.6090    -0.6430 C.3   1 <1>   0.4860 
 18 N       -6.1030     3.8330    -0.0920 N.4   1 <1>  -0.9590 
 19 C       -6.1210     2.3900    -0.5140 C.3   1 <1>   0.3430 
 20 C       -7.4380     4.4780    -0.3290 C.3   1 <1>   0.3430 
 21 C       -7.2940     1.6300     0.1490 C.3   1 <1>   0.1200 
 22 C       -8.5970     3.5930     0.1870 C.3   1 <1>   0.1200 
 23 O       -8.1070     2.4920     0.9020 O.3   1 <1>  -0.5600 
 24 H        0.9920     2.6910    -0.6460 H     1 <1>   0.3700 
 25 H       -1.1200     2.1430    -1.5420 H     1 <1>   0.1500 
 26 H       -1.7590     3.3320     2.4900 H     1 <1>   0.1500 
 27 H        3.2520     2.8140    -1.0300 H     1 <1>   0.1500 
 28 H        1.6520    -0.2570     1.4460 H     1 <1>   0.1500 
 29 H       -3.1700     3.2600    -2.2140 H     1 <1>   0.1500 
 30 H       -3.8190     4.4580     1.8480 H     1 <1>   0.1500 
 31 H        3.8380    -1.3420     1.5140 H     1 <1>   0.1500 
 32 H        5.7420    -0.3670     0.3100 H     1 <1>   0.1500 
 33 H        5.4920     2.6950    -1.8240 H     1 <1>   0.0800 
 34 H        6.2750     1.1360    -1.7930 H     1 <1>   0.0800 
 35 H        6.5210     2.2650    -0.4800 H     1 <1>   0.0800 
 36 H       -5.0250     4.6550    -1.7170 H     1 <1>   0.0800 
 37 H       -4.9760     5.6160    -0.2570 H     1 <1>   0.0800 
 38 H       -5.9960     3.7900     0.9310 H     1 <1>   0.4500 
 39 H       -5.1960     1.9100    -0.2410 H     1 <1>   0.0800 
 40 H       -6.2190     2.3200    -1.5850 H     1 <1>   0.0800 
 41 H       -7.5830     4.6600    -1.3810 H     1 <1>   0.0800 
 42 H       -7.4790     5.4310     0.1740 H     1 <1>   0.0800 
 43 H       -6.9130     0.8760     0.8170 H     1 <1>   0.0800 
 44 H       -7.9020     1.1430    -0.5940 H     1 <1>   0.0800 
 45 H       -9.1970     3.2320    -0.6310 H     1 <1>   0.0800 
 46 H       -9.2330     4.1590     0.8450 H     1 <1>   0.0800 
@<TRIPOS>BOND
  1   1   2  2   
  2   2   3  am  
  3   2   4  1   
  4   3   5  1   
  5   3  24  1   
  6   4   6  ar  
  7   4   7  ar  
  8   5   8  ar  
  9   5   9  ar  
 10   6  10  ar  
 11   6  25  1   
 12   7  11  ar  
 13   7  26  1   
 14   8  12  ar  
 15   8  27  1   
 16   9  13  ar  
 17   9  28  1   
 18  10  14  ar  
 19  10  29  1   
 20  11  14  ar  
 21  11  30  1   
 22  12  15  ar  
 23  12  16  1   
 24  13  15  ar  
 25  13  31  1   
 26  14  17  1   
 27  15  32  1   
 28  16  33  1   
 29  16  34  1   
 30  16  35  1   
 31  17  18  1   
 32  17  36  1   
 33  17  37  1   
 34  18  19  1   
 35  18  20  1   
 36  18  38  1   
 37  19  21  1   
 38  19  39  1   
 39  19  40  1   
 40  20  22  1   
 41  20  41  1   
 42  20  42  1   
 43  21  23  1   
 44  21  43  1   
 45  21  44  1   
 46  22  23  1   
 47  22  45  1   
 48  22  46  1   
@<TRIPOS>SUBSTRUCTURE
  1 ****   4 GROUP 4 **** **** 0

# MOE 2024.06 (io_trps.svl 2023.06)
