@<TRIPOS>MOLECULE
NONAME
53 54 1 0 0 
SMALL
USER_CHARGES


@<TRIPOS>ATOM
  1 O        0.7700     1.5090     1.1420 O.2   1 <1>  -0.5700 
  2 C       -0.1930     2.1220     0.7540 C.2   1 <1>   0.6590 
  3 O       -0.0620     3.2210     0.0180 O.3   1 <1>  -0.4300 
  4 C       -1.6180     1.6570     1.1030 C.3   1 <1>   0.2810 
  5 C        1.2030     3.7200    -0.3650 C.3   1 <1>   0.0400 
  6 N       -2.5210     1.4760    -0.1020 N.am  1 <1>  -0.4770 
  7 C       -2.2120     2.5940     2.1750 C.3   1 <1>  -0.2400 
  8 C       -3.7610     2.1600    -0.1210 C.ar  1 <1>   0.1170 
  9 C       -2.2090     0.6030    -1.1330 C.2   1 <1>   0.5690 
 10 C       -4.8930     1.5700     0.4560 C.ar  1 <1>  -0.1440 
 11 C       -3.8810     3.4290    -0.7020 C.ar  1 <1>  -0.1440 
 12 O       -2.7930     0.6330    -2.1890 O.2   1 <1>  -0.5700 
 13 C       -1.1350    -0.4730    -0.9980 C.3   1 <1>  -0.0990 
 14 C       -6.0950     2.2560     0.4830 C.ar  1 <1>  -0.1500 
 15 C       -4.8510     0.1670     1.0490 C.3   1 <1>  -0.0970 
 16 C       -5.0920     4.0980    -0.6600 C.ar  1 <1>  -0.1500 
 17 C       -2.7160     4.1170    -1.4010 C.3   1 <1>  -0.0970 
 18 C       -1.6010    -1.6860    -0.1700 C.3   1 <1>  -0.0800 
 19 C       -6.1960     3.5190    -0.0660 C.ar  1 <1>  -0.1500 
 20 C       -0.4030    -2.5700     0.2150 C.3   1 <1>  -0.1600 
 21 C       -2.6460    -2.5160    -0.9380 C.3   1 <1>  -0.1600 
 22 C       -0.8490    -3.7910     1.0320 C.3   1 <1>  -0.1600 
 23 C       -3.1040    -3.7310    -0.1200 C.3   1 <1>  -0.1600 
 24 C       -1.9100    -4.6060     0.2820 C.3   1 <1>  -0.1600 
 25 H       -1.5130     0.6940     1.5670 H     1 <1>   0.0800 
 26 H        1.7100     2.9710    -0.9480 H     1 <1>   0.0800 
 27 H        1.7700     3.9500     0.5210 H     1 <1>   0.0800 
 28 H        1.0550     4.6090    -0.9520 H     1 <1>   0.0800 
 29 H       -2.3480     3.5850     1.7790 H     1 <1>   0.0800 
 30 H       -1.5380     2.6580     3.0110 H     1 <1>   0.0800 
 31 H       -3.1510     2.2210     2.5390 H     1 <1>   0.0800 
 32 H       -0.2400    -0.0640    -0.5840 H     1 <1>   0.0800 
 33 H       -0.8730    -0.8090    -1.9860 H     1 <1>   0.0800 
 34 H       -6.9670     1.8100     0.9280 H     1 <1>   0.1500 
 35 H       -4.0410     0.0690     1.7470 H     1 <1>   0.0800 
 36 H       -4.7200    -0.5490     0.2600 H     1 <1>   0.0800 
 37 H       -5.7650    -0.0630     1.5640 H     1 <1>   0.0800 
 38 H       -5.1860     5.0770    -1.0960 H     1 <1>   0.1500 
 39 H       -2.0950     3.3990    -1.9060 H     1 <1>   0.0800 
 40 H       -2.1270     4.6560    -0.6840 H     1 <1>   0.0800 
 41 H       -3.0760     4.8100    -2.1400 H     1 <1>   0.0800 
 42 H       -2.0550    -1.3340     0.7400 H     1 <1>   0.0800 
 43 H       -7.1330     4.0460    -0.0390 H     1 <1>   0.1500 
 44 H        0.3030    -1.9980     0.7930 H     1 <1>   0.0800 
 45 H        0.0980    -2.9070    -0.6770 H     1 <1>   0.0800 
 46 H       -2.2210    -2.8590    -1.8670 H     1 <1>   0.0800 
 47 H       -3.5000    -1.9100    -1.1830 H     1 <1>   0.0800 
 48 H       -1.2550    -3.4600     1.9730 H     1 <1>   0.0800 
 49 H        0.0030    -4.4150     1.2420 H     1 <1>   0.0800 
 50 H       -3.7980    -4.3130    -0.7010 H     1 <1>   0.0800 
 51 H       -3.6140    -3.3930     0.7650 H     1 <1>   0.0800 
 52 H       -2.2490    -5.4170     0.9030 H     1 <1>   0.0800 
 53 H       -1.4680    -5.0320    -0.6040 H     1 <1>   0.0800 
@<TRIPOS>BOND
  1   1   2  2   
  2   2   3  1   
  3   2   4  1   
  4   3   5  1   
  5   4   6  1   
  6   4   7  1   
  7   4  25  1   
  8   5  26  1   
  9   5  27  1   
 10   5  28  1   
 11   6   8  1   
 12   6   9  am  
 13   7  29  1   
 14   7  30  1   
 15   7  31  1   
 16   8  10  ar  
 17   8  11  ar  
 18   9  12  2   
 19   9  13  1   
 20  10  14  ar  
 21  10  15  1   
 22  11  16  ar  
 23  11  17  1   
 24  13  18  1   
 25  13  32  1   
 26  13  33  1   
 27  14  19  ar  
 28  14  34  1   
 29  15  35  1   
 30  15  36  1   
 31  15  37  1   
 32  16  19  ar  
 33  16  38  1   
 34  17  39  1   
 35  17  40  1   
 36  17  41  1   
 37  18  20  1   
 38  18  21  1   
 39  18  42  1   
 40  19  43  1   
 41  20  22  1   
 42  20  44  1   
 43  20  45  1   
 44  21  23  1   
 45  21  46  1   
 46  21  47  1   
 47  22  24  1   
 48  22  48  1   
 49  22  49  1   
 50  23  24  1   
 51  23  50  1   
 52  23  51  1   
 53  24  52  1   
 54  24  53  1   
@<TRIPOS>SUBSTRUCTURE
  1 ****   6 GROUP 4 **** **** 0

# MOE 2024.06 (io_trps.svl 2023.06)
