@<TRIPOS>MOLECULE
NONAME
49 51 1 0 0 
SMALL
USER_CHARGES


@<TRIPOS>ATOM
  1 CL      -0.5260     1.8960    -1.2630 Cl    1 <1>  -0.1770 
  2 C       -2.0350     1.8190    -0.3900 C.ar  1 <1>   0.1770 
  3 C       -2.5800     0.5860    -0.0860 C.ar  1 <1>  -0.1500 
  4 C       -2.6630     2.9920    -0.0160 C.ar  1 <1>  -0.1500 
  5 C       -3.7780     0.5270     0.6060 C.ar  1 <1>  -0.1500 
  6 C       -3.8600     2.9280     0.6770 C.ar  1 <1>  -0.1500 
  7 C       -4.4210     1.6970     0.9910 C.ar  1 <1>  -0.1430 
  8 C       -5.7370     1.6290     1.7450 C.3   1 <1>   0.2840 
  9 N       -6.8240     1.6350     0.7550 N.am  1 <1>  -0.7300 
 10 C       -8.1200     1.3860     1.0570 C.2   1 <1>   0.5690 
 11 O       -8.4660     1.1600     2.1910 O.2   1 <1>  -0.5700 
 12 C       -9.1510     1.3880    -0.0710 C.3   1 <1>  -0.0190 
 13 C      -10.3640     2.2770     0.2650 C.3   1 <1>  -0.1600 
 14 C       -9.6170    -0.0430    -0.3950 C.3   1 <1>  -0.1600 
 15 C      -11.4180     2.2430    -0.8450 C.3   1 <1>   0.1400 
 16 C      -10.6660    -0.0560    -1.5090 C.3   1 <1>   0.1400 
 17 N      -11.8000     0.8340    -1.1370 N.am  1 <1>  -0.6600 
 18 C      -13.0980     0.3650    -1.0650 C.2   1 <1>   0.5440 
 19 O      -13.3370    -0.7830    -1.3890 O.2   1 <1>  -0.5700 
 20 C      -14.1850     1.2150    -0.6170 C.ar  1 <1>   0.0860 
 21 C      -14.5600     1.2990     0.7280 C.ar  1 <1>  -0.1430 
 22 C      -14.8790     1.9930    -1.5430 C.ar  1 <1>  -0.1500 
 23 C      -15.5840     2.1480     1.1160 C.ar  1 <1>  -0.1500 
 24 C      -13.8510     0.4510     1.7760 C.3   1 <1>  -0.0970 
 25 C      -15.9000     2.8380    -1.1530 C.ar  1 <1>  -0.1500 
 26 C      -16.2520     2.9180     0.1810 C.ar  1 <1>  -0.1500 
 27 H       -2.0710    -0.3120    -0.3890 H     1 <1>   0.1500 
 28 H       -2.2170     3.9380    -0.2640 H     1 <1>   0.1500 
 29 H       -4.2080    -0.4310     0.8440 H     1 <1>   0.1500 
 30 H       -4.3540     3.8390     0.9700 H     1 <1>   0.1500 
 31 H       -5.8430     2.4770     2.4000 H     1 <1>   0.0800 
 32 H       -5.7920     0.7320     2.3380 H     1 <1>   0.0800 
 33 H       -6.5200     1.8010    -0.2040 H     1 <1>   0.3700 
 34 H       -8.6810     1.7920    -0.9500 H     1 <1>   0.0800 
 35 H      -10.0380     3.2900     0.4160 H     1 <1>   0.0800 
 36 H      -10.8160     1.9420     1.1830 H     1 <1>   0.0800 
 37 H      -10.0410    -0.4950     0.4850 H     1 <1>   0.0800 
 38 H       -8.7750    -0.6410    -0.6950 H     1 <1>   0.0800 
 39 H      -11.0190     2.6860    -1.7410 H     1 <1>   0.0800 
 40 H      -12.2710     2.8240    -0.5410 H     1 <1>   0.0800 
 41 H      -11.0060    -1.0660    -1.6660 H     1 <1>   0.0800 
 42 H      -10.2350     0.2940    -2.4310 H     1 <1>   0.0800 
 43 H      -14.6060     1.9250    -2.5820 H     1 <1>   0.1500 
 44 H      -15.8710     2.2140     2.1510 H     1 <1>   0.1500 
 45 H      -12.8050     0.6980     1.8100 H     1 <1>   0.0800 
 46 H      -13.9490    -0.5920     1.5290 H     1 <1>   0.0800 
 47 H      -14.2700     0.6070     2.7530 H     1 <1>   0.0800 
 48 H      -16.4230     3.4300    -1.8850 H     1 <1>   0.1500 
 49 H      -17.0470     3.5740     0.4910 H     1 <1>   0.1500 
@<TRIPOS>BOND
  1   1   2  1   
  2   2   3  ar  
  3   2   4  ar  
  4   3   5  ar  
  5   3  27  1   
  6   4   6  ar  
  7   4  28  1   
  8   5   7  ar  
  9   5  29  1   
 10   6   7  ar  
 11   6  30  1   
 12   7   8  1   
 13   8   9  1   
 14   8  31  1   
 15   8  32  1   
 16   9  10  am  
 17   9  33  1   
 18  10  11  2   
 19  10  12  1   
 20  12  13  1   
 21  12  14  1   
 22  12  34  1   
 23  13  15  1   
 24  13  35  1   
 25  13  36  1   
 26  14  16  1   
 27  14  37  1   
 28  14  38  1   
 29  15  17  1   
 30  15  39  1   
 31  15  40  1   
 32  16  17  1   
 33  16  41  1   
 34  16  42  1   
 35  17  18  am  
 36  18  19  2   
 37  18  20  1   
 38  20  21  ar  
 39  20  22  ar  
 40  21  23  ar  
 41  21  24  1   
 42  22  25  ar  
 43  22  43  1   
 44  23  26  ar  
 45  23  44  1   
 46  24  45  1   
 47  24  46  1   
 48  24  47  1   
 49  25  26  ar  
 50  25  48  1   
 51  26  49  1   
@<TRIPOS>SUBSTRUCTURE
  1 ****  12 GROUP 4 **** **** 0

# MOE 2024.06 (io_trps.svl 2023.06)
