@<TRIPOS>MOLECULE
NONAME
56 58 1 0 0 
SMALL
USER_CHARGES


@<TRIPOS>ATOM
  1 O       -0.8530    -1.8640     2.0050 O.2   1 <1>  -0.5700 
  2 C       -0.1660    -1.9630     1.0160 C.2   1 <1>   0.5690 
  3 N       -0.6180    -1.6260    -0.2280 N.am  1 <1>  -0.7300 
  4 C        1.2550    -2.5300     1.1510 C.3   1 <1>   0.1710 
  5 C       -1.9240    -1.0260    -0.5820 C.3   1 <1>   0.2200 
  6 N        2.3610    -1.5340     1.2370 N.3   1 <1>  -0.8100 
  7 C       -2.0220     0.3690     0.0580 C.3   1 <1>  -0.1600 
  8 C       -3.0630    -1.9610    -0.1470 C.3   1 <1>  -0.1600 
  9 C        3.6620    -2.2170     1.4300 C.3   1 <1>   0.1100 
 10 C        2.4300    -0.6300     0.0640 C.3   1 <1>   0.1100 
 11 C       -3.1300     1.2650    -0.5140 C.3   1 <1>  -0.1600 
 12 C       -4.3370    -1.8690    -1.0040 C.3   1 <1>  -0.1600 
 13 C        4.8360    -1.2270     1.5500 C.3   1 <1>   0.2090 
 14 C        3.5900     0.3780     0.1670 C.3   1 <1>   0.2090 
 15 C       -4.5400     0.6560    -0.4640 C.3   1 <1>  -0.1600 
 16 C       -4.7380    -0.4680    -1.4920 C.3   1 <1>  -0.1600 
 17 N        4.8900    -0.3230     0.3660 N.pl3 1 <1>  -0.8380 
 18 C        6.0330     0.4600     0.2430 C.ar  1 <1>   0.1000 
 19 C        6.9100     0.2340    -0.8070 C.ar  1 <1>  -0.1500 
 20 C        6.3240     1.4710     1.1520 C.ar  1 <1>  -0.1500 
 21 C        8.0550     0.9950    -0.9600 C.ar  1 <1>   0.0820 
 22 C        7.4660     2.2390     1.0110 C.ar  1 <1>  -0.1500 
 23 O        8.8520     0.6990    -2.0200 O.3   1 <1>  -0.3620 
 24 C        8.3340     2.0050    -0.0420 C.ar  1 <1>  -0.1500 
 25 C       10.0410     1.4160    -2.2630 C.3   1 <1>   0.0400 
 26 H        0.0170    -1.7350    -1.0160 H     1 <1>   0.3700 
 27 H        1.4350    -3.1890     0.3210 H     1 <1>   0.0800 
 28 H        1.2680    -3.1280     2.0450 H     1 <1>   0.0800 
 29 H       -1.9470    -0.9230    -1.6540 H     1 <1>   0.0800 
 30 H       -1.0850     0.8790    -0.0820 H     1 <1>   0.0800 
 31 H       -2.1740     0.2630     1.1180 H     1 <1>   0.0800 
 32 H       -3.3140    -1.7510     0.8780 H     1 <1>   0.0800 
 33 H       -2.7220    -2.9800    -0.1820 H     1 <1>   0.0800 
 34 H        3.8550    -2.8750     0.6000 H     1 <1>   0.0800 
 35 H        3.6210    -2.8100     2.3270 H     1 <1>   0.0800 
 36 H        1.5150    -0.0710    -0.0130 H     1 <1>   0.0800 
 37 H        2.5580    -1.2070    -0.8360 H     1 <1>   0.0800 
 38 H       -2.8900     1.5280    -1.5300 H     1 <1>   0.0800 
 39 H       -3.1380     2.1790     0.0530 H     1 <1>   0.0800 
 40 H       -5.1490    -2.2790    -0.4270 H     1 <1>   0.0800 
 41 H       -4.2200    -2.5000    -1.8680 H     1 <1>   0.0800 
 42 H        5.7610    -1.7720     1.6210 H     1 <1>   0.0800 
 43 H        4.7170    -0.6450     2.4460 H     1 <1>   0.0800 
 44 H        3.4060     1.0430     0.9930 H     1 <1>   0.0800 
 45 H        3.6390     0.9650    -0.7330 H     1 <1>   0.0800 
 46 H       -5.2390     1.4410    -0.6960 H     1 <1>   0.0800 
 47 H       -4.7720     0.3100     0.5300 H     1 <1>   0.0800 
 48 H       -5.7800    -0.5040    -1.7620 H     1 <1>   0.0800 
 49 H       -4.1980    -0.2300    -2.3920 H     1 <1>   0.0800 
 50 H        6.6900    -0.5450    -1.5100 H     1 <1>   0.1500 
 51 H        5.6500     1.6520     1.9680 H     1 <1>   0.1500 
 52 H        7.6790     3.0190     1.7210 H     1 <1>   0.1500 
 53 H        9.2130     2.6140    -0.1300 H     1 <1>   0.1500 
 54 H       10.5010     1.0110    -3.1460 H     1 <1>   0.0800 
 55 H       10.6990     1.2960    -1.4200 H     1 <1>   0.0800 
 56 H        9.7980     2.4520    -2.4200 H     1 <1>   0.0800 
@<TRIPOS>BOND
  1   1   2  2   
  2   2   3  am  
  3   2   4  1   
  4   3   5  1   
  5   3  26  1   
  6   4   6  1   
  7   4  27  1   
  8   4  28  1   
  9   5   7  1   
 10   5   8  1   
 11   5  29  1   
 12   6   9  1   
 13   6  10  1   
 14   7  11  1   
 15   7  30  1   
 16   7  31  1   
 17   8  12  1   
 18   8  32  1   
 19   8  33  1   
 20   9  13  1   
 21   9  34  1   
 22   9  35  1   
 23  10  14  1   
 24  10  36  1   
 25  10  37  1   
 26  11  15  1   
 27  11  38  1   
 28  11  39  1   
 29  12  16  1   
 30  12  40  1   
 31  12  41  1   
 32  13  17  1   
 33  13  42  1   
 34  13  43  1   
 35  14  17  1   
 36  14  44  1   
 37  14  45  1   
 38  15  16  1   
 39  15  46  1   
 40  15  47  1   
 41  16  48  1   
 42  16  49  1   
 43  17  18  1   
 44  18  19  ar  
 45  18  20  ar  
 46  19  21  ar  
 47  19  50  1   
 48  20  22  ar  
 49  20  51  1   
 50  21  23  1   
 51  21  24  ar  
 52  22  24  ar  
 53  22  52  1   
 54  23  25  1   
 55  24  53  1   
 56  25  54  1   
 57  25  55  1   
 58  25  56  1   
@<TRIPOS>SUBSTRUCTURE
  1 ****  10 GROUP 4 **** **** 0

# MOE 2024.06 (io_trps.svl 2023.06)
