@<TRIPOS>MOLECULE
NONAME
42 43 1 0 0 
SMALL
USER_CHARGES


@<TRIPOS>ATOM
  1 O       -1.5180    -0.1130     2.3310 O.2   1 <1>  -0.5700 
  2 C       -2.2770    -0.6550     1.5510 C.2   1 <1>   0.7060 
  3 O       -3.4990    -0.1400     1.4400 O.3   1 <1>  -0.2330 
  4 C       -1.9380    -1.8090     0.7590 C.2   1 <1>  -0.1240 
  5 C       -4.4460    -0.6290     0.6130 C.ar  1 <1>   0.0820 
  6 C       -2.8620    -2.3690    -0.0690 C.2   1 <1>  -0.1670 
  7 C       -0.5090    -2.3380     0.9250 C.3   1 <1>  -0.1020 
  8 C       -4.1620    -1.7550    -0.1800 C.ar  1 <1>   0.0280 
  9 C       -5.6820     0.0130     0.5700 C.ar  1 <1>  -0.1440 
 10 C       -2.6090    -3.6360    -0.8900 C.3   1 <1>  -0.1020 
 11 C       -5.1740    -2.2040    -1.0360 C.ar  1 <1>  -0.1500 
 12 C       -6.6450    -0.4530    -0.3150 C.ar  1 <1>   0.0830 
 13 C       -5.9700     1.2020     1.4870 C.3   1 <1>  -0.0960 
 14 C       -6.3940    -1.5670    -1.1000 C.ar  1 <1>  -0.1500 
 15 O       -7.8440     0.1500    -0.4320 O.3   1 <1>  -0.3620 
 16 C       -7.9190     1.2930    -1.2720 C.3   1 <1>   0.2610 
 17 C       -8.8150     2.3590    -0.6260 C.2   1 <1>   0.6590 
 18 C       -8.4030     0.8350    -2.6560 C.3   1 <1>  -0.2400 
 19 O       -9.9980     2.4400    -0.8480 O.2   1 <1>  -0.5700 
 20 O       -8.1960     3.2110     0.1890 O.3   1 <1>  -0.4300 
 21 C       -8.8760     4.2230     0.8990 C.3   1 <1>   0.1200 
 22 C       -9.3950     3.6360     2.2100 C.3   1 <1>  -0.2400 
 23 H        0.1710    -1.5330     1.1440 H     1 <1>   0.0800 
 24 H       -0.1450    -2.8090     0.0320 H     1 <1>   0.0800 
 25 H       -0.4720    -3.0400     1.7380 H     1 <1>   0.0800 
 26 H       -3.3940    -4.3500    -0.7120 H     1 <1>   0.0800 
 27 H       -1.6900    -4.1270    -0.6370 H     1 <1>   0.0800 
 28 H       -2.5860    -3.3960    -1.9380 H     1 <1>   0.0800 
 29 H       -5.0180    -3.0580    -1.6670 H     1 <1>   0.1500 
 30 H       -5.4380     1.1110     2.4170 H     1 <1>   0.0800 
 31 H       -7.0170     1.2560     1.7230 H     1 <1>   0.0800 
 32 H       -5.6720     2.1170     1.0080 H     1 <1>   0.0800 
 33 H       -7.1650    -1.9260    -1.7590 H     1 <1>   0.1500 
 34 H       -6.9310     1.7090    -1.3630 H     1 <1>   0.0800 
 35 H       -7.6980     0.1540    -3.0950 H     1 <1>   0.0800 
 36 H       -9.3640     0.3580    -2.5710 H     1 <1>   0.0800 
 37 H       -8.5030     1.6860    -3.3060 H     1 <1>   0.0800 
 38 H       -9.6800     4.6080     0.2930 H     1 <1>   0.0800 
 39 H       -8.1730     5.0150     1.0940 H     1 <1>   0.0800 
 40 H      -10.1040     2.8520     2.0110 H     1 <1>   0.0800 
 41 H       -9.8900     4.4020     2.7780 H     1 <1>   0.0800 
 42 H       -8.5800     3.2480     2.7940 H     1 <1>   0.0800 
@<TRIPOS>BOND
  1   1   2  2   
  2   2   3  1   
  3   2   4  1   
  4   3   5  1   
  5   4   6  2   
  6   4   7  1   
  7   5   8  ar  
  8   5   9  ar  
  9   6   8  1   
 10   6  10  1   
 11   7  23  1   
 12   7  24  1   
 13   7  25  1   
 14   8  11  ar  
 15   9  12  ar  
 16   9  13  1   
 17  10  26  1   
 18  10  27  1   
 19  10  28  1   
 20  11  14  ar  
 21  11  29  1   
 22  12  14  ar  
 23  12  15  1   
 24  13  30  1   
 25  13  31  1   
 26  13  32  1   
 27  14  33  1   
 28  15  16  1   
 29  16  17  1   
 30  16  18  1   
 31  16  34  1   
 32  17  19  2   
 33  17  20  1   
 34  18  35  1   
 35  18  36  1   
 36  18  37  1   
 37  20  21  1   
 38  21  22  1   
 39  21  38  1   
 40  21  39  1   
 41  22  40  1   
 42  22  41  1   
 43  22  42  1   
@<TRIPOS>SUBSTRUCTURE
  1 ****   9 GROUP 4 **** **** 0

# MOE 2024.06 (io_trps.svl 2023.06)
