@<TRIPOS>MOLECULE
NONAME
51 54 1 0 0 
SMALL
USER_CHARGES


@<TRIPOS>ATOM
  1 O        0.4110    -8.4100    -0.9540 O.2   1 <1>  -0.5700 
  2 C        1.2880    -7.5830    -0.8980 C.2   1 <1>   0.5690 
  3 N        2.4590    -7.9470    -0.3190 N.am  1 <1>  -0.7300 
  4 C        1.0030    -6.1760    -1.4690 C.3   1 <1>   0.1710 
  5 C        3.7910    -7.3280    -0.1910 C.3   1 <1>   0.3000 
  6 N       -0.1320    -5.4140    -0.8540 N.3   1 <1>  -0.8100 
  7 C        3.7470    -6.0810     0.7140 C.3   1 <1>  -0.1600 
  8 C        4.3810    -6.9760    -1.5720 C.3   1 <1>  -0.1600 
  9 C        4.7030    -8.3780     0.4730 C.3   1 <1>  -0.1600 
 10 C       -1.4500    -5.9890    -1.2280 C.3   1 <1>   0.1100 
 11 C       -0.0120    -5.3170     0.6230 C.3   1 <1>   0.1100 
 12 C        5.1650    -5.5010     0.8790 C.3   1 <1>  -0.0800 
 13 C        5.7980    -6.3950    -1.4030 C.3   1 <1>  -0.0800 
 14 C        6.1290    -7.8210     0.6510 C.3   1 <1>  -0.0800 
 15 C       -2.6320    -5.1560    -0.6770 C.3   1 <1>   0.3430 
 16 C       -1.2290    -4.6160     1.2760 C.3   1 <1>   0.3430 
 17 C        5.7310    -5.1400    -0.5090 C.3   1 <1>  -0.1600 
 18 C        6.0710    -6.5610     1.5340 C.3   1 <1>  -0.1600 
 19 C        6.6990    -7.4460    -0.7290 C.3   1 <1>  -0.1600 
 20 N       -2.1570    -4.0610     0.2350 N.4   1 <1>  -0.9590 
 21 C       -3.2650    -3.2390     0.7980 C.3   1 <1>   0.2630 
 22 H        2.4600    -8.9180    -0.0050 H     1 <1>   0.3700 
 23 H        0.8120    -6.2910    -2.5210 H     1 <1>   0.0800 
 24 H        1.8820    -5.5720    -1.3890 H     1 <1>   0.0800 
 25 H        3.3530    -6.3460     1.6790 H     1 <1>   0.0800 
 26 H        3.1220    -5.3210     0.2920 H     1 <1>   0.0800 
 27 H        3.7770    -6.2520    -2.0800 H     1 <1>   0.0800 
 28 H        4.4270    -7.8600    -2.1830 H     1 <1>   0.0800 
 29 H        4.7460    -9.2640    -0.1350 H     1 <1>   0.0800 
 30 H        4.3090    -8.6490     1.4370 H     1 <1>   0.0800 
 31 H       -1.5400    -6.9920    -0.8470 H     1 <1>   0.0800 
 32 H       -1.5310    -6.0460    -2.3000 H     1 <1>   0.0800 
 33 H        0.8790    -4.7650     0.8680 H     1 <1>   0.0800 
 34 H        0.0870    -6.2980     1.0560 H     1 <1>   0.0800 
 35 H        5.1320    -4.6210     1.4990 H     1 <1>   0.0800 
 36 H        6.2040    -6.1350    -2.3660 H     1 <1>   0.0800 
 37 H        6.7570    -8.5630     1.1160 H     1 <1>   0.0800 
 38 H       -3.3060    -5.8120    -0.1510 H     1 <1>   0.0800 
 39 H       -3.1710    -4.7290    -1.5070 H     1 <1>   0.0800 
 40 H       -0.8760    -3.8260     1.9180 H     1 <1>   0.0800 
 41 H       -1.7550    -5.3280     1.8900 H     1 <1>   0.0800 
 42 H        6.7160    -4.7220    -0.4000 H     1 <1>   0.0800 
 43 H        5.1120    -4.3930    -0.9740 H     1 <1>   0.0800 
 44 H        7.0630    -6.1620     1.6640 H     1 <1>   0.0800 
 45 H        5.6930    -6.8140     2.5090 H     1 <1>   0.0800 
 46 H        7.6950    -7.0540    -0.6170 H     1 <1>   0.0800 
 47 H        6.7640    -8.3240    -1.3490 H     1 <1>   0.0800 
 48 H       -1.5400    -3.4920    -0.3670 H     1 <1>   0.4500 
 49 H       -3.9020    -3.8460     1.4220 H     1 <1>   0.0800 
 50 H       -3.8590    -2.8200     0.0020 H     1 <1>   0.0800 
 51 H       -2.8680    -2.4310     1.3910 H     1 <1>   0.0800 
@<TRIPOS>BOND
  1   1   2  2   
  2   2   3  am  
  3   2   4  1   
  4   3   5  1   
  5   3  22  1   
  6   4   6  1   
  7   4  23  1   
  8   4  24  1   
  9   5   7  1   
 10   5   8  1   
 11   5   9  1   
 12   6  10  1   
 13   6  11  1   
 14   7  12  1   
 15   7  25  1   
 16   7  26  1   
 17   8  13  1   
 18   8  27  1   
 19   8  28  1   
 20   9  14  1   
 21   9  29  1   
 22   9  30  1   
 23  10  15  1   
 24  10  31  1   
 25  10  32  1   
 26  11  16  1   
 27  11  33  1   
 28  11  34  1   
 29  12  17  1   
 30  12  18  1   
 31  12  35  1   
 32  13  17  1   
 33  13  19  1   
 34  13  36  1   
 35  14  18  1   
 36  14  19  1   
 37  14  37  1   
 38  15  20  1   
 39  15  38  1   
 40  15  39  1   
 41  16  20  1   
 42  16  40  1   
 43  16  41  1   
 44  17  42  1   
 45  17  43  1   
 46  18  44  1   
 47  18  45  1   
 48  19  46  1   
 49  19  47  1   
 50  20  21  1   
 51  20  48  1   
 52  21  49  1   
 53  21  50  1   
 54  21  51  1   
@<TRIPOS>SUBSTRUCTURE
  1 ****   3 GROUP 4 **** **** 0

# MOE 2024.06 (io_trps.svl 2023.06)
