@<TRIPOS>MOLECULE
NONAME
35 36 1 0 0 
SMALL
USER_CHARGES


@<TRIPOS>ATOM
  1 F        0.4010    -0.0810    -0.7510 F     1 <1>  -0.1900 
  2 C        1.4970    -0.7340    -0.4630 C.ar  1 <1>   0.1900 
  3 C        2.7250    -0.0890    -0.5350 C.ar  1 <1>  -0.1440 
  4 C        1.3610    -2.0590    -0.0990 C.ar  1 <1>  -0.1500 
  5 C        3.8720    -0.8260    -0.2260 C.ar  1 <1>   0.1170 
  6 C        2.8240     1.3840    -0.9350 C.3   1 <1>  -0.0960 
  7 C        2.4990    -2.7810     0.2070 C.ar  1 <1>  -0.1500 
  8 N        5.1340    -0.2150    -0.3110 N.am  1 <1>  -0.5470 
  9 C        3.7370    -2.1660     0.1390 C.ar  1 <1>  -0.1500 
 10 C        6.3110    -0.4790     0.3360 C.2   1 <1>   0.5690 
 11 O        6.4320    -1.3470     1.1670 O.2   1 <1>  -0.5700 
 12 C        7.5180     0.3930    -0.0130 C.3   1 <1>  -0.0190 
 13 C        8.7210    -0.4560    -0.4700 C.3   1 <1>  -0.1600 
 14 C        7.9120     1.2960     1.1720 C.3   1 <1>  -0.1600 
 15 C        9.9330     0.4220    -0.8100 C.3   1 <1>  -0.1600 
 16 C        9.1250     2.1740     0.8330 C.3   1 <1>  -0.1600 
 17 C       10.3150     1.3220     0.3720 C.3   1 <1>  -0.1600 
 18 H        0.3870    -2.5120    -0.0560 H     1 <1>   0.1500 
 19 H        1.8560     1.8490    -0.9900 H     1 <1>   0.0800 
 20 H        3.2910     1.4720    -1.9000 H     1 <1>   0.0800 
 21 H        3.4020     1.9270    -0.2090 H     1 <1>   0.0800 
 22 H        2.4260    -3.8150     0.4950 H     1 <1>   0.1500 
 23 H        5.1560     0.6000    -0.9190 H     1 <1>   0.3700 
 24 H        4.6130    -2.7450     0.3730 H     1 <1>   0.1500 
 25 H        7.2440     1.0310    -0.8340 H     1 <1>   0.0800 
 26 H        8.4450    -1.0410    -1.3300 H     1 <1>   0.0800 
 27 H        8.9910    -1.1410     0.3170 H     1 <1>   0.0800 
 28 H        8.1490     0.6780     2.0220 H     1 <1>   0.0800 
 29 H        7.0800     1.9210     1.4450 H     1 <1>   0.0800 
 30 H        9.7050     1.0340    -1.6660 H     1 <1>   0.0800 
 31 H       10.7690    -0.2050    -1.0680 H     1 <1>   0.0800 
 32 H        9.4090     2.7460     1.7000 H     1 <1>   0.0800 
 33 H        8.8610     2.8680     0.0530 H     1 <1>   0.0800 
 34 H       11.1310     1.9630     0.0890 H     1 <1>   0.0800 
 35 H       10.6480     0.7070     1.1920 H     1 <1>   0.0800 
@<TRIPOS>BOND
  1   1   2  1   
  2   2   3  ar  
  3   2   4  ar  
  4   3   5  ar  
  5   3   6  1   
  6   4   7  ar  
  7   4  18  1   
  8   5   8  1   
  9   5   9  ar  
 10   6  19  1   
 11   6  20  1   
 12   6  21  1   
 13   7   9  ar  
 14   7  22  1   
 15   8  10  am  
 16   8  23  1   
 17   9  24  1   
 18  10  11  2   
 19  10  12  1   
 20  12  13  1   
 21  12  14  1   
 22  12  25  1   
 23  13  15  1   
 24  13  26  1   
 25  13  27  1   
 26  14  16  1   
 27  14  28  1   
 28  14  29  1   
 29  15  17  1   
 30  15  30  1   
 31  15  31  1   
 32  16  17  1   
 33  16  32  1   
 34  16  33  1   
 35  17  34  1   
 36  17  35  1   
@<TRIPOS>SUBSTRUCTURE
  1 ****   8 GROUP 4 **** **** 0

# MOE 2024.06 (io_trps.svl 2023.06)
