@<TRIPOS>MOLECULE
NONAME
43 44 1 0 0 
SMALL
USER_CHARGES


@<TRIPOS>ATOM
  1 BR      -0.9410    -0.2620     0.2390 Br    1 <1>  -0.1110 
  2 C       -1.7640     1.4850     0.2250 C.ar  1 <1>   0.1110 
  3 C       -2.2890     1.9960    -0.9530 C.ar  1 <1>  -0.1440 
  4 C       -1.8060     2.1830     1.4170 C.ar  1 <1>  -0.1500 
  5 C       -2.8700     3.2530    -0.9100 C.ar  1 <1>  -0.1500 
  6 C       -2.2420     1.2100    -2.2550 C.3   1 <1>  -0.0960 
  7 C       -2.3890     3.4360     1.4320 C.ar  1 <1>  -0.1500 
  8 C       -2.9240     3.9910     0.2720 C.ar  1 <1>   0.1990 
  9 N       -3.4990     5.2630     0.3190 N.am  1 <1>  -0.6930 
 10 S       -3.1950     6.4970    -0.8530 S.o2  1 <1>   1.3330 
 11 C       -4.6290     5.5430     1.2690 C.3   1 <1>   0.2570 
 12 O       -3.6460     7.7350    -0.2650 O.2   1 <1>  -0.6500 
 13 O       -3.7440     6.0440    -2.1080 O.2   1 <1>  -0.6500 
 14 C       -1.4160     6.5300    -0.9270 C.3   1 <1>  -0.1350 
 15 C       -5.4520     4.3170     1.6890 C.2   1 <1>   0.5690 
 16 O       -5.3740     3.9820     2.8500 O.2   1 <1>  -0.5700 
 17 N       -6.2440     3.6370     0.7910 N.am  1 <1>  -0.6600 
 18 C       -7.0000     2.4190     1.1960 C.3   1 <1>   0.1400 
 19 C       -6.3730     3.9740    -0.6570 C.3   1 <1>   0.1400 
 20 C       -8.4830     2.5920     0.8540 C.3   1 <1>  -0.1600 
 21 C       -7.8510     4.1610    -1.0160 C.3   1 <1>  -0.1600 
 22 C       -8.6870     2.9340    -0.6280 C.3   1 <1>  -0.1600 
 23 H       -1.3950     1.7510     2.3120 H     1 <1>   0.1500 
 24 H       -3.2970     3.6610    -1.8060 H     1 <1>   0.1500 
 25 H       -1.2210     0.9960    -2.5190 H     1 <1>   0.0800 
 26 H       -2.6910     1.7660    -3.0580 H     1 <1>   0.0800 
 27 H       -2.7740     0.2820    -2.1430 H     1 <1>   0.0800 
 28 H       -2.4350     3.9890     2.3530 H     1 <1>   0.1500 
 29 H       -5.3100     6.2470     0.8270 H     1 <1>   0.0800 
 30 H       -4.2250     6.0020     2.1530 H     1 <1>   0.0800 
 31 H       -1.0110     6.7380     0.0440 H     1 <1>   0.0800 
 32 H       -1.0920     7.2930    -1.6060 H     1 <1>   0.0800 
 33 H       -1.0390     5.5860    -1.2650 H     1 <1>   0.0800 
 34 H       -6.8940     2.2370     2.2520 H     1 <1>   0.0800 
 35 H       -6.5980     1.5690     0.6710 H     1 <1>   0.0800 
 36 H       -5.9560     3.1690    -1.2390 H     1 <1>   0.0800 
 37 H       -5.8370     4.8710    -0.9050 H     1 <1>   0.0800 
 38 H       -8.8890     3.3770     1.4690 H     1 <1>   0.0800 
 39 H       -9.0100     1.6850     1.0930 H     1 <1>   0.0800 
 40 H       -7.9380     4.3390    -2.0730 H     1 <1>   0.0800 
 41 H       -8.2240     5.0310    -0.5050 H     1 <1>   0.0800 
 42 H       -9.7290     3.1280    -0.8180 H     1 <1>   0.0800 
 43 H       -8.3890     2.0940    -1.2320 H     1 <1>   0.0800 
@<TRIPOS>BOND
  1   1   2  1   
  2   2   3  ar  
  3   2   4  ar  
  4   3   5  ar  
  5   3   6  1   
  6   4   7  ar  
  7   4  23  1   
  8   5   8  ar  
  9   5  24  1   
 10   6  25  1   
 11   6  26  1   
 12   6  27  1   
 13   7   8  ar  
 14   7  28  1   
 15   8   9  1   
 16   9  10  am  
 17   9  11  1   
 18  10  12  2   
 19  10  13  2   
 20  10  14  1   
 21  11  15  1   
 22  11  29  1   
 23  11  30  1   
 24  14  31  1   
 25  14  32  1   
 26  14  33  1   
 27  15  16  2   
 28  15  17  am  
 29  17  18  1   
 30  17  19  1   
 31  18  20  1   
 32  18  34  1   
 33  18  35  1   
 34  19  21  1   
 35  19  36  1   
 36  19  37  1   
 37  20  22  1   
 38  20  38  1   
 39  20  39  1   
 40  21  22  1   
 41  21  40  1   
 42  21  41  1   
 43  22  42  1   
 44  22  43  1   
@<TRIPOS>SUBSTRUCTURE
  1 ****   8 GROUP 4 **** **** 0

# MOE 2024.06 (io_trps.svl 2023.06)
