@<TRIPOS>MOLECULE
NONAME
38 39 1 0 0 
SMALL
USER_CHARGES


@<TRIPOS>ATOM
  1 S        0.6770    -0.0400    -0.7990 S.o2  1 <1>   1.4470 
  2 O        1.5140    -0.6300    -1.8220 O.2   1 <1>  -0.6500 
  3 O        0.2390     1.3310    -0.9460 O.2   1 <1>  -0.6500 
  4 N        1.5670    -0.1500     0.6360 N.am  1 <1>  -0.8490 
  5 C       -0.7450    -1.1250    -0.4920 C.ar  1 <1>  -0.0090 
  6 C        2.8850     0.5040     0.5170 C.3   1 <1>   0.3370 
  7 C        0.9250     0.4500     1.8030 C.3   1 <1>   0.1960 
  8 C       -0.5680    -2.4170    -0.0100 C.ar  1 <1>  -0.1500 
  9 C       -2.0460    -0.6940    -0.7330 C.ar  1 <1>  -0.1500 
 10 C        3.9850    -0.2650     1.2970 C.2   1 <1>   0.5690 
 11 C        2.6600     1.9430     0.9970 C.3   1 <1>  -0.1600 
 12 C        1.4470     1.8780     1.9190 C.3   1 <1>  -0.1600 
 13 C       -1.6470    -3.2500     0.2280 C.ar  1 <1>  -0.1500 
 14 C       -3.1310    -1.5200    -0.4980 C.ar  1 <1>  -0.1500 
 15 O        4.3920     0.1430     2.3600 O.2   1 <1>  -0.5700 
 16 N        4.5160    -1.4100     0.7960 N.am  1 <1>  -0.7300 
 17 C       -2.9320    -2.8010    -0.0160 C.ar  1 <1>  -0.1500 
 18 C        4.0760    -2.1690    -0.3820 C.3   1 <1>   0.2780 
 19 C        4.6670    -3.5560    -0.2640 C.2   1 <1>  -0.2880 
 20 C        5.5600    -4.0900    -1.1030 C.2   1 <1>  -0.3000 
 21 H        3.2100     0.5330    -0.5080 H     1 <1>   0.0800 
 22 H        1.2260    -0.1040     2.6770 H     1 <1>   0.0800 
 23 H       -0.1510     0.4220     1.7340 H     1 <1>   0.0800 
 24 H        0.4300    -2.7750     0.1810 H     1 <1>   0.1500 
 25 H       -2.2120     0.3010    -1.1100 H     1 <1>   0.1500 
 26 H        2.4360     2.5640     0.1470 H     1 <1>   0.0800 
 27 H        3.5260     2.3510     1.4890 H     1 <1>   0.0800 
 28 H        1.7190     2.0900     2.9390 H     1 <1>   0.0800 
 29 H        0.6940     2.5800     1.6050 H     1 <1>   0.0800 
 30 H       -1.4880    -4.2470     0.6020 H     1 <1>   0.1500 
 31 H       -4.1300    -1.1680    -0.6910 H     1 <1>   0.1500 
 32 H        5.2510    -1.8560     1.3460 H     1 <1>   0.3700 
 33 H       -3.7740    -3.4460     0.1680 H     1 <1>   0.1500 
 34 H        4.4230    -1.6830    -1.2790 H     1 <1>   0.0800 
 35 H        3.0020    -2.2300    -0.4090 H     1 <1>   0.0800 
 36 H        4.2840    -4.0890     0.5890 H     1 <1>   0.1500 
 37 H        5.9650    -5.0820    -0.9970 H     1 <1>   0.1500 
 38 H        5.9630    -3.5850    -1.9650 H     1 <1>   0.1500 
@<TRIPOS>BOND
  1   1   2  2   
  2   1   3  2   
  3   1   4  am  
  4   1   5  1   
  5   4   6  1   
  6   4   7  1   
  7   5   8  ar  
  8   5   9  ar  
  9   6  10  1   
 10   6  11  1   
 11   6  21  1   
 12   7  12  1   
 13   7  22  1   
 14   7  23  1   
 15   8  13  ar  
 16   8  24  1   
 17   9  14  ar  
 18   9  25  1   
 19  10  15  2   
 20  10  16  am  
 21  11  12  1   
 22  11  26  1   
 23  11  27  1   
 24  12  28  1   
 25  12  29  1   
 26  13  17  ar  
 27  13  30  1   
 28  14  17  ar  
 29  14  31  1   
 30  16  18  1   
 31  16  32  1   
 32  17  33  1   
 33  18  19  1   
 34  18  34  1   
 35  18  35  1   
 36  19  20  2   
 37  19  36  1   
 38  20  37  1   
 39  20  38  1   
@<TRIPOS>SUBSTRUCTURE
  1 ****   4 GROUP 4 **** **** 0

# MOE 2024.06 (io_trps.svl 2023.06)
