@<TRIPOS>MOLECULE
NONAME
39 41 1 0 0 
SMALL
USER_CHARGES


@<TRIPOS>ATOM
  1 O       -0.4930     1.3680    -2.4840 O.2   1 <1>  -0.5700 
  2 C       -1.2720     1.8900    -1.7000 C.2   1 <1>   0.6160 
  3 N       -2.6140     1.7330    -1.8320 N.am  1 <1>  -0.5470 
  4 C       -0.9970     2.7120    -0.5610 C.2   1 <1>  -0.0140 
  5 C       -3.2540     2.4210    -0.8200 C.ar  1 <1>   0.1170 
  6 C       -2.2920     3.0310    -0.0250 C.ar  1 <1>   0.0280 
  7 C        0.2160     3.1120    -0.0770 C.2   1 <1>  -0.0500 
  8 C       -4.6070     2.5490    -0.5500 C.ar  1 <1>  -0.1500 
  9 C       -2.6960     3.7890     1.0700 C.ar  1 <1>  -0.1500 
 10 N        1.4120     2.7750    -0.6300 N.pl3 1 <1>  -0.8690 
 11 C       -4.9980     3.3050     0.5410 C.ar  1 <1>  -0.1500 
 12 C       -4.0460     3.9210     1.3470 C.ar  1 <1>  -0.1500 
 13 C        2.7500     3.1530    -0.1380 C.3   1 <1>   0.2890 
 14 C        3.5930     1.8900     0.1410 C.3   1 <1>  -0.0800 
 15 C        3.4060     4.0470    -1.1930 C.3   1 <1>  -0.1600 
 16 C        5.0320     2.2760     0.5310 C.3   1 <1>  -0.1600 
 17 C        2.9780     1.0100     1.2420 C.3   1 <1>  -0.2400 
 18 C        4.8410     4.4250    -0.7980 C.3   1 <1>  -0.1600 
 19 C        5.6850     3.1730    -0.5300 C.3   1 <1>  -0.1600 
 20 H       -3.0240     1.1810    -2.5820 H     1 <1>   0.3700 
 21 H        0.2520     3.7340     0.8020 H     1 <1>   0.1500 
 22 H       -5.3320     2.0670    -1.1800 H     1 <1>   0.1500 
 23 H       -1.9600     4.2650     1.6930 H     1 <1>   0.1500 
 24 H        1.4220     2.1750    -1.4720 H     1 <1>   0.4000 
 25 H       -6.0440     3.4180     0.7710 H     1 <1>   0.1500 
 26 H       -4.3650     4.5060     2.1930 H     1 <1>   0.1500 
 27 H        2.6450     3.7120     0.7770 H     1 <1>   0.0800 
 28 H        3.6390     1.3140    -0.7680 H     1 <1>   0.0800 
 29 H        3.4260     3.5270    -2.1350 H     1 <1>   0.0800 
 30 H        2.8200     4.9400    -1.3120 H     1 <1>   0.0800 
 31 H        5.0220     2.7950     1.4740 H     1 <1>   0.0800 
 32 H        5.6250     1.3850     0.6520 H     1 <1>   0.0800 
 33 H        2.8910     1.5600     2.1620 H     1 <1>   0.0800 
 34 H        3.5870     0.1400     1.4120 H     1 <1>   0.0800 
 35 H        1.9960     0.6790     0.9500 H     1 <1>   0.0800 
 36 H        5.2910     5.0030    -1.5860 H     1 <1>   0.0800 
 37 H        4.8180     5.0370     0.0880 H     1 <1>   0.0800 
 38 H        6.6680     3.4650    -0.2000 H     1 <1>   0.0800 
 39 H        5.7980     2.6170    -1.4450 H     1 <1>   0.0800 
@<TRIPOS>BOND
  1   1   2  2   
  2   2   3  am  
  3   2   4  1   
  4   3   5  1   
  5   3  20  1   
  6   4   6  1   
  7   4   7  2   
  8   5   6  ar  
  9   5   8  ar  
 10   6   9  ar  
 11   7  10  1   
 12   7  21  1   
 13   8  11  ar  
 14   8  22  1   
 15   9  12  ar  
 16   9  23  1   
 17  10  13  1   
 18  10  24  1   
 19  11  12  ar  
 20  11  25  1   
 21  12  26  1   
 22  13  14  1   
 23  13  15  1   
 24  13  27  1   
 25  14  16  1   
 26  14  17  1   
 27  14  28  1   
 28  15  18  1   
 29  15  29  1   
 30  15  30  1   
 31  16  19  1   
 32  16  31  1   
 33  16  32  1   
 34  17  33  1   
 35  17  34  1   
 36  17  35  1   
 37  18  19  1   
 38  18  36  1   
 39  18  37  1   
 40  19  38  1   
 41  19  39  1   
@<TRIPOS>SUBSTRUCTURE
  1 ****   7 GROUP 4 **** **** 0

# MOE 2024.06 (io_trps.svl 2023.06)
