@<TRIPOS>MOLECULE
NONAME
26 26 1 0 0 
SMALL
USER_CHARGES


@<TRIPOS>ATOM
  1 F       -0.4580    -1.1740     1.3380 F     1 <1>  -0.3400 
  2 C       -0.5960    -1.1260     0.0160 C.3   1 <1>   1.0200 
  3 F       -0.6130    -2.3940    -0.3910 F     1 <1>  -0.3400 
  4 F        0.5520    -0.6360    -0.4410 F     1 <1>  -0.3400 
  5 C       -1.8910    -0.3260    -0.4320 C.3   1 <1>   0.6210 
  6 O       -3.0190    -1.0810    -0.0150 O.3   1 <1>  -0.5600 
  7 O       -2.0990    -0.3040    -1.8130 O.3   1 <1>  -0.6800 
  8 C       -1.9130     1.1290     0.1420 C.2   1 <1>   0.3280 
  9 C       -4.1900    -0.3780     0.2730 C.3   1 <1>   0.1200 
 10 N       -2.7930     1.5200     0.9750 N.2   1 <1>  -0.6960 
 11 C       -0.8540     2.1300    -0.3780 C.3   1 <1>   0.7410 
 12 C       -3.9080     0.6600     1.3640 C.3   1 <1>   0.0860 
 13 F       -0.1750     1.6510    -1.4210 F     1 <1>  -0.3400 
 14 F       -1.4880     3.1750    -0.9170 F     1 <1>  -0.3400 
 15 C        0.1480     2.6200     0.6920 C.3   1 <1>   0.6800 
 16 F       -0.4620     3.3110     1.6620 F     1 <1>  -0.3400 
 17 F        0.6530     1.5630     1.3380 F     1 <1>  -0.3400 
 18 C        1.3050     3.4440     0.0800 C.3   1 <1>   0.6000 
 19 F        2.2430     3.7370     0.9810 F     1 <1>  -0.3400 
 20 F        0.8960     4.6310    -0.3630 F     1 <1>  -0.3400 
 21 H       -2.3610    -1.2070    -2.0780 H     1 <1>   0.4000 
 22 H       -4.9300    -1.0840     0.6080 H     1 <1>   0.0800 
 23 H       -4.5440     0.0980    -0.6260 H     1 <1>   0.0800 
 24 H       -3.6920     0.1820     2.3050 H     1 <1>   0.0800 
 25 H       -4.7850     1.2710     1.4930 H     1 <1>   0.0800 
 26 H        1.7870     2.9430    -0.7390 H     1 <1>   0.0800 
@<TRIPOS>BOND
  1   1   2  1   
  2   2   3  1   
  3   2   4  1   
  4   2   5  1   
  5   5   6  1   
  6   5   7  1   
  7   5   8  1   
  8   6   9  1   
  9   7  21  1   
 10   8  10  2   
 11   8  11  1   
 12   9  12  1   
 13   9  22  1   
 14   9  23  1   
 15  10  12  1   
 16  11  13  1   
 17  11  14  1   
 18  11  15  1   
 19  12  24  1   
 20  12  25  1   
 21  15  16  1   
 22  15  17  1   
 23  15  18  1   
 24  18  19  1   
 25  18  20  1   
 26  18  26  1   
@<TRIPOS>SUBSTRUCTURE
  1 ****   8 GROUP 4 **** **** 0

# MOE 2024.06 (io_trps.svl 2023.06)
