@<TRIPOS>MOLECULE
NONAME
27 28 1 0 0 
SMALL
USER_CHARGES


@<TRIPOS>ATOM
  1 CL      -0.2360    -0.9220    -0.5730 Cl    1 <1>  -0.1770 
  2 C        1.4660    -1.3040    -0.5360 C.ar  1 <1>   0.1770 
  3 C        2.2880    -0.6410     0.3580 C.ar  1 <1>  -0.1500 
  4 C        1.9630    -2.2640    -1.4000 C.ar  1 <1>  -0.1500 
  5 C        3.6400    -0.9410     0.3920 C.ar  1 <1>  -0.1500 
  6 C        3.3140    -2.5660    -1.3670 C.ar  1 <1>  -0.1500 
  7 C        4.1420    -1.9040    -0.4750 C.ar  1 <1>   0.1020 
  8 S        5.8860    -2.3570    -0.4980 S.3   1 <1>  -0.3320 
  9 C        6.7260    -1.3100     0.7950 C.3   1 <1>   0.1310 
 10 C        8.2180    -1.5950     0.8800 C.2   1 <1>   0.5690 
 11 O        8.8640    -0.9710     1.6880 O.2   1 <1>  -0.5700 
 12 N        8.7770    -2.5260     0.0610 N.am  1 <1>  -0.5790 
 13 C       10.1940    -2.9100     0.0240 C.3   1 <1>   0.0490 
 14 C       10.7860    -3.2760    -1.2960 C.3   1 <1>  -0.2000 
 15 C       10.5260    -4.3360    -0.2680 C.3   1 <1>  -0.2000 
 16 H        1.8690     0.1000     1.0160 H     1 <1>   0.1500 
 17 H        1.3000    -2.7640    -2.0840 H     1 <1>   0.1500 
 18 H        4.2710    -0.4230     1.0870 H     1 <1>   0.1500 
 19 H        3.7250    -3.3080    -2.0290 H     1 <1>   0.1500 
 20 H        6.2600    -1.5290     1.7370 H     1 <1>   0.0800 
 21 H        6.5670    -0.2820     0.5290 H     1 <1>   0.0800 
 22 H        8.1680    -3.0160    -0.5990 H     1 <1>   0.3700 
 23 H       10.8010    -2.3710     0.7350 H     1 <1>   0.1000 
 24 H       11.8070    -3.0000    -1.4950 H     1 <1>   0.1000 
 25 H       10.1660    -3.2320    -2.1730 H     1 <1>   0.1000 
 26 H        9.7230    -5.0340    -0.4260 H     1 <1>   0.1000 
 27 H       11.3690    -4.7800     0.2310 H     1 <1>   0.1000 
@<TRIPOS>BOND
  1   1   2  1   
  2   2   3  ar  
  3   2   4  ar  
  4   3   5  ar  
  5   3  16  1   
  6   4   6  ar  
  7   4  17  1   
  8   5   7  ar  
  9   5  18  1   
 10   6   7  ar  
 11   6  19  1   
 12   7   8  1   
 13   8   9  1   
 14   9  10  1   
 15   9  20  1   
 16   9  21  1   
 17  10  11  2   
 18  10  12  am  
 19  12  13  1   
 20  12  22  1   
 21  13  14  1   
 22  13  15  1   
 23  13  23  1   
 24  14  15  1   
 25  14  24  1   
 26  14  25  1   
 27  15  26  1   
 28  15  27  1   
@<TRIPOS>SUBSTRUCTURE
  1 ****   8 GROUP 4 **** **** 0

# MOE 2024.06 (io_trps.svl 2023.06)
