@<TRIPOS>MOLECULE
NONAME
54 56 1 0 0 
SMALL
USER_CHARGES


@<TRIPOS>ATOM
  1 O       -2.1470    -0.0660     2.1850 O.2   1 <1>  -0.5700 
  2 C       -2.9160    -0.7430     1.5360 C.2   1 <1>   0.7060 
  3 O       -4.1470    -0.2740     1.3180 O.3   1 <1>  -0.2330 
  4 C       -2.5750    -2.0170     0.9930 C.2   1 <1>  -0.1360 
  5 C       -5.0730    -0.9580     0.6090 C.ar  1 <1>   0.0820 
  6 C       -3.4570    -2.7480     0.2760 C.2   1 <1>  -0.1670 
  7 C       -4.7740    -2.2140     0.0610 C.ar  1 <1>   0.0280 
  8 C       -6.3200    -0.3810     0.4450 C.ar  1 <1>  -0.1500 
  9 C       -3.0760    -4.1070    -0.2960 C.3   1 <1>  -0.1020 
 10 C       -5.7850    -2.8570    -0.6590 C.ar  1 <1>  -0.1500 
 11 C       -7.3090    -1.0400    -0.2720 C.ar  1 <1>   0.0830 
 12 C       -7.0340    -2.2900    -0.8300 C.ar  1 <1>  -0.1430 
 13 O       -8.5450    -0.5180    -0.4550 O.3   1 <1>  -0.3630 
 14 C       -8.0880    -3.0530    -1.6270 C.3   1 <1>  -0.0170 
 15 C       -8.9690     0.6660     0.1980 C.3   1 <1>   0.1810 
 16 C       -8.8940    -3.9790    -0.7130 C.3   1 <1>  -0.2400 
 17 C      -10.4290     0.9580    -0.1200 C.2   1 <1>   0.4230 
 18 O      -10.6830     2.0690    -0.5170 O.2   1 <1>  -0.5700 
 19 C      -11.4420    -0.0610     0.0660 C.ar  1 <1>   0.0860 
 20 C      -12.7110     0.1020    -0.4920 C.ar  1 <1>  -0.1500 
 21 C      -11.2230    -1.2350     0.7920 C.ar  1 <1>  -0.1500 
 22 C      -13.7040    -0.8480    -0.3470 C.ar  1 <1>   0.0830 
 23 C      -12.2000    -2.2010     0.9510 C.ar  1 <1>   0.0830 
 24 O      -14.8960    -0.5960    -0.9420 O.3   1 <1>  -0.3630 
 25 C      -13.4710    -2.0060     0.3990 C.ar  1 <1>   0.0830 
 26 O      -11.8340    -3.2960     1.6710 O.3   1 <1>  -0.3630 
 27 C      -15.2450    -1.4280    -2.0260 C.3   1 <1>   0.0400 
 28 O      -14.4640    -2.9070     0.6010 O.3   1 <1>  -0.3630 
 29 C      -12.2100    -4.5800     1.2220 C.3   1 <1>   0.0400 
 30 C      -15.4670    -2.5260     1.5160 C.3   1 <1>   0.0400 
 31 H       -1.5740    -2.3460     1.1970 H     1 <1>   0.1500 
 32 H       -6.4840     0.5840     0.8840 H     1 <1>   0.1500 
 33 H       -3.1650    -4.0960    -1.3680 H     1 <1>   0.0800 
 34 H       -3.7200    -4.8710     0.1030 H     1 <1>   0.0800 
 35 H       -2.0610    -4.3580    -0.0450 H     1 <1>   0.0800 
 36 H       -5.5910    -3.8210    -1.0910 H     1 <1>   0.1500 
 37 H       -7.6100    -3.6380    -2.3930 H     1 <1>   0.0800 
 38 H       -8.7530    -2.3680    -2.1240 H     1 <1>   0.0800 
 39 H       -8.8430     0.5400     1.2580 H     1 <1>   0.0800 
 40 H       -8.3570     1.4770    -0.1500 H     1 <1>   0.0800 
 41 H       -8.2460    -4.7000    -0.2480 H     1 <1>   0.0800 
 42 H       -9.3790    -3.4070     0.0570 H     1 <1>   0.0800 
 43 H       -9.6440    -4.5000    -1.2800 H     1 <1>   0.0800 
 44 H      -12.9280     0.9920    -1.0570 H     1 <1>   0.1500 
 45 H      -10.2700    -1.4210     1.2510 H     1 <1>   0.1500 
 46 H      -14.4520    -1.4020    -2.7530 H     1 <1>   0.0800 
 47 H      -15.3970    -2.4310    -1.6720 H     1 <1>   0.0800 
 48 H      -16.1530    -1.0510    -2.4590 H     1 <1>   0.0800 
 49 H      -13.2030    -4.7960     1.5710 H     1 <1>   0.0800 
 50 H      -11.5190    -5.2940     1.6320 H     1 <1>   0.0800 
 51 H      -12.1720    -4.6050     0.1470 H     1 <1>   0.0800 
 52 H      -15.9750    -1.6550     1.1420 H     1 <1>   0.0800 
 53 H      -16.1610    -3.3420     1.6160 H     1 <1>   0.0800 
 54 H      -15.0070    -2.3130     2.4650 H     1 <1>   0.0800 
@<TRIPOS>BOND
  1   1   2  2   
  2   2   3  1   
  3   2   4  1   
  4   3   5  1   
  5   4   6  2   
  6   4  31  1   
  7   5   7  ar  
  8   5   8  ar  
  9   6   7  1   
 10   6   9  1   
 11   7  10  ar  
 12   8  11  ar  
 13   8  32  1   
 14   9  33  1   
 15   9  34  1   
 16   9  35  1   
 17  10  12  ar  
 18  10  36  1   
 19  11  12  ar  
 20  11  13  1   
 21  12  14  1   
 22  13  15  1   
 23  14  16  1   
 24  14  37  1   
 25  14  38  1   
 26  15  17  1   
 27  15  39  1   
 28  15  40  1   
 29  16  41  1   
 30  16  42  1   
 31  16  43  1   
 32  17  18  2   
 33  17  19  1   
 34  19  20  ar  
 35  19  21  ar  
 36  20  22  ar  
 37  20  44  1   
 38  21  23  ar  
 39  21  45  1   
 40  22  24  1   
 41  22  25  ar  
 42  23  25  ar  
 43  23  26  1   
 44  24  27  1   
 45  25  28  1   
 46  26  29  1   
 47  27  46  1   
 48  27  47  1   
 49  27  48  1   
 50  28  30  1   
 51  29  49  1   
 52  29  50  1   
 53  29  51  1   
 54  30  52  1   
 55  30  53  1   
 56  30  54  1   
@<TRIPOS>SUBSTRUCTURE
  1 ****  13 GROUP 4 **** **** 0

# MOE 2024.06 (io_trps.svl 2023.06)
