@<TRIPOS>MOLECULE
NONAME
42 44 1 0 0 
SMALL
USER_CHARGES


@<TRIPOS>ATOM
  1 S       -0.0550     0.1020    -0.2920 S.o2  1 <1>   1.3330 
  2 O        0.4250    -0.6050     0.8740 O.2   1 <1>  -0.6500 
  3 O        0.2420    -0.4020    -1.6140 O.2   1 <1>  -0.6500 
  4 N       -1.7410     0.2100    -0.1560 N.am  1 <1>  -0.8490 
  5 C        0.4700     1.8220    -0.2170 C.3   1 <1>  -0.0550 
  6 C       -2.3940    -0.9350    -0.8120 C.3   1 <1>   0.1960 
  7 C       -2.1960     0.3380     1.2300 C.3   1 <1>   0.1960 
  8 C        1.9910     2.0290    -0.3310 C.3   1 <1>  -0.2400 
  9 C       -3.9000    -1.0140    -0.5050 C.3   1 <1>  -0.1600 
 10 C       -3.6710     0.7680     1.2590 C.3   1 <1>  -0.1600 
 11 C       -4.4580     0.3250     0.0060 C.3   1 <1>  -0.0190 
 12 C       -5.9600     0.2570     0.2700 C.2   1 <1>   0.5690 
 13 O       -6.3750    -0.5580     1.0540 O.2   1 <1>  -0.5700 
 14 N       -6.7630     1.1340    -0.4020 N.am  1 <1>  -0.4940 
 15 C       -8.1340     1.2790    -0.3490 C.2   1 <1>   0.4420 
 16 S       -8.8180     2.5150    -1.3520 S.3   1 <1>  -0.0800 
 17 N       -9.0270     0.6500     0.3240 N.2   1 <1>  -0.3380 
 18 C      -10.3670     2.0540    -0.7370 C.2   1 <1>   0.2930 
 19 N      -10.3000     1.0980     0.0970 N.2   1 <1>  -0.3380 
 20 C      -11.5810     2.8140    -1.2450 C.3   1 <1>  -0.0150 
 21 C      -11.9090     4.1700    -0.6960 C.3   1 <1>  -0.2000 
 22 C      -12.7900     2.9990    -0.3800 C.3   1 <1>  -0.2000 
 23 H        0.1380     2.2490     0.7090 H     1 <1>   0.0800 
 24 H       -0.0090     2.3610    -1.0120 H     1 <1>   0.0800 
 25 H       -1.9210    -1.8550    -0.5030 H     1 <1>   0.0800 
 26 H       -2.2560    -0.8400    -1.8770 H     1 <1>   0.0800 
 27 H       -1.6030     1.0660     1.7590 H     1 <1>   0.0800 
 28 H       -2.0780    -0.6090     1.7330 H     1 <1>   0.0800 
 29 H        2.4950     1.5170     0.4710 H     1 <1>   0.0800 
 30 H        2.2310     3.0760    -0.2810 H     1 <1>   0.0800 
 31 H        2.3480     1.6350    -1.2670 H     1 <1>   0.0800 
 32 H       -4.0600    -1.7710     0.2430 H     1 <1>   0.0800 
 33 H       -4.4260    -1.3290    -1.3890 H     1 <1>   0.0800 
 34 H       -3.7290     1.8370     1.3540 H     1 <1>   0.0800 
 35 H       -4.1170     0.3460     2.1440 H     1 <1>   0.0800 
 36 H       -4.2790     1.0540    -0.7660 H     1 <1>   0.0800 
 37 H       -6.2930     1.7740    -1.0340 H     1 <1>   0.3700 
 38 H      -11.7520     2.6440    -2.2930 H     1 <1>   0.1000 
 39 H      -12.2730     4.9260    -1.3690 H     1 <1>   0.1000 
 40 H      -11.2980     4.5750     0.0930 H     1 <1>   0.1000 
 41 H      -12.7750     2.5890     0.6160 H     1 <1>   0.1000 
 42 H      -13.7630     2.9380    -0.8360 H     1 <1>   0.1000 
@<TRIPOS>BOND
  1   1   2  2   
  2   1   3  2   
  3   1   4  am  
  4   1   5  1   
  5   4   6  1   
  6   4   7  1   
  7   5   8  1   
  8   5  23  1   
  9   5  24  1   
 10   6   9  1   
 11   6  25  1   
 12   6  26  1   
 13   7  10  1   
 14   7  27  1   
 15   7  28  1   
 16   8  29  1   
 17   8  30  1   
 18   8  31  1   
 19   9  11  1   
 20   9  32  1   
 21   9  33  1   
 22  10  11  1   
 23  10  34  1   
 24  10  35  1   
 25  11  12  1   
 26  11  36  1   
 27  12  13  2   
 28  12  14  am  
 29  14  15  1   
 30  14  37  1   
 31  15  16  1   
 32  15  17  2   
 33  16  18  1   
 34  17  19  1   
 35  18  19  2   
 36  18  20  1   
 37  20  21  1   
 38  20  22  1   
 39  20  38  1   
 40  21  22  1   
 41  21  39  1   
 42  21  40  1   
 43  22  41  1   
 44  22  42  1   
@<TRIPOS>SUBSTRUCTURE
  1 ****  12 GROUP 4 **** **** 0

# MOE 2024.06 (io_trps.svl 2023.06)
