@<TRIPOS>MOLECULE
NONAME
42 44 1 0 0 
SMALL
USER_CHARGES


@<TRIPOS>ATOM
  1 O        0.6670     0.6560    -0.5390 O.co2 1 <1>  -0.9000 
  2 C        0.2680     1.8060    -0.7640 C.2   1 <1>   0.9060 
  3 O        0.3300     2.3080    -1.8880 O.co2 1 <1>  -0.9000 
  4 C       -0.3690     2.5620     0.3960 C.3   1 <1>  -0.1860 
  5 C       -2.0280     2.3050     0.6160 C.3   1 <1>  -0.0190 
  6 C       -0.1240     4.1830     0.3030 C.3   1 <1>  -0.0800 
  7 C       -2.7120     1.1610    -0.1540 C.2   1 <1>   0.5690 
  8 C       -2.7630     3.7680     0.4500 C.3   1 <1>  -0.0800 
  9 C       -1.4400     3.9760     0.4020 C.3   1 <1>  -0.1600 
 10 C       -0.8720     5.6320     0.1880 C.3   1 <1>  -0.1600 
 11 O       -3.8900     1.2450    -0.4240 O.2   1 <1>  -0.5700 
 12 N       -2.0190     0.0410    -0.4570 N.am  1 <1>  -0.7300 
 13 C       -2.5090     5.3800     0.4040 C.3   1 <1>  -0.1600 
 14 C       -2.4790    -1.0410    -1.3330 C.3   1 <1>   0.2840 
 15 C       -2.0000    -2.3780    -0.7860 C.ar  1 <1>  -0.1430 
 16 C       -0.6420    -2.6410    -0.6880 C.ar  1 <1>  -0.1500 
 17 C       -2.9100    -3.3450    -0.3850 C.ar  1 <1>  -0.1500 
 18 C       -0.2010    -3.8590    -0.2020 C.ar  1 <1>  -0.1500 
 19 C       -2.4710    -4.5650     0.1010 C.ar  1 <1>  -0.1500 
 20 C       -1.1070    -4.8300     0.1930 C.ar  1 <1>   0.0830 
 21 O       -0.5940    -5.9980     0.6570 O.3   1 <1>  -0.3630 
 22 C       -1.4330    -7.0290     1.1250 C.3   1 <1>   0.0400 
 23 H        0.1360     2.1880     1.2710 H     1 <1>   0.0800 
 24 H       -2.1540     2.0060     1.6450 H     1 <1>   0.0800 
 25 H        0.4970     4.3430     1.1730 H     1 <1>   0.0800 
 26 H       -3.3360     3.6360    -0.4580 H     1 <1>   0.0800 
 27 H       -1.4920     3.8790    -0.7700 H     1 <1>   0.0800 
 28 H       -1.3720     4.0600     1.5710 H     1 <1>   0.0800 
 29 H       -0.6880     6.0550    -0.7890 H     1 <1>   0.0800 
 30 H       -0.4920     6.3260     0.9210 H     1 <1>   0.0800 
 31 H       -0.9840     0.0630    -0.3560 H     1 <1>   0.3700 
 32 H       -2.8380     5.8340     1.3270 H     1 <1>   0.0800 
 33 H       -3.0680     5.8330    -0.4000 H     1 <1>   0.0800 
 34 H       -2.0680    -0.8860    -2.3160 H     1 <1>   0.0800 
 35 H       -3.5530    -1.0240    -1.4040 H     1 <1>   0.0800 
 36 H        0.0750    -1.8890    -0.9840 H     1 <1>   0.1500 
 37 H       -3.9650    -3.1450    -0.4490 H     1 <1>   0.1500 
 38 H        0.8530    -4.0570    -0.1260 H     1 <1>   0.1500 
 39 H       -3.2010    -5.2900     0.4020 H     1 <1>   0.1500 
 40 H       -0.8110    -7.8420     1.4540 H     1 <1>   0.0800 
 41 H       -2.0660    -7.3560     0.3190 H     1 <1>   0.0800 
 42 H       -2.0150    -6.6570     1.9490 H     1 <1>   0.0800 
@<TRIPOS>BOND
  1   1   2  ar  
  2   2   3  ar  
  3   2   4  1   
  4   4   5  1   
  5   4   6  1   
  6   4  23  1   
  7   5   7  1   
  8   5   8  1   
  9   5  24  1   
 10   6   9  1   
 11   6  10  1   
 12   6  25  1   
 13   7  11  2   
 14   7  12  am  
 15   8   9  1   
 16   8  13  1   
 17   8  26  1   
 18   9  27  1   
 19   9  28  1   
 20  10  13  1   
 21  10  29  1   
 22  10  30  1   
 23  12  14  1   
 24  12  31  1   
 25  13  32  1   
 26  13  33  1   
 27  14  15  1   
 28  14  34  1   
 29  14  35  1   
 30  15  16  ar  
 31  15  17  ar  
 32  16  18  ar  
 33  16  36  1   
 34  17  19  ar  
 35  17  37  1   
 36  18  20  ar  
 37  18  38  1   
 38  19  20  ar  
 39  19  39  1   
 40  20  21  1   
 41  21  22  1   
 42  22  40  1   
 43  22  41  1   
 44  22  42  1   
@<TRIPOS>SUBSTRUCTURE
  1 ****  12 GROUP 4 **** **** 0

# MOE 2024.06 (io_trps.svl 2023.06)
