@<TRIPOS>MOLECULE
NONAME
30 31 1 0 0 
SMALL
USER_CHARGES


@<TRIPOS>ATOM
  1 CL       0.4390     1.0120    -2.7320 Cl    1 <1>  -0.1770 
  2 C        0.6970     1.7240    -1.1560 C.ar  1 <1>   0.1770 
  3 C       -0.3180     2.4280    -0.5230 C.ar  1 <1>  -0.1440 
  4 C        1.9370     1.5600    -0.5650 C.ar  1 <1>  -0.1500 
  5 C       -0.0700     2.9630     0.7330 C.ar  1 <1>  -0.1500 
  6 C       -1.6830     2.6210    -1.1610 C.3   1 <1>   0.2840 
  7 C        2.1740     2.1040     0.6860 C.ar  1 <1>  -0.1500 
  8 C        1.1680     2.8040     1.3330 C.ar  1 <1>  -0.1500 
  9 N       -2.5930     1.5810    -0.6540 N.am  1 <1>  -0.7300 
 10 C       -3.6810     1.7860     0.1300 C.2   1 <1>   0.5690 
 11 O       -4.0360     2.9000     0.4440 O.2   1 <1>  -0.5700 
 12 C       -4.4760     0.5700     0.6310 C.3   1 <1>   0.2610 
 13 O       -3.8580    -0.6500     0.3080 O.3   1 <1>  -0.5600 
 14 C       -5.8650     0.4450     0.0160 C.3   1 <1>  -0.1600 
 15 C       -4.7890    -1.6840     0.3450 C.3   1 <1>   0.1200 
 16 C       -6.1560    -1.0450     0.1070 C.3   1 <1>  -0.1600 
 17 H        2.7050     1.0120    -1.0790 H     1 <1>   0.1500 
 18 H       -0.8480     3.5030     1.2480 H     1 <1>   0.1500 
 19 H       -1.6270     2.5570    -2.2330 H     1 <1>   0.0800 
 20 H       -2.0650     3.5960    -0.9110 H     1 <1>   0.0800 
 21 H        3.1350     1.9820     1.1560 H     1 <1>   0.1500 
 22 H        1.3480     3.2240     2.3070 H     1 <1>   0.1500 
 23 H       -2.3100     0.6080    -0.8100 H     1 <1>   0.3700 
 24 H       -4.5500     0.6180     1.7030 H     1 <1>   0.0800 
 25 H       -5.8280     0.7570    -1.0140 H     1 <1>   0.0800 
 26 H       -6.5850     1.0480     0.5410 H     1 <1>   0.0800 
 27 H       -4.7380    -2.1490     1.3150 H     1 <1>   0.0800 
 28 H       -4.5360    -2.3980    -0.4200 H     1 <1>   0.0800 
 29 H       -6.6070    -1.4150    -0.7970 H     1 <1>   0.0800 
 30 H       -6.8060    -1.2630     0.9360 H     1 <1>   0.0800 
@<TRIPOS>BOND
  1   1   2  1   
  2   2   3  ar  
  3   2   4  ar  
  4   3   5  ar  
  5   3   6  1   
  6   4   7  ar  
  7   4  17  1   
  8   5   8  ar  
  9   5  18  1   
 10   6   9  1   
 11   6  19  1   
 12   6  20  1   
 13   7   8  ar  
 14   7  21  1   
 15   8  22  1   
 16   9  10  am  
 17   9  23  1   
 18  10  11  2   
 19  10  12  1   
 20  12  13  1   
 21  12  14  1   
 22  12  24  1   
 23  13  15  1   
 24  14  16  1   
 25  14  25  1   
 26  14  26  1   
 27  15  16  1   
 28  15  27  1   
 29  15  28  1   
 30  16  29  1   
 31  16  30  1   
@<TRIPOS>SUBSTRUCTURE
  1 ****   9 GROUP 4 **** **** 0

# MOE 2024.06 (io_trps.svl 2023.06)
