@<TRIPOS>MOLECULE
NONAME
47 48 1 0 0 
SMALL
USER_CHARGES


@<TRIPOS>ATOM
  1 S        0.5120    -1.4520    -2.4410 S.3   1 <1>  -0.3710 
  2 C       -0.4480    -0.3680    -1.3890 C.2   1 <1>   0.6510 
  3 C        1.9120    -0.3550    -3.0160 C.3   1 <1>   0.1310 
  4 N       -0.0530     0.8410    -1.4170 N.2   1 <1>  -0.6210 
  5 N       -1.4790    -0.8820    -0.6260 N.am  1 <1>  -0.4200 
  6 C        2.9440    -0.1200    -1.9160 C.2   1 <1>   0.5690 
  7 C       -0.5990     1.7260    -0.5590 C.2   1 <1>   0.0210 
  8 C       -2.0960     0.0300     0.2390 C.2   1 <1>   0.6160 
  9 C       -1.8960    -2.3200    -0.7030 C.3   1 <1>   0.2200 
 10 O        3.9310    -0.8200    -1.9330 O.2   1 <1>  -0.5700 
 11 N        2.7370     0.8720    -0.9900 N.am  1 <1>  -0.5470 
 12 O       -0.0750     2.8420    -0.5740 O.3   1 <1>  -0.8500 
 13 C       -1.6380     1.3470     0.2800 C.2   1 <1>  -0.1240 
 14 O       -3.0360    -0.3600     0.9580 O.2   1 <1>  -0.5700 
 15 C       -3.3580    -2.4590    -1.1710 C.3   1 <1>  -0.1600 
 16 C       -1.6020    -3.0410     0.6190 C.3   1 <1>  -0.2400 
 17 C        3.5030     1.3290     0.0940 C.ar  1 <1>   0.1170 
 18 C       -2.2450     2.3680     1.2370 C.3   1 <1>  -0.0220 
 19 C       -3.7050    -3.8800    -1.6400 C.3   1 <1>  -0.2400 
 20 C        4.8330     0.9770     0.3100 C.ar  1 <1>  -0.1500 
 21 C        2.8990     2.1910     1.0010 C.ar  1 <1>  -0.1500 
 22 C       -1.5660     2.2940     2.6070 C.3   1 <1>  -0.2400 
 23 C        5.5310     1.4650     1.4010 C.ar  1 <1>  -0.1500 
 24 C        3.5910     2.6830     2.0920 C.ar  1 <1>  -0.1500 
 25 C        4.9110     2.3200     2.2960 C.ar  1 <1>  -0.1500 
 26 H        1.4940     0.5730    -3.3580 H     1 <1>   0.0800 
 27 H        2.3750    -0.8600    -3.8420 H     1 <1>   0.0800 
 28 H       -1.3080    -2.8200    -1.4460 H     1 <1>   0.0800 
 29 H        1.7890     1.3120    -1.0300 H     1 <1>   0.3700 
 30 H       -3.5220    -1.7830    -1.9920 H     1 <1>   0.0800 
 31 H       -4.0310    -2.1880    -0.3770 H     1 <1>   0.0800 
 32 H       -2.2650    -2.7110     1.3980 H     1 <1>   0.0800 
 33 H       -0.5860    -2.8560     0.9190 H     1 <1>   0.0800 
 34 H       -1.7280    -4.1010     0.4990 H     1 <1>   0.0800 
 35 H       -3.3010     2.1930     1.3390 H     1 <1>   0.0800 
 36 H       -2.1150     3.3550     0.8270 H     1 <1>   0.0800 
 37 H       -3.0490    -4.1860    -2.4360 H     1 <1>   0.0800 
 38 H       -4.7170    -3.9050    -2.0050 H     1 <1>   0.0800 
 39 H       -3.6240    -4.5810    -0.8290 H     1 <1>   0.0800 
 40 H        5.3320     0.3200    -0.3740 H     1 <1>   0.1500 
 41 H        1.8720     2.4790     0.8440 H     1 <1>   0.1500 
 42 H       -1.7020     1.3170     3.0350 H     1 <1>   0.0800 
 43 H       -1.9810     3.0330     3.2670 H     1 <1>   0.0800 
 44 H       -0.5120     2.4800     2.4890 H     1 <1>   0.0800 
 45 H        6.5570     1.1790     1.5510 H     1 <1>   0.1500 
 46 H        3.0950     3.3490     2.7760 H     1 <1>   0.1500 
 47 H        5.4500     2.7020     3.1440 H     1 <1>   0.1500 
@<TRIPOS>BOND
  1   1   2  1   
  2   1   3  1   
  3   2   4  2   
  4   2   5  1   
  5   3   6  1   
  6   3  26  1   
  7   3  27  1   
  8   4   7  1   
  9   5   8  am  
 10   5   9  1   
 11   6  10  2   
 12   6  11  am  
 13   7  12  1   
 14   7  13  2   
 15   8  13  1   
 16   8  14  2   
 17   9  15  1   
 18   9  16  1   
 19   9  28  1   
 20  11  17  1   
 21  11  29  1   
 22  13  18  1   
 23  15  19  1   
 24  15  30  1   
 25  15  31  1   
 26  16  32  1   
 27  16  33  1   
 28  16  34  1   
 29  17  20  ar  
 30  17  21  ar  
 31  18  22  1   
 32  18  35  1   
 33  18  36  1   
 34  19  37  1   
 35  19  38  1   
 36  19  39  1   
 37  20  23  ar  
 38  20  40  1   
 39  21  24  ar  
 40  21  41  1   
 41  22  42  1   
 42  22  43  1   
 43  22  44  1   
 44  23  25  ar  
 45  23  45  1   
 46  24  25  ar  
 47  24  46  1   
 48  25  47  1   
@<TRIPOS>SUBSTRUCTURE
  1 ****   4 GROUP 4 **** **** 0

# MOE 2024.06 (io_trps.svl 2023.06)
