@<TRIPOS>MOLECULE
NONAME
47 49 1 0 0 
SMALL
USER_CHARGES


@<TRIPOS>ATOM
  1 BR      -1.4940    -0.2530    -1.5140 Br    1 <1>  -0.1110 
  2 C       -2.3760     1.2840    -0.7680 C.ar  1 <1>   0.1110 
  3 C       -3.5420     1.0950    -0.0510 C.ar  1 <1>  -0.1500 
  4 C       -1.8240     2.5340    -0.9690 C.ar  1 <1>  -0.1500 
  5 C       -4.1870     2.2020     0.4830 C.ar  1 <1>  -0.1440 
  6 C       -2.4670     3.6330    -0.4260 C.ar  1 <1>  -0.1500 
  7 C       -3.6390     3.4670     0.2950 C.ar  1 <1>  -0.1500 
  8 C       -5.4800     2.0370     1.2590 C.3   1 <1>   0.4870 
  9 N       -6.5780     1.7340     0.3060 N.4   1 <1>  -0.9590 
 10 C       -6.7790     2.8580    -0.6820 C.3   1 <1>   0.3430 
 11 C       -7.8660     1.4390     1.0300 C.3   1 <1>   0.3430 
 12 C       -7.9220     2.5850    -1.6820 C.3   1 <1>   0.2090 
 13 C       -9.0350     1.1220     0.0730 C.3   1 <1>   0.2090 
 14 N       -9.1780     2.1400    -1.0080 N.pl3 1 <1>  -0.8380 
 15 C      -10.1800     3.1060    -0.8360 C.ar  1 <1>   0.1000 
 16 C      -10.1050     4.1690     0.0830 C.ar  1 <1>   0.0830 
 17 C      -11.3110     2.9880    -1.6300 C.ar  1 <1>  -0.1500 
 18 O       -8.9840     4.2820     0.8640 O.3   1 <1>  -0.3630 
 19 C      -11.1620     5.0710     0.1740 C.ar  1 <1>  -0.1500 
 20 C      -12.3550     3.8880    -1.5330 C.ar  1 <1>  -0.1500 
 21 C       -8.8300     5.3590     1.7610 C.3   1 <1>   0.1200 
 22 C      -12.2810     4.9310    -0.6300 C.ar  1 <1>  -0.1500 
 23 C       -7.4710     5.2190     2.4420 C.3   1 <1>  -0.2400 
 24 H       -3.9160     0.0940     0.0770 H     1 <1>   0.1500 
 25 H       -0.9130     2.6420    -1.5320 H     1 <1>   0.1500 
 26 H       -2.0490     4.6170    -0.5650 H     1 <1>   0.1500 
 27 H       -4.1150     4.3410     0.7100 H     1 <1>   0.1500 
 28 H       -5.7000     2.9410     1.8020 H     1 <1>   0.0800 
 29 H       -5.3700     1.2320     1.9670 H     1 <1>   0.0800 
 30 H       -6.3100     0.9050    -0.2370 H     1 <1>   0.4500 
 31 H       -5.8710     3.0270    -1.2370 H     1 <1>   0.0800 
 32 H       -7.0090     3.7660    -0.1530 H     1 <1>   0.0800 
 33 H       -8.1470     2.2920     1.6250 H     1 <1>   0.0800 
 34 H       -7.7310     0.6050     1.6980 H     1 <1>   0.0800 
 35 H       -7.6150     1.8290    -2.3830 H     1 <1>   0.0800 
 36 H       -8.1190     3.4840    -2.2440 H     1 <1>   0.0800 
 37 H       -9.9500     1.0760     0.6400 H     1 <1>   0.0800 
 38 H       -8.8850     0.1560    -0.3750 H     1 <1>   0.0800 
 39 H      -11.3690     2.1760    -2.3330 H     1 <1>   0.1500 
 40 H      -11.1490     5.8950     0.8620 H     1 <1>   0.1500 
 41 H      -13.2230     3.7770    -2.1600 H     1 <1>   0.1500 
 42 H       -9.6240     5.3170     2.4870 H     1 <1>   0.0800 
 43 H       -8.8830     6.2800     1.2050 H     1 <1>   0.0800 
 44 H      -13.0940     5.6330    -0.5530 H     1 <1>   0.1500 
 45 H       -7.4230     4.2980     2.9920 H     1 <1>   0.0800 
 46 H       -7.3350     6.0320     3.1330 H     1 <1>   0.0800 
 47 H       -6.6830     5.2620     1.7130 H     1 <1>   0.0800 
@<TRIPOS>BOND
  1   1   2  1   
  2   2   3  ar  
  3   2   4  ar  
  4   3   5  ar  
  5   3  24  1   
  6   4   6  ar  
  7   4  25  1   
  8   5   7  ar  
  9   5   8  1   
 10   6   7  ar  
 11   6  26  1   
 12   7  27  1   
 13   8   9  1   
 14   8  28  1   
 15   8  29  1   
 16   9  10  1   
 17   9  11  1   
 18   9  30  1   
 19  10  12  1   
 20  10  31  1   
 21  10  32  1   
 22  11  13  1   
 23  11  33  1   
 24  11  34  1   
 25  12  14  1   
 26  12  35  1   
 27  12  36  1   
 28  13  14  1   
 29  13  37  1   
 30  13  38  1   
 31  14  15  1   
 32  15  16  ar  
 33  15  17  ar  
 34  16  18  1   
 35  16  19  ar  
 36  17  20  ar  
 37  17  39  1   
 38  18  21  1   
 39  19  22  ar  
 40  19  40  1   
 41  20  22  ar  
 42  20  41  1   
 43  21  23  1   
 44  21  42  1   
 45  21  43  1   
 46  22  44  1   
 47  23  45  1   
 48  23  46  1   
 49  23  47  1   
@<TRIPOS>SUBSTRUCTURE
  1 ****  10 GROUP 4 **** **** 0

# MOE 2024.06 (io_trps.svl 2023.06)
