@<TRIPOS>MOLECULE
NONAME
42 43 1 0 0 
SMALL
USER_CHARGES


@<TRIPOS>ATOM
  1 BR      -0.4690    -0.2250     3.1040 Br    1 <1>  -0.1110 
  2 C       -0.4650    -1.7300     1.8970 C.ar  1 <1>   0.1110 
  3 C        0.2180    -2.8890     2.2280 C.ar  1 <1>   0.0830 
  4 C       -1.1650    -1.6070     0.7120 C.ar  1 <1>  -0.1500 
  5 O        0.8890    -3.0040     3.3920 O.3   1 <1>  -0.5330 
  6 C        0.2110    -3.9580     1.3370 C.ar  1 <1>   0.0830 
  7 C       -1.1900    -2.6790    -0.1720 C.ar  1 <1>  -0.1430 
  8 O        0.9060    -5.0730     1.6990 O.3   1 <1>  -0.3630 
  9 C       -0.4960    -3.8450     0.1400 C.ar  1 <1>  -0.1500 
 10 C       -1.9860    -2.5790    -1.4600 C.3   1 <1>   0.4860 
 11 C        1.1660    -6.1140     0.7800 C.3   1 <1>   0.0400 
 12 N       -3.4320    -2.5600    -1.1220 N.4   1 <1>  -0.9590 
 13 C       -3.9080    -3.7470    -0.3380 C.3   1 <1>   0.3430 
 14 C       -4.3400    -2.2920    -2.2840 C.3   1 <1>   0.3430 
 15 C       -5.3530    -3.5220     0.1700 C.3   1 <1>   0.1100 
 16 C       -5.8190    -2.2100    -1.8280 C.3   1 <1>   0.1100 
 17 N       -5.9560    -2.2650    -0.3520 N.3   1 <1>  -0.8100 
 18 C       -7.3720    -2.1200     0.0500 C.3   1 <1>   0.1100 
 19 C       -7.5120    -1.8070     1.5450 C.3   1 <1>   0.1200 
 20 O       -8.8540    -1.6420     1.8490 O.3   1 <1>  -0.6800 
 21 H       -1.6740    -0.6810     0.5070 H     1 <1>   0.1500 
 22 H        1.3160    -3.8820     3.4480 H     1 <1>   0.4500 
 23 H       -0.5100    -4.6670    -0.5510 H     1 <1>   0.1500 
 24 H       -1.7640    -3.4190    -2.0980 H     1 <1>   0.0800 
 25 H       -1.7150    -1.6730    -1.9790 H     1 <1>   0.0800 
 26 H        1.8100    -6.8290     1.2600 H     1 <1>   0.0800 
 27 H        1.6590    -5.7050    -0.0840 H     1 <1>   0.0800 
 28 H        0.2390    -6.5870     0.5120 H     1 <1>   0.0800 
 29 H       -3.6130    -1.7750    -0.4780 H     1 <1>   0.4500 
 30 H       -3.2660    -3.9160     0.5120 H     1 <1>   0.0800 
 31 H       -3.8790    -4.6320    -0.9520 H     1 <1>   0.0800 
 32 H       -4.2410    -3.0690    -3.0240 H     1 <1>   0.0800 
 33 H       -4.0700    -1.3580    -2.7500 H     1 <1>   0.0800 
 34 H       -5.3290    -3.4890     1.2450 H     1 <1>   0.0800 
 35 H       -5.9590    -4.3680    -0.1120 H     1 <1>   0.0800 
 36 H       -6.3730    -3.0190    -2.2760 H     1 <1>   0.0800 
 37 H       -6.2420    -1.2900    -2.1960 H     1 <1>   0.0800 
 38 H       -7.9170    -3.0210    -0.1820 H     1 <1>   0.0800 
 39 H       -7.8110    -1.3050    -0.5000 H     1 <1>   0.0800 
 40 H       -6.9910    -0.9010     1.8030 H     1 <1>   0.0800 
 41 H       -7.1490    -2.6210     2.1460 H     1 <1>   0.0800 
 42 H       -9.1950    -0.7970     1.4950 H     1 <1>   0.4000 
@<TRIPOS>BOND
  1   1   2  1   
  2   2   3  ar  
  3   2   4  ar  
  4   3   5  1   
  5   3   6  ar  
  6   4   7  ar  
  7   4  21  1   
  8   5  22  1   
  9   6   8  1   
 10   6   9  ar  
 11   7   9  ar  
 12   7  10  1   
 13   8  11  1   
 14   9  23  1   
 15  10  12  1   
 16  10  24  1   
 17  10  25  1   
 18  11  26  1   
 19  11  27  1   
 20  11  28  1   
 21  12  13  1   
 22  12  14  1   
 23  12  29  1   
 24  13  15  1   
 25  13  30  1   
 26  13  31  1   
 27  14  16  1   
 28  14  32  1   
 29  14  33  1   
 30  15  17  1   
 31  15  34  1   
 32  15  35  1   
 33  16  17  1   
 34  16  36  1   
 35  16  37  1   
 36  17  18  1   
 37  18  19  1   
 38  18  38  1   
 39  18  39  1   
 40  19  20  1   
 41  19  40  1   
 42  19  41  1   
 43  20  42  1   
@<TRIPOS>SUBSTRUCTURE
  1 ****   7 GROUP 4 **** **** 0

# MOE 2024.06 (io_trps.svl 2023.06)
