@<TRIPOS>MOLECULE
NONAME
50 54 1 0 0 
SMALL
USER_CHARGES


@<TRIPOS>ATOM
  1 O       -1.3050     1.4150     0.0460 O.2   1 <1>  -0.5700 
  2 C       -0.7550     2.0200    -0.8600 C.2   1 <1>   0.4690 
  3 C        0.6130     2.4620    -0.7840 C.ar  1 <1>   0.0860 
  4 C       -1.4840     2.3640    -2.0390 C.2   1 <1>  -0.1240 
  5 C        1.1260     3.2330    -1.8340 C.ar  1 <1>   0.0830 
  6 C        1.4580     2.1680     0.2890 C.ar  1 <1>  -0.1500 
  7 C       -0.9030     3.1100    -3.0040 C.2   1 <1>  -0.0730 
  8 C       -2.9080     1.8490    -2.1530 C.3   1 <1>   0.4810 
  9 O        0.3540     3.5450    -2.8980 O.3   1 <1>  -0.1590 
 10 C        2.4350     3.6930    -1.8020 C.ar  1 <1>  -0.1500 
 11 C        2.7620     2.6250     0.3220 C.ar  1 <1>  -0.1440 
 12 N       -3.7050     2.2800    -0.9740 N.4   1 <1>  -0.9590 
 13 C        3.2480     3.3900    -0.7290 C.ar  1 <1>  -0.1500 
 14 C        3.6720     2.3010     1.4930 C.3   1 <1>  -0.0970 
 15 C       -5.0020     1.5300    -0.8590 C.3   1 <1>   0.3430 
 16 C       -3.8650     3.7640    -0.8820 C.3   1 <1>   0.3430 
 17 C       -5.9600     2.1240     0.1960 C.3   1 <1>   0.0580 
 18 C       -4.6200     4.1850     0.3980 C.3   1 <1>  -0.0800 
 19 C       -7.0310     2.9340    -0.5410 C.2   1 <1>  -0.0290 
 20 C       -5.1920     2.9990     1.1950 C.3   1 <1>  -0.1600 
 21 C       -5.7920     5.0760    -0.0210 C.3   1 <1>   0.1400 
 22 N       -6.8350     4.2970    -0.7610 N.am  1 <1>  -0.4690 
 23 C       -8.1550     2.3200    -1.0050 C.2   1 <1>  -0.1500 
 24 C       -7.7520     5.0210    -1.5140 C.2   1 <1>   0.6160 
 25 C       -9.1270     3.0420    -1.7360 C.2   1 <1>  -0.1500 
 26 O       -7.5450     6.2010    -1.7680 O.2   1 <1>  -0.5700 
 27 C       -8.9170     4.3600    -1.9850 C.2   1 <1>  -0.1360 
 28 H        1.0750     1.5730     1.1020 H     1 <1>   0.1500 
 29 H       -1.3780     3.4120    -3.9240 H     1 <1>   0.1500 
 30 H       -2.8790     0.7710    -2.1920 H     1 <1>   0.0800 
 31 H       -3.3630     2.2100    -3.0600 H     1 <1>   0.0800 
 32 H        2.8110     4.2850    -2.6180 H     1 <1>   0.1500 
 33 H       -3.1160     1.9960    -0.1630 H     1 <1>   0.4500 
 34 H        4.2630     3.7480    -0.7080 H     1 <1>   0.1500 
 35 H        3.1570     1.7170     2.2350 H     1 <1>   0.0800 
 36 H        4.0160     3.2100     1.9530 H     1 <1>   0.0800 
 37 H        4.5250     1.7420     1.1500 H     1 <1>   0.0800 
 38 H       -4.7910     0.5060    -0.5970 H     1 <1>   0.0800 
 39 H       -5.5080     1.5280    -1.8110 H     1 <1>   0.0800 
 40 H       -4.4160     4.1110    -1.7430 H     1 <1>   0.0800 
 41 H       -2.8990     4.2420    -0.8950 H     1 <1>   0.0800 
 42 H       -6.4390     1.3140     0.7180 H     1 <1>   0.0800 
 43 H       -3.9600     4.7620     1.0220 H     1 <1>   0.0800 
 44 H       -4.4040     2.4360     1.6680 H     1 <1>   0.0800 
 45 H       -5.8560     3.3490     1.9680 H     1 <1>   0.0800 
 46 H       -5.4310     5.8860    -0.6350 H     1 <1>   0.0800 
 47 H       -6.2520     5.5100     0.8510 H     1 <1>   0.0800 
 48 H       -8.3440     1.2730    -0.8400 H     1 <1>   0.1500 
 49 H      -10.0100     2.5310    -2.0820 H     1 <1>   0.1500 
 50 H       -9.6130     4.9600    -2.5390 H     1 <1>   0.1500 
@<TRIPOS>BOND
  1   1   2  2   
  2   2   3  1   
  3   2   4  1   
  4   3   5  ar  
  5   3   6  ar  
  6   4   7  2   
  7   4   8  1   
  8   5   9  1   
  9   5  10  ar  
 10   6  11  ar  
 11   6  28  1   
 12   7   9  1   
 13   7  29  1   
 14   8  12  1   
 15   8  30  1   
 16   8  31  1   
 17  10  13  ar  
 18  10  32  1   
 19  11  13  ar  
 20  11  14  1   
 21  12  15  1   
 22  12  16  1   
 23  12  33  1   
 24  13  34  1   
 25  14  35  1   
 26  14  36  1   
 27  14  37  1   
 28  15  17  1   
 29  15  38  1   
 30  15  39  1   
 31  16  18  1   
 32  16  40  1   
 33  16  41  1   
 34  17  19  1   
 35  17  20  1   
 36  17  42  1   
 37  18  20  1   
 38  18  21  1   
 39  18  43  1   
 40  19  22  1   
 41  19  23  2   
 42  20  44  1   
 43  20  45  1   
 44  21  22  1   
 45  21  46  1   
 46  21  47  1   
 47  22  24  am  
 48  23  25  1   
 49  23  48  1   
 50  24  26  2   
 51  24  27  1   
 52  25  27  2   
 53  25  49  1   
 54  27  50  1   
@<TRIPOS>SUBSTRUCTURE
  1 ****  16 GROUP 4 **** **** 0

# MOE 2024.06 (io_trps.svl 2023.06)
