@<TRIPOS>MOLECULE
NONAME
39 41 1 0 0 
SMALL
USER_CHARGES


@<TRIPOS>ATOM
  1 O       -2.4260    -0.7510    -0.4310 O.3   1 <1>  -0.3370 
  2 N       -3.5820    -1.3770    -0.5180 N.2   1 <1>  -0.5130 
  3 C       -4.6560    -0.7250    -0.3870 C.2   1 <1>   0.3280 
  4 C       -4.8720     0.7470    -0.1190 C.3   1 <1>  -0.0190 
  5 C       -6.0590    -1.2740    -0.4970 C.3   1 <1>  -0.0190 
  6 C       -5.4160     0.9110     1.3240 C.3   1 <1>   0.4230 
  7 C       -5.9730     1.0950    -1.1350 C.3   1 <1>  -0.1600 
  8 C       -6.6920    -1.3200     0.9140 C.3   1 <1>  -0.1600 
  9 C       -6.7460    -0.2130    -1.3750 C.3   1 <1>  -0.1600 
 10 N       -4.3980     1.5480     2.2220 N.4   1 <1>  -0.9590 
 11 C       -5.9730    -0.4040     1.9340 C.3   1 <1>  -0.1600 
 12 C       -3.1480     0.7390     2.3890 C.3   1 <1>   0.3430 
 13 C       -4.9790     1.9340     3.5420 C.3   1 <1>   0.3430 
 14 C       -2.1030     1.5530     3.1540 C.3   1 <1>  -0.1600 
 15 C       -3.9700     2.7740     4.3270 C.3   1 <1>  -0.1600 
 16 C       -2.6370     2.0370     4.5080 C.3   1 <1>  -0.1600 
 17 H       -1.6590    -1.2920    -0.7230 H     1 <1>   0.4000 
 18 H       -3.9950     1.3420    -0.3000 H     1 <1>   0.0800 
 19 H       -6.0790    -2.2440    -0.9660 H     1 <1>   0.0800 
 20 H       -6.2490     1.5930     1.2540 H     1 <1>   0.0800 
 21 H       -6.6210     1.8860    -0.7970 H     1 <1>   0.0800 
 22 H       -5.5190     1.4050    -2.0620 H     1 <1>   0.0800 
 23 H       -6.6400    -2.3320     1.2790 H     1 <1>   0.0800 
 24 H       -7.7380    -1.0670     0.8630 H     1 <1>   0.0800 
 25 H       -6.6460    -0.4950    -2.4100 H     1 <1>   0.0800 
 26 H       -7.7960    -0.1100    -1.1600 H     1 <1>   0.0800 
 27 H       -4.1040     2.4220     1.7700 H     1 <1>   0.4500 
 28 H       -5.1650    -0.9830     2.3430 H     1 <1>   0.0800 
 29 H       -6.6540    -0.1820     2.7360 H     1 <1>   0.0800 
 30 H       -3.3610    -0.1680     2.9300 H     1 <1>   0.0800 
 31 H       -2.7470     0.4710     1.4280 H     1 <1>   0.0800 
 32 H       -5.8840     2.5020     3.3980 H     1 <1>   0.0800 
 33 H       -5.2210     1.0470     4.1070 H     1 <1>   0.0800 
 34 H       -1.2320     0.9410     3.3130 H     1 <1>   0.0800 
 35 H       -1.7980     2.3940     2.5550 H     1 <1>   0.0800 
 36 H       -3.8080     3.7080     3.8180 H     1 <1>   0.0800 
 37 H       -4.3820     3.0040     5.2950 H     1 <1>   0.0800 
 38 H       -1.9170     2.6900     4.9730 H     1 <1>   0.0800 
 39 H       -2.7800     1.1910     5.1600 H     1 <1>   0.0800 
@<TRIPOS>BOND
  1   1   2  1   
  2   1  17  1   
  3   2   3  2   
  4   3   4  1   
  5   3   5  1   
  6   4   6  1   
  7   4   7  1   
  8   4  18  1   
  9   5   8  1   
 10   5   9  1   
 11   5  19  1   
 12   6  10  1   
 13   6  11  1   
 14   6  20  1   
 15   7   9  1   
 16   7  21  1   
 17   7  22  1   
 18   8  11  1   
 19   8  23  1   
 20   8  24  1   
 21   9  25  1   
 22   9  26  1   
 23  10  12  1   
 24  10  13  1   
 25  10  27  1   
 26  11  28  1   
 27  11  29  1   
 28  12  14  1   
 29  12  30  1   
 30  12  31  1   
 31  13  15  1   
 32  13  32  1   
 33  13  33  1   
 34  14  16  1   
 35  14  34  1   
 36  14  35  1   
 37  15  16  1   
 38  15  36  1   
 39  15  37  1   
 40  16  38  1   
 41  16  39  1   
@<TRIPOS>SUBSTRUCTURE
  1 ****   6 GROUP 4 **** **** 0

# MOE 2024.06 (io_trps.svl 2023.06)
