@<TRIPOS>MOLECULE
NONAME
31 31 1 0 0 
SMALL
USER_CHARGES


@<TRIPOS>ATOM
  1 BR       0.2490    -0.0580    -1.5150 Br    1 <1>  -0.1110 
  2 C        1.7390     0.8940    -0.7570 C.ar  1 <1>   0.1110 
  3 C        2.6760     0.1920    -0.0250 C.ar  1 <1>  -0.1500 
  4 C        1.8350     2.2560    -0.9640 C.ar  1 <1>  -0.1500 
  5 C        3.7460     0.8840     0.5180 C.ar  1 <1>  -0.1500 
  6 C        2.9100     2.9350    -0.4160 C.ar  1 <1>  -0.1500 
  7 C        3.8700     2.2580     0.3290 C.ar  1 <1>  -0.1430 
  8 C        5.0430     3.0330     0.9200 C.3   1 <1>   0.3640 
  9 N        6.2880     2.5040     0.3540 N.am  1 <1>  -0.7300 
 10 C        5.1020     2.9040     2.4400 C.3   1 <1>  -0.2400 
 11 C        7.3860     3.1630    -0.0760 C.2   1 <1>   0.5690 
 12 O        8.2850     2.5460    -0.5870 O.2   1 <1>  -0.5700 
 13 C        7.5210     4.6700     0.0680 C.3   1 <1>  -0.0990 
 14 C        6.8900     5.4200    -1.1170 C.3   1 <1>  -0.1600 
 15 C        7.0040     6.9370    -0.9410 C.3   1 <1>  -0.2400 
 16 H        2.5700    -0.8690     0.1150 H     1 <1>   0.1500 
 17 H        1.0870     2.7690    -1.5410 H     1 <1>   0.1500 
 18 H        4.4800     0.3430     1.0900 H     1 <1>   0.1500 
 19 H        2.9930     3.9970    -0.5750 H     1 <1>   0.1500 
 20 H        4.9430     4.0730     0.6660 H     1 <1>   0.0800 
 21 H        6.2690     1.5050     0.1530 H     1 <1>   0.3700 
 22 H        5.2540     1.8820     2.7340 H     1 <1>   0.0800 
 23 H        4.1770     3.2480     2.8660 H     1 <1>   0.0800 
 24 H        5.9020     3.5050     2.8310 H     1 <1>   0.0800 
 25 H        8.5690     4.9060     0.1180 H     1 <1>   0.0800 
 26 H        7.0760     4.9850     0.9920 H     1 <1>   0.0800 
 27 H        5.8530     5.1480    -1.2140 H     1 <1>   0.0800 
 28 H        7.3920     5.1270    -2.0240 H     1 <1>   0.0800 
 29 H        6.4910     7.2560    -0.0500 H     1 <1>   0.0800 
 30 H        6.5650     7.4390    -1.7860 H     1 <1>   0.0800 
 31 H        8.0370     7.2310    -0.8710 H     1 <1>   0.0800 
@<TRIPOS>BOND
  1   1   2  1   
  2   2   3  ar  
  3   2   4  ar  
  4   3   5  ar  
  5   3  16  1   
  6   4   6  ar  
  7   4  17  1   
  8   5   7  ar  
  9   5  18  1   
 10   6   7  ar  
 11   6  19  1   
 12   7   8  1   
 13   8   9  1   
 14   8  10  1   
 15   8  20  1   
 16   9  11  am  
 17   9  21  1   
 18  10  22  1   
 19  10  23  1   
 20  10  24  1   
 21  11  12  2   
 22  11  13  1   
 23  13  14  1   
 24  13  25  1   
 25  13  26  1   
 26  14  15  1   
 27  14  27  1   
 28  14  28  1   
 29  15  29  1   
 30  15  30  1   
 31  15  31  1   
@<TRIPOS>SUBSTRUCTURE
  1 ****   7 GROUP 4 **** **** 0

# MOE 2024.06 (io_trps.svl 2023.06)
