@<TRIPOS>MOLECULE
NONAME
35 35 1 0 0 
SMALL
USER_CHARGES


@<TRIPOS>ATOM
  1 O       -7.8430     3.7740     0.4810 O.3   1 <1>  -0.3630 
  2 C       -8.5490     2.6200     0.3460 C.ar  1 <1>   0.0830 
  3 C       -6.5060     3.8730     0.0610 C.3   1 <1>   0.1200 
  4 C       -9.9260     2.6740     0.5510 C.ar  1 <1>  -0.1440 
  5 C       -7.9480     1.4080     0.0100 C.ar  1 <1>  -0.1500 
  6 C       -6.1060     5.3440     0.1950 C.3   1 <1>   0.3430 
  7 C      -10.6830     1.5220     0.4010 C.ar  1 <1>  -0.1500 
  8 C      -10.6280     3.9720     0.9320 C.3   1 <1>   0.1220 
  9 C       -8.7150     0.2660    -0.1310 C.ar  1 <1>  -0.1500 
 10 N       -4.6970     5.5810    -0.2450 N.4   1 <1>  -0.9060 
 11 C      -10.0820     0.3230     0.0620 C.ar  1 <1>  -0.1500 
 12 C      -10.9900     4.7650    -0.3130 C.2   1 <1>  -0.2880 
 13 C       -4.3110     7.0040    -0.1210 C.3   1 <1>   0.3430 
 14 C      -12.2180     5.1860    -0.6310 C.2   1 <1>  -0.3000 
 15 C       -2.8710     7.1450    -0.5870 C.3   1 <1>  -0.2400 
 16 H       -6.4550     3.5490    -0.9640 H     1 <1>   0.0800 
 17 H       -5.9090     3.2460     0.6990 H     1 <1>   0.0800 
 18 H       -6.8910     1.3230    -0.1440 H     1 <1>   0.1500 
 19 H       -6.2190     5.6390     1.2260 H     1 <1>   0.0800 
 20 H       -6.7770     5.9370    -0.4060 H     1 <1>   0.0800 
 21 H      -11.7490     1.5530     0.5450 H     1 <1>   0.1500 
 22 H       -9.9930     4.5660     1.5650 H     1 <1>   0.0800 
 23 H      -11.5180     3.7530     1.4950 H     1 <1>   0.0800 
 24 H       -8.2510    -0.6700    -0.3920 H     1 <1>   0.1500 
 25 H       -4.5790     5.2920    -1.2240 H     1 <1>   0.4500 
 26 H       -4.0500     5.0140     0.3180 H     1 <1>   0.4500 
 27 H      -10.6810    -0.5650    -0.0510 H     1 <1>   0.1500 
 28 H      -10.1340     4.9570    -0.9370 H     1 <1>   0.1500 
 29 H       -4.3970     7.3260     0.9060 H     1 <1>   0.0800 
 30 H       -4.9550     7.6200    -0.7290 H     1 <1>   0.0800 
 31 H      -12.4500     5.7440    -1.5220 H     1 <1>   0.1500 
 32 H      -13.0950     5.0090    -0.0320 H     1 <1>   0.1500 
 33 H       -2.2060     6.5600     0.0240 H     1 <1>   0.0800 
 34 H       -2.5720     8.1760    -0.5040 H     1 <1>   0.0800 
 35 H       -2.7670     6.8550    -1.6180 H     1 <1>   0.0800 
@<TRIPOS>BOND
  1   1   2  1   
  2   1   3  1   
  3   2   4  ar  
  4   2   5  ar  
  5   3   6  1   
  6   3  16  1   
  7   3  17  1   
  8   4   7  ar  
  9   4   8  1   
 10   5   9  ar  
 11   5  18  1   
 12   6  10  1   
 13   6  19  1   
 14   6  20  1   
 15   7  11  ar  
 16   7  21  1   
 17   8  12  1   
 18   8  22  1   
 19   8  23  1   
 20   9  11  ar  
 21   9  24  1   
 22  10  13  1   
 23  10  25  1   
 24  10  26  1   
 25  11  27  1   
 26  12  14  2   
 27  12  28  1   
 28  13  15  1   
 29  13  29  1   
 30  13  30  1   
 31  14  31  1   
 32  14  32  1   
 33  15  33  1   
 34  15  34  1   
 35  15  35  1   
@<TRIPOS>SUBSTRUCTURE
  1 ****   1 GROUP 4 **** **** 0

# MOE 2024.06 (io_trps.svl 2023.06)
