@<TRIPOS>MOLECULE
NONAME
50 52 1 0 0 
SMALL
USER_CHARGES


@<TRIPOS>ATOM
  1 F       -2.1660     0.3380     1.4570 F     1 <1>  -0.1900 
  2 C       -3.1800     0.3410     0.6360 C.ar  1 <1>   0.1900 
  3 C       -3.7230    -0.8700     0.2520 C.ar  1 <1>  -0.1500 
  4 C       -3.6720     1.5500     0.1860 C.ar  1 <1>  -0.1500 
  5 C       -4.8090    -0.8740    -0.6120 C.ar  1 <1>  -0.1440 
  6 C       -4.7490     1.5410    -0.6840 C.ar  1 <1>  -0.1500 
  7 C       -5.3120     0.3360    -1.0800 C.ar  1 <1>  -0.1500 
  8 C       -5.4460    -2.1830    -1.0380 C.3   1 <1>   0.4870 
  9 N       -6.2200    -2.7310     0.1090 N.4   1 <1>  -0.9590 
 10 C       -6.7320    -4.1140    -0.2070 C.3   1 <1>   0.3430 
 11 C       -7.3430    -1.7970     0.4990 C.3   1 <1>   0.3430 
 12 C       -7.6310    -4.6770     0.9150 C.3   1 <1>   0.1400 
 13 C       -8.2230    -2.3740     1.6270 C.3   1 <1>   0.1400 
 14 N       -8.7280    -3.7180     1.2380 N.am  1 <1>  -0.6600 
 15 C       -9.8260    -3.7360     0.4320 C.2   1 <1>   0.6900 
 16 O       -9.6610    -3.8080    -0.7710 O.2   1 <1>  -0.5700 
 17 N      -11.0460    -3.6240     1.0210 N.am  1 <1>  -0.5470 
 18 C      -12.3400    -3.5040     0.4910 C.ar  1 <1>   0.1170 
 19 C      -13.4230    -3.7550     1.3260 C.ar  1 <1>  -0.1500 
 20 C      -12.5990    -3.1320    -0.8240 C.ar  1 <1>  -0.1500 
 21 C      -14.7220    -3.6410     0.8640 C.ar  1 <1>  -0.1500 
 22 C      -13.8970    -3.0190    -1.2890 C.ar  1 <1>  -0.1500 
 23 C      -14.9680    -3.2740    -0.4490 C.ar  1 <1>  -0.1430 
 24 C      -16.3940    -3.1510    -0.9610 C.3   1 <1>  -0.0170 
 25 C      -16.9240    -1.7330    -0.7430 C.3   1 <1>  -0.2400 
 26 H       -3.2840    -1.7760     0.6320 H     1 <1>   0.1500 
 27 H       -3.2200     2.4720     0.5070 H     1 <1>   0.1500 
 28 H       -5.1450     2.4730    -1.0530 H     1 <1>   0.1500 
 29 H       -6.1460     0.3600    -1.7630 H     1 <1>   0.1500 
 30 H       -4.6740    -2.8760    -1.3320 H     1 <1>   0.0800 
 31 H       -6.0970    -2.0210    -1.8820 H     1 <1>   0.0800 
 32 H       -5.5780    -2.7880     0.9080 H     1 <1>   0.4500 
 33 H       -5.9060    -4.7870    -0.3690 H     1 <1>   0.0800 
 34 H       -7.3150    -4.0840    -1.1140 H     1 <1>   0.0800 
 35 H       -7.9730    -1.6170    -0.3570 H     1 <1>   0.0800 
 36 H       -6.9390    -0.8490     0.8160 H     1 <1>   0.0800 
 37 H       -7.0490    -4.8730     1.7980 H     1 <1>   0.0800 
 38 H       -8.0590    -5.6100     0.5880 H     1 <1>   0.0800 
 39 H       -9.0540    -1.7110     1.8020 H     1 <1>   0.0800 
 40 H       -7.6600    -2.4460     2.5420 H     1 <1>   0.0800 
 41 H      -11.0060    -3.7460     2.0280 H     1 <1>   0.3700 
 42 H      -13.2560    -4.0430     2.3470 H     1 <1>   0.1500 
 43 H      -11.7910    -2.9250    -1.4990 H     1 <1>   0.1500 
 44 H      -15.5440    -3.8400     1.5290 H     1 <1>   0.1500 
 45 H      -14.0710    -2.7300    -2.3100 H     1 <1>   0.1500 
 46 H      -17.0250    -3.8560    -0.4470 H     1 <1>   0.0800 
 47 H      -16.4240    -3.3910    -2.0090 H     1 <1>   0.0800 
 48 H      -16.9120    -1.4900     0.3050 H     1 <1>   0.0800 
 49 H      -17.9320    -1.6530    -1.1070 H     1 <1>   0.0800 
 50 H      -16.3080    -1.0230    -1.2670 H     1 <1>   0.0800 
@<TRIPOS>BOND
  1   1   2  1   
  2   2   3  ar  
  3   2   4  ar  
  4   3   5  ar  
  5   3  26  1   
  6   4   6  ar  
  7   4  27  1   
  8   5   7  ar  
  9   5   8  1   
 10   6   7  ar  
 11   6  28  1   
 12   7  29  1   
 13   8   9  1   
 14   8  30  1   
 15   8  31  1   
 16   9  10  1   
 17   9  11  1   
 18   9  32  1   
 19  10  12  1   
 20  10  33  1   
 21  10  34  1   
 22  11  13  1   
 23  11  35  1   
 24  11  36  1   
 25  12  14  1   
 26  12  37  1   
 27  12  38  1   
 28  13  14  1   
 29  13  39  1   
 30  13  40  1   
 31  14  15  am  
 32  15  16  2   
 33  15  17  am  
 34  17  18  1   
 35  17  41  1   
 36  18  19  ar  
 37  18  20  ar  
 38  19  21  ar  
 39  19  42  1   
 40  20  22  ar  
 41  20  43  1   
 42  21  23  ar  
 43  21  44  1   
 44  22  23  ar  
 45  22  45  1   
 46  23  24  1   
 47  24  25  1   
 48  24  46  1   
 49  24  47  1   
 50  25  48  1   
 51  25  49  1   
 52  25  50  1   
@<TRIPOS>SUBSTRUCTURE
  1 ****  13 GROUP 4 **** **** 0

# MOE 2024.06 (io_trps.svl 2023.06)
