@<TRIPOS>MOLECULE
NONAME
38 39 1 0 0 
SMALL
USER_CHARGES


@<TRIPOS>ATOM
  1 S       -0.1830     0.0010     0.2630 S.o2  1 <1>   1.4470 
  2 O       -0.5370     0.2900     1.6340 O.2   1 <1>  -0.6500 
  3 O       -0.7670     0.7850    -0.8050 O.2   1 <1>  -0.6500 
  4 N       -0.6000    -1.6170    -0.0170 N.am  1 <1>  -0.8490 
  5 C        1.6220    -0.0260     0.1020 C.ar  1 <1>  -0.0090 
  6 C       -0.4950    -2.0440    -1.4020 C.3   1 <1>   0.1960 
  7 C       -1.9610    -1.9260     0.3810 C.3   1 <1>   0.1960 
  8 C        2.3730    -0.9820     0.7720 C.ar  1 <1>  -0.1500 
  9 C        2.2990     0.8990    -0.6830 C.ar  1 <1>  -0.1500 
 10 C       -1.2600    -3.3600    -1.4420 C.3   1 <1>  -0.1600 
 11 C       -2.2630    -3.2610    -0.2920 C.3   1 <1>  -0.1600 
 12 C        3.7540    -1.0550     0.6520 C.ar  1 <1>   0.1170 
 13 C        3.6780     0.8690    -0.7990 C.ar  1 <1>  -0.1500 
 14 N        4.5020    -2.0440     1.3140 N.am  1 <1>  -0.5470 
 15 C        4.4140    -0.1030    -0.1310 C.ar  1 <1>   0.0820 
 16 C        4.2930    -3.3640     1.5600 C.2   1 <1>   0.5690 
 17 O        5.7740    -0.1780    -0.1960 O.3   1 <1>  -0.3630 
 18 O        5.1220    -3.9990     2.1570 O.2   1 <1>  -0.5700 
 19 C        3.0540    -4.0790     1.0740 C.3   1 <1>  -0.1790 
 20 C        6.5280     0.7240    -0.9780 C.3   1 <1>   0.0400 
 21 H        0.5340    -2.1660    -1.6980 H     1 <1>   0.0800 
 22 H       -0.9770    -1.3320    -2.0540 H     1 <1>   0.0800 
 23 H       -2.6320    -1.1670     0.0090 H     1 <1>   0.0800 
 24 H       -2.0450    -1.9840     1.4540 H     1 <1>   0.0800 
 25 H        1.8560    -1.6770     1.4080 H     1 <1>   0.1500 
 26 H        1.7380     1.6540    -1.2100 H     1 <1>   0.1500 
 27 H       -0.5790    -4.1760    -1.2710 H     1 <1>   0.0800 
 28 H       -1.7430    -3.4970    -2.3930 H     1 <1>   0.0800 
 29 H       -3.2800    -3.2850    -0.6400 H     1 <1>   0.0800 
 30 H       -2.1120    -4.0640     0.4080 H     1 <1>   0.0800 
 31 H        4.1540     1.6110    -1.4120 H     1 <1>   0.1500 
 32 H        5.4620    -1.7620     1.5210 H     1 <1>   0.3700 
 33 H        2.7600    -3.7110     0.1100 H     1 <1>   0.0800 
 34 H        2.2560    -3.9410     1.7790 H     1 <1>   0.0800 
 35 H        3.2600    -5.1300     0.9910 H     1 <1>   0.0800 
 36 H        7.5670     0.4630    -0.8790 H     1 <1>   0.0800 
 37 H        6.3670     1.7230    -0.6130 H     1 <1>   0.0800 
 38 H        6.2260     0.6330    -2.0060 H     1 <1>   0.0800 
@<TRIPOS>BOND
  1   1   2  2   
  2   1   3  2   
  3   1   4  am  
  4   1   5  1   
  5   4   6  1   
  6   4   7  1   
  7   5   8  ar  
  8   5   9  ar  
  9   6  10  1   
 10   6  21  1   
 11   6  22  1   
 12   7  11  1   
 13   7  23  1   
 14   7  24  1   
 15   8  12  ar  
 16   8  25  1   
 17   9  13  ar  
 18   9  26  1   
 19  10  11  1   
 20  10  27  1   
 21  10  28  1   
 22  11  29  1   
 23  11  30  1   
 24  12  14  1   
 25  12  15  ar  
 26  13  15  ar  
 27  13  31  1   
 28  14  16  am  
 29  14  32  1   
 30  15  17  1   
 31  16  18  2   
 32  16  19  1   
 33  17  20  1   
 34  19  33  1   
 35  19  34  1   
 36  19  35  1   
 37  20  36  1   
 38  20  37  1   
 39  20  38  1   
@<TRIPOS>SUBSTRUCTURE
  1 ****   8 GROUP 4 **** **** 0

# MOE 2024.06 (io_trps.svl 2023.06)
