@<TRIPOS>MOLECULE
NONAME
46 47 1 0 0 
SMALL
USER_CHARGES


@<TRIPOS>ATOM
  1 O        0.0970    -0.2250     0.0870 O.2   1 <1>  -0.5700 
  2 C       -0.0260    -1.4250    -0.0740 C.2   1 <1>   0.5440 
  3 N        1.1100    -2.2050    -0.0980 N.am  1 <1>  -0.6600 
  4 C       -1.3520    -1.9940    -0.2190 C.ar  1 <1>   0.0860 
  5 C        1.1010    -3.6870     0.0960 C.3   1 <1>   0.1400 
  6 C        2.4670    -1.5810    -0.0810 C.3   1 <1>   0.1400 
  7 C       -2.3680    -1.6740     0.6820 C.ar  1 <1>  -0.1500 
  8 C       -1.6690    -2.8720    -1.2570 C.ar  1 <1>  -0.1500 
  9 C        2.3850    -4.1640     0.8050 C.3   1 <1>   0.2000 
 10 C        3.5470    -2.5650    -0.5800 C.3   1 <1>   0.2000 
 11 C       -3.6350    -2.2160     0.5720 C.ar  1 <1>  -0.1500 
 12 C       -2.9320    -3.4200    -1.3740 C.ar  1 <1>  -0.1500 
 13 O        3.5390    -3.7950     0.1010 O.3   1 <1>  -0.5600 
 14 C        2.4290    -5.6820     0.9590 C.3   1 <1>  -0.2400 
 15 C        4.9550    -1.9920    -0.4380 C.3   1 <1>  -0.2400 
 16 C       -3.9250    -3.1020    -0.4620 C.ar  1 <1>   0.0830 
 17 O       -5.1320    -3.6810    -0.6450 O.3   1 <1>  -0.3630 
 18 C       -6.2280    -3.3910     0.1920 C.3   1 <1>   0.1200 
 19 C       -7.4340    -4.1890    -0.3050 C.3   1 <1>  -0.1600 
 20 C       -8.6720    -3.9240     0.5620 C.3   1 <1>  -0.1600 
 21 C       -9.8760    -4.7250     0.0590 C.3   1 <1>  -0.2400 
 22 H        1.0260    -4.1730    -0.8610 H     1 <1>   0.0800 
 23 H        0.2480    -3.9710     0.6880 H     1 <1>   0.0800 
 24 H        2.6990    -1.2650     0.9210 H     1 <1>   0.0800 
 25 H        2.4650    -0.7070    -0.7090 H     1 <1>   0.0800 
 26 H       -2.1480    -0.9830     1.4790 H     1 <1>   0.1500 
 27 H       -0.9130    -3.1190    -1.9810 H     1 <1>   0.1500 
 28 H        2.4400    -3.7060     1.7780 H     1 <1>   0.0800 
 29 H        3.3580    -2.7800    -1.6180 H     1 <1>   0.0800 
 30 H       -4.3800    -1.9390     1.2930 H     1 <1>   0.1500 
 31 H       -3.1620    -4.0980    -2.1780 H     1 <1>   0.1500 
 32 H        2.4080    -6.1550    -0.0060 H     1 <1>   0.0800 
 33 H        1.5850    -6.0210     1.5310 H     1 <1>   0.0800 
 34 H        3.3270    -5.9680     1.4750 H     1 <1>   0.0800 
 35 H        5.1750    -1.8000     0.5970 H     1 <1>   0.0800 
 36 H        5.0360    -1.0720    -0.9870 H     1 <1>   0.0800 
 37 H        5.6730    -2.6890    -0.8300 H     1 <1>   0.0800 
 38 H       -6.4250    -2.3340     0.1400 H     1 <1>   0.0800 
 39 H       -5.9720    -3.6760     1.1980 H     1 <1>   0.0800 
 40 H       -7.1950    -5.2380    -0.2760 H     1 <1>   0.0800 
 41 H       -7.6420    -3.9100    -1.3230 H     1 <1>   0.0800 
 42 H       -8.9120    -2.8740     0.5390 H     1 <1>   0.0800 
 43 H       -8.4670    -4.1990     1.5830 H     1 <1>   0.0800 
 44 H      -10.1140    -4.4510    -0.9540 H     1 <1>   0.0800 
 45 H      -10.7340    -4.5270     0.6770 H     1 <1>   0.0800 
 46 H       -9.6670    -5.7800     0.0930 H     1 <1>   0.0800 
@<TRIPOS>BOND
  1   1   2  2   
  2   2   3  am  
  3   2   4  1   
  4   3   5  1   
  5   3   6  1   
  6   4   7  ar  
  7   4   8  ar  
  8   5   9  1   
  9   5  22  1   
 10   5  23  1   
 11   6  10  1   
 12   6  24  1   
 13   6  25  1   
 14   7  11  ar  
 15   7  26  1   
 16   8  12  ar  
 17   8  27  1   
 18   9  13  1   
 19   9  14  1   
 20   9  28  1   
 21  10  13  1   
 22  10  15  1   
 23  10  29  1   
 24  11  16  ar  
 25  11  30  1   
 26  12  16  ar  
 27  12  31  1   
 28  14  32  1   
 29  14  33  1   
 30  14  34  1   
 31  15  35  1   
 32  15  36  1   
 33  15  37  1   
 34  16  17  1   
 35  17  18  1   
 36  18  19  1   
 37  18  38  1   
 38  18  39  1   
 39  19  20  1   
 40  19  40  1   
 41  19  41  1   
 42  20  21  1   
 43  20  42  1   
 44  20  43  1   
 45  21  44  1   
 46  21  45  1   
 47  21  46  1   
@<TRIPOS>SUBSTRUCTURE
  1 ****   4 GROUP 4 **** **** 0

# MOE 2024.06 (io_trps.svl 2023.06)
