@<TRIPOS>MOLECULE
NONAME
28 28 1 0 0 
SMALL
USER_CHARGES


@<TRIPOS>ATOM
  1 S        0.5140    -0.2390    -0.7570 S.o2  1 <1>   0.8600 
  2 O        0.4620    -0.3860    -2.2020 O.co2 1 <1>  -0.6500 
  3 O        0.2470    -1.4070     0.0650 O.co2 1 <1>  -0.6500 
  4 N        1.9580     0.4950    -0.2690 N.2   1 <1>  -0.3590 
  5 C       -0.7160     0.9760    -0.3160 C.3   1 <1>  -0.1350 
  6 N        2.0830     1.7720    -0.1170 N.2   1 <1>  -0.7560 
  7 C        3.2640     2.2620     0.2490 C.2   1 <1>   0.3030 
  8 C        3.4620     3.6680     0.3850 C.ar  1 <1>   0.0860 
  9 C        4.4460     1.3120     0.5340 C.3   1 <1>  -0.0990 
 10 C        2.3730     4.5600     0.2890 C.ar  1 <1>  -0.1500 
 11 C        4.7140     4.2830     0.6110 C.ar  1 <1>  -0.1500 
 12 C        5.2770     1.0340    -0.7280 C.3   1 <1>  -0.2400 
 13 C        2.5090     5.9250     0.4250 C.ar  1 <1>  -0.1500 
 14 C        4.8570     5.6490     0.7490 C.ar  1 <1>  -0.1500 
 15 C        3.7540     6.4800     0.6590 C.ar  1 <1>  -0.1500 
 16 H       -0.5400     1.8830    -0.8600 H     1 <1>   0.0800 
 17 H       -0.6560     1.1900     0.7320 H     1 <1>   0.0800 
 18 H       -1.6960     0.6130    -0.5480 H     1 <1>   0.0800 
 19 H        5.0700     1.7140     1.3080 H     1 <1>   0.0800 
 20 H        4.0860     0.3780     0.9270 H     1 <1>   0.0800 
 21 H        1.3960     4.1460     0.1040 H     1 <1>   0.1500 
 22 H        5.6000     3.6820     0.6690 H     1 <1>   0.1500 
 23 H        5.6740     1.9480    -1.1300 H     1 <1>   0.0800 
 24 H        4.6440     0.5790    -1.4720 H     1 <1>   0.0800 
 25 H        6.0840     0.3620    -0.5030 H     1 <1>   0.0800 
 26 H        1.6440     6.5600     0.3470 H     1 <1>   0.1500 
 27 H        5.8300     6.0750     0.9230 H     1 <1>   0.1500 
 28 H        3.8640     7.5450     0.7670 H     1 <1>   0.1500 
@<TRIPOS>BOND
  1   1   2  ar  
  2   1   3  ar  
  3   1   4  2   
  4   1   5  1   
  5   4   6  1   
  6   5  16  1   
  7   5  17  1   
  8   5  18  1   
  9   6   7  2   
 10   7   8  1   
 11   7   9  1   
 12   8  10  ar  
 13   8  11  ar  
 14   9  12  1   
 15   9  19  1   
 16   9  20  1   
 17  10  13  ar  
 18  10  21  1   
 19  11  14  ar  
 20  11  22  1   
 21  12  23  1   
 22  12  24  1   
 23  12  25  1   
 24  13  15  ar  
 25  13  26  1   
 26  14  15  ar  
 27  14  27  1   
 28  15  28  1   
@<TRIPOS>SUBSTRUCTURE
  1 ****   7 GROUP 4 **** **** 0

# MOE 2024.06 (io_trps.svl 2023.06)
