@<TRIPOS>MOLECULE
NONAME
41 42 1 0 0 
SMALL
USER_CHARGES


@<TRIPOS>ATOM
  1 S       -0.1730    -0.1330    -0.1220 S.o2  1 <1>   1.2950 
  2 O       -0.6330    -0.3200    -1.4880 O.2   1 <1>  -0.6500 
  3 O       -0.6440    -1.0960     0.8590 O.2   1 <1>  -0.6500 
  4 N       -0.6570     1.5050     0.4420 N.pl3 1 <1>   0.5840 
  5 C        1.6570    -0.0900    -0.1830 C.ar  1 <1>  -0.0090 
  6 N        0.1160     2.3470     1.2070 N.2   1 <1>  -0.7070 
  7 C       -1.8760     2.1010     0.2450 C.2   1 <1>  -0.3320 
  8 C        2.4820    -1.1870     0.1140 C.ar  1 <1>  -0.1430 
  9 C        2.2800     1.0850    -0.5930 C.ar  1 <1>  -0.1500 
 10 C       -0.6070     3.3900     1.4450 C.2   1 <1>   0.1080 
 11 C       -1.8640     3.2970     0.8690 C.2   1 <1>  -0.1500 
 12 C       -3.0250     1.4840    -0.5390 C.3   1 <1>  -0.0600 
 13 C        3.8750    -1.0610     0.0970 C.ar  1 <1>  -0.1430 
 14 C        1.8440    -2.5410     0.4430 C.3   1 <1>  -0.0970 
 15 C        3.6510     1.2100    -0.6490 C.ar  1 <1>  -0.1500 
 16 C       -0.1060     4.5550     2.2660 C.3   1 <1>  -0.0590 
 17 C        4.4610     0.1430    -0.2940 C.ar  1 <1>   0.0830 
 18 C        4.7810    -2.2300     0.5020 C.3   1 <1>  -0.0970 
 19 O        5.8180     0.2310    -0.3250 O.3   1 <1>  -0.3630 
 20 C        6.4890     1.4310    -0.6290 C.3   1 <1>   0.1200 
 21 C        7.9880     1.1750    -0.5080 C.3   1 <1>  -0.2400 
 22 H        1.6900     1.9380    -0.8790 H     1 <1>   0.1500 
 23 H       -2.6430     4.0370     0.9280 H     1 <1>   0.1500 
 24 H       -3.2910     0.5250    -0.1270 H     1 <1>   0.0800 
 25 H       -2.7500     1.3530    -1.5720 H     1 <1>   0.0800 
 26 H       -3.8900     2.1220    -0.4990 H     1 <1>   0.0800 
 27 H        0.9920    -2.7240    -0.1860 H     1 <1>   0.0800 
 28 H        1.5300    -2.5600     1.4720 H     1 <1>   0.0800 
 29 H        2.5090    -3.3660     0.2740 H     1 <1>   0.0800 
 30 H        4.0630     2.1470    -0.9690 H     1 <1>   0.1500 
 31 H        0.1510     4.2150     3.2520 H     1 <1>   0.0800 
 32 H       -0.8600     5.3160     2.3410 H     1 <1>   0.0800 
 33 H        0.7700     4.9710     1.8030 H     1 <1>   0.0800 
 34 H        4.4020    -2.7100     1.3850 H     1 <1>   0.0800 
 35 H        5.7810    -1.9120     0.7300 H     1 <1>   0.0800 
 36 H        4.8310    -2.9450    -0.2990 H     1 <1>   0.0800 
 37 H        6.1750     2.1850     0.0730 H     1 <1>   0.0800 
 38 H        6.2330     1.7210    -1.6330 H     1 <1>   0.0800 
 39 H        8.2310     0.8700     0.4940 H     1 <1>   0.0800 
 40 H        8.5310     2.0750    -0.7340 H     1 <1>   0.0800 
 41 H        8.2890     0.4090    -1.2000 H     1 <1>   0.0800 
@<TRIPOS>BOND
  1   1   2  2   
  2   1   3  2   
  3   1   4  1   
  4   1   5  1   
  5   4   6  1   
  6   4   7  1   
  7   5   8  ar  
  8   5   9  ar  
  9   6  10  2   
 10   7  11  2   
 11   7  12  1   
 12   8  13  ar  
 13   8  14  1   
 14   9  15  ar  
 15   9  22  1   
 16  10  11  1   
 17  10  16  1   
 18  11  23  1   
 19  12  24  1   
 20  12  25  1   
 21  12  26  1   
 22  13  17  ar  
 23  13  18  1   
 24  14  27  1   
 25  14  28  1   
 26  14  29  1   
 27  15  17  ar  
 28  15  30  1   
 29  16  31  1   
 30  16  32  1   
 31  16  33  1   
 32  17  19  1   
 33  18  34  1   
 34  18  35  1   
 35  18  36  1   
 36  19  20  1   
 37  20  21  1   
 38  20  37  1   
 39  20  38  1   
 40  21  39  1   
 41  21  40  1   
 42  21  41  1   
@<TRIPOS>SUBSTRUCTURE
  1 ****   5 GROUP 4 **** **** 0

# MOE 2024.06 (io_trps.svl 2023.06)
