@<TRIPOS>MOLECULE
NONAME
47 50 1 0 0 
SMALL
USER_CHARGES


@<TRIPOS>ATOM
  1 S        1.1140    -1.6640     0.4630 S.3   1 <1>  -0.0880 
  2 C       -0.4090    -0.8900     0.1090 C.2   1 <1>   0.4280 
  3 C        0.4660    -3.1190    -0.2420 C.2   1 <1>  -0.1180 
  4 S       -0.5550     0.8180     0.5960 S.3   1 <1>  -0.2930 
  5 N       -1.2960    -1.6100    -0.4570 N.2   1 <1>  -0.5700 
  6 C       -0.7900    -2.8870    -0.6600 C.2   1 <1>   0.0380 
  7 C       -2.2460     1.3060     0.0380 C.3   1 <1>   0.0620 
  8 C       -1.6900    -3.9000    -1.3320 C.3   1 <1>  -0.0680 
  9 C       -3.2820     0.5870     0.9070 C.3   1 <1>   0.3480 
 10 N       -4.6630     1.0590     0.5870 N.pl3 1 <1>  -0.7680 
 11 C       -5.6080     0.5780    -0.2430 C.cat 1 <1>   1.0690 
 12 C       -5.2170     2.1770     1.2440 C.2   1 <1>   0.2700 
 13 N       -6.7120     1.3200    -0.1160 N.pl3 1 <1>  -0.7040 
 14 N       -5.5510    -0.4630    -1.1050 N.pl3 1 <1>  -0.5970 
 15 C       -4.7490     3.1330     2.2060 C.2   1 <1>   0.6990 
 16 C       -6.4830     2.3030     0.7900 C.2   1 <1>   0.4200 
 17 C       -4.3780    -1.3360    -1.3730 C.3   1 <1>   0.1600 
 18 C       -6.6570    -0.8290    -2.0310 C.3   1 <1>   0.1600 
 19 O       -3.6250     3.1350     2.6650 O.2   1 <1>  -0.5750 
 20 N       -5.6270     4.0960     2.6120 N.am  1 <1>  -0.4950 
 21 N       -7.3630     3.2900     1.2080 N.am  1 <1>  -0.4420 
 22 C       -4.8150    -2.3030    -2.4670 C.3   1 <1>  -0.1680 
 23 C       -5.9960    -1.6270    -3.1440 C.3   1 <1>  -0.1680 
 24 C       -6.9050     4.2040     2.1470 C.2   1 <1>   0.6860 
 25 C       -8.7530     3.3670     0.6690 C.3   1 <1>   0.0520 
 26 O       -7.5990     5.0980     2.5710 O.2   1 <1>  -0.5750 
 27 H        1.0970    -3.9890    -0.2680 H     1 <1>   0.1420 
 28 H       -2.3260     1.0350    -0.9990 H     1 <1>   0.0720 
 29 H       -2.3070     2.3720     0.1580 H     1 <1>   0.0720 
 30 H       -1.1930    -4.8500    -1.4050 H     1 <1>   0.0720 
 31 H       -1.9380    -3.5640    -2.3220 H     1 <1>   0.0720 
 32 H       -2.5930    -4.0250    -0.7630 H     1 <1>   0.0720 
 33 H       -3.0660     0.7900     1.9420 H     1 <1>   0.0720 
 34 H       -3.2110    -0.4760     0.7850 H     1 <1>   0.0720 
 35 H       -7.5740     1.1540    -0.6240 H     1 <1>   0.4440 
 36 H       -4.0900    -1.8850    -0.4930 H     1 <1>   0.0720 
 37 H       -3.5530    -0.7400    -1.7260 H     1 <1>   0.0720 
 38 H       -7.1520     0.0380    -2.4340 H     1 <1>   0.0720 
 39 H       -7.3670    -1.4500    -1.5100 H     1 <1>   0.0720 
 40 H       -5.3180     4.7850     3.2960 H     1 <1>   0.3640 
 41 H       -5.1300    -3.2290    -2.0160 H     1 <1>   0.0720 
 42 H       -4.0170    -2.5100    -3.1590 H     1 <1>   0.0720 
 43 H       -5.6460    -0.9540    -3.9080 H     1 <1>   0.0720 
 44 H       -6.6730    -2.3360    -3.5890 H     1 <1>   0.0720 
 45 H       -8.7240     3.5320    -0.3930 H     1 <1>   0.0720 
 46 H       -9.2970     4.1790     1.1230 H     1 <1>   0.0720 
 47 H       -9.2780     2.4520     0.8780 H     1 <1>   0.0720 
@<TRIPOS>BOND
  1   1   2  1   
  2   1   3  1   
  3   2   4  1   
  4   2   5  2   
  5   3   6  2   
  6   3  27  1   
  7   4   7  1   
  8   5   6  1   
  9   6   8  1   
 10   7   9  1   
 11   7  28  1   
 12   7  29  1   
 13   8  30  1   
 14   8  31  1   
 15   8  32  1   
 16   9  10  1   
 17   9  33  1   
 18   9  34  1   
 19  10  11  ar  
 20  10  12  1   
 21  11  13  ar  
 22  11  14  ar  
 23  12  15  1   
 24  12  16  2   
 25  13  16  1   
 26  13  35  1   
 27  14  17  1   
 28  14  18  1   
 29  15  19  2   
 30  15  20  am  
 31  16  21  1   
 32  17  22  1   
 33  17  36  1   
 34  17  37  1   
 35  18  23  1   
 36  18  38  1   
 37  18  39  1   
 38  20  24  am  
 39  20  40  1   
 40  21  24  am  
 41  21  25  1   
 42  22  23  1   
 43  22  41  1   
 44  22  42  1   
 45  23  43  1   
 46  23  44  1   
 47  24  26  2   
 48  25  45  1   
 49  25  46  1   
 50  25  47  1   
@<TRIPOS>SUBSTRUCTURE
  1 ****  10 GROUP 4 **** **** 0

# MOE 2024.06 (io_trps.svl 2023.06)
