@<TRIPOS>MOLECULE
NONAME
30 31 1 0 0 
SMALL
USER_CHARGES


@<TRIPOS>ATOM
  1 O        1.5400    -2.4020    -1.3530 O.2   1 <1>  -0.5700 
  2 C        0.7640    -1.9210    -0.5430 C.2   1 <1>   0.6900 
  3 N       -0.5020    -2.4320    -0.4360 N.am  1 <1>  -0.6600 
  4 N        1.1290    -0.8840     0.2660 N.am  1 <1>  -0.5470 
  5 C       -1.6500    -1.8100     0.3210 C.3   1 <1>   0.1140 
  6 C       -0.9020    -3.7060    -1.0600 C.3   1 <1>   0.1400 
  7 C        2.2880    -0.1090     0.3670 C.ar  1 <1>   0.1170 
  8 C       -1.4660    -1.7250     1.8590 C.2   1 <1>   0.9060 
  9 C       -2.8620    -2.6370    -0.1320 C.3   1 <1>  -0.1600 
 10 C       -2.2850    -4.0040    -0.4930 C.3   1 <1>  -0.1600 
 11 C        3.2390    -0.0050    -0.6430 C.ar  1 <1>  -0.1500 
 12 C        2.4880     0.6090     1.5400 C.ar  1 <1>  -0.1500 
 13 O       -2.0380    -2.5160     2.6210 O.co2 1 <1>  -0.9000 
 14 O       -0.7400    -0.8180     2.2990 O.co2 1 <1>  -0.9000 
 15 C        4.3600     0.7900    -0.4830 C.ar  1 <1>  -0.1500 
 16 C        3.6070     1.4060     1.7060 C.ar  1 <1>  -0.1500 
 17 C        4.5470     1.4970     0.6930 C.ar  1 <1>  -0.1500 
 18 H        0.4740    -0.7700     1.0600 H     1 <1>   0.3700 
 19 H       -1.7750    -0.7990    -0.0180 H     1 <1>   0.0800 
 20 H       -0.1960    -4.4820    -0.8190 H     1 <1>   0.0800 
 21 H       -0.9450    -3.5710    -2.1270 H     1 <1>   0.0800 
 22 H       -3.2890    -2.1780    -1.0050 H     1 <1>   0.0800 
 23 H       -3.6180    -2.7020     0.6310 H     1 <1>   0.0800 
 24 H       -2.1720    -4.5870     0.4050 H     1 <1>   0.0800 
 25 H       -2.9010    -4.5430    -1.1900 H     1 <1>   0.0800 
 26 H        3.0990    -0.5470    -1.5600 H     1 <1>   0.1500 
 27 H        1.7520     0.5330     2.3240 H     1 <1>   0.1500 
 28 H        5.0860     0.8550    -1.2740 H     1 <1>   0.1500 
 29 H        3.7430     1.9510     2.6230 H     1 <1>   0.1500 
 30 H        5.4190     2.1140     0.8200 H     1 <1>   0.1500 
@<TRIPOS>BOND
  1   1   2  2   
  2   2   3  am  
  3   2   4  am  
  4   3   5  1   
  5   3   6  1   
  6   4   7  1   
  7   4  18  1   
  8   5   8  1   
  9   5   9  1   
 10   5  19  1   
 11   6  10  1   
 12   6  20  1   
 13   6  21  1   
 14   7  11  ar  
 15   7  12  ar  
 16   8  13  ar  
 17   8  14  ar  
 18   9  10  1   
 19   9  22  1   
 20   9  23  1   
 21  10  24  1   
 22  10  25  1   
 23  11  15  ar  
 24  11  26  1   
 25  12  16  ar  
 26  12  27  1   
 27  15  17  ar  
 28  15  28  1   
 29  16  17  ar  
 30  16  29  1   
 31  17  30  1   
@<TRIPOS>SUBSTRUCTURE
  1 ****   4 GROUP 4 **** **** 0

# MOE 2024.06 (io_trps.svl 2023.06)
