@<TRIPOS>MOLECULE
NONAME
58 58 1 0 0 
SMALL
USER_CHARGES


@<TRIPOS>ATOM
  1 N        0.3380    -0.2370    -0.1530 N.4   1 <1>  -0.9590 
  2 C        1.3480     0.8320     0.2030 C.3   1 <1>   0.3430 
  3 C        0.6300    -0.8970    -1.4610 C.3   1 <1>   0.3430 
  4 C       -1.0500     0.3220    -0.1740 C.3   1 <1>   0.3430 
  5 C        2.7770     0.2930     0.5050 C.3   1 <1>   0.3430 
  6 C       -0.0170    -2.2760    -1.4850 C.3   1 <1>  -0.2400 
  7 C       -1.5330     0.5570     1.2530 C.3   1 <1>  -0.2400 
  8 N        3.7940     1.3590     0.8490 N.4   1 <1>  -0.9590 
  9 C        5.1750     0.7750     0.9710 C.3   1 <1>   0.3430 
 10 C        3.4830     2.0800     2.1300 C.3   1 <1>   0.2630 
 11 C        5.7460     0.3380    -0.3810 C.3   1 <1>  -0.0220 
 12 C        7.1590    -0.1940    -0.1520 C.2   1 <1>  -0.2760 
 13 C        7.3740    -1.3970     0.4130 C.2   1 <1>  -0.2760 
 14 C        8.3090     0.7520    -0.5860 C.3   1 <1>   0.1380 
 15 C        8.7670    -1.9310     0.7390 C.3   1 <1>  -0.0220 
 16 C        6.3200    -2.4240     0.8230 C.3   1 <1>  -0.1020 
 17 C        9.6780     0.0430    -0.4840 C.3   1 <1>  -0.1600 
 18 C        8.1710     1.1980    -2.0540 C.3   1 <1>  -0.2400 
 19 C        8.3140     1.9980     0.3140 C.3   1 <1>  -0.2400 
 20 C        9.8130    -0.8180     0.7700 C.3   1 <1>  -0.1600 
 21 H        0.3260    -0.9770     0.5650 H     1 <1>   0.4500 
 22 H        1.0010     1.3590     1.0750 H     1 <1>   0.0800 
 23 H        1.4050     1.5380    -0.6090 H     1 <1>   0.0800 
 24 H        1.6930    -1.0190    -1.5930 H     1 <1>   0.0800 
 25 H        0.2580    -0.2970    -2.2780 H     1 <1>   0.0800 
 26 H       -1.7220    -0.3760    -0.6490 H     1 <1>   0.0800 
 27 H       -1.0800     1.2440    -0.7350 H     1 <1>   0.0800 
 28 H        3.1210    -0.2450    -0.3620 H     1 <1>   0.0800 
 29 H        2.7180    -0.4040     1.3250 H     1 <1>   0.0800 
 30 H        0.3500    -2.8920    -0.6840 H     1 <1>   0.0800 
 31 H        0.2300    -2.7640    -2.4120 H     1 <1>   0.0800 
 32 H       -1.0890    -2.2140    -1.4320 H     1 <1>   0.0800 
 33 H       -1.4990    -0.3530     1.8260 H     1 <1>   0.0800 
 34 H       -2.5590     0.8820     1.2220 H     1 <1>   0.0800 
 35 H       -0.9690     1.3240     1.7490 H     1 <1>   0.0800 
 36 H        3.8560     2.0620     0.0940 H     1 <1>   0.4500 
 37 H        5.1690    -0.0680     1.6420 H     1 <1>   0.0800 
 38 H        5.8440     1.5110     1.3880 H     1 <1>   0.0800 
 39 H        3.4490     1.3860     2.9560 H     1 <1>   0.0800 
 40 H        2.5360     2.5900     2.0650 H     1 <1>   0.0800 
 41 H        4.2460     2.8140     2.3390 H     1 <1>   0.0800 
 42 H        5.7340     1.1720    -1.0530 H     1 <1>   0.0800 
 43 H        5.1540    -0.4400    -0.8230 H     1 <1>   0.0800 
 44 H        9.0420    -2.6650     0.0010 H     1 <1>   0.0800 
 45 H        8.7690    -2.4140     1.7000 H     1 <1>   0.0800 
 46 H        6.5180    -3.3580     0.3240 H     1 <1>   0.0800 
 47 H        5.3200    -2.1320     0.5760 H     1 <1>   0.0800 
 48 H        6.3680    -2.5960     1.8840 H     1 <1>   0.0800 
 49 H       10.4760     0.7650    -0.5120 H     1 <1>   0.0800 
 50 H        9.8070    -0.6030    -1.3360 H     1 <1>   0.0800 
 51 H        9.0770     1.6770    -2.3830 H     1 <1>   0.0800 
 52 H        7.9970     0.3430    -2.6830 H     1 <1>   0.0800 
 53 H        7.3750     1.9030    -2.1990 H     1 <1>   0.0800 
 54 H        8.3760     1.7140     1.3490 H     1 <1>   0.0800 
 55 H        7.4290     2.5870     0.1690 H     1 <1>   0.0800 
 56 H        9.1620     2.6210     0.0860 H     1 <1>   0.0800 
 57 H       10.7960    -1.2520     0.8130 H     1 <1>   0.0800 
 58 H        9.6760    -0.2160     1.6500 H     1 <1>   0.0800 
@<TRIPOS>BOND
  1   1   2  1   
  2   1   3  1   
  3   1   4  1   
  4   1  21  1   
  5   2   5  1   
  6   2  22  1   
  7   2  23  1   
  8   3   6  1   
  9   3  24  1   
 10   3  25  1   
 11   4   7  1   
 12   4  26  1   
 13   4  27  1   
 14   5   8  1   
 15   5  28  1   
 16   5  29  1   
 17   6  30  1   
 18   6  31  1   
 19   6  32  1   
 20   7  33  1   
 21   7  34  1   
 22   7  35  1   
 23   8   9  1   
 24   8  10  1   
 25   8  36  1   
 26   9  11  1   
 27   9  37  1   
 28   9  38  1   
 29  10  39  1   
 30  10  40  1   
 31  10  41  1   
 32  11  12  1   
 33  11  42  1   
 34  11  43  1   
 35  12  13  2   
 36  12  14  1   
 37  13  15  1   
 38  13  16  1   
 39  14  17  1   
 40  14  18  1   
 41  14  19  1   
 42  15  20  1   
 43  15  44  1   
 44  15  45  1   
 45  16  46  1   
 46  16  47  1   
 47  16  48  1   
 48  17  20  1   
 49  17  49  1   
 50  17  50  1   
 51  18  51  1   
 52  18  52  1   
 53  18  53  1   
 54  19  54  1   
 55  19  55  1   
 56  19  56  1   
 57  20  57  1   
 58  20  58  1   
@<TRIPOS>SUBSTRUCTURE
  1 ****  11 GROUP 4 **** **** 0

# MOE 2024.06 (io_trps.svl 2023.06)
