@<TRIPOS>MOLECULE
NONAME
60 62 1 0 0 
SMALL
USER_CHARGES


@<TRIPOS>ATOM
  1 S        0.4630    -0.0430     0.9260 S.o2  1 <1>   1.4470 
  2 O        0.5900    -1.4820     0.8840 O.2   1 <1>  -0.6500 
  3 O       -0.1160     0.6090     2.0790 O.2   1 <1>  -0.6500 
  4 N       -0.4920     0.3200    -0.4040 N.am  1 <1>  -0.9140 
  5 C        2.0480     0.7360     0.5160 C.ar  1 <1>  -0.0090 
  6 C       -1.9110     0.4260    -0.1380 C.3   1 <1>   0.2760 
  7 C        3.2340     0.0100     0.5200 C.ar  1 <1>  -0.1500 
  8 C        2.1150     2.0860     0.1950 C.ar  1 <1>  -0.1500 
  9 C       -2.5190    -0.9560     0.1560 C.3   1 <1>  -0.1600 
 10 C       -2.5620     1.0500    -1.3770 C.3   1 <1>  -0.1600 
 11 C        4.4430     0.6100     0.2150 C.ar  1 <1>  -0.1500 
 12 C        3.3200     2.6920    -0.1120 C.ar  1 <1>  -0.1500 
 13 C       -4.0460    -0.8780     0.2990 C.3   1 <1>  -0.1600 
 14 C       -4.0880     1.1360    -1.2320 C.3   1 <1>  -0.1600 
 15 C        4.4920     1.9570    -0.1030 C.ar  1 <1>  -0.1430 
 16 C       -4.6920    -0.2420    -0.9380 C.3   1 <1>  -0.1600 
 17 C        5.8150     2.6290    -0.4280 C.3   1 <1>  -0.0170 
 18 C        6.4000     3.2810     0.8280 C.3   1 <1>  -0.0990 
 19 C        7.7020     3.9780     0.5130 C.2   1 <1>   0.5690 
 20 O        7.6720     5.0720     0.0080 O.2   1 <1>  -0.5700 
 21 N        8.8660     3.3470     0.7910 N.am  1 <1>  -0.7300 
 22 C       10.1970     3.8750     0.4570 C.3   1 <1>   0.2840 
 23 C       11.1170     2.6930     0.2190 C.ar  1 <1>  -0.1430 
 24 C       11.1340     2.0610    -1.0160 C.ar  1 <1>  -0.1500 
 25 C       11.9410     2.2260     1.2320 C.ar  1 <1>  -0.1500 
 26 C       11.9640     0.9760    -1.2400 C.ar  1 <1>  -0.1500 
 27 C       12.7710     1.1420     1.0110 C.ar  1 <1>  -0.1500 
 28 C       12.7900     0.5100    -0.2220 C.ar  1 <1>   0.0830 
 29 O       13.6310    -0.5460    -0.3540 O.3   1 <1>  -0.3620 
 30 C       13.7490    -1.2400    -1.5760 C.3   1 <1>   0.0400 
 31 H       -0.3680    -0.4800    -1.0180 H     1 <1>   0.4200 
 32 H       -2.0830     1.0840     0.6990 H     1 <1>   0.0800 
 33 H        3.2110    -1.0380     0.7660 H     1 <1>   0.1500 
 34 H        1.2090     2.6690     0.1860 H     1 <1>   0.1500 
 35 H       -2.1160    -1.3490     1.0720 H     1 <1>   0.0800 
 36 H       -2.2780    -1.6360    -0.6420 H     1 <1>   0.0800 
 37 H       -2.3280     0.4580    -2.2450 H     1 <1>   0.0800 
 38 H       -2.1650     2.0390    -1.5250 H     1 <1>   0.0800 
 39 H        5.3450     0.0220     0.2270 H     1 <1>   0.1500 
 40 H        3.3400     3.7410    -0.3560 H     1 <1>   0.1500 
 41 H       -4.2920    -0.2930     1.1690 H     1 <1>   0.0800 
 42 H       -4.4450    -1.8680     0.4460 H     1 <1>   0.0800 
 43 H       -4.5160     1.5330    -2.1370 H     1 <1>   0.0800 
 44 H       -4.3330     1.8110    -0.4290 H     1 <1>   0.0800 
 45 H       -5.7530    -0.1450    -0.7810 H     1 <1>   0.0800 
 46 H       -4.5440    -0.8860    -1.7890 H     1 <1>   0.0800 
 47 H        5.6620     3.3800    -1.1850 H     1 <1>   0.0800 
 48 H        6.5080     1.9060    -0.8220 H     1 <1>   0.0800 
 49 H        6.5570     2.5380     1.5880 H     1 <1>   0.0800 
 50 H        5.7090     4.0090     1.2120 H     1 <1>   0.0800 
 51 H        8.8790     2.4060     1.1860 H     1 <1>   0.3700 
 52 H       10.5580     4.4790     1.2720 H     1 <1>   0.0800 
 53 H       10.1400     4.4910    -0.4250 H     1 <1>   0.0800 
 54 H       10.4950     2.4150    -1.8070 H     1 <1>   0.1500 
 55 H       11.9410     2.7030     2.1970 H     1 <1>   0.1500 
 56 H       11.9530     0.5110    -2.2070 H     1 <1>   0.1500 
 57 H       13.4130     0.7770     1.7930 H     1 <1>   0.1500 
 58 H       14.4750    -2.0230    -1.4450 H     1 <1>   0.0800 
 59 H       14.0820    -0.5560    -2.3360 H     1 <1>   0.0800 
 60 H       12.7950    -1.6660    -1.8290 H     1 <1>   0.0800 
@<TRIPOS>BOND
  1   1   2  2   
  2   1   3  2   
  3   1   4  am  
  4   1   5  1   
  5   4   6  1   
  6   4  31  1   
  7   5   7  ar  
  8   5   8  ar  
  9   6   9  1   
 10   6  10  1   
 11   6  32  1   
 12   7  11  ar  
 13   7  33  1   
 14   8  12  ar  
 15   8  34  1   
 16   9  13  1   
 17   9  35  1   
 18   9  36  1   
 19  10  14  1   
 20  10  37  1   
 21  10  38  1   
 22  11  15  ar  
 23  11  39  1   
 24  12  15  ar  
 25  12  40  1   
 26  13  16  1   
 27  13  41  1   
 28  13  42  1   
 29  14  16  1   
 30  14  43  1   
 31  14  44  1   
 32  15  17  1   
 33  16  45  1   
 34  16  46  1   
 35  17  18  1   
 36  17  47  1   
 37  17  48  1   
 38  18  19  1   
 39  18  49  1   
 40  18  50  1   
 41  19  20  2   
 42  19  21  am  
 43  21  22  1   
 44  21  51  1   
 45  22  23  1   
 46  22  52  1   
 47  22  53  1   
 48  23  24  ar  
 49  23  25  ar  
 50  24  26  ar  
 51  24  54  1   
 52  25  27  ar  
 53  25  55  1   
 54  26  28  ar  
 55  26  56  1   
 56  27  28  ar  
 57  27  57  1   
 58  28  29  1   
 59  29  30  1   
 60  30  58  1   
 61  30  59  1   
 62  30  60  1   
@<TRIPOS>SUBSTRUCTURE
  1 ****  11 GROUP 4 **** **** 0

# MOE 2024.06 (io_trps.svl 2023.06)
