@<TRIPOS>MOLECULE
NONAME
45 48 1 0 0 
SMALL
USER_CHARGES


@<TRIPOS>ATOM
  1 S       -0.1810     0.3850     1.5800 S.3   1 <1>  -0.0800 
  2 C        1.3090     1.0040     0.8940 C.2   1 <1>   0.1240 
  3 C       -1.0140     1.8650     1.1100 C.2   1 <1>  -0.1400 
  4 N        2.5000     0.3610     0.8850 N.pl3 1 <1>  -0.5340 
  5 C        1.1630     2.2380     0.3500 C.2   1 <1>  -0.0860 
  6 C       -0.1900     2.7130     0.4810 C.2   1 <1>  -0.1810 
  7 C       -2.4820     2.0910     1.4020 C.3   1 <1>   0.3000 
  8 C        3.5520     0.9940     0.3130 C.2   1 <1>   0.6410 
  9 C        2.3340     2.8220    -0.2320 C.2   1 <1>   0.8670 
 10 C       -0.7350     4.0450    -0.0020 C.3   1 <1>   0.0210 
 11 O       -2.8060     3.4350     1.1330 O.3   1 <1>  -0.5600 
 12 S        5.0590     0.0700     0.3560 S.3   1 <1>  -0.3710 
 13 N        3.5350     2.1560    -0.2320 N.2   1 <1>  -0.6610 
 14 O        2.3020     3.9290    -0.7490 O.2   1 <1>  -0.5700 
 15 C       -2.2910     4.0410    -0.0330 C.3   1 <1>   0.2800 
 16 C        6.2730     1.1820    -0.4830 C.3   1 <1>   0.2130 
 17 C       -2.8080     5.4970    -0.0370 C.3   1 <1>  -0.1600 
 18 C       -2.8210     3.2780    -1.2620 C.3   1 <1>  -0.2400 
 19 C        7.6200     0.4810    -0.5010 C.ar  1 <1>  -0.1440 
 20 C       -4.3390     5.6610    -0.0180 C.3   1 <1>  -0.2400 
 21 C        8.5160     0.6590     0.5420 C.ar  1 <1>  -0.1500 
 22 C        7.9660    -0.3420    -1.5620 C.ar  1 <1>  -0.1500 
 23 C        9.7470     0.0250     0.5230 C.ar  1 <1>  -0.1500 
 24 C        9.1960    -0.9770    -1.5820 C.ar  1 <1>  -0.1500 
 25 C       10.0870    -0.7930    -0.5400 C.ar  1 <1>  -0.1500 
 26 H        2.6340    -0.5670     1.2910 H     1 <1>   0.4000 
 27 H       -2.6950     1.9060     2.4400 H     1 <1>   0.0800 
 28 H       -3.0990     1.4560     0.7930 H     1 <1>   0.0800 
 29 H       -0.3600     4.2640    -0.9850 H     1 <1>   0.0800 
 30 H       -0.3810     4.8160     0.6590 H     1 <1>   0.0800 
 31 H        6.3090     2.1010     0.0740 H     1 <1>   0.0800 
 32 H        5.9080     1.3700    -1.4770 H     1 <1>   0.0800 
 33 H       -2.4210     6.0020    -0.9050 H     1 <1>   0.0800 
 34 H       -2.4070     6.0010     0.8250 H     1 <1>   0.0800 
 35 H       -2.6120     3.8360    -2.1560 H     1 <1>   0.0800 
 36 H       -2.3440     2.3200    -1.3610 H     1 <1>   0.0800 
 37 H       -3.8830     3.1330    -1.1900 H     1 <1>   0.0800 
 38 H       -4.7810     5.2710    -0.9170 H     1 <1>   0.0800 
 39 H       -4.5940     6.7030     0.0580 H     1 <1>   0.0800 
 40 H       -4.7600     5.1460     0.8280 H     1 <1>   0.0800 
 41 H        8.2580     1.2910     1.3740 H     1 <1>   0.1500 
 42 H        7.2780    -0.4950    -2.3750 H     1 <1>   0.1500 
 43 H       10.4380     0.1670     1.3350 H     1 <1>   0.1500 
 44 H        9.4590    -1.6150    -2.4080 H     1 <1>   0.1500 
 45 H       11.0430    -1.2860    -0.5550 H     1 <1>   0.1500 
@<TRIPOS>BOND
  1   1   2  1   
  2   1   3  1   
  3   2   4  1   
  4   2   5  2   
  5   3   6  2   
  6   3   7  1   
  7   4   8  1   
  8   4  26  1   
  9   5   6  1   
 10   5   9  1   
 11   6  10  1   
 12   7  11  1   
 13   7  27  1   
 14   7  28  1   
 15   8  12  1   
 16   8  13  2   
 17   9  13  1   
 18   9  14  2   
 19  10  15  1   
 20  10  29  1   
 21  10  30  1   
 22  11  15  1   
 23  12  16  1   
 24  15  17  1   
 25  15  18  1   
 26  16  19  1   
 27  16  31  1   
 28  16  32  1   
 29  17  20  1   
 30  17  33  1   
 31  17  34  1   
 32  18  35  1   
 33  18  36  1   
 34  18  37  1   
 35  19  21  ar  
 36  19  22  ar  
 37  20  38  1   
 38  20  39  1   
 39  20  40  1   
 40  21  23  ar  
 41  21  41  1   
 42  22  24  ar  
 43  22  42  1   
 44  23  25  ar  
 45  23  43  1   
 46  24  25  ar  
 47  24  44  1   
 48  25  45  1   
@<TRIPOS>SUBSTRUCTURE
  1 ****   9 GROUP 4 **** **** 0

# MOE 2024.06 (io_trps.svl 2023.06)
