@<TRIPOS>MOLECULE
NONAME
45 46 1 0 0 
SMALL
USER_CHARGES


@<TRIPOS>ATOM
  1 S       -0.0200     0.0390     0.5220 S.o2  1 <1>   1.4470 
  2 O        0.0820     0.6680     1.8230 O.2   1 <1>  -0.6500 
  3 O       -0.5110     0.8270    -0.5900 O.2   1 <1>  -0.6500 
  4 N       -1.1730    -1.1950     0.6970 N.am  1 <1>  -0.8490 
  5 C        1.5280    -0.8290     0.1420 C.ar  1 <1>  -0.0090 
  6 C       -2.3230    -0.7030     1.5080 C.3   1 <1>   0.2570 
  7 C       -1.5840    -1.7890    -0.5830 C.3   1 <1>   0.1160 
  8 C        2.5980    -0.1460    -0.4310 C.ar  1 <1>   0.0830 
  9 C        1.6980    -2.1770     0.4390 C.ar  1 <1>  -0.1500 
 10 C       -3.6410    -1.4950     1.4280 C.2   1 <1>   0.5690 
 11 O        2.4320     1.1790    -0.6790 O.3   1 <1>  -0.3630 
 12 C        3.7890    -0.8100    -0.7220 C.ar  1 <1>  -0.1500 
 13 C        2.8750    -2.8460     0.1530 C.ar  1 <1>   0.0830 
 14 O       -3.7510    -2.5040     2.0880 O.2   1 <1>  -0.5700 
 15 N       -4.6710    -1.0650     0.6260 N.am  1 <1>  -0.6600 
 16 C        3.4520     1.9790    -1.2360 C.3   1 <1>   0.0400 
 17 C        3.9270    -2.1550    -0.4360 C.ar  1 <1>  -0.1500 
 18 O        2.9230    -4.1630     0.4750 O.3   1 <1>  -0.3630 
 19 C       -5.9260    -1.8320     0.4820 C.3   1 <1>   0.1400 
 20 C       -4.7080     0.1720    -0.1900 C.3   1 <1>   0.1400 
 21 C        4.0950    -4.9240     0.2790 C.3   1 <1>   0.0400 
 22 C       -6.6360    -1.1940    -0.7050 C.3   1 <1>  -0.1600 
 23 C       -6.1350     0.2480    -0.7210 C.3   1 <1>  -0.1600 
 24 H       -2.5290     0.3170     1.2400 H     1 <1>   0.0800 
 25 H       -2.0200    -0.6920     2.5400 H     1 <1>   0.0800 
 26 H       -0.7190    -2.1130    -1.1360 H     1 <1>   0.0800 
 27 H       -2.1230    -1.0740    -1.1810 H     1 <1>   0.0800 
 28 H       -2.2080    -2.6510    -0.4130 H     1 <1>   0.0800 
 29 H        0.9040    -2.7310     0.9080 H     1 <1>   0.1500 
 30 H        4.6190    -0.2980    -1.1710 H     1 <1>   0.1500 
 31 H        3.0760     2.9820    -1.3250 H     1 <1>   0.0800 
 32 H        3.7060     1.5970    -2.2090 H     1 <1>   0.0800 
 33 H        4.3040     1.9660    -0.5790 H     1 <1>   0.0800 
 34 H        4.8540    -2.6430    -0.6730 H     1 <1>   0.1500 
 35 H       -6.5100    -1.7190     1.3800 H     1 <1>   0.0800 
 36 H       -5.7230    -2.8770     0.3150 H     1 <1>   0.0800 
 37 H       -4.0110     0.0860    -1.0070 H     1 <1>   0.0800 
 38 H       -4.4710     1.0400     0.4020 H     1 <1>   0.0800 
 39 H        3.9050    -5.9240     0.6250 H     1 <1>   0.0800 
 40 H        4.8950    -4.4860     0.8490 H     1 <1>   0.0800 
 41 H        4.3300    -4.9390    -0.7700 H     1 <1>   0.0800 
 42 H       -7.7050    -1.2570    -0.6120 H     1 <1>   0.0800 
 43 H       -6.3310    -1.6980    -1.6060 H     1 <1>   0.0800 
 44 H       -6.1740     0.6850    -1.7030 H     1 <1>   0.0800 
 45 H       -6.7260     0.8460    -0.0490 H     1 <1>   0.0800 
@<TRIPOS>BOND
  1   1   2  2   
  2   1   3  2   
  3   1   4  am  
  4   1   5  1   
  5   4   6  1   
  6   4   7  1   
  7   5   8  ar  
  8   5   9  ar  
  9   6  10  1   
 10   6  24  1   
 11   6  25  1   
 12   7  26  1   
 13   7  27  1   
 14   7  28  1   
 15   8  11  1   
 16   8  12  ar  
 17   9  13  ar  
 18   9  29  1   
 19  10  14  2   
 20  10  15  am  
 21  11  16  1   
 22  12  17  ar  
 23  12  30  1   
 24  13  17  ar  
 25  13  18  1   
 26  15  19  1   
 27  15  20  1   
 28  16  31  1   
 29  16  32  1   
 30  16  33  1   
 31  17  34  1   
 32  18  21  1   
 33  19  22  1   
 34  19  35  1   
 35  19  36  1   
 36  20  23  1   
 37  20  37  1   
 38  20  38  1   
 39  21  39  1   
 40  21  40  1   
 41  21  41  1   
 42  22  23  1   
 43  22  42  1   
 44  22  43  1   
 45  23  44  1   
 46  23  45  1   
@<TRIPOS>SUBSTRUCTURE
  1 ****   4 GROUP 4 **** **** 0

# MOE 2024.06 (io_trps.svl 2023.06)
