@<TRIPOS>MOLECULE
NONAME
51 52 1 0 0 
SMALL
USER_CHARGES


@<TRIPOS>ATOM
  1 S       -0.0440     0.1670     1.7490 S.o2  1 <1>   1.3330 
  2 O       -1.1920    -0.2950     2.4870 O.2   1 <1>  -0.6500 
  3 O        1.2790     0.0810     2.3260 O.2   1 <1>  -0.6500 
  4 N       -0.2800     1.8320     1.3430 N.am  1 <1>  -0.6930 
  5 C       -0.0240    -0.6040     0.1440 C.3   1 <1>  -0.1350 
  6 C       -1.4990     2.3180     0.8670 C.ar  1 <1>   0.1990 
  7 C        0.9280     2.7170     1.3150 C.3   1 <1>   0.2570 
  8 C       -1.5960     2.8730    -0.4050 C.ar  1 <1>  -0.1500 
  9 C       -2.6430     2.2570     1.6550 C.ar  1 <1>  -0.1500 
 10 C        1.9460     2.3660     0.2250 C.2   1 <1>   0.5690 
 11 C       -2.8030     3.3530    -0.8810 C.ar  1 <1>   0.0830 
 12 C       -3.8530     2.7450     1.1940 C.ar  1 <1>  -0.1500 
 13 O        1.8400     2.9180    -0.8440 O.2   1 <1>  -0.5700 
 14 N        2.9140     1.4340     0.5030 N.am  1 <1>  -0.5470 
 15 O       -2.8230     3.8550    -2.1400 O.3   1 <1>  -0.3630 
 16 C       -3.9390     3.3090    -0.0670 C.ar  1 <1>   0.0830 
 17 C        4.0090     0.9530    -0.2420 C.ar  1 <1>   0.1170 
 18 C       -3.5830     3.1400    -3.0900 C.3   1 <1>   0.0400 
 19 O       -5.1450     3.8000    -0.4560 O.3   1 <1>  -0.3630 
 20 C        4.6220    -0.2550     0.1160 C.ar  1 <1>  -0.1430 
 21 C        4.5090     1.6630    -1.3290 C.ar  1 <1>  -0.1500 
 22 C       -5.2180     5.2030    -0.5890 C.3   1 <1>   0.0400 
 23 C        5.6950    -0.7400    -0.6320 C.ar  1 <1>  -0.1440 
 24 C        4.0960    -1.0300     1.3290 C.3   1 <1>  -0.0970 
 25 C        5.5750     1.1860    -2.0620 C.ar  1 <1>  -0.1500 
 26 C        6.1630    -0.0130    -1.7160 C.ar  1 <1>  -0.1500 
 27 C        6.3960    -2.0560    -0.3160 C.3   1 <1>  -0.0970 
 28 H        0.7600    -0.1950    -0.4630 H     1 <1>   0.0800 
 29 H       -0.9610    -0.4450    -0.3530 H     1 <1>   0.0800 
 30 H        0.1360    -1.6600     0.2450 H     1 <1>   0.0800 
 31 H        1.4130     2.6760     2.2740 H     1 <1>   0.0800 
 32 H        0.6140     3.7340     1.1620 H     1 <1>   0.0800 
 33 H       -0.7330     2.9290    -1.0410 H     1 <1>   0.1500 
 34 H       -2.5840     1.8280     2.6400 H     1 <1>   0.1500 
 35 H       -4.7320     2.6950     1.8110 H     1 <1>   0.1500 
 36 H        2.7550     0.9170     1.3770 H     1 <1>   0.3700 
 37 H       -3.4240     3.5890    -4.0530 H     1 <1>   0.0800 
 38 H       -4.6240     3.1930    -2.8280 H     1 <1>   0.0800 
 39 H       -3.2510     2.1170    -3.1000 H     1 <1>   0.0800 
 40 H        4.0740     2.6020    -1.6150 H     1 <1>   0.1500 
 41 H       -6.2340     5.4660    -0.8200 H     1 <1>   0.0800 
 42 H       -4.5680     5.5190    -1.3850 H     1 <1>   0.0800 
 43 H       -4.9200     5.6560     0.3400 H     1 <1>   0.0800 
 44 H        4.7460    -1.8270     1.6320 H     1 <1>   0.0800 
 45 H        3.9970    -0.3750     2.1760 H     1 <1>   0.0800 
 46 H        3.1360    -1.4540     1.1000 H     1 <1>   0.0800 
 47 H        5.9460     1.7480    -2.9020 H     1 <1>   0.1500 
 48 H        6.9910    -0.3730    -2.2990 H     1 <1>   0.1500 
 49 H        6.8870    -1.9900     0.6380 H     1 <1>   0.0800 
 50 H        7.1370    -2.2900    -1.0580 H     1 <1>   0.0800 
 51 H        5.6830    -2.8590    -0.2950 H     1 <1>   0.0800 
@<TRIPOS>BOND
  1   1   2  2   
  2   1   3  2   
  3   1   4  am  
  4   1   5  1   
  5   4   6  1   
  6   4   7  1   
  7   5  28  1   
  8   5  29  1   
  9   5  30  1   
 10   6   8  ar  
 11   6   9  ar  
 12   7  10  1   
 13   7  31  1   
 14   7  32  1   
 15   8  11  ar  
 16   8  33  1   
 17   9  12  ar  
 18   9  34  1   
 19  10  13  2   
 20  10  14  am  
 21  11  15  1   
 22  11  16  ar  
 23  12  16  ar  
 24  12  35  1   
 25  14  17  1   
 26  14  36  1   
 27  15  18  1   
 28  16  19  1   
 29  17  20  ar  
 30  17  21  ar  
 31  18  37  1   
 32  18  38  1   
 33  18  39  1   
 34  19  22  1   
 35  20  23  ar  
 36  20  24  1   
 37  21  25  ar  
 38  21  40  1   
 39  22  41  1   
 40  22  42  1   
 41  22  43  1   
 42  23  26  ar  
 43  23  27  1   
 44  24  44  1   
 45  24  45  1   
 46  24  46  1   
 47  25  26  ar  
 48  25  47  1   
 49  26  48  1   
 50  27  49  1   
 51  27  50  1   
 52  27  51  1   
@<TRIPOS>SUBSTRUCTURE
  1 ****   4 GROUP 4 **** **** 0

# MOE 2024.06 (io_trps.svl 2023.06)
