@<TRIPOS>MOLECULE
NONAME
38 39 1 0 0 
SMALL
USER_CHARGES


@<TRIPOS>ATOM
  1 O        1.5860     2.9830    -1.0300 O.2   1 <1>  -0.5700 
  2 C        1.5850     3.6920    -0.0500 C.2   1 <1>   0.5690 
  3 N        2.7260     4.1080     0.5840 N.am  1 <1>  -0.5470 
  4 C        0.1960     4.1260     0.4660 C.3   1 <1>   0.4840 
  5 C        4.0480     3.8530     0.1890 C.ar  1 <1>   0.1170 
  6 N       -0.9140     3.4450    -0.2820 N.4   1 <1>  -0.9060 
  7 C       -0.0760     5.6180     0.2730 C.3   1 <1>  -0.1600 
  8 C        4.8370     4.9110    -0.2680 C.ar  1 <1>  -0.1430 
  9 C        4.5990     2.5710     0.2690 C.ar  1 <1>  -0.1430 
 10 C       -1.9310     4.4350    -0.7120 C.3   1 <1>   0.3430 
 11 C       -1.5810     5.7110     0.0390 C.3   1 <1>  -0.1600 
 12 C        6.1500     4.6800    -0.6430 C.ar  1 <1>  -0.1500 
 13 C        4.2880     6.3290    -0.3760 C.3   1 <1>  -0.0970 
 14 C        5.9120     2.3640    -0.1160 C.ar  1 <1>  -0.1500 
 15 C        3.8020     1.3750     0.7770 C.3   1 <1>  -0.0970 
 16 C        6.6930     3.4100    -0.5730 C.ar  1 <1>  -0.1430 
 17 C        8.1330     3.1660    -0.9890 C.3   1 <1>  -0.0970 
 18 H        2.6610     4.7760     1.3510 H     1 <1>   0.3700 
 19 H        0.1160     3.8830     1.5120 H     1 <1>   0.0800 
 20 H       -1.3150     2.6790     0.2690 H     1 <1>   0.4500 
 21 H       -0.4470     3.0120    -1.1020 H     1 <1>   0.4500 
 22 H        0.4500     5.9730    -0.5980 H     1 <1>   0.0800 
 23 H        0.2400     6.1950     1.1250 H     1 <1>   0.0800 
 24 H       -2.9330     4.1050    -0.4860 H     1 <1>   0.0800 
 25 H       -1.8440     4.6050    -1.7740 H     1 <1>   0.0800 
 26 H       -1.8550     6.5880    -0.5230 H     1 <1>   0.0800 
 27 H       -2.1080     5.7270     0.9780 H     1 <1>   0.0800 
 28 H        6.7610     5.4910    -0.9960 H     1 <1>   0.1500 
 29 H        3.4190     6.3390    -1.0080 H     1 <1>   0.0800 
 30 H        5.0190     6.9920    -0.8060 H     1 <1>   0.0800 
 31 H        4.0290     6.7020     0.5970 H     1 <1>   0.0800 
 32 H        6.3380     1.3780    -0.0610 H     1 <1>   0.1500 
 33 H        3.2490     1.6370     1.6590 H     1 <1>   0.0800 
 34 H        4.4560     0.5590     1.0250 H     1 <1>   0.0800 
 35 H        3.1220     1.0420     0.0140 H     1 <1>   0.0800 
 36 H        8.4320     3.8720    -1.7430 H     1 <1>   0.0800 
 37 H        8.2450     2.1750    -1.3910 H     1 <1>   0.0800 
 38 H        8.7800     3.2710    -0.1380 H     1 <1>   0.0800 
@<TRIPOS>BOND
  1   1   2  2   
  2   2   3  am  
  3   2   4  1   
  4   3   5  1   
  5   3  18  1   
  6   4   6  1   
  7   4   7  1   
  8   4  19  1   
  9   5   8  ar  
 10   5   9  ar  
 11   6  10  1   
 12   6  20  1   
 13   6  21  1   
 14   7  11  1   
 15   7  22  1   
 16   7  23  1   
 17   8  12  ar  
 18   8  13  1   
 19   9  14  ar  
 20   9  15  1   
 21  10  11  1   
 22  10  24  1   
 23  10  25  1   
 24  11  26  1   
 25  11  27  1   
 26  12  16  ar  
 27  12  28  1   
 28  13  29  1   
 29  13  30  1   
 30  13  31  1   
 31  14  16  ar  
 32  14  32  1   
 33  15  33  1   
 34  15  34  1   
 35  15  35  1   
 36  16  17  1   
 37  17  36  1   
 38  17  37  1   
 39  17  38  1   
@<TRIPOS>SUBSTRUCTURE
  1 ****   3 GROUP 4 **** **** 0

# MOE 2024.06 (io_trps.svl 2023.06)
