@<TRIPOS>MOLECULE
NONAME
41 42 1 0 0 
SMALL
USER_CHARGES


@<TRIPOS>ATOM
  1 S       -0.1800     0.0080     1.6740 S.o2  1 <1>   1.3330 
  2 O        0.2500    -1.3650     1.7740 O.2   1 <1>  -0.6500 
  3 O       -1.0710     0.5890     2.6470 O.2   1 <1>  -0.6500 
  4 N        1.2110     1.0100     1.7500 N.am  1 <1>  -0.7570 
  5 C       -0.8070     0.3490     0.0280 C.3   1 <1>  -0.0550 
  6 C        2.3690     0.9820     0.9830 C.ar  1 <1>   0.1990 
  7 C       -2.1090    -0.3980    -0.3030 C.3   1 <1>  -0.1600 
  8 C        3.1510     2.1280     0.9100 C.ar  1 <1>  -0.1500 
  9 C        2.7830    -0.1420     0.2750 C.ar  1 <1>  -0.1500 
 10 C       -2.5940    -0.0710    -1.7210 C.3   1 <1>  -0.1600 
 11 C        4.2980     2.1620     0.1370 C.ar  1 <1>  -0.1500 
 12 C        3.9290    -0.1110    -0.4990 C.ar  1 <1>  -0.1500 
 13 C       -3.8890    -0.8200    -2.0420 C.3   1 <1>  -0.2400 
 14 C        4.6940     1.0420    -0.5790 C.ar  1 <1>  -0.1430 
 15 C        5.9470     1.0780    -1.4490 C.3   1 <1>   0.1270 
 16 C        6.9570     0.0030    -1.0680 C.ar  1 <1>  -0.1430 
 17 C        7.5590    -0.8000    -2.0170 C.ar  1 <1>  -0.1500 
 18 C        7.3350    -0.2200     0.2410 C.ar  1 <1>  -0.1500 
 19 C        8.4840    -1.7530    -1.6230 C.ar  1 <1>   0.1600 
 20 C        8.2700    -1.2010     0.5290 C.ar  1 <1>   0.1600 
 21 N        8.8570    -1.9720    -0.3730 N.ar  1 <1>  -0.6200 
 22 H        1.0470     1.7900     2.3780 H     1 <1>   0.4200 
 23 H       -0.0600     0.0750    -0.6920 H     1 <1>   0.0800 
 24 H       -0.9800     1.4030    -0.0670 H     1 <1>   0.0800 
 25 H       -2.8660    -0.1220     0.4120 H     1 <1>   0.0800 
 26 H       -1.9400    -1.4590    -0.2140 H     1 <1>   0.0800 
 27 H        2.8580     3.0040     1.4580 H     1 <1>   0.1500 
 28 H        2.2210    -1.0550     0.3280 H     1 <1>   0.1500 
 29 H       -1.8390    -0.3500    -2.4370 H     1 <1>   0.0800 
 30 H       -2.7670     0.9880    -1.8110 H     1 <1>   0.0800 
 31 H        4.8800     3.0660     0.0970 H     1 <1>   0.1500 
 32 H        4.2300    -0.9940    -1.0370 H     1 <1>   0.1500 
 33 H       -3.7360    -1.8840    -1.9800 H     1 <1>   0.0800 
 34 H       -4.2160    -0.5800    -3.0380 H     1 <1>   0.0800 
 35 H       -4.6670    -0.5420    -1.3520 H     1 <1>   0.0800 
 36 H        6.4250     2.0380    -1.3670 H     1 <1>   0.0800 
 37 H        5.6510     0.9530    -2.4750 H     1 <1>   0.0800 
 38 H        7.3230    -0.6950    -3.0600 H     1 <1>   0.1500 
 39 H        6.9080     0.3590     1.0400 H     1 <1>   0.1500 
 40 H        8.9430    -2.3680    -2.3780 H     1 <1>   0.1500 
 41 H        8.5500    -1.3590     1.5560 H     1 <1>   0.1500 
@<TRIPOS>BOND
  1   1   2  2   
  2   1   3  2   
  3   1   4  am  
  4   1   5  1   
  5   4   6  1   
  6   4  22  1   
  7   5   7  1   
  8   5  23  1   
  9   5  24  1   
 10   6   8  ar  
 11   6   9  ar  
 12   7  10  1   
 13   7  25  1   
 14   7  26  1   
 15   8  11  ar  
 16   8  27  1   
 17   9  12  ar  
 18   9  28  1   
 19  10  13  1   
 20  10  29  1   
 21  10  30  1   
 22  11  14  ar  
 23  11  31  1   
 24  12  14  ar  
 25  12  32  1   
 26  13  33  1   
 27  13  34  1   
 28  13  35  1   
 29  14  15  1   
 30  15  16  1   
 31  15  36  1   
 32  15  37  1   
 33  16  17  ar  
 34  16  18  ar  
 35  17  19  ar  
 36  17  38  1   
 37  18  20  ar  
 38  18  39  1   
 39  19  21  ar  
 40  19  40  1   
 41  20  21  ar  
 42  20  41  1   
@<TRIPOS>SUBSTRUCTURE
  1 ****   9 GROUP 4 **** **** 0

# MOE 2024.06 (io_trps.svl 2023.06)
