@<TRIPOS>MOLECULE
NONAME
44 45 1 0 0 
SMALL
USER_CHARGES


@<TRIPOS>ATOM
  1 O       -0.0500    -0.9560     0.6330 O.3   1 <1>  -0.3630 
  2 C       -1.2520    -1.2430     0.0840 C.ar  1 <1>   0.0830 
  3 C        1.0540    -1.0680    -0.2290 C.3   1 <1>   0.1200 
  4 C       -1.7360    -2.5490     0.1310 C.ar  1 <1>  -0.1440 
  5 C       -1.9950    -0.2280    -0.5150 C.ar  1 <1>  -0.1440 
  6 C        2.3040    -0.6820     0.5630 C.3   1 <1>  -0.1600 
  7 C       -2.9550    -2.8370    -0.4610 C.ar  1 <1>  -0.1500 
  8 C       -0.9620    -3.6610     0.8240 C.3   1 <1>  -0.0960 
  9 C       -3.2110    -0.5400    -1.1010 C.ar  1 <1>  -0.1500 
 10 C       -1.5050     1.2130    -0.5340 C.3   1 <1>  -0.0970 
 11 C        3.5710    -0.7690    -0.2990 C.3   1 <1>  -0.1600 
 12 C       -3.6870    -1.8380    -1.0770 C.ar  1 <1>  -0.1500 
 13 C        4.8030    -0.3720     0.5190 C.3   1 <1>   0.3430 
 14 N        6.0180    -0.3770    -0.3390 N.4   1 <1>  -0.9590 
 15 C        6.4510    -1.7280    -0.7790 C.3   1 <1>   0.3430 
 16 C        7.1970     0.2200     0.3360 C.3   1 <1>   0.3430 
 17 C        7.9080    -1.5480    -1.1830 C.3   1 <1>  -0.1600 
 18 C        8.3870    -0.2810    -0.4700 C.3   1 <1>  -0.1600 
 19 H        0.8990    -0.4060    -1.0640 H     1 <1>   0.0800 
 20 H        1.1080    -2.0840    -0.5790 H     1 <1>   0.0800 
 21 H        2.3900    -1.3460     1.4070 H     1 <1>   0.0800 
 22 H        2.1780     0.3230     0.9290 H     1 <1>   0.0800 
 23 H       -3.3430    -3.8400    -0.4430 H     1 <1>   0.1500 
 24 H       -0.1840    -4.0240     0.1780 H     1 <1>   0.0800 
 25 H       -1.6130    -4.4790     1.0730 H     1 <1>   0.0800 
 26 H       -0.5220    -3.2960     1.7340 H     1 <1>   0.0800 
 27 H       -3.7970     0.2270    -1.5760 H     1 <1>   0.1500 
 28 H       -0.7810     1.3440    -1.3160 H     1 <1>   0.0800 
 29 H       -1.0540     1.4630     0.4100 H     1 <1>   0.0800 
 30 H       -2.3230     1.8900    -0.7030 H     1 <1>   0.0800 
 31 H        3.4660    -0.1050    -1.1390 H     1 <1>   0.0800 
 32 H        3.6750    -1.7770    -0.6590 H     1 <1>   0.0800 
 33 H       -4.6320    -2.0710    -1.5360 H     1 <1>   0.1500 
 34 H        4.9290    -1.0540     1.3450 H     1 <1>   0.0800 
 35 H        4.6500     0.6170     0.9200 H     1 <1>   0.0800 
 36 H        5.8360     0.1810    -1.1840 H     1 <1>   0.4500 
 37 H        5.8520    -2.0940    -1.5980 H     1 <1>   0.0800 
 38 H        6.3890    -2.4180     0.0470 H     1 <1>   0.0800 
 39 H        7.2660    -0.1510     1.3460 H     1 <1>   0.0800 
 40 H        7.1480     1.2970     0.3510 H     1 <1>   0.0800 
 41 H        7.9800    -1.4300    -2.2500 H     1 <1>   0.0800 
 42 H        8.4850    -2.4110    -0.8960 H     1 <1>   0.0800 
 43 H        9.2240    -0.4770     0.1780 H     1 <1>   0.0800 
 44 H        8.6810     0.4660    -1.1880 H     1 <1>   0.0800 
@<TRIPOS>BOND
  1   1   2  1   
  2   1   3  1   
  3   2   4  ar  
  4   2   5  ar  
  5   3   6  1   
  6   3  19  1   
  7   3  20  1   
  8   4   7  ar  
  9   4   8  1   
 10   5   9  ar  
 11   5  10  1   
 12   6  11  1   
 13   6  21  1   
 14   6  22  1   
 15   7  12  ar  
 16   7  23  1   
 17   8  24  1   
 18   8  25  1   
 19   8  26  1   
 20   9  12  ar  
 21   9  27  1   
 22  10  28  1   
 23  10  29  1   
 24  10  30  1   
 25  11  13  1   
 26  11  31  1   
 27  11  32  1   
 28  12  33  1   
 29  13  14  1   
 30  13  34  1   
 31  13  35  1   
 32  14  15  1   
 33  14  16  1   
 34  14  36  1   
 35  15  17  1   
 36  15  37  1   
 37  15  38  1   
 38  16  18  1   
 39  16  39  1   
 40  16  40  1   
 41  17  18  1   
 42  17  41  1   
 43  17  42  1   
 44  18  43  1   
 45  18  44  1   
@<TRIPOS>SUBSTRUCTURE
  1 ****   3 GROUP 4 **** **** 0

# MOE 2024.06 (io_trps.svl 2023.06)
