@<TRIPOS>MOLECULE
NONAME
50 52 1 0 0 
SMALL
USER_CHARGES


@<TRIPOS>ATOM
  1 N        0.1510     0.1540    -0.0360 N.4   1 <1>  -0.9590 
  2 C        1.3010     1.0440    -0.3760 C.3   1 <1>   0.4230 
  3 C       -1.1770     0.7890    -0.3540 C.3   1 <1>   0.3430 
  4 C        0.1350    -0.4210     1.3450 C.3   1 <1>   0.3430 
  5 C        2.5920     0.2260    -0.4640 C.3   1 <1>  -0.1600 
  6 C        1.4680     2.2000     0.6190 C.3   1 <1>  -0.1600 
  7 C       -2.3720    -0.0740     0.1050 C.3   1 <1>  -0.0800 
  8 C       -0.8210    -1.6200     1.3840 C.3   1 <1>  -0.1600 
  9 C        3.7750     1.1180    -0.8420 C.3   1 <1>   0.3430 
 10 C        2.6610     3.0790     0.2340 C.3   1 <1>   0.3430 
 11 C       -1.9750    -1.5360     0.3680 C.3   1 <1>  -0.1600 
 12 C       -3.5090    -0.0090    -0.9230 C.3   1 <1>  -0.2400 
 13 N        3.8920     2.2480     0.1290 N.4   1 <1>  -0.9590 
 14 C        5.0870     3.0930    -0.1790 C.3   1 <1>   0.4860 
 15 C        6.3230     2.2380     0.0090 C.ar  1 <1>  -0.1430 
 16 C        6.7620     1.9140     1.2860 C.ar  1 <1>  -0.1500 
 17 C        7.0200     1.7640    -1.0940 C.ar  1 <1>  -0.1500 
 18 C        7.8740     1.1080     1.4560 C.ar  1 <1>  -0.1500 
 19 C        8.1320     0.9580    -0.9200 C.ar  1 <1>  -0.1500 
 20 C        8.5570     0.6280     0.3530 C.ar  1 <1>  -0.1500 
 21 H        0.1960    -0.6680    -0.6550 H     1 <1>   0.4500 
 22 H        1.1180     1.4670    -1.3520 H     1 <1>   0.0800 
 23 H       -1.2490     0.9370    -1.4200 H     1 <1>   0.0800 
 24 H       -1.2540     1.7550     0.1170 H     1 <1>   0.0800 
 25 H       -0.2050     0.3290     2.0420 H     1 <1>   0.0800 
 26 H        1.1180    -0.7430     1.6450 H     1 <1>   0.0800 
 27 H        2.4900    -0.5330    -1.2200 H     1 <1>   0.0800 
 28 H        2.8150    -0.2570     0.4690 H     1 <1>   0.0800 
 29 H        1.6240     1.8360     1.6180 H     1 <1>   0.0800 
 30 H        0.5870     2.8170     0.6200 H     1 <1>   0.0800 
 31 H       -2.7450     0.3430     1.0260 H     1 <1>   0.0800 
 32 H       -1.2290    -1.6830     2.3790 H     1 <1>   0.0800 
 33 H       -0.2690    -2.5290     1.2200 H     1 <1>   0.0800 
 34 H        3.6380     1.5070    -1.8390 H     1 <1>   0.0800 
 35 H        4.6810     0.5300    -0.8350 H     1 <1>   0.0800 
 36 H        2.7970     3.8480     0.9800 H     1 <1>   0.0800 
 37 H        2.4660     3.5630    -0.7110 H     1 <1>   0.0800 
 38 H       -1.6730    -1.9970    -0.5580 H     1 <1>   0.0800 
 39 H       -2.8210    -2.0920     0.7390 H     1 <1>   0.0800 
 40 H       -3.2020    -0.4210    -1.8690 H     1 <1>   0.0800 
 41 H       -3.8260     1.0080    -1.0770 H     1 <1>   0.0800 
 42 H       -4.3590    -0.5700    -0.5730 H     1 <1>   0.0800 
 43 H        4.1110     1.8380     1.0490 H     1 <1>   0.4500 
 44 H        5.1370     3.9350     0.4920 H     1 <1>   0.0800 
 45 H        5.0430     3.4620    -1.1910 H     1 <1>   0.0800 
 46 H        6.2590     2.2840     2.1640 H     1 <1>   0.1500 
 47 H        6.7180     2.0130    -2.0970 H     1 <1>   0.1500 
 48 H        8.2170     0.8560     2.4460 H     1 <1>   0.1500 
 49 H        8.6740     0.5890    -1.7750 H     1 <1>   0.1500 
 50 H        9.4230     0.0020     0.4870 H     1 <1>   0.1500 
@<TRIPOS>BOND
  1   1   2  1   
  2   1   3  1   
  3   1   4  1   
  4   1  21  1   
  5   2   5  1   
  6   2   6  1   
  7   2  22  1   
  8   3   7  1   
  9   3  23  1   
 10   3  24  1   
 11   4   8  1   
 12   4  25  1   
 13   4  26  1   
 14   5   9  1   
 15   5  27  1   
 16   5  28  1   
 17   6  10  1   
 18   6  29  1   
 19   6  30  1   
 20   7  11  1   
 21   7  12  1   
 22   7  31  1   
 23   8  11  1   
 24   8  32  1   
 25   8  33  1   
 26   9  13  1   
 27   9  34  1   
 28   9  35  1   
 29  10  13  1   
 30  10  36  1   
 31  10  37  1   
 32  11  38  1   
 33  11  39  1   
 34  12  40  1   
 35  12  41  1   
 36  12  42  1   
 37  13  14  1   
 38  13  43  1   
 39  14  15  1   
 40  14  44  1   
 41  14  45  1   
 42  15  16  ar  
 43  15  17  ar  
 44  16  18  ar  
 45  16  46  1   
 46  17  19  ar  
 47  17  47  1   
 48  18  20  ar  
 49  18  48  1   
 50  19  20  ar  
 51  19  49  1   
 52  20  50  1   
@<TRIPOS>SUBSTRUCTURE
  1 ****   5 GROUP 4 **** **** 0

# MOE 2024.06 (io_trps.svl 2023.06)
