@<TRIPOS>MOLECULE
NONAME
25 25 1 0 0 
SMALL
USER_CHARGES


@<TRIPOS>ATOM
  1 I       -0.2570    -0.0170    -1.3950 I     1 <1>  -0.0810 
  2 C        1.5350    -0.9300    -0.7120 C.ar  1 <1>   0.0810 
  3 C        2.7360    -0.2770    -0.9150 C.ar  1 <1>  -0.1500 
  4 C        1.4600    -2.1560    -0.0790 C.ar  1 <1>  -0.1500 
  5 C        3.8980    -0.8810    -0.4680 C.ar  1 <1>  -0.1500 
  6 C        2.6340    -2.7410     0.3590 C.ar  1 <1>  -0.1500 
  7 C        3.8770    -2.1270     0.1720 C.ar  1 <1>   0.0860 
  8 C        5.0960    -2.7700     0.6310 C.2   1 <1>   0.5440 
  9 O        5.0770    -3.5220     1.5860 O.2   1 <1>  -0.5700 
 10 N        6.2820    -2.5540    -0.0140 N.am  1 <1>  -0.7300 
 11 C        7.5780    -3.1340     0.3570 C.3   1 <1>   0.2200 
 12 C        8.5710    -1.9930     0.5470 C.3   1 <1>  -0.2400 
 13 C        8.0180    -4.0720    -0.7620 C.3   1 <1>  -0.2400 
 14 H        2.7610     0.6800    -1.4060 H     1 <1>   0.1500 
 15 H        0.5110    -2.6400     0.0710 H     1 <1>   0.1500 
 16 H        4.8360    -0.3730    -0.6080 H     1 <1>   0.1500 
 17 H        2.5990    -3.6950     0.8590 H     1 <1>   0.1500 
 18 H        6.2860    -2.0230    -0.8820 H     1 <1>   0.3700 
 19 H        7.4860    -3.6880     1.2780 H     1 <1>   0.0800 
 20 H        8.6860    -1.4270    -0.3590 H     1 <1>   0.0800 
 21 H        9.5290    -2.3880     0.8290 H     1 <1>   0.0800 
 22 H        8.2320    -1.3430     1.3340 H     1 <1>   0.0800 
 23 H        8.1220    -3.5410    -1.6910 H     1 <1>   0.0800 
 24 H        7.2960    -4.8610    -0.8780 H     1 <1>   0.0800 
 25 H        8.9640    -4.5170    -0.5120 H     1 <1>   0.0800 
@<TRIPOS>BOND
  1   1   2  1   
  2   2   3  ar  
  3   2   4  ar  
  4   3   5  ar  
  5   3  14  1   
  6   4   6  ar  
  7   4  15  1   
  8   5   7  ar  
  9   5  16  1   
 10   6   7  ar  
 11   6  17  1   
 12   7   8  1   
 13   8   9  2   
 14   8  10  am  
 15  10  11  1   
 16  10  18  1   
 17  11  12  1   
 18  11  13  1   
 19  11  19  1   
 20  12  20  1   
 21  12  21  1   
 22  12  22  1   
 23  13  23  1   
 24  13  24  1   
 25  13  25  1   
@<TRIPOS>SUBSTRUCTURE
  1 ****   7 GROUP 4 **** **** 0

# MOE 2024.06 (io_trps.svl 2023.06)
