@<TRIPOS>MOLECULE
NONAME
30 30 1 0 0 
SMALL
USER_CHARGES


@<TRIPOS>ATOM
  1 BR      -0.3490    -0.7350    -0.3000 Br    1 <1>  -0.1110 
  2 C        1.5010    -1.1450     0.0740 C.ar  1 <1>   0.1110 
  3 C        2.0890    -2.2990    -0.4250 C.ar  1 <1>   0.1660 
  4 C        2.2130    -0.2570     0.8480 C.ar  1 <1>  -0.1500 
  5 N        3.3540    -2.6200    -0.1920 N.ar  1 <1>  -0.6200 
  6 C        1.2950    -3.2710    -1.2770 C.3   1 <1>  -0.0960 
  7 C        3.5270    -0.5950     1.0860 C.ar  1 <1>  -0.1500 
  8 C        4.0550    -1.7740     0.5530 C.ar  1 <1>   0.4270 
  9 N        5.3540    -2.1940     0.7350 N.am  1 <1>  -0.5470 
 10 C        6.4260    -1.6600     1.3830 C.2   1 <1>   0.5690 
 11 O        6.3990    -0.6110     1.9760 O.2   1 <1>  -0.5700 
 12 C        7.7240    -2.4430     1.3490 C.3   1 <1>  -0.0990 
 13 C        8.4000    -2.3880    -0.0320 C.3   1 <1>  -0.1600 
 14 C        9.7140    -3.1790    -0.0410 C.3   1 <1>  -0.1600 
 15 C       10.3800    -3.1200    -1.4180 C.3   1 <1>  -0.2400 
 16 H        1.7660     0.6390     1.2390 H     1 <1>   0.1500 
 17 H        0.9320    -2.7740    -2.1580 H     1 <1>   0.0800 
 18 H        0.4620    -3.6540    -0.7170 H     1 <1>   0.0800 
 19 H        1.9120    -4.0970    -1.5810 H     1 <1>   0.0800 
 20 H        4.1370     0.0540     1.6830 H     1 <1>   0.1500 
 21 H        5.5100    -3.0770     0.2590 H     1 <1>   0.3700 
 22 H        7.5220    -3.4630     1.6210 H     1 <1>   0.0800 
 23 H        8.3880    -2.0320     2.0880 H     1 <1>   0.0800 
 24 H        8.5990    -1.3600    -0.2840 H     1 <1>   0.0800 
 25 H        7.7360    -2.7890    -0.7780 H     1 <1>   0.0800 
 26 H        9.5220    -4.2080     0.2150 H     1 <1>   0.0800 
 27 H       10.3870    -2.7720     0.6940 H     1 <1>   0.0800 
 28 H        9.7340    -3.5430    -2.1680 H     1 <1>   0.0800 
 29 H       11.3000    -3.6780    -1.4060 H     1 <1>   0.0800 
 30 H       10.6020    -2.1020    -1.6850 H     1 <1>   0.0800 
@<TRIPOS>BOND
  1   1   2  1   
  2   2   3  ar  
  3   2   4  ar  
  4   3   5  ar  
  5   3   6  1   
  6   4   7  ar  
  7   4  16  1   
  8   5   8  ar  
  9   6  17  1   
 10   6  18  1   
 11   6  19  1   
 12   7   8  ar  
 13   7  20  1   
 14   8   9  1   
 15   9  10  am  
 16   9  21  1   
 17  10  11  2   
 18  10  12  1   
 19  12  13  1   
 20  12  22  1   
 21  12  23  1   
 22  13  14  1   
 23  13  24  1   
 24  13  25  1   
 25  14  15  1   
 26  14  26  1   
 27  14  27  1   
 28  15  28  1   
 29  15  29  1   
 30  15  30  1   
@<TRIPOS>SUBSTRUCTURE
  1 ****   9 GROUP 4 **** **** 0

# MOE 2024.06 (io_trps.svl 2023.06)
