@<TRIPOS>MOLECULE
NONAME
49 50 1 0 0 
SMALL
USER_CHARGES


@<TRIPOS>ATOM
  1 S       -0.3030     0.1090    -0.0840 S.o2  1 <1>   1.3330 
  2 O       -0.7080     1.4710     0.1870 O.2   1 <1>  -0.6500 
  3 O        0.2140    -0.2370    -1.3900 O.2   1 <1>  -0.6500 
  4 N       -1.6270    -0.9020     0.2170 N.am  1 <1>  -0.8490 
  5 C        0.8680    -0.3960     1.1840 C.3   1 <1>  -0.0550 
  6 C       -2.9170    -0.2180    -0.0250 C.3   1 <1>   0.1960 
  7 C       -1.5370    -2.2000    -0.4510 C.3   1 <1>   0.1960 
  8 C        2.2060     0.3650     1.1560 C.3   1 <1>  -0.2400 
  9 C       -4.1020    -1.1830    -0.2240 C.3   1 <1>  -0.0190 
 10 C       -2.5760    -3.1700     0.1390 C.3   1 <1>  -0.1600 
 11 C       -5.4050    -0.4860     0.1380 C.2   1 <1>   0.5690 
 12 C       -3.8900    -2.4870     0.5650 C.3   1 <1>  -0.1600 
 13 O       -5.5940    -0.1570     1.2840 O.2   1 <1>  -0.5700 
 14 N       -6.3090    -0.2550    -0.8540 N.am  1 <1>  -0.7300 
 15 C       -7.6280     0.4090    -0.7400 C.3   1 <1>   0.2200 
 16 C       -7.4230     1.8920    -0.4040 C.3   1 <1>  -0.1600 
 17 C       -8.5270    -0.3670     0.2350 C.3   1 <1>  -0.1600 
 18 C       -8.7220     2.7090    -0.2940 C.3   1 <1>  -0.1600 
 19 C      -10.0150    -0.0190     0.0620 C.3   1 <1>  -0.1600 
 20 C       -9.5120     2.3830     0.9820 C.3   1 <1>  -0.1600 
 21 C      -10.4920     1.2050     0.8590 C.3   1 <1>  -0.1600 
 22 H        1.0690    -1.4430     1.0750 H     1 <1>   0.0800 
 23 H        0.4130    -0.2530     2.1450 H     1 <1>   0.0800 
 24 H       -2.8410     0.4140    -0.8960 H     1 <1>   0.0800 
 25 H       -3.1110     0.4230     0.8210 H     1 <1>   0.0800 
 26 H       -0.5520    -2.6180    -0.3270 H     1 <1>   0.0800 
 27 H       -1.7080    -2.0680    -1.5080 H     1 <1>   0.0800 
 28 H        2.6950     0.2180     0.2090 H     1 <1>   0.0800 
 29 H        2.8520     0.0130     1.9410 H     1 <1>   0.0800 
 30 H        2.0330     1.4190     1.2940 H     1 <1>   0.0800 
 31 H       -4.1440    -1.4340    -1.2680 H     1 <1>   0.0800 
 32 H       -2.1480    -3.6650     0.9930 H     1 <1>   0.0800 
 33 H       -2.7820    -3.9270    -0.5970 H     1 <1>   0.0800 
 34 H       -4.7220    -3.1550     0.4270 H     1 <1>   0.0800 
 35 H       -3.8340    -2.2420     1.6130 H     1 <1>   0.0800 
 36 H       -6.0840    -0.5590    -1.8000 H     1 <1>   0.3700 
 37 H       -8.0860     0.3590    -1.7130 H     1 <1>   0.0800 
 38 H       -6.8190     2.3280    -1.1790 H     1 <1>   0.0800 
 39 H       -6.8780     1.9810     0.5200 H     1 <1>   0.0800 
 40 H       -8.2190    -0.2000     1.2520 H     1 <1>   0.0800 
 41 H       -8.4120    -1.4160     0.0270 H     1 <1>   0.0800 
 42 H       -9.3360     2.5770    -1.1680 H     1 <1>   0.0800 
 43 H       -8.4450     3.7480    -0.2510 H     1 <1>   0.0800 
 44 H      -10.6030    -0.8630     0.3780 H     1 <1>   0.0800 
 45 H      -10.2280     0.1310    -0.9830 H     1 <1>   0.0800 
 46 H      -10.0800     3.2520     1.2660 H     1 <1>   0.0800 
 47 H       -8.8240     2.1890     1.7880 H     1 <1>   0.0800 
 48 H      -10.7440     0.8870     1.8560 H     1 <1>   0.0800 
 49 H      -11.4030     1.5600     0.4070 H     1 <1>   0.0800 
@<TRIPOS>BOND
  1   1   2  2   
  2   1   3  2   
  3   1   4  am  
  4   1   5  1   
  5   4   6  1   
  6   4   7  1   
  7   5   8  1   
  8   5  22  1   
  9   5  23  1   
 10   6   9  1   
 11   6  24  1   
 12   6  25  1   
 13   7  10  1   
 14   7  26  1   
 15   7  27  1   
 16   8  28  1   
 17   8  29  1   
 18   8  30  1   
 19   9  11  1   
 20   9  12  1   
 21   9  31  1   
 22  10  12  1   
 23  10  32  1   
 24  10  33  1   
 25  11  13  2   
 26  11  14  am  
 27  12  34  1   
 28  12  35  1   
 29  14  15  1   
 30  14  36  1   
 31  15  16  1   
 32  15  17  1   
 33  15  37  1   
 34  16  18  1   
 35  16  38  1   
 36  16  39  1   
 37  17  19  1   
 38  17  40  1   
 39  17  41  1   
 40  18  20  1   
 41  18  42  1   
 42  18  43  1   
 43  19  21  1   
 44  19  44  1   
 45  19  45  1   
 46  20  21  1   
 47  20  46  1   
 48  20  47  1   
 49  21  48  1   
 50  21  49  1   
@<TRIPOS>SUBSTRUCTURE
  1 ****  11 GROUP 4 **** **** 0

# MOE 2024.06 (io_trps.svl 2023.06)
