@<TRIPOS>MOLECULE
NONAME
49 51 1 0 0 
SMALL
USER_CHARGES


@<TRIPOS>ATOM
  1 O       -0.3520     0.3960    -0.1620 O.2   1 <1>  -0.5700 
  2 C       -0.3110     1.6020    -0.0340 C.2   1 <1>   0.3980 
  3 C       -1.5150     2.3840    -0.2310 C.ar  1 <1>   0.0860 
  4 C        0.9430     2.2430     0.3110 C.ar  1 <1>   0.0860 
  5 C       -1.4900     3.6640    -0.7910 C.ar  1 <1>  -0.1500 
  6 C       -2.7630     1.8710     0.1280 C.ar  1 <1>  -0.1500 
  7 C        1.0030     3.3350     1.1810 C.ar  1 <1>  -0.1500 
  8 C        2.1490     1.7780    -0.2160 C.ar  1 <1>  -0.1500 
  9 C       -2.6450     4.4030    -0.9690 C.ar  1 <1>  -0.1500 
 10 C       -3.9220     2.6020    -0.0460 C.ar  1 <1>  -0.1500 
 11 C        2.2050     3.9450     1.4910 C.ar  1 <1>  -0.1500 
 12 C        3.3540     2.3830     0.0910 C.ar  1 <1>  -0.1500 
 13 C       -3.8770     3.8740    -0.5920 C.ar  1 <1>   0.0830 
 14 C        3.3840     3.4710     0.9440 C.ar  1 <1>  -0.1500 
 15 O       -5.0510     4.5280    -0.7270 O.3   1 <1>  -0.3630 
 16 C       -5.1280     5.8080    -1.3140 C.3   1 <1>   0.1200 
 17 C       -6.5940     6.2480    -1.2940 C.3   1 <1>   0.2000 
 18 O       -6.6850     7.5970    -1.6560 O.3   1 <1>  -0.6800 
 19 C       -7.2080     6.0600     0.1120 C.3   1 <1>   0.3430 
 20 N       -8.3730     6.9760     0.3180 N.4   1 <1>  -0.9590 
 21 C       -8.6110     7.2910     1.7660 C.3   1 <1>   0.3430 
 22 C       -9.6260     6.4820    -0.3470 C.3   1 <1>   0.3430 
 23 C       -9.8550     8.1810     1.9510 C.3   1 <1>   0.1200 
 24 C      -10.8190     7.4140    -0.0580 C.3   1 <1>   0.1200 
 25 O      -10.9630     7.6050     1.3200 O.3   1 <1>  -0.5600 
 26 H       -0.5490     4.0860    -1.0990 H     1 <1>   0.1500 
 27 H       -2.8130     0.8800     0.5470 H     1 <1>   0.1500 
 28 H        0.0980     3.7090     1.6250 H     1 <1>   0.1500 
 29 H        2.1320     0.9270    -0.8760 H     1 <1>   0.1500 
 30 H       -2.5640     5.3810    -1.4040 H     1 <1>   0.1500 
 31 H       -4.8690     2.1800     0.2400 H     1 <1>   0.1500 
 32 H        2.2270     4.7870     2.1620 H     1 <1>   0.1500 
 33 H        4.2690     2.0050    -0.3330 H     1 <1>   0.1500 
 34 H        4.3210     3.9430     1.1850 H     1 <1>   0.1500 
 35 H       -4.7600     5.7400    -2.3230 H     1 <1>   0.0800 
 36 H       -4.5210     6.4790    -0.7310 H     1 <1>   0.0800 
 37 H       -7.1500     5.6750    -2.0170 H     1 <1>   0.0800 
 38 H       -6.3110     7.7500    -2.5520 H     1 <1>   0.4000 
 39 H       -6.4440     6.2890     0.8360 H     1 <1>   0.0800 
 40 H       -7.4930     5.0310     0.2580 H     1 <1>   0.0800 
 41 H       -8.0900     7.8440    -0.1730 H     1 <1>   0.4500 
 42 H       -7.7510     7.7910     2.1810 H     1 <1>   0.0800 
 43 H       -8.7630     6.3780     2.3170 H     1 <1>   0.0800 
 44 H       -9.8690     5.4980     0.0190 H     1 <1>   0.0800 
 45 H       -9.4760     6.4160    -1.4120 H     1 <1>   0.0800 
 46 H       -9.6950     9.1640     1.5420 H     1 <1>   0.0800 
 47 H      -10.0890     8.2790     2.9970 H     1 <1>   0.0800 
 48 H      -11.7300     6.9740    -0.4250 H     1 <1>   0.0800 
 49 H      -10.6870     8.3720    -0.5300 H     1 <1>   0.0800 
@<TRIPOS>BOND
  1   1   2  2   
  2   2   3  1   
  3   2   4  1   
  4   3   5  ar  
  5   3   6  ar  
  6   4   7  ar  
  7   4   8  ar  
  8   5   9  ar  
  9   5  26  1   
 10   6  10  ar  
 11   6  27  1   
 12   7  11  ar  
 13   7  28  1   
 14   8  12  ar  
 15   8  29  1   
 16   9  13  ar  
 17   9  30  1   
 18  10  13  ar  
 19  10  31  1   
 20  11  14  ar  
 21  11  32  1   
 22  12  14  ar  
 23  12  33  1   
 24  13  15  1   
 25  14  34  1   
 26  15  16  1   
 27  16  17  1   
 28  16  35  1   
 29  16  36  1   
 30  17  18  1   
 31  17  19  1   
 32  17  37  1   
 33  18  38  1   
 34  19  20  1   
 35  19  39  1   
 36  19  40  1   
 37  20  21  1   
 38  20  22  1   
 39  20  41  1   
 40  21  23  1   
 41  21  42  1   
 42  21  43  1   
 43  22  24  1   
 44  22  44  1   
 45  22  45  1   
 46  23  25  1   
 47  23  46  1   
 48  23  47  1   
 49  24  25  1   
 50  24  48  1   
 51  24  49  1   
@<TRIPOS>SUBSTRUCTURE
  1 ****  13 GROUP 4 **** **** 0

# MOE 2024.06 (io_trps.svl 2023.06)
