@<TRIPOS>MOLECULE
NONAME
33 34 1 0 0 
SMALL
USER_CHARGES


@<TRIPOS>ATOM
  1 F       -0.3400     2.4830     2.1200 F     1 <1>  -0.1900 
  2 C        0.5890     2.6790     1.2240 C.ar  1 <1>   0.1900 
  3 C        0.2530     3.1290    -0.0570 C.ar  1 <1>   0.0860 
  4 C        1.8840     2.4130     1.6270 C.ar  1 <1>  -0.1500 
  5 C       -1.1000     3.4190    -0.5110 C.2   1 <1>   0.5440 
  6 C        1.3370     3.2940    -0.9270 C.ar  1 <1>  -0.1500 
  7 C        2.9390     2.5870     0.7430 C.ar  1 <1>   0.0730 
  8 O       -1.3080     3.6330    -1.6900 O.2   1 <1>  -0.5700 
  9 N       -2.1640     3.4730     0.3430 N.am  1 <1>  -0.7300 
 10 C        2.6400     3.0320    -0.5410 C.ar  1 <1>  -0.1500 
 11 C        4.2920     2.3170     1.1380 C.1   1 <1>   0.4840 
 12 C       -3.5620     3.7580    -0.0200 C.3   1 <1>   0.2200 
 13 N        5.3660     2.1020     1.4550 N.1   1 <1>  -0.5570 
 14 C       -4.0420     4.9730     0.7800 C.3   1 <1>  -0.1600 
 15 C       -4.4130     2.5210     0.2830 C.3   1 <1>  -0.1600 
 16 C       -5.5310     5.2520     0.5250 C.3   1 <1>  -0.1600 
 17 C       -5.9030     2.7950     0.0270 C.3   1 <1>  -0.1600 
 18 C       -6.3870     4.0140     0.8240 C.3   1 <1>  -0.1600 
 19 H        2.0680     2.0680     2.6300 H     1 <1>   0.1500 
 20 H        1.1500     3.6380    -1.9320 H     1 <1>   0.1500 
 21 H       -2.0150     3.2520     1.3300 H     1 <1>   0.3700 
 22 H        3.4390     3.1760    -1.2510 H     1 <1>   0.1500 
 23 H       -3.6310     3.9820    -1.0730 H     1 <1>   0.0800 
 24 H       -3.4660     5.8350     0.4950 H     1 <1>   0.0800 
 25 H       -3.8960     4.7940     1.8310 H     1 <1>   0.0800 
 26 H       -4.2820     2.2350     1.3110 H     1 <1>   0.0800 
 27 H       -4.0900     1.7080    -0.3430 H     1 <1>   0.0800 
 28 H       -5.6670     5.5390    -0.5040 H     1 <1>   0.0800 
 29 H       -5.8550     6.0730     1.1410 H     1 <1>   0.0800 
 30 H       -6.4820     1.9300     0.3010 H     1 <1>   0.0800 
 31 H       -6.0550     2.9740    -1.0240 H     1 <1>   0.0800 
 32 H       -7.4150     4.2190     0.5780 H     1 <1>   0.0800 
 33 H       -6.3390     3.7930     1.8770 H     1 <1>   0.0800 
@<TRIPOS>BOND
  1   1   2  1   
  2   2   3  ar  
  3   2   4  ar  
  4   3   5  1   
  5   3   6  ar  
  6   4   7  ar  
  7   4  19  1   
  8   5   8  2   
  9   5   9  am  
 10   6  10  ar  
 11   6  20  1   
 12   7  10  ar  
 13   7  11  1   
 14   9  12  1   
 15   9  21  1   
 16  10  22  1   
 17  11  13  3   
 18  12  14  1   
 19  12  15  1   
 20  12  23  1   
 21  14  16  1   
 22  14  24  1   
 23  14  25  1   
 24  15  17  1   
 25  15  26  1   
 26  15  27  1   
 27  16  18  1   
 28  16  28  1   
 29  16  29  1   
 30  17  18  1   
 31  17  30  1   
 32  17  31  1   
 33  18  32  1   
 34  18  33  1   
@<TRIPOS>SUBSTRUCTURE
  1 ****   5 GROUP 4 **** **** 0

# MOE 2024.06 (io_trps.svl 2023.06)
