@<TRIPOS>MOLECULE
NONAME
52 54 1 0 0 
SMALL
USER_CHARGES


@<TRIPOS>ATOM
  1 S       -0.0960    -0.0770    -0.3030 S.o2  1 <1>   1.4470 
  2 O       -0.3270    -0.9980     0.7910 O.2   1 <1>  -0.6500 
  3 O       -0.2880    -0.5350    -1.6610 O.2   1 <1>  -0.6500 
  4 N       -1.1690     1.2120    -0.0670 N.am  1 <1>  -0.8490 
  5 C        1.5350     0.7010    -0.1570 C.ar  1 <1>  -0.0090 
  6 C       -2.5220     0.7970    -0.4490 C.3   1 <1>   0.3390 
  7 C       -1.1420     1.7250     1.3120 C.3   1 <1>   0.1160 
  8 C        1.9240     1.7120    -1.0280 C.ar  1 <1>  -0.1500 
  9 C        2.4380     0.3190     0.8290 C.ar  1 <1>  -0.1500 
 10 C       -3.5150     1.9480    -0.3370 C.ar  1 <1>  -0.1430 
 11 C        3.1630     2.3170    -0.9200 C.ar  1 <1>  -0.1500 
 12 C        3.6770     0.9240     0.9420 C.ar  1 <1>  -0.1500 
 13 C       -4.5950     1.8680     0.5300 C.ar  1 <1>  -0.1500 
 14 C       -3.3460     3.0900    -1.1060 C.ar  1 <1>  -0.1500 
 15 C        4.0630     1.9320     0.0660 C.ar  1 <1>   0.1170 
 16 C       -5.4940     2.9170     0.6270 C.ar  1 <1>  -0.1500 
 17 C       -4.2430     4.1390    -1.0100 C.ar  1 <1>  -0.1500 
 18 N        5.3010     2.5810     0.1460 N.am  1 <1>  -0.5470 
 19 C       -5.3180     4.0530    -0.1430 C.ar  1 <1>  -0.1500 
 20 C        6.4940     2.1940     0.6870 C.2   1 <1>   0.6900 
 21 O        6.6590     1.0600     1.0960 O.2   1 <1>  -0.5700 
 22 N        7.5200     3.1040     0.7300 N.am  1 <1>  -0.6600 
 23 C        8.9260     2.6620     0.9370 C.3   1 <1>   0.1400 
 24 C        7.3360     4.5810     0.7690 C.3   1 <1>   0.1400 
 25 C        9.8260     3.3040    -0.1260 C.3   1 <1>  -0.1600 
 26 C        8.2070     5.2330    -0.3090 C.3   1 <1>  -0.1600 
 27 C        9.6810     4.8330    -0.1530 C.3   1 <1>  -0.1600 
 28 H       -2.8390    -0.0270     0.1690 H     1 <1>   0.0800 
 29 H       -2.5230     0.4600    -1.4720 H     1 <1>   0.0800 
 30 H       -0.1360     1.9910     1.5910 H     1 <1>   0.0800 
 31 H       -1.5080     0.9830     2.0020 H     1 <1>   0.0800 
 32 H       -1.7490     2.6110     1.3960 H     1 <1>   0.0800 
 33 H        1.2420     2.0240    -1.8010 H     1 <1>   0.1500 
 34 H        2.1700    -0.4630     1.5200 H     1 <1>   0.1500 
 35 H        3.4330     3.0930    -1.6130 H     1 <1>   0.1500 
 36 H        4.3480     0.6060     1.7200 H     1 <1>   0.1500 
 37 H       -4.7440     0.9900     1.1340 H     1 <1>   0.1500 
 38 H       -2.5080     3.1620    -1.7780 H     1 <1>   0.1500 
 39 H       -6.3300     2.8490     1.3000 H     1 <1>   0.1500 
 40 H       -4.1040     5.0220    -1.6100 H     1 <1>   0.1500 
 41 H        5.3940     3.4290    -0.4000 H     1 <1>   0.3700 
 42 H       -6.0160     4.8680    -0.0690 H     1 <1>   0.1500 
 43 H        9.0010     1.5900     0.8680 H     1 <1>   0.0800 
 44 H        9.2460     2.9580     1.9210 H     1 <1>   0.0800 
 45 H        7.6360     4.9390     1.7400 H     1 <1>   0.0800 
 46 H        6.3050     4.8510     0.6250 H     1 <1>   0.0800 
 47 H        9.5650     2.8970    -1.0880 H     1 <1>   0.0800 
 48 H       10.8500     3.0400     0.0720 H     1 <1>   0.0800 
 49 H        8.1160     6.3030    -0.2420 H     1 <1>   0.0800 
 50 H        7.8500     4.9320    -1.2790 H     1 <1>   0.0800 
 51 H       10.2580     5.2380    -0.9670 H     1 <1>   0.0800 
 52 H       10.0670     5.2420     0.7650 H     1 <1>   0.0800 
@<TRIPOS>BOND
  1   1   2  2   
  2   1   3  2   
  3   1   4  am  
  4   1   5  1   
  5   4   6  1   
  6   4   7  1   
  7   5   8  ar  
  8   5   9  ar  
  9   6  10  1   
 10   6  28  1   
 11   6  29  1   
 12   7  30  1   
 13   7  31  1   
 14   7  32  1   
 15   8  11  ar  
 16   8  33  1   
 17   9  12  ar  
 18   9  34  1   
 19  10  13  ar  
 20  10  14  ar  
 21  11  15  ar  
 22  11  35  1   
 23  12  15  ar  
 24  12  36  1   
 25  13  16  ar  
 26  13  37  1   
 27  14  17  ar  
 28  14  38  1   
 29  15  18  1   
 30  16  19  ar  
 31  16  39  1   
 32  17  19  ar  
 33  17  40  1   
 34  18  20  am  
 35  18  41  1   
 36  19  42  1   
 37  20  21  2   
 38  20  22  am  
 39  22  23  1   
 40  22  24  1   
 41  23  25  1   
 42  23  43  1   
 43  23  44  1   
 44  24  26  1   
 45  24  45  1   
 46  24  46  1   
 47  25  27  1   
 48  25  47  1   
 49  25  48  1   
 50  26  27  1   
 51  26  49  1   
 52  26  50  1   
 53  27  51  1   
 54  27  52  1   
@<TRIPOS>SUBSTRUCTURE
  1 ****   8 GROUP 4 **** **** 0

# MOE 2024.06 (io_trps.svl 2023.06)
