@<TRIPOS>MOLECULE
NONAME
46 47 1 0 0 
SMALL
USER_CHARGES


@<TRIPOS>ATOM
  1 O      -10.2350     5.7280    -0.6420 O.3   1 <1>  -0.3630 
  2 C      -11.1060     4.7240    -0.3470 C.ar  1 <1>   0.0820 
  3 C      -10.6660     7.0760    -0.6630 C.3   1 <1>   0.0400 
  4 C      -10.6660     3.4180    -0.5340 C.ar  1 <1>  -0.1440 
  5 C      -12.3900     4.9530     0.1350 C.ar  1 <1>  -0.1500 
  6 C      -11.5060     2.3550    -0.2350 C.ar  1 <1>  -0.1500 
  7 C       -9.2730     3.1620    -1.0610 C.3   1 <1>   0.4870 
  8 C      -13.2280     3.8930     0.4320 C.ar  1 <1>   0.0820 
  9 C      -12.7820     2.5880     0.2450 C.ar  1 <1>  -0.1500 
 10 N       -8.3350     3.6670    -0.0470 N.4   1 <1>  -0.9060 
 11 O      -14.4610     4.2080     0.8980 O.3   1 <1>  -0.3620 
 12 C       -6.8960     3.5780    -0.3880 C.3   1 <1>   0.4230 
 13 C      -15.4080     3.2110     1.2160 C.3   1 <1>   0.0400 
 14 C       -6.3990     2.1000    -0.2730 C.3   1 <1>   0.3430 
 15 C       -6.1900     4.5490     0.5600 C.3   1 <1>  -0.2400 
 16 O       -7.0160     1.4830     0.8140 O.3   1 <1>  -0.6800 
 17 C       -4.8870     1.9410    -0.1440 C.ar  1 <1>  -0.1440 
 18 C       -4.1290     1.7450    -1.2910 C.ar  1 <1>  -0.1500 
 19 C       -4.2420     1.9860     1.0870 C.ar  1 <1>  -0.1500 
 20 C       -2.7550     1.6000    -1.2100 C.ar  1 <1>  -0.1500 
 21 C       -2.8680     1.8420     1.1680 C.ar  1 <1>  -0.1500 
 22 C       -2.1240     1.6490     0.0190 C.ar  1 <1>  -0.1500 
 23 H       -9.8490     7.6900    -0.9980 H     1 <1>   0.0800 
 24 H      -10.9570     7.3690     0.3310 H     1 <1>   0.0800 
 25 H      -11.4930     7.1700    -1.3450 H     1 <1>   0.0800 
 26 H      -12.7730     5.9430     0.2960 H     1 <1>   0.1500 
 27 H      -11.1820     1.3360    -0.3730 H     1 <1>   0.1500 
 28 H       -9.1420     3.6920    -1.9910 H     1 <1>   0.0800 
 29 H       -9.1230     2.1080    -1.2250 H     1 <1>   0.0800 
 30 H      -13.4140     1.7480     0.4690 H     1 <1>   0.1500 
 31 H       -8.4680     3.1120     0.8110 H     1 <1>   0.4500 
 32 H       -8.6250     4.6340     0.1590 H     1 <1>   0.4500 
 33 H       -6.7320     3.9220    -1.3960 H     1 <1>   0.0800 
 34 H      -16.3060     3.6990     1.5510 H     1 <1>   0.0800 
 35 H      -15.0140     2.5920     2.0020 H     1 <1>   0.0800 
 36 H      -15.6150     2.6320     0.3330 H     1 <1>   0.0800 
 37 H       -6.7180     1.5630    -1.1490 H     1 <1>   0.0800 
 38 H       -6.2860     4.2270     1.5820 H     1 <1>   0.0800 
 39 H       -6.5900     5.5420     0.4580 H     1 <1>   0.0800 
 40 H       -5.1420     4.6010     0.3210 H     1 <1>   0.0800 
 41 H       -6.5080     0.6720     1.0400 H     1 <1>   0.4000 
 42 H       -4.5910     1.6980    -2.2620 H     1 <1>   0.1500 
 43 H       -4.7960     2.1370     1.9990 H     1 <1>   0.1500 
 44 H       -2.1720     1.4480    -2.1030 H     1 <1>   0.1500 
 45 H       -2.3760     1.8780     2.1250 H     1 <1>   0.1500 
 46 H       -1.0540     1.5360     0.0820 H     1 <1>   0.1500 
@<TRIPOS>BOND
  1   1   2  1   
  2   1   3  1   
  3   2   4  ar  
  4   2   5  ar  
  5   3  23  1   
  6   3  24  1   
  7   3  25  1   
  8   4   6  ar  
  9   4   7  1   
 10   5   8  ar  
 11   5  26  1   
 12   6   9  ar  
 13   6  27  1   
 14   7  10  1   
 15   7  28  1   
 16   7  29  1   
 17   8   9  ar  
 18   8  11  1   
 19   9  30  1   
 20  10  12  1   
 21  10  31  1   
 22  10  32  1   
 23  11  13  1   
 24  12  14  1   
 25  12  15  1   
 26  12  33  1   
 27  13  34  1   
 28  13  35  1   
 29  13  36  1   
 30  14  16  1   
 31  14  17  1   
 32  14  37  1   
 33  15  38  1   
 34  15  39  1   
 35  15  40  1   
 36  16  41  1   
 37  17  18  ar  
 38  17  19  ar  
 39  18  20  ar  
 40  18  42  1   
 41  19  21  ar  
 42  19  43  1   
 43  20  22  ar  
 44  20  44  1   
 45  21  22  ar  
 46  21  45  1   
 47  22  46  1   
@<TRIPOS>SUBSTRUCTURE
  1 ****  10 GROUP 4 **** **** 0

# MOE 2024.06 (io_trps.svl 2023.06)
