@<TRIPOS>MOLECULE
NONAME
45 46 1 0 0 
SMALL
USER_CHARGES


@<TRIPOS>ATOM
  1 O        1.3170    -0.5700    -0.2230 O.3   1 <1>  -0.3630 
  2 C        0.7000    -1.6970     0.2330 C.ar  1 <1>   0.0830 
  3 C        0.5710     0.4430    -0.8740 C.3   1 <1>   0.0400 
  4 C        1.4100    -2.4970     1.1260 C.ar  1 <1>  -0.1440 
  5 C       -0.5810    -2.0710    -0.1630 C.ar  1 <1>  -0.1500 
  6 C        0.8390    -3.6610     1.6170 C.ar  1 <1>  -0.1500 
  7 C        2.8000    -2.0950     1.5590 C.3   1 <1>   0.4870 
  8 C       -1.1480    -3.2400     0.3330 C.ar  1 <1>   0.0820 
  9 C       -0.4330    -4.0260     1.2190 C.ar  1 <1>  -0.1500 
 10 N        3.6310    -2.0970     0.3340 N.4   1 <1>  -0.9060 
 11 O       -2.3860    -3.6820     0.0010 O.3   1 <1>  -0.3620 
 12 C        4.9950    -1.5440     0.4620 C.3   1 <1>   0.4230 
 13 C       -3.2310    -2.9530    -0.8620 C.3   1 <1>   0.0400 
 14 C        4.9380    -0.0280     0.6780 C.3   1 <1>  -0.1600 
 15 C        5.7710    -1.8690    -0.8160 C.3   1 <1>  -0.1600 
 16 C        6.3400     0.5860     0.6820 C.3   1 <1>   0.3430 
 17 C        7.1670    -1.2450    -0.7920 C.3   1 <1>   0.3430 
 18 N        7.0610     0.2270    -0.5740 N.4   1 <1>  -0.9590 
 19 C        8.4270     0.8490    -0.5810 C.3   1 <1>   0.2630 
 20 H       -0.2590     0.7260    -0.2500 H     1 <1>   0.0800 
 21 H        0.2240     0.0730    -1.8230 H     1 <1>   0.0800 
 22 H        1.2110     1.2930    -1.0300 H     1 <1>   0.0800 
 23 H       -1.1350    -1.4690    -0.8520 H     1 <1>   0.1500 
 24 H        1.3630    -4.2950     2.3130 H     1 <1>   0.1500 
 25 H        3.1840    -2.7910     2.2880 H     1 <1>   0.0800 
 26 H        2.7590    -1.1100     1.9940 H     1 <1>   0.0800 
 27 H       -0.8870    -4.9270     1.5960 H     1 <1>   0.1500 
 28 H        3.0650    -1.5540    -0.3400 H     1 <1>   0.4500 
 29 H        3.6320    -3.0580    -0.0260 H     1 <1>   0.4500 
 30 H        5.4930    -2.0080     1.3000 H     1 <1>   0.0800 
 31 H       -4.1560    -3.4950    -0.9580 H     1 <1>   0.0800 
 32 H       -2.7600    -2.8670    -1.8250 H     1 <1>   0.0800 
 33 H       -3.4200    -1.9850    -0.4330 H     1 <1>   0.0800 
 34 H        4.4800     0.1950     1.6250 H     1 <1>   0.0800 
 35 H        4.3540     0.4430    -0.0940 H     1 <1>   0.0800 
 36 H        5.2450    -1.5090    -1.6830 H     1 <1>   0.0800 
 37 H        5.8830    -2.9350    -0.9100 H     1 <1>   0.0800 
 38 H        6.8940     0.2240     1.5340 H     1 <1>   0.0800 
 39 H        6.2640     1.6600     0.7670 H     1 <1>   0.0800 
 40 H        7.6670    -1.4430    -1.7280 H     1 <1>   0.0800 
 41 H        7.7530    -1.6880    -0.0010 H     1 <1>   0.0800 
 42 H        6.5500     0.6390    -1.3730 H     1 <1>   0.4500 
 43 H        9.0230     0.4650     0.2310 H     1 <1>   0.0800 
 44 H        8.3540     1.9200    -0.4750 H     1 <1>   0.0800 
 45 H        8.9340     0.6350    -1.5090 H     1 <1>   0.0800 
@<TRIPOS>BOND
  1   1   2  1   
  2   1   3  1   
  3   2   4  ar  
  4   2   5  ar  
  5   3  20  1   
  6   3  21  1   
  7   3  22  1   
  8   4   6  ar  
  9   4   7  1   
 10   5   8  ar  
 11   5  23  1   
 12   6   9  ar  
 13   6  24  1   
 14   7  10  1   
 15   7  25  1   
 16   7  26  1   
 17   8   9  ar  
 18   8  11  1   
 19   9  27  1   
 20  10  12  1   
 21  10  28  1   
 22  10  29  1   
 23  11  13  1   
 24  12  14  1   
 25  12  15  1   
 26  12  30  1   
 27  13  31  1   
 28  13  32  1   
 29  13  33  1   
 30  14  16  1   
 31  14  34  1   
 32  14  35  1   
 33  15  17  1   
 34  15  36  1   
 35  15  37  1   
 36  16  18  1   
 37  16  38  1   
 38  16  39  1   
 39  17  18  1   
 40  17  40  1   
 41  17  41  1   
 42  18  19  1   
 43  18  42  1   
 44  19  43  1   
 45  19  44  1   
 46  19  45  1   
@<TRIPOS>SUBSTRUCTURE
  1 ****  10 GROUP 4 **** **** 0

# MOE 2024.06 (io_trps.svl 2023.06)
