@<TRIPOS>MOLECULE
NONAME
48 49 1 0 0 
SMALL
USER_CHARGES


@<TRIPOS>ATOM
  1 CL       0.2670    -0.5050     0.3250 Cl    1 <1>  -0.1770 
  2 C        1.9630    -0.1210     0.0950 C.ar  1 <1>   0.1770 
  3 C        2.7750    -1.0230    -0.5800 C.ar  1 <1>  -0.1440 
  4 C        2.4600     1.0770     0.5930 C.ar  1 <1>  -0.1440 
  5 C        4.1130    -0.7070    -0.7550 C.ar  1 <1>  -0.1500 
  6 C        2.2210    -2.3320    -1.1210 C.3   1 <1>  -0.0960 
  7 C        3.8010     1.3740     0.4080 C.ar  1 <1>  -0.1500 
  8 C        1.5530     2.0530     1.3310 C.3   1 <1>  -0.0960 
  9 C        4.6320     0.4820    -0.2670 C.ar  1 <1>   0.0830 
 10 O        5.9520     0.7020    -0.4890 O.3   1 <1>  -0.3630 
 11 C        6.5790     1.9030    -0.0910 C.3   1 <1>   0.1200 
 12 C        8.0530     1.8400    -0.5070 C.3   1 <1>   0.2000 
 13 O        8.6120     0.6550    -0.0250 O.3   1 <1>  -0.6800 
 14 C        8.8760     3.0330     0.0260 C.3   1 <1>   0.3430 
 15 N       10.3280     2.6820     0.0880 N.4   1 <1>  -0.9590 
 16 C       11.0610     3.4420     1.1370 C.3   1 <1>   0.3430 
 17 C       10.9950     2.7390    -1.2430 C.3   1 <1>   0.3430 
 18 C       12.4790     2.8880     1.2780 C.3   1 <1>  -0.1600 
 19 C       12.4110     2.1750    -1.1330 C.3   1 <1>  -0.1600 
 20 C       13.2320     2.9050    -0.0600 C.3   1 <1>  -0.0800 
 21 C       14.6160     2.2630     0.0900 C.3   1 <1>  -0.2400 
 22 H        4.7670    -1.3840    -1.2730 H     1 <1>   0.1500 
 23 H        1.8220    -2.9220    -0.3160 H     1 <1>   0.0800 
 24 H        2.9870    -2.9030    -1.6140 H     1 <1>   0.0800 
 25 H        1.4360    -2.1340    -1.8280 H     1 <1>   0.0800 
 26 H        4.1800     2.2990     0.7960 H     1 <1>   0.1500 
 27 H        1.1340     1.5780     2.2010 H     1 <1>   0.0800 
 28 H        0.7490     2.3650     0.6880 H     1 <1>   0.0800 
 29 H        2.0940     2.9260     1.6480 H     1 <1>   0.0800 
 30 H        6.4870     1.9960     0.9770 H     1 <1>   0.0800 
 31 H        6.0790     2.7230    -0.5770 H     1 <1>   0.0800 
 32 H        8.1100     1.8150    -1.5820 H     1 <1>   0.0800 
 33 H        7.9630    -0.0750    -0.1680 H     1 <1>   0.4000 
 34 H        8.5250     3.2580     1.0200 H     1 <1>   0.0800 
 35 H        8.7170     3.9050    -0.5870 H     1 <1>   0.0800 
 36 H       10.3160     1.6790     0.3610 H     1 <1>   0.4500 
 37 H       10.5500     3.3560     2.0820 H     1 <1>   0.0800 
 38 H       11.1090     4.4850     0.8670 H     1 <1>   0.0800 
 39 H       11.0400     3.7600    -1.5860 H     1 <1>   0.0800 
 40 H       10.4370     2.1600    -1.9610 H     1 <1>   0.0800 
 41 H       12.4290     1.8840     1.6630 H     1 <1>   0.0800 
 42 H       13.0150     3.4830     1.9980 H     1 <1>   0.0800 
 43 H       12.9000     2.2740    -2.0870 H     1 <1>   0.0800 
 44 H       12.3550     1.1240    -0.9080 H     1 <1>   0.0800 
 45 H       13.3700     3.9300    -0.3670 H     1 <1>   0.0800 
 46 H       14.5320     1.2350     0.3960 H     1 <1>   0.0800 
 47 H       15.1970     2.7910     0.8260 H     1 <1>   0.0800 
 48 H       15.1500     2.2980    -0.8440 H     1 <1>   0.0800 
@<TRIPOS>BOND
  1   1   2  1   
  2   2   3  ar  
  3   2   4  ar  
  4   3   5  ar  
  5   3   6  1   
  6   4   7  ar  
  7   4   8  1   
  8   5   9  ar  
  9   5  22  1   
 10   6  23  1   
 11   6  24  1   
 12   6  25  1   
 13   7   9  ar  
 14   7  26  1   
 15   8  27  1   
 16   8  28  1   
 17   8  29  1   
 18   9  10  1   
 19  10  11  1   
 20  11  12  1   
 21  11  30  1   
 22  11  31  1   
 23  12  13  1   
 24  12  14  1   
 25  12  32  1   
 26  13  33  1   
 27  14  15  1   
 28  14  34  1   
 29  14  35  1   
 30  15  16  1   
 31  15  17  1   
 32  15  36  1   
 33  16  18  1   
 34  16  37  1   
 35  16  38  1   
 36  17  19  1   
 37  17  39  1   
 38  17  40  1   
 39  18  20  1   
 40  18  41  1   
 41  18  42  1   
 42  19  20  1   
 43  19  43  1   
 44  19  44  1   
 45  20  21  1   
 46  20  45  1   
 47  21  46  1   
 48  21  47  1   
 49  21  48  1   
@<TRIPOS>SUBSTRUCTURE
  1 ****  11 GROUP 4 **** **** 0

# MOE 2024.06 (io_trps.svl 2023.06)
