@<TRIPOS>MOLECULE
NONAME
40 43 1 0 0 
SMALL
USER_CHARGES


@<TRIPOS>ATOM
  1 S       -0.0270     0.1110    -1.2690 S.3   1 <1>  -0.0800 
  2 C        1.4730     0.7770    -0.6090 C.ar  1 <1>   0.2970 
  3 C       -0.9950     1.3550    -0.4640 C.2   1 <1>  -0.0450 
  4 N        2.6510     0.2410    -0.8720 N.ar  1 <1>  -0.5670 
  5 C        1.1970     1.8880     0.1790 C.ar  1 <1>   0.0000 
  6 C       -2.3960     1.5110    -0.5150 C.2   1 <1>   0.7150 
  7 C       -0.2050     2.1960     0.2450 C.2   1 <1>   0.1250 
  8 C        3.6580     0.8750    -0.2920 C.ar  1 <1>   0.1660 
  9 C        2.2740     2.5260     0.7690 C.ar  1 <1>  -0.1500 
 10 O       -3.1470     0.7840    -1.1530 O.2   1 <1>  -0.5700 
 11 N       -2.8950     2.5730     0.2090 N.am  1 <1>  -0.4200 
 12 N       -0.7460     3.2440     0.9490 N.2   1 <1>  -0.5750 
 13 C        3.5280     2.0030     0.5220 C.ar  1 <1>  -0.1430 
 14 C        5.0370     0.2980    -0.5420 C.3   1 <1>  -0.0170 
 15 C       -2.0260     3.3860     0.9060 C.2   1 <1>   0.4500 
 16 C       -4.3570     2.8410     0.2370 C.3   1 <1>   0.1400 
 17 C        4.7530     2.6750     1.1280 C.3   1 <1>   0.2640 
 18 C        6.1550     1.3120    -0.2540 C.3   1 <1>   0.2800 
 19 C       -4.7940     3.5510    -1.0480 C.3   1 <1>   0.1200 
 20 O        5.9120     1.9030     0.9850 O.3   1 <1>  -0.5600 
 21 C        7.5000     0.5980    -0.1120 C.3   1 <1>  -0.2400 
 22 C        6.2710     2.3930    -1.3410 C.3   1 <1>  -0.2400 
 23 O       -6.1450     3.8480    -0.9610 O.3   1 <1>  -0.6800 
 24 H        2.1150     3.3920     1.3870 H     1 <1>   0.1500 
 25 H        5.1090    -0.0360    -1.5610 H     1 <1>   0.0800 
 26 H        5.1550    -0.5620     0.0910 H     1 <1>   0.0800 
 27 H       -2.4720     4.2010     1.4510 H     1 <1>   0.0600 
 28 H       -4.5930     3.4610     1.0850 H     1 <1>   0.0800 
 29 H       -4.8850     1.9090     0.3350 H     1 <1>   0.0800 
 30 H        4.6040     2.8300     2.1820 H     1 <1>   0.0800 
 31 H        4.9240     3.6300     0.6650 H     1 <1>   0.0800 
 32 H       -4.6380     2.9310    -1.9140 H     1 <1>   0.0800 
 33 H       -4.2650     4.4810    -1.1640 H     1 <1>   0.0800 
 34 H        7.4570    -0.1240     0.6840 H     1 <1>   0.0800 
 35 H        8.2760     1.3090     0.1080 H     1 <1>   0.0800 
 36 H        7.7520     0.0880    -1.0240 H     1 <1>   0.0800 
 37 H        5.3240     2.8610    -1.5370 H     1 <1>   0.0800 
 38 H        6.6060     1.9500    -2.2610 H     1 <1>   0.0800 
 39 H        6.9860     3.1410    -1.0470 H     1 <1>   0.0800 
 40 H       -6.6920     3.0550    -1.1350 H     1 <1>   0.4000 
@<TRIPOS>BOND
  1   1   2  1   
  2   1   3  1   
  3   2   4  ar  
  4   2   5  ar  
  5   3   6  1   
  6   3   7  2   
  7   4   8  ar  
  8   5   7  1   
  9   5   9  ar  
 10   6  10  2   
 11   6  11  am  
 12   7  12  1   
 13   8  13  ar  
 14   8  14  1   
 15   9  13  ar  
 16   9  24  1   
 17  11  15  1   
 18  11  16  1   
 19  12  15  2   
 20  13  17  1   
 21  14  18  1   
 22  14  25  1   
 23  14  26  1   
 24  15  27  1   
 25  16  19  1   
 26  16  28  1   
 27  16  29  1   
 28  17  20  1   
 29  17  30  1   
 30  17  31  1   
 31  18  20  1   
 32  18  21  1   
 33  18  22  1   
 34  19  23  1   
 35  19  32  1   
 36  19  33  1   
 37  21  34  1   
 38  21  35  1   
 39  21  36  1   
 40  22  37  1   
 41  22  38  1   
 42  22  39  1   
 43  23  40  1   
@<TRIPOS>SUBSTRUCTURE
  1 ****   5 GROUP 4 **** **** 0

# MOE 2024.06 (io_trps.svl 2023.06)
