@<TRIPOS>MOLECULE
NONAME
42 42 1 0 0 
SMALL
USER_CHARGES


@<TRIPOS>ATOM
  1 S        0.3120     0.0470     0.4000 S.o2  1 <1>   1.4470 
  2 O        0.8480     1.0860     1.2440 O.2   1 <1>  -0.6500 
  3 O        1.0030    -0.2730    -0.8250 O.2   1 <1>  -0.6500 
  4 N        0.6060    -1.2970     1.3280 N.am  1 <1>  -0.9780 
  5 C       -1.4980     0.1390     0.1170 C.ar  1 <1>  -0.0090 
  6 C       -2.1800    -1.0790     0.0030 C.ar  1 <1>   0.0830 
  7 C       -2.2670     1.3190    -0.0120 C.ar  1 <1>  -0.1430 
  8 O       -1.5340    -2.2550    -0.1130 O.3   1 <1>  -0.5320 
  9 C       -3.5580    -1.1600    -0.0310 C.ar  1 <1>  -0.1500 
 10 C       -3.6610     1.1920    -0.0060 C.ar  1 <1>  -0.1500 
 11 C       -1.6900     2.7670    -0.1860 C.3   1 <1>   0.1440 
 12 C       -4.3340    -0.0220    -0.0040 C.ar  1 <1>  -0.1430 
 13 C       -0.4320     2.8040    -1.0840 C.3   1 <1>  -0.2400 
 14 C       -1.4130     3.3940     1.1870 C.3   1 <1>  -0.2400 
 15 C       -2.6770     3.7250    -0.9010 C.3   1 <1>  -0.2400 
 16 C       -5.8750    -0.1520     0.0020 C.3   1 <1>   0.1440 
 17 C       -6.3160    -0.9700     1.2250 C.3   1 <1>  -0.2400 
 18 C       -6.3330    -0.8630    -1.2800 C.3   1 <1>  -0.2400 
 19 C       -6.6080     1.2000     0.0680 C.3   1 <1>  -0.2400 
 20 H        1.6160    -1.3690     1.3160 H     1 <1>   0.4200 
 21 H        0.2620    -2.0570     0.7420 H     1 <1>   0.4200 
 22 H       -2.1410    -3.0050    -0.2620 H     1 <1>   0.4500 
 23 H       -4.0270    -2.1240    -0.0780 H     1 <1>   0.1500 
 24 H       -4.2650     2.0690    -0.0050 H     1 <1>   0.1500 
 25 H        0.4680     2.6010    -0.5450 H     1 <1>   0.0800 
 26 H       -0.2770     3.7770    -1.5130 H     1 <1>   0.0800 
 27 H       -0.5280     2.1030    -1.8940 H     1 <1>   0.0800 
 28 H       -0.7350     2.8030     1.7670 H     1 <1>   0.0800 
 29 H       -2.3260     3.4770     1.7480 H     1 <1>   0.0800 
 30 H       -0.9880     4.3760     1.0760 H     1 <1>   0.0800 
 31 H       -3.5200     3.9710    -0.2820 H     1 <1>   0.0800 
 32 H       -3.0270     3.2850    -1.8190 H     1 <1>   0.0800 
 33 H       -2.2090     4.6640    -1.1370 H     1 <1>   0.0800 
 34 H       -5.9220    -1.9690     1.1920 H     1 <1>   0.0800 
 35 H       -7.3880    -1.0380     1.2710 H     1 <1>   0.0800 
 36 H       -5.9660    -0.5000     2.1270 H     1 <1>   0.0800 
 37 H       -6.0010    -0.3140    -2.1430 H     1 <1>   0.0800 
 38 H       -7.4060    -0.9340    -1.3120 H     1 <1>   0.0800 
 39 H       -5.9330    -1.8580    -1.3390 H     1 <1>   0.0800 
 40 H       -6.3730     1.8010    -0.7920 H     1 <1>   0.0800 
 41 H       -6.3320     1.7360     0.9580 H     1 <1>   0.0800 
 42 H       -7.6730     1.0520     0.0860 H     1 <1>   0.0800 
@<TRIPOS>BOND
  1   1   2  2   
  2   1   3  2   
  3   1   4  am  
  4   1   5  1   
  5   4  20  1   
  6   4  21  1   
  7   5   6  ar  
  8   5   7  ar  
  9   6   8  1   
 10   6   9  ar  
 11   7  10  ar  
 12   7  11  1   
 13   8  22  1   
 14   9  12  ar  
 15   9  23  1   
 16  10  12  ar  
 17  10  24  1   
 18  11  13  1   
 19  11  14  1   
 20  11  15  1   
 21  12  16  1   
 22  13  25  1   
 23  13  26  1   
 24  13  27  1   
 25  14  28  1   
 26  14  29  1   
 27  14  30  1   
 28  15  31  1   
 29  15  32  1   
 30  15  33  1   
 31  16  17  1   
 32  16  18  1   
 33  16  19  1   
 34  17  34  1   
 35  17  35  1   
 36  17  36  1   
 37  18  37  1   
 38  18  38  1   
 39  18  39  1   
 40  19  40  1   
 41  19  41  1   
 42  19  42  1   
@<TRIPOS>SUBSTRUCTURE
  1 ****   7 GROUP 4 **** **** 0

# MOE 2024.06 (io_trps.svl 2023.06)
