@<TRIPOS>MOLECULE
NONAME
43 44 1 0 0 
SMALL
USER_CHARGES


@<TRIPOS>ATOM
  1 F       -0.3690     0.2940     1.2580 F     1 <1>  -0.3400 
  2 C       -1.2590    -0.6690     1.0190 C.3   1 <1>   1.0200 
  3 F       -2.1350    -0.5940     2.0170 F     1 <1>  -0.3400 
  4 F       -1.9270    -0.2860    -0.0670 F     1 <1>  -0.3400 
  5 C       -0.6030    -2.0920     0.8630 C.3   1 <1>   0.6610 
  6 N        0.1010    -2.6210     2.0550 N.am  1 <1>  -0.7300 
  7 N       -1.5020    -3.1960     0.3830 N.am  1 <1>  -0.7300 
  8 C        0.5890    -1.9210    -0.0840 C.2   1 <1>   0.5690 
  9 C        1.4090    -2.7780     1.7970 C.2   1 <1>   0.6900 
 10 C       -2.4600    -3.8300     1.1140 C.2   1 <1>   0.5440 
 11 O        0.5160    -1.5730    -1.2400 O.2   1 <1>  -0.5700 
 12 N        1.7280    -2.3130     0.5550 N.am  1 <1>  -0.4200 
 13 O        2.1840    -3.3090     2.5570 O.2   1 <1>  -0.5700 
 14 O       -2.4910    -3.6220     2.3090 O.2   1 <1>  -0.5700 
 15 C       -3.3980    -4.7430     0.4830 C.ar  1 <1>   0.0860 
 16 C        3.0750    -2.3790    -0.0480 C.3   1 <1>   0.1400 
 17 C       -3.9440    -5.8100     1.1960 C.ar  1 <1>  -0.1500 
 18 C       -3.7920    -4.5980    -0.8490 C.ar  1 <1>  -0.1500 
 19 C        3.2670    -3.7250    -0.7540 C.3   1 <1>  -0.1600 
 20 C       -4.8270    -6.6970     0.6080 C.ar  1 <1>  -0.1500 
 21 C       -4.6740    -5.4840    -1.4410 C.ar  1 <1>  -0.1500 
 22 C        4.6580    -3.8210    -1.3920 C.3   1 <1>  -0.1600 
 23 C       -5.1970    -6.5400    -0.7160 C.ar  1 <1>  -0.1430 
 24 C        4.8450    -5.1670    -2.0980 C.3   1 <1>  -0.2400 
 25 C       -6.1650    -7.5150    -1.3630 C.3   1 <1>  -0.0970 
 26 H       -0.4320    -3.2170     2.6970 H     1 <1>   0.3700 
 27 H       -1.4520    -3.3560    -0.6250 H     1 <1>   0.3700 
 28 H        3.8150    -2.2610     0.7270 H     1 <1>   0.0800 
 29 H        3.1880    -1.5730    -0.7530 H     1 <1>   0.0800 
 30 H       -3.6690    -5.9430     2.2280 H     1 <1>   0.1500 
 31 H       -3.4150    -3.7800    -1.4360 H     1 <1>   0.1500 
 32 H        2.5190    -3.8350    -1.5200 H     1 <1>   0.0800 
 33 H        3.1500    -4.5200    -0.0380 H     1 <1>   0.0800 
 34 H       -5.2260    -7.5120     1.1880 H     1 <1>   0.1500 
 35 H       -4.9570    -5.3480    -2.4710 H     1 <1>   0.1500 
 36 H        5.4140    -3.7140    -0.6320 H     1 <1>   0.0800 
 37 H        4.7870    -3.0260    -2.1070 H     1 <1>   0.0800 
 38 H        4.7460    -5.9770    -1.3980 H     1 <1>   0.0800 
 39 H        5.8250    -5.2170    -2.5400 H     1 <1>   0.0800 
 40 H        4.1130    -5.2890    -2.8770 H     1 <1>   0.0800 
 41 H       -5.6220    -8.3420    -1.7840 H     1 <1>   0.0800 
 42 H       -6.7230    -7.0310    -2.1450 H     1 <1>   0.0800 
 43 H       -6.8620    -7.8910    -0.6350 H     1 <1>   0.0800 
@<TRIPOS>BOND
  1   1   2  1   
  2   2   3  1   
  3   2   4  1   
  4   2   5  1   
  5   5   6  1   
  6   5   7  1   
  7   5   8  1   
  8   6   9  am  
  9   6  26  1   
 10   7  10  am  
 11   7  27  1   
 12   8  11  2   
 13   8  12  am  
 14   9  12  am  
 15   9  13  2   
 16  10  14  2   
 17  10  15  1   
 18  12  16  1   
 19  15  17  ar  
 20  15  18  ar  
 21  16  19  1   
 22  16  28  1   
 23  16  29  1   
 24  17  20  ar  
 25  17  30  1   
 26  18  21  ar  
 27  18  31  1   
 28  19  22  1   
 29  19  32  1   
 30  19  33  1   
 31  20  23  ar  
 32  20  34  1   
 33  21  23  ar  
 34  21  35  1   
 35  22  24  1   
 36  22  36  1   
 37  22  37  1   
 38  23  25  1   
 39  24  38  1   
 40  24  39  1   
 41  24  40  1   
 42  25  41  1   
 43  25  42  1   
 44  25  43  1   
@<TRIPOS>SUBSTRUCTURE
  1 ****   7 GROUP 4 **** **** 0

# MOE 2024.06 (io_trps.svl 2023.06)
