@<TRIPOS>MOLECULE
NONAME
39 40 1 0 0 
SMALL
USER_CHARGES


@<TRIPOS>ATOM
  1 S       -0.3900    -0.2220     0.8980 S.3   1 <1>  -0.3320 
  2 C        0.9310    -1.4290     0.6800 C.ar  1 <1>   0.1020 
  3 C        0.0290     1.2210    -0.1760 C.3   1 <1>  -0.0100 
  4 C        0.8350    -2.6060     1.4000 C.ar  1 <1>  -0.1500 
  5 C        2.0050    -1.2060    -0.1670 C.ar  1 <1>  -0.1500 
  6 C        1.8210    -3.5680     1.2730 C.ar  1 <1>  -0.1500 
  7 C        2.9870    -2.1750    -0.2880 C.ar  1 <1>  -0.1500 
  8 C        2.9090    -3.3650     0.4310 C.ar  1 <1>   0.1000 
  9 N        3.8840    -4.3690     0.3340 N.pl3 1 <1>  -0.6000 
 10 C        5.1270    -4.3400    -0.2250 C.2   1 <1>  -0.0500 
 11 C        6.0210    -5.3870    -0.2800 C.2   1 <1>   0.0290 
 12 C        7.2920    -5.1920    -0.9150 C.2   1 <1>   0.4950 
 13 C        5.7310    -6.6800     0.2780 C.2   1 <1>   0.4950 
 14 O        7.6220    -4.1460    -1.4210 O.2   1 <1>  -0.5700 
 15 C        8.3140    -6.3130    -1.0080 C.3   1 <1>  -0.0990 
 16 O        4.6970    -6.9570     0.8440 O.2   1 <1>  -0.5700 
 17 C        6.7310    -7.8200     0.1760 C.3   1 <1>  -0.0990 
 18 C        8.1890    -7.3410     0.1230 C.3   1 <1>   0.0000 
 19 C        9.1120    -8.5360    -0.1630 C.3   1 <1>  -0.2400 
 20 C        8.6040    -6.7200     1.4700 C.3   1 <1>  -0.2400 
 21 H       -0.7490     1.9530    -0.0540 H     1 <1>   0.0800 
 22 H        0.0720     0.8760    -1.1930 H     1 <1>   0.0800 
 23 H        0.9760     1.6130     0.1490 H     1 <1>   0.0800 
 24 H       -0.0050    -2.7630     2.0520 H     1 <1>   0.1500 
 25 H        2.0910    -0.3000    -0.7320 H     1 <1>   0.1500 
 26 H        1.7480    -4.4820     1.8320 H     1 <1>   0.1500 
 27 H        3.8120    -2.0010    -0.9510 H     1 <1>   0.1500 
 28 H        3.6190    -5.2710     0.7680 H     1 <1>   0.4000 
 29 H        5.4240    -3.3980    -0.6560 H     1 <1>   0.1500 
 30 H        8.1830    -6.7930    -1.9610 H     1 <1>   0.0800 
 31 H        9.3010    -5.8840    -0.9990 H     1 <1>   0.0800 
 32 H        6.5980    -8.4760     1.0180 H     1 <1>   0.0800 
 33 H        6.4940    -8.3830    -0.7090 H     1 <1>   0.0800 
 34 H       10.1390    -8.2160    -0.2160 H     1 <1>   0.0800 
 35 H        8.8580    -9.0050    -1.0970 H     1 <1>   0.0800 
 36 H        9.0300    -9.2730     0.6170 H     1 <1>   0.0800 
 37 H        7.9960    -5.8720     1.7290 H     1 <1>   0.0800 
 38 H        9.6290    -6.3920     1.4320 H     1 <1>   0.0800 
 39 H        8.5170    -7.4440     2.2610 H     1 <1>   0.0800 
@<TRIPOS>BOND
  1   1   2  1   
  2   1   3  1   
  3   2   4  ar  
  4   2   5  ar  
  5   3  21  1   
  6   3  22  1   
  7   3  23  1   
  8   4   6  ar  
  9   4  24  1   
 10   5   7  ar  
 11   5  25  1   
 12   6   8  ar  
 13   6  26  1   
 14   7   8  ar  
 15   7  27  1   
 16   8   9  1   
 17   9  10  1   
 18   9  28  1   
 19  10  11  2   
 20  10  29  1   
 21  11  12  1   
 22  11  13  1   
 23  12  14  2   
 24  12  15  1   
 25  13  16  2   
 26  13  17  1   
 27  15  18  1   
 28  15  30  1   
 29  15  31  1   
 30  17  18  1   
 31  17  32  1   
 32  17  33  1   
 33  18  19  1   
 34  18  20  1   
 35  19  34  1   
 36  19  35  1   
 37  19  36  1   
 38  20  37  1   
 39  20  38  1   
 40  20  39  1   
@<TRIPOS>SUBSTRUCTURE
  1 ****  10 GROUP 4 **** **** 0

# MOE 2024.06 (io_trps.svl 2023.06)
