@<TRIPOS>MOLECULE
NONAME
31 31 1 0 0 
SMALL
USER_CHARGES


@<TRIPOS>ATOM
  1 O       -0.1230    -0.3930    -0.0070 O.co2 1 <1>  -0.9000 
  2 C       -0.0130    -1.6320    -0.0050 C.2   1 <1>   0.9790 
  3 O       -1.0490    -2.3230    -0.0070 O.co2 1 <1>  -0.9000 
  4 C        1.3010    -2.2630    -0.0010 C.ar  1 <1>  -0.1790 
  5 C        1.4420    -3.6520     0.0010 C.ar  1 <1>  -0.1500 
  6 C        2.4730    -1.5070     0.0010 C.ar  1 <1>  -0.1500 
  7 C        2.6880    -4.2700     0.0050 C.ar  1 <1>   0.0820 
  8 C        3.7220    -2.1000     0.0040 C.ar  1 <1>  -0.1500 
  9 O        2.8320    -5.6300     0.0070 O.3   1 <1>  -0.3630 
 10 C        3.8450    -3.4860     0.0070 C.ar  1 <1>   0.0820 
 11 C        1.7070    -6.4780     0.0060 C.3   1 <1>   0.0400 
 12 O        5.0550    -4.1160     0.0100 O.3   1 <1>  -0.3630 
 13 C        6.2640    -3.3970     0.0120 C.3   1 <1>   0.1200 
 14 C        7.4170    -4.4010     0.0170 C.3   1 <1>  -0.1600 
 15 C        8.7760    -3.6910     0.0190 C.3   1 <1>  -0.1600 
 16 C        9.9250    -4.7030     0.0230 C.3   1 <1>  -0.2400 
 17 H        0.5340    -4.2250     0.0000 H     1 <1>   0.1500 
 18 H        2.3860    -0.4330    -0.0010 H     1 <1>   0.1500 
 19 H        4.5810    -1.4600     0.0060 H     1 <1>   0.1500 
 20 H        2.0550    -7.4940     0.0080 H     1 <1>   0.0800 
 21 H        1.1290    -6.2880    -0.8820 H     1 <1>   0.0800 
 22 H        1.1250    -6.2860     0.8900 H     1 <1>   0.0800 
 23 H        6.2900    -2.7830     0.8960 H     1 <1>   0.0800 
 24 H        6.2950    -2.7850    -0.8720 H     1 <1>   0.0800 
 25 H        7.3370    -5.0250    -0.8570 H     1 <1>   0.0800 
 26 H        7.3330    -5.0230     0.8910 H     1 <1>   0.0800 
 27 H        8.8550    -3.0630     0.8910 H     1 <1>   0.0800 
 28 H        8.8600    -3.0650    -0.8540 H     1 <1>   0.0800 
 29 H        9.8730    -5.3270     0.8990 H     1 <1>   0.0800 
 30 H       10.8700    -4.1890     0.0250 H     1 <1>   0.0800 
 31 H        9.8770    -5.3290    -0.8510 H     1 <1>   0.0800 
@<TRIPOS>BOND
  1   1   2  ar  
  2   2   3  ar  
  3   2   4  1   
  4   4   5  ar  
  5   4   6  ar  
  6   5   7  ar  
  7   5  17  1   
  8   6   8  ar  
  9   6  18  1   
 10   7   9  1   
 11   7  10  ar  
 12   8  10  ar  
 13   8  19  1   
 14   9  11  1   
 15  10  12  1   
 16  11  20  1   
 17  11  21  1   
 18  11  22  1   
 19  12  13  1   
 20  13  14  1   
 21  13  23  1   
 22  13  24  1   
 23  14  15  1   
 24  14  25  1   
 25  14  26  1   
 26  15  16  1   
 27  15  27  1   
 28  15  28  1   
 29  16  29  1   
 30  16  30  1   
 31  16  31  1   
@<TRIPOS>SUBSTRUCTURE
  1 ****  10 GROUP 4 **** **** 0

# MOE 2024.06 (io_trps.svl 2023.06)
