@<TRIPOS>MOLECULE
NONAME
35 36 1 0 0 
SMALL
USER_CHARGES


@<TRIPOS>ATOM
  1 CL      -3.6130     1.2370    -0.7860 Cl    1 <1>  -0.1770 
  2 C       -2.0750     1.9440    -0.3580 C.ar  1 <1>   0.1770 
  3 C       -0.9360     1.1640    -0.4060 C.ar  1 <1>  -0.1500 
  4 C       -2.0260     3.2710     0.0260 C.ar  1 <1>  -0.1500 
  5 C        0.2890     1.7180    -0.0710 C.ar  1 <1>  -0.1440 
  6 C       -0.8090     3.8410     0.3640 C.ar  1 <1>  -0.1440 
  7 C        0.3470     3.0630     0.2960 C.ar  1 <1>   0.0830 
  8 C        1.5360     0.8450    -0.1030 C.3   1 <1>  -0.0960 
  9 C       -0.7630     5.2960     0.8090 C.3   1 <1>  -0.0960 
 10 O        1.5400     3.6180     0.6030 O.3   1 <1>  -0.3630 
 11 C        2.2430     4.1960    -0.4690 C.3   1 <1>   0.1200 
 12 C        3.5280     4.8100     0.0840 C.3   1 <1>  -0.1600 
 13 C        4.3450     5.4660    -1.0330 C.3   1 <1>   0.0960 
 14 N        5.5790     6.0620    -0.4880 N.pl3 1 <1>   0.0480 
 15 C        5.7760     7.3380    -0.0850 C.2   1 <1>   0.0360 
 16 C        6.7620     5.4550    -0.2850 C.2   1 <1>  -0.3020 
 17 N        6.9720     7.5760     0.3470 N.2   1 <1>  -0.5650 
 18 C        7.5950     6.3900     0.2220 C.2   1 <1>   0.0770 
 19 H       -1.0200     0.1330    -0.7010 H     1 <1>   0.1500 
 20 H       -2.9360     3.8400     0.0590 H     1 <1>   0.1500 
 21 H        1.2740    -0.1970    -0.0580 H     1 <1>   0.0800 
 22 H        2.1670     1.0680     0.7390 H     1 <1>   0.0800 
 23 H        2.0870     1.0230    -1.0090 H     1 <1>   0.0800 
 24 H       -1.7360     5.6300     1.1220 H     1 <1>   0.0800 
 25 H       -0.4290     5.9180    -0.0010 H     1 <1>   0.0800 
 26 H       -0.0880     5.4090     1.6380 H     1 <1>   0.0800 
 27 H        1.6160     4.9470    -0.9190 H     1 <1>   0.0800 
 28 H        2.4570     3.4250    -1.1880 H     1 <1>   0.0800 
 29 H        4.1140     4.0350     0.5480 H     1 <1>   0.0800 
 30 H        3.2720     5.5500     0.8230 H     1 <1>   0.0800 
 31 H        3.7710     6.2410    -1.5100 H     1 <1>   0.0800 
 32 H        4.6180     4.7360    -1.7750 H     1 <1>   0.0800 
 33 H        4.9960     8.0770    -0.1280 H     1 <1>   0.1500 
 34 H        6.9450     4.4200    -0.5040 H     1 <1>   0.1500 
 35 H        8.6270     6.2700     0.5090 H     1 <1>   0.1500 
@<TRIPOS>BOND
  1   1   2  1   
  2   2   3  ar  
  3   2   4  ar  
  4   3   5  ar  
  5   3  19  1   
  6   4   6  ar  
  7   4  20  1   
  8   5   7  ar  
  9   5   8  1   
 10   6   7  ar  
 11   6   9  1   
 12   7  10  1   
 13   8  21  1   
 14   8  22  1   
 15   8  23  1   
 16   9  24  1   
 17   9  25  1   
 18   9  26  1   
 19  10  11  1   
 20  11  12  1   
 21  11  27  1   
 22  11  28  1   
 23  12  13  1   
 24  12  29  1   
 25  12  30  1   
 26  13  14  1   
 27  13  31  1   
 28  13  32  1   
 29  14  15  1   
 30  14  16  1   
 31  15  17  2   
 32  15  33  1   
 33  16  18  2   
 34  16  34  1   
 35  17  18  1   
 36  18  35  1   
@<TRIPOS>SUBSTRUCTURE
  1 ****  11 GROUP 4 **** **** 0

# MOE 2024.06 (io_trps.svl 2023.06)
