@<TRIPOS>MOLECULE
NONAME
26 27 1 0 0 
SMALL
USER_CHARGES


@<TRIPOS>ATOM
  1 F       -1.0870    -0.3180    -1.0680 F     1 <1>  -0.3400 
  2 C       -2.2860    -0.4980    -0.5120 C.3   1 <1>   0.6000 
  3 F       -3.1400    -0.3900    -1.5260 F     1 <1>  -0.3400 
  4 C       -2.5360     0.5740     0.5980 C.3   1 <1>   0.5600 
  5 O       -3.6940     0.2370     1.3440 O.3   1 <1>  -0.3630 
  6 O       -1.5090     0.5340     1.5330 O.3   1 <1>  -0.6800 
  7 C       -2.6290     2.0210     0.0990 C.3   1 <1>  -0.0990 
  8 C       -4.9260     0.5600     0.8940 C.ar  1 <1>   0.0830 
  9 C       -3.9630     2.2800    -0.5590 C.2   1 <1>   0.4230 
 10 C       -5.1040     1.5530    -0.0730 C.ar  1 <1>   0.0860 
 11 C       -6.0090    -0.1270     1.4150 C.ar  1 <1>  -0.1500 
 12 O       -4.0020     3.1020    -1.4380 O.2   1 <1>  -0.5700 
 13 C       -6.4020     1.8060    -0.5170 C.ar  1 <1>  -0.1500 
 14 C       -7.2860     0.1490     0.9660 C.ar  1 <1>  -0.1500 
 15 C       -7.4870     1.1150    -0.0080 C.ar  1 <1>  -0.1430 
 16 C       -8.8940     1.4050    -0.5000 C.3   1 <1>  -0.0970 
 17 H       -2.3350    -1.5050    -0.1390 H     1 <1>   0.0800 
 18 H       -0.6560     0.6880     1.0820 H     1 <1>   0.4000 
 19 H       -1.8440     2.2210    -0.6070 H     1 <1>   0.0800 
 20 H       -2.5290     2.7000     0.9250 H     1 <1>   0.0800 
 21 H       -5.8480    -0.8760     2.1700 H     1 <1>   0.1500 
 22 H       -6.5470     2.5620    -1.2700 H     1 <1>   0.1500 
 23 H       -8.1250    -0.3900     1.3730 H     1 <1>   0.1500 
 24 H       -8.8880     2.1620    -1.2630 H     1 <1>   0.0800 
 25 H       -9.5040     1.7470     0.3170 H     1 <1>   0.0800 
 26 H       -9.3300     0.5110    -0.9090 H     1 <1>   0.0800 
@<TRIPOS>BOND
  1   1   2  1   
  2   2   3  1   
  3   2   4  1   
  4   2  17  1   
  5   4   5  1   
  6   4   6  1   
  7   4   7  1   
  8   5   8  1   
  9   6  18  1   
 10   7   9  1   
 11   7  19  1   
 12   7  20  1   
 13   8  10  ar  
 14   8  11  ar  
 15   9  10  1   
 16   9  12  2   
 17  10  13  ar  
 18  11  14  ar  
 19  11  21  1   
 20  13  15  ar  
 21  13  22  1   
 22  14  15  ar  
 23  14  23  1   
 24  15  16  1   
 25  16  24  1   
 26  16  25  1   
 27  16  26  1   
@<TRIPOS>SUBSTRUCTURE
  1 ****  10 GROUP 4 **** **** 0

# MOE 2024.06 (io_trps.svl 2023.06)
