@<TRIPOS>MOLECULE
NONAME
40 42 1 0 0 
SMALL
USER_CHARGES


@<TRIPOS>ATOM
  1 O        7.1070    -2.1220     0.5790 O.2   1 <1>  -0.5700 
  2 C        6.2650    -2.8490     0.0880 C.2   1 <1>   0.5440 
  3 N        5.1010    -2.2860    -0.3940 N.am  1 <1>  -0.6600 
  4 C        6.4960    -4.2810     0.0440 C.ar  1 <1>   0.0860 
  5 C        4.9560    -0.8060    -0.5640 C.3   1 <1>   0.1400 
  6 C        3.8090    -3.0290    -0.5100 C.3   1 <1>   0.1400 
  7 C        6.3230    -5.0150    -1.1290 C.ar  1 <1>  -0.1500 
  8 C        6.9010    -4.9760     1.1820 C.ar  1 <1>  -0.1500 
  9 C        3.9270    -0.2500     0.4300 C.3   1 <1>   0.1400 
 10 C        2.7570    -2.4620     0.4610 C.3   1 <1>   0.1400 
 11 C        6.5250    -6.3830    -1.1610 C.ar  1 <1>  -0.1500 
 12 C        7.1040    -6.3440     1.1570 C.ar  1 <1>  -0.1500 
 13 N        2.6260    -0.9800     0.3070 N.am  1 <1>  -0.6600 
 14 C        6.9150    -7.0560    -0.0150 C.ar  1 <1>  -0.1440 
 15 C        1.5070    -0.3780    -0.2370 C.2   1 <1>   0.7150 
 16 C        7.1370    -8.5580    -0.0440 C.3   1 <1>  -0.0960 
 17 O        1.6540     0.6720    -0.8390 O.2   1 <1>  -0.5700 
 18 C        0.1910    -0.9670    -0.0970 C.2   1 <1>   0.0550 
 19 O       -0.6870    -0.9370    -1.0960 O.3   1 <1>  -0.2800 
 20 C       -0.3870    -1.6100     0.9580 C.2   1 <1>  -0.1500 
 21 C       -1.7920    -1.5340    -0.7120 C.2   1 <1>  -0.0100 
 22 C       -1.6720    -1.9770     0.5570 C.2   1 <1>  -0.1500 
 23 H        4.6290    -0.5930    -1.5670 H     1 <1>   0.0800 
 24 H        5.9000    -0.3100    -0.4160 H     1 <1>   0.0800 
 25 H        3.9470    -4.0730    -0.2960 H     1 <1>   0.0800 
 26 H        3.4440    -2.9420    -1.5190 H     1 <1>   0.0800 
 27 H        6.0300    -4.4990    -2.0270 H     1 <1>   0.1500 
 28 H        7.0590    -4.4270     2.0940 H     1 <1>   0.1500 
 29 H        3.7920     0.8030     0.2520 H     1 <1>   0.0800 
 30 H        4.3080    -0.3660     1.4290 H     1 <1>   0.0800 
 31 H        3.0530    -2.6850     1.4710 H     1 <1>   0.0800 
 32 H        1.8190    -2.9520     0.2730 H     1 <1>   0.0800 
 33 H        6.3820    -6.9220    -2.0810 H     1 <1>   0.1500 
 34 H        7.4130    -6.8520     2.0540 H     1 <1>   0.1500 
 35 H        6.2240    -9.0660     0.2070 H     1 <1>   0.0800 
 36 H        7.8970    -8.8390     0.6620 H     1 <1>   0.0800 
 37 H        7.4530    -8.8740    -1.0230 H     1 <1>   0.0800 
 38 H        0.0420    -1.7990     1.9260 H     1 <1>   0.1500 
 39 H       -2.6160    -1.5980    -1.4020 H     1 <1>   0.1500 
 40 H       -2.3970    -2.5000     1.1550 H     1 <1>   0.1500 
@<TRIPOS>BOND
  1   1   2  2   
  2   2   3  am  
  3   2   4  1   
  4   3   5  1   
  5   3   6  1   
  6   4   7  ar  
  7   4   8  ar  
  8   5   9  1   
  9   5  23  1   
 10   5  24  1   
 11   6  10  1   
 12   6  25  1   
 13   6  26  1   
 14   7  11  ar  
 15   7  27  1   
 16   8  12  ar  
 17   8  28  1   
 18   9  13  1   
 19   9  29  1   
 20   9  30  1   
 21  10  13  1   
 22  10  31  1   
 23  10  32  1   
 24  11  14  ar  
 25  11  33  1   
 26  12  14  ar  
 27  12  34  1   
 28  13  15  am  
 29  14  16  1   
 30  15  17  2   
 31  15  18  1   
 32  16  35  1   
 33  16  36  1   
 34  16  37  1   
 35  18  19  1   
 36  18  20  2   
 37  19  21  1   
 38  20  22  1   
 39  20  38  1   
 40  21  22  2   
 41  21  39  1   
 42  22  40  1   
@<TRIPOS>SUBSTRUCTURE
  1 ****   6 GROUP 4 **** **** 0

# MOE 2024.06 (io_trps.svl 2023.06)
