@<TRIPOS>MOLECULE
NONAME
24 25 1 0 0 
SMALL
USER_CHARGES


@<TRIPOS>ATOM
  1 O        0.2260     0.5640    -1.0260 O.2   1 <1>  -0.5700 
  2 C       -0.1460     1.6220    -0.5790 C.2   1 <1>   0.5690 
  3 N        0.6390     2.6620    -0.1800 N.am  1 <1>  -0.4770 
  4 C       -1.6050     1.9240    -0.3700 C.3   1 <1>  -0.0990 
  5 C        2.0510     2.7020    -0.1470 C.ar  1 <1>   0.1170 
  6 C       -0.1730     3.7540     0.3920 C.3   1 <1>   0.1400 
  7 C       -1.6200     3.4070     0.0220 C.3   1 <1>  -0.1600 
  8 C        2.8030     3.7630    -0.6760 C.ar  1 <1>   0.0820 
  9 C        2.7430     1.6450     0.4340 C.ar  1 <1>  -0.1500 
 10 O        2.2100     4.8130    -1.2870 O.3   1 <1>  -0.5320 
 11 C        4.1870     3.7600    -0.6030 C.ar  1 <1>  -0.1500 
 12 C        4.1250     1.6410     0.5070 C.ar  1 <1>  -0.1500 
 13 C        4.8490     2.7000    -0.0100 C.ar  1 <1>  -0.1500 
 14 H       -1.9770     1.3060     0.4250 H     1 <1>   0.0800 
 15 H       -2.1610     1.7410    -1.2720 H     1 <1>   0.0800 
 16 H        0.1080     4.7090    -0.0140 H     1 <1>   0.0800 
 17 H       -0.0410     3.7640     1.4600 H     1 <1>   0.0800 
 18 H       -2.2950     3.6070     0.8350 H     1 <1>   0.0800 
 19 H       -1.9120     4.0030    -0.8260 H     1 <1>   0.0800 
 20 H        2.1880     0.8140     0.8310 H     1 <1>   0.1500 
 21 H        2.8520     5.4140    -1.7030 H     1 <1>   0.4500 
 22 H        4.7570     4.5760    -1.0060 H     1 <1>   0.1500 
 23 H        4.6340     0.8090     0.9630 H     1 <1>   0.1500 
 24 H        5.9240     2.6950     0.0470 H     1 <1>   0.1500 
@<TRIPOS>BOND
  1   1   2  2   
  2   2   3  am  
  3   2   4  1   
  4   3   5  1   
  5   3   6  1   
  6   4   7  1   
  7   4  14  1   
  8   4  15  1   
  9   5   8  ar  
 10   5   9  ar  
 11   6   7  1   
 12   6  16  1   
 13   6  17  1   
 14   7  18  1   
 15   7  19  1   
 16   8  10  1   
 17   8  11  ar  
 18   9  12  ar  
 19   9  20  1   
 20  10  21  1   
 21  11  13  ar  
 22  11  22  1   
 23  12  13  ar  
 24  12  23  1   
 25  13  24  1   
@<TRIPOS>SUBSTRUCTURE
  1 ****   5 GROUP 4 **** **** 0

# MOE 2024.06 (io_trps.svl 2023.06)
