@<TRIPOS>MOLECULE
NONAME
42 43 1 0 0 
SMALL
USER_CHARGES


@<TRIPOS>ATOM
  1 S       -0.0280     0.3240    -0.4380 S.3   1 <1>  -0.2860 
  2 C       -1.4850    -0.7080    -0.6010 C.2   1 <1>   0.2420 
  3 C        1.3130    -0.7640    -1.1140 C.3   1 <1>   0.1310 
  4 N       -1.4620    -1.8990    -1.0810 N.2   1 <1>  -0.3380 
  5 N       -2.6970    -0.3040    -0.2330 N.pl3 1 <1>   0.0480 
  6 C        2.6560    -0.0710    -1.0090 C.2   1 <1>   0.6590 
  7 N       -2.7230    -2.3300    -1.0400 N.2   1 <1>  -0.3380 
  8 C       -3.4570    -1.3790    -0.5260 C.2   1 <1>   0.1330 
  9 C       -3.1020     1.0120     0.3030 C.3   1 <1>   0.0160 
 10 O        3.2420     0.3250    -1.9850 O.2   1 <1>  -0.5700 
 11 O        3.1550     0.0590     0.2140 O.3   1 <1>  -0.4300 
 12 C       -4.8800    -1.4480    -0.3110 C.ar  1 <1>   0.0530 
 13 C        4.3940     0.6910     0.4390 C.3   1 <1>   0.1200 
 14 C       -5.7430    -1.7490    -1.3610 C.ar  1 <1>  -0.1500 
 15 C       -5.4450    -1.2140     0.9430 C.ar  1 <1>  -0.1500 
 16 C        4.6670     0.6750     1.9400 C.3   1 <1>  -0.2400 
 17 C       -7.1110    -1.7890    -1.1740 C.ar  1 <1>  -0.1500 
 18 C       -6.8130    -1.2550     1.1300 C.ar  1 <1>  -0.1500 
 19 C       -7.6710    -1.5380     0.0720 C.ar  1 <1>   0.1000 
 20 N       -9.0520    -1.5850     0.2340 N.pl3 1 <1>  -0.8380 
 21 C       -9.7400    -0.6060     1.1150 C.3   1 <1>   0.1290 
 22 C       -9.7290    -2.9010     0.0930 C.3   1 <1>   0.1290 
 23 H        1.0700    -0.9690    -2.1400 H     1 <1>   0.0800 
 24 H        1.3100    -1.6730    -0.5430 H     1 <1>   0.0800 
 25 H       -2.4950     1.7830    -0.1360 H     1 <1>   0.0800 
 26 H       -2.9710     1.0170     1.3690 H     1 <1>   0.0800 
 27 H       -4.1330     1.2000     0.0640 H     1 <1>   0.0800 
 28 H        4.3340     1.7000     0.0670 H     1 <1>   0.0800 
 29 H        5.1550     0.1510    -0.0990 H     1 <1>   0.0800 
 30 H       -5.3290    -1.9510    -2.3330 H     1 <1>   0.1500 
 31 H       -4.8030    -1.0080     1.7800 H     1 <1>   0.1500 
 32 H        3.8930     1.2090     2.4620 H     1 <1>   0.0800 
 33 H        5.6080     1.1530     2.1420 H     1 <1>   0.0800 
 34 H        4.7110    -0.3370     2.2990 H     1 <1>   0.0800 
 35 H       -7.7650    -2.0120    -1.9960 H     1 <1>   0.1500 
 36 H       -7.2270    -1.0800     2.1050 H     1 <1>   0.1500 
 37 H       -9.1770     0.3110     1.1520 H     1 <1>   0.0800 
 38 H       -9.8340    -1.0060     2.1090 H     1 <1>   0.0800 
 39 H      -10.7190    -0.3920     0.7230 H     1 <1>   0.0800 
 40 H       -9.0760    -3.6060    -0.3920 H     1 <1>   0.0800 
 41 H      -10.6190    -2.7880    -0.5000 H     1 <1>   0.0800 
 42 H       -9.9920    -3.2850     1.0630 H     1 <1>   0.0800 
@<TRIPOS>BOND
  1   1   2  1   
  2   1   3  1   
  3   2   4  2   
  4   2   5  1   
  5   3   6  1   
  6   3  23  1   
  7   3  24  1   
  8   4   7  1   
  9   5   8  1   
 10   5   9  1   
 11   6  10  2   
 12   6  11  1   
 13   7   8  2   
 14   8  12  1   
 15   9  25  1   
 16   9  26  1   
 17   9  27  1   
 18  11  13  1   
 19  12  14  ar  
 20  12  15  ar  
 21  13  16  1   
 22  13  28  1   
 23  13  29  1   
 24  14  17  ar  
 25  14  30  1   
 26  15  18  ar  
 27  15  31  1   
 28  16  32  1   
 29  16  33  1   
 30  16  34  1   
 31  17  19  ar  
 32  17  35  1   
 33  18  19  ar  
 34  18  36  1   
 35  19  20  1   
 36  20  21  1   
 37  20  22  1   
 38  21  37  1   
 39  21  38  1   
 40  21  39  1   
 41  22  40  1   
 42  22  41  1   
 43  22  42  1   
@<TRIPOS>SUBSTRUCTURE
  1 ****   5 GROUP 4 **** **** 0

# MOE 2024.06 (io_trps.svl 2023.06)
