@<TRIPOS>MOLECULE
NONAME
40 41 1 0 0 
SMALL
USER_CHARGES


@<TRIPOS>ATOM
  1 CL      -2.2110    -1.4040    -2.9190 Cl    1 <1>  -0.1770 
  2 C       -3.2600    -0.4330    -1.9160 C.ar  1 <1>   0.1770 
  3 C       -4.4270     0.0780    -2.4540 C.ar  1 <1>  -0.1500 
  4 C       -2.9050    -0.1910    -0.6030 C.ar  1 <1>  -0.1500 
  5 C       -5.2690     0.8490    -1.6670 C.ar  1 <1>  -0.1440 
  6 C       -3.7400     0.5770     0.1880 C.ar  1 <1>  -0.1500 
  7 C       -4.9230     1.0870    -0.3380 C.ar  1 <1>   0.0830 
  8 C       -6.5500     1.4080    -2.2720 C.3   1 <1>  -0.0960 
  9 O       -5.7390     1.8340     0.4410 O.3   1 <1>  -0.3630 
 10 C       -6.2450     1.2550     1.6400 C.3   1 <1>   0.2610 
 11 C       -7.7360     0.9380     1.4830 C.2   1 <1>   0.5690 
 12 C       -5.9750     2.2510     2.7730 C.3   1 <1>  -0.2400 
 13 O       -8.2080     0.0590     2.1600 O.2   1 <1>  -0.5700 
 14 N       -8.4330     1.6720     0.5700 N.am  1 <1>  -0.5470 
 15 C       -9.7250     1.6600     0.1480 C.ar  1 <1>   0.7370 
 16 N       -9.9030     2.2980    -1.0000 N.ar  1 <1>  -0.6200 
 17 N      -10.6550     1.0650     0.8820 N.ar  1 <1>  -0.6200 
 18 C      -11.1320     2.3260    -1.4560 C.ar  1 <1>   0.1670 
 19 C      -11.8750     1.1010     0.4100 C.ar  1 <1>   0.1670 
 20 C      -12.1680     1.7300    -0.7770 C.ar  1 <1>  -0.1500 
 21 C      -11.3620     3.0440    -2.7690 C.3   1 <1>  -0.0970 
 22 C      -12.9460     0.4170     1.2320 C.3   1 <1>  -0.0970 
 23 H       -4.6650    -0.1320    -3.4810 H     1 <1>   0.1500 
 24 H       -1.9880    -0.5950    -0.2140 H     1 <1>   0.1500 
 25 H       -3.4690     0.7850     1.2080 H     1 <1>   0.1500 
 26 H       -6.5040     1.3910    -3.3460 H     1 <1>   0.0800 
 27 H       -6.7000     2.4260    -1.9620 H     1 <1>   0.0800 
 28 H       -7.3910     0.8170    -1.9590 H     1 <1>   0.0800 
 29 H       -5.7280     0.3330     1.8370 H     1 <1>   0.0800 
 30 H       -6.4890     3.1770     2.5860 H     1 <1>   0.0800 
 31 H       -4.9200     2.4350     2.8620 H     1 <1>   0.0800 
 32 H       -6.3330     1.8440     3.7020 H     1 <1>   0.0800 
 33 H       -7.8660     2.2890    -0.0010 H     1 <1>   0.3700 
 34 H      -13.1710     1.7560    -1.1570 H     1 <1>   0.1500 
 35 H      -11.0590     4.0710    -2.6750 H     1 <1>   0.0800 
 36 H      -12.3980     3.0120    -3.0510 H     1 <1>   0.0800 
 37 H      -10.7770     2.5800    -3.5410 H     1 <1>   0.0800 
 38 H      -12.6960    -0.6210     1.3510 H     1 <1>   0.0800 
 39 H      -13.9070     0.4940     0.7590 H     1 <1>   0.0800 
 40 H      -12.9960     0.8720     2.2040 H     1 <1>   0.0800 
@<TRIPOS>BOND
  1   1   2  1   
  2   2   3  ar  
  3   2   4  ar  
  4   3   5  ar  
  5   3  23  1   
  6   4   6  ar  
  7   4  24  1   
  8   5   7  ar  
  9   5   8  1   
 10   6   7  ar  
 11   6  25  1   
 12   7   9  1   
 13   8  26  1   
 14   8  27  1   
 15   8  28  1   
 16   9  10  1   
 17  10  11  1   
 18  10  12  1   
 19  10  29  1   
 20  11  13  2   
 21  11  14  am  
 22  12  30  1   
 23  12  31  1   
 24  12  32  1   
 25  14  15  1   
 26  14  33  1   
 27  15  16  ar  
 28  15  17  ar  
 29  16  18  ar  
 30  17  19  ar  
 31  18  20  ar  
 32  18  21  1   
 33  19  20  ar  
 34  19  22  1   
 35  20  34  1   
 36  21  35  1   
 37  21  36  1   
 38  21  37  1   
 39  22  38  1   
 40  22  39  1   
 41  22  40  1   
@<TRIPOS>SUBSTRUCTURE
  1 ****  14 GROUP 4 **** **** 0

# MOE 2024.06 (io_trps.svl 2023.06)
