@<TRIPOS>MOLECULE
NONAME
27 28 1 0 0 
SMALL
USER_CHARGES


@<TRIPOS>ATOM
  1 O       -1.3020     0.5880    -1.9360 O.2   1 <1>  -0.5700 
  2 C       -2.1880     0.8320    -1.1500 C.2   1 <1>   0.5690 
  3 N       -2.9480    -0.0870    -0.5160 N.am  1 <1>  -0.6600 
  4 C       -2.5670     2.2270    -0.7460 C.3   1 <1>  -0.0990 
  5 C       -3.9270     0.5350     0.4040 C.3   1 <1>   0.3640 
  6 C       -2.6870    -1.5460    -0.4750 C.3   1 <1>   0.0600 
  7 C       -3.8590     2.0300     0.0750 C.3   1 <1>  -0.1860 
  8 C       -5.3340    -0.0280     0.2090 C.ar  1 <1>  -0.1440 
  9 C       -3.9190     2.8680     1.3310 C.2   1 <1>   0.9060 
 10 C       -6.1790    -0.1220     1.3060 C.ar  1 <1>   0.1600 
 11 C       -5.8050    -0.4380    -1.0260 C.ar  1 <1>  -0.1500 
 12 O       -3.5730     4.0490     1.2620 O.co2 1 <1>  -0.9000 
 13 O       -4.3120     2.3540     2.3840 O.co2 1 <1>  -0.9000 
 14 N       -7.4110    -0.6160     1.2760 N.ar  1 <1>  -0.6200 
 15 C       -7.0860    -0.9410    -1.0770 C.ar  1 <1>  -0.1500 
 16 C       -7.8320    -1.0100     0.0870 C.ar  1 <1>   0.1600 
 17 H       -1.7800     2.6420    -0.1420 H     1 <1>   0.0800 
 18 H       -2.7340     2.8510    -1.6030 H     1 <1>   0.0800 
 19 H       -3.5880     0.3420     1.4090 H     1 <1>   0.0800 
 20 H       -3.5660    -2.0850    -0.7810 H     1 <1>   0.0800 
 21 H       -2.4210    -1.8380     0.5250 H     1 <1>   0.0800 
 22 H       -1.8770    -1.7930    -1.1400 H     1 <1>   0.0800 
 23 H       -4.7030     2.3020    -0.5280 H     1 <1>   0.0800 
 24 H       -5.8190     0.2340     2.2590 H     1 <1>   0.1500 
 25 H       -5.1950    -0.3660    -1.9100 H     1 <1>   0.1500 
 26 H       -7.5040    -1.2760    -2.0080 H     1 <1>   0.1500 
 27 H       -8.8310    -1.4080     0.0370 H     1 <1>   0.1500 
@<TRIPOS>BOND
  1   1   2  2   
  2   2   3  am  
  3   2   4  1   
  4   3   5  1   
  5   3   6  1   
  6   4   7  1   
  7   4  17  1   
  8   4  18  1   
  9   5   7  1   
 10   5   8  1   
 11   5  19  1   
 12   6  20  1   
 13   6  21  1   
 14   6  22  1   
 15   7   9  1   
 16   7  23  1   
 17   8  10  ar  
 18   8  11  ar  
 19   9  12  ar  
 20   9  13  ar  
 21  10  14  ar  
 22  10  24  1   
 23  11  15  ar  
 24  11  25  1   
 25  14  16  ar  
 26  15  16  ar  
 27  15  26  1   
 28  16  27  1   
@<TRIPOS>SUBSTRUCTURE
  1 ****   5 GROUP 4 **** **** 0

# MOE 2024.06 (io_trps.svl 2023.06)
