@<TRIPOS>MOLECULE
NONAME
47 48 1 0 0 
SMALL
USER_CHARGES


@<TRIPOS>ATOM
  1 O       -0.1590     0.5610     1.3840 O.2   1 <1>  -0.5700 
  2 C       -0.1000     1.4820     0.5930 C.2   1 <1>   0.5440 
  3 N        1.0580     1.6840    -0.0960 N.am  1 <1>  -0.7300 
  4 C       -1.2410     2.3500     0.3770 C.ar  1 <1>   0.0860 
  5 C        2.3510     1.0590     0.2120 C.3   1 <1>   0.3640 
  6 C       -2.5380     1.8420     0.4170 C.ar  1 <1>  -0.1500 
  7 C       -1.0790     3.7120     0.1250 C.ar  1 <1>  -0.1500 
  8 C        3.3900     2.1750     0.2680 C.ar  1 <1>  -0.1430 
  9 C        2.6990    -0.0080    -0.8400 C.3   1 <1>  -0.1600 
 10 C       -3.6450     2.6510     0.1940 C.ar  1 <1>   0.0830 
 11 C       -2.1690     4.5440    -0.1010 C.ar  1 <1>   0.0830 
 12 C        3.9730     2.5020     1.4840 C.ar  1 <1>  -0.1500 
 13 C        3.7610     2.8860    -0.8670 C.ar  1 <1>  -0.1500 
 14 C        1.7320    -1.2020    -0.8360 C.3   1 <1>  -0.2400 
 15 O       -4.9220     2.1700     0.2260 O.3   1 <1>  -0.3630 
 16 C       -3.4560     4.0070    -0.0730 C.ar  1 <1>   0.0830 
 17 O       -2.0350     5.8810    -0.3420 O.3   1 <1>  -0.3630 
 18 C        4.9110     3.5170     1.5660 C.ar  1 <1>  -0.1500 
 19 C        4.7000     3.9000    -0.7870 C.ar  1 <1>  -0.1500 
 20 C       -5.1940     0.8000     0.4190 C.3   1 <1>   0.0400 
 21 O       -4.5210     4.8090    -0.3260 O.3   1 <1>  -0.3630 
 22 C       -0.7750     6.5130    -0.3710 C.3   1 <1>   0.0400 
 23 C        5.2760     4.2160     0.4300 C.ar  1 <1>  -0.1500 
 24 C       -5.1850     5.3200     0.8040 C.3   1 <1>   0.0400 
 25 H        1.1210     2.4420    -0.7710 H     1 <1>   0.3700 
 26 H        2.2950     0.5800     1.1760 H     1 <1>   0.0800 
 27 H       -2.6480     0.7950     0.6300 H     1 <1>   0.1500 
 28 H       -0.0820     4.1070     0.1210 H     1 <1>   0.1500 
 29 H        3.6900    -0.3700    -0.6310 H     1 <1>   0.0800 
 30 H        2.7140     0.4320    -1.8200 H     1 <1>   0.0800 
 31 H        3.6970     1.9690     2.3780 H     1 <1>   0.1500 
 32 H        3.3240     2.6570    -1.8230 H     1 <1>   0.1500 
 33 H        1.6920    -1.6490     0.1420 H     1 <1>   0.0800 
 34 H        2.0570    -1.9450    -1.5420 H     1 <1>   0.0800 
 35 H        0.7390    -0.8870    -1.1060 H     1 <1>   0.0800 
 36 H        5.3570     3.7610     2.5140 H     1 <1>   0.1500 
 37 H        4.9840     4.4430    -1.6720 H     1 <1>   0.1500 
 38 H       -6.2590     0.6620     0.3770 H     1 <1>   0.0800 
 39 H       -4.8250     0.5020     1.3850 H     1 <1>   0.0800 
 40 H       -4.7220     0.2360    -0.3660 H     1 <1>   0.0800 
 41 H       -0.9330     7.5570    -0.5720 H     1 <1>   0.0800 
 42 H       -0.1830     6.0770    -1.1560 H     1 <1>   0.0800 
 43 H       -0.3000     6.3940     0.5870 H     1 <1>   0.0800 
 44 H        6.0070     5.0040     0.4930 H     1 <1>   0.1500 
 45 H       -5.9930     5.9420     0.4650 H     1 <1>   0.0800 
 46 H       -4.4870     5.8990     1.3820 H     1 <1>   0.0800 
 47 H       -5.5690     4.4990     1.3840 H     1 <1>   0.0800 
@<TRIPOS>BOND
  1   1   2  2   
  2   2   3  am  
  3   2   4  1   
  4   3   5  1   
  5   3  25  1   
  6   4   6  ar  
  7   4   7  ar  
  8   5   8  1   
  9   5   9  1   
 10   5  26  1   
 11   6  10  ar  
 12   6  27  1   
 13   7  11  ar  
 14   7  28  1   
 15   8  12  ar  
 16   8  13  ar  
 17   9  14  1   
 18   9  29  1   
 19   9  30  1   
 20  10  15  1   
 21  10  16  ar  
 22  11  16  ar  
 23  11  17  1   
 24  12  18  ar  
 25  12  31  1   
 26  13  19  ar  
 27  13  32  1   
 28  14  33  1   
 29  14  34  1   
 30  14  35  1   
 31  15  20  1   
 32  16  21  1   
 33  17  22  1   
 34  18  23  ar  
 35  18  36  1   
 36  19  23  ar  
 37  19  37  1   
 38  20  38  1   
 39  20  39  1   
 40  20  40  1   
 41  21  24  1   
 42  22  41  1   
 43  22  42  1   
 44  22  43  1   
 45  23  44  1   
 46  24  45  1   
 47  24  46  1   
 48  24  47  1   
@<TRIPOS>SUBSTRUCTURE
  1 ****   4 GROUP 4 **** **** 0

# MOE 2024.06 (io_trps.svl 2023.06)
