@<TRIPOS>MOLECULE
NONAME
41 42 1 0 0 
SMALL
USER_CHARGES


@<TRIPOS>ATOM
  1 O        0.1430     0.1120    -2.1440 O.2   1 <1>  -0.5700 
  2 C       -0.1860    -0.4110    -1.1050 C.2   1 <1>   0.5690 
  3 N        0.7290    -0.7970    -0.1800 N.am  1 <1>  -0.7300 
  4 C       -1.6680    -0.6530    -0.8410 C.3   1 <1>   0.1810 
  5 C        2.1940    -0.7450    -0.3100 C.3   1 <1>   0.2200 
  6 O       -1.8680    -1.3950     0.3580 O.3   1 <1>  -0.3630 
  7 C        2.7470    -2.1900    -0.2450 C.3   1 <1>   0.2000 
  8 C        2.7070     0.1840     0.7940 C.3   1 <1>  -0.2400 
  9 C       -2.9560    -2.2030     0.4820 C.ar  1 <1>   0.0830 
 10 O        2.4210    -2.8060     0.9660 O.3   1 <1>  -0.5600 
 11 C        4.2580    -2.3520    -0.3580 C.3   1 <1>  -0.1600 
 12 C       -4.2490    -1.8720     0.0480 C.ar  1 <1>   0.0830 
 13 C       -2.7240    -3.4250     1.0900 C.ar  1 <1>  -0.1500 
 14 C        3.2860    -3.8670     1.2290 C.3   1 <1>   0.1200 
 15 C        4.4830    -3.7050     0.2930 C.3   1 <1>  -0.1600 
 16 O       -4.4770    -0.6480    -0.5130 O.3   1 <1>  -0.3630 
 17 C       -5.2730    -2.8020     0.2190 C.ar  1 <1>  -0.1500 
 18 C       -3.7510    -4.3360     1.2590 C.ar  1 <1>  -0.1500 
 19 C       -5.7780    -0.1990    -0.8210 C.3   1 <1>   0.0400 
 20 C       -5.0240    -4.0250     0.8200 C.ar  1 <1>  -0.1500 
 21 H        0.4030    -1.3120     0.6450 H     1 <1>   0.3700 
 22 H       -2.0870    -1.2040    -1.6620 H     1 <1>   0.0800 
 23 H       -2.1710     0.2900    -0.7410 H     1 <1>   0.0800 
 24 H        2.4470    -0.3220    -1.2680 H     1 <1>   0.0800 
 25 H        2.2810    -2.7680    -1.0250 H     1 <1>   0.0800 
 26 H        2.5270    -0.2480     1.7620 H     1 <1>   0.0800 
 27 H        2.2080     1.1350     0.7310 H     1 <1>   0.0800 
 28 H        3.7600     0.3570     0.6840 H     1 <1>   0.0800 
 29 H        4.7670    -1.5920     0.2030 H     1 <1>   0.0800 
 30 H        4.5890    -2.3240    -1.3810 H     1 <1>   0.0800 
 31 H       -1.7310    -3.6620     1.4290 H     1 <1>   0.1500 
 32 H        2.7610    -4.7890     1.0460 H     1 <1>   0.0800 
 33 H        3.5780    -3.8070     2.2640 H     1 <1>   0.0800 
 34 H        5.4150    -3.7480     0.8300 H     1 <1>   0.0800 
 35 H        4.4660    -4.4880    -0.4440 H     1 <1>   0.0800 
 36 H       -6.2750    -2.5980    -0.1060 H     1 <1>   0.1500 
 37 H       -3.5570    -5.2840     1.7310 H     1 <1>   0.1500 
 38 H       -5.7050     0.8090    -1.1880 H     1 <1>   0.0800 
 39 H       -6.3760    -0.2200     0.0720 H     1 <1>   0.0800 
 40 H       -6.1960    -0.8330    -1.5830 H     1 <1>   0.0800 
 41 H       -5.8230    -4.7340     0.9470 H     1 <1>   0.1500 
@<TRIPOS>BOND
  1   1   2  2   
  2   2   3  am  
  3   2   4  1   
  4   3   5  1   
  5   3  21  1   
  6   4   6  1   
  7   4  22  1   
  8   4  23  1   
  9   5   7  1   
 10   5   8  1   
 11   5  24  1   
 12   6   9  1   
 13   7  10  1   
 14   7  11  1   
 15   7  25  1   
 16   8  26  1   
 17   8  27  1   
 18   8  28  1   
 19   9  12  ar  
 20   9  13  ar  
 21  10  14  1   
 22  11  15  1   
 23  11  29  1   
 24  11  30  1   
 25  12  16  1   
 26  12  17  ar  
 27  13  18  ar  
 28  13  31  1   
 29  14  15  1   
 30  14  32  1   
 31  14  33  1   
 32  15  34  1   
 33  15  35  1   
 34  16  19  1   
 35  17  20  ar  
 36  17  36  1   
 37  18  20  ar  
 38  18  37  1   
 39  19  38  1   
 40  19  39  1   
 41  19  40  1   
 42  20  41  1   
@<TRIPOS>SUBSTRUCTURE
  1 ****   6 GROUP 4 **** **** 0

# MOE 2024.06 (io_trps.svl 2023.06)
