@<TRIPOS>MOLECULE
NONAME
46 47 1 0 0 
SMALL
USER_CHARGES


@<TRIPOS>ATOM
  1 F       -0.7250    -0.5450    -0.7460 F     1 <1>  -0.3400 
  2 C        0.0830    -1.3160    -1.4590 C.3   1 <1>   1.1640 
  3 F        0.6990    -0.5150    -2.3210 F     1 <1>  -0.3400 
  4 F       -0.6900    -2.1180    -2.1790 F     1 <1>  -0.3400 
  5 C        1.0890    -2.0700    -0.5680 C.ar  1 <1>  -0.1440 
  6 C        2.2210    -1.4230    -0.0780 C.ar  1 <1>  -0.1500 
  7 C        0.8880    -3.4030    -0.2260 C.ar  1 <1>  -0.1500 
  8 C        3.1360    -2.0890     0.7260 C.ar  1 <1>  -0.1440 
  9 C        1.7910    -4.0690     0.5810 C.ar  1 <1>  -0.1500 
 10 C        2.9110    -3.4160     1.0580 C.ar  1 <1>  -0.1500 
 11 C        4.3710    -1.3820     1.2350 C.3   1 <1>   0.4870 
 12 N        5.4360    -1.6420     0.2350 N.4   1 <1>  -0.9060 
 13 C        6.7930    -1.1670     0.5930 C.3   1 <1>   0.4230 
 14 C        6.8640     0.3630     0.5520 C.3   1 <1>  -0.1600 
 15 C        7.7990    -1.7680    -0.3900 C.3   1 <1>  -0.1600 
 16 C        8.2900     0.8570     0.8130 C.3   1 <1>   0.3430 
 17 C        9.2150    -1.2580    -0.1180 C.3   1 <1>   0.3430 
 18 N        9.2390     0.2360    -0.1560 N.4   1 <1>  -0.9590 
 19 C       10.6180     0.7640     0.0850 C.3   1 <1>   0.3430 
 20 C       11.5180     0.4880    -1.1220 C.3   1 <1>  -0.1600 
 21 C       12.8950     1.1340    -0.9300 C.3   1 <1>  -0.2400 
 22 H        2.3740    -0.3850    -0.3310 H     1 <1>   0.1500 
 23 H        0.0200    -3.9360    -0.5830 H     1 <1>   0.1500 
 24 H        1.6130    -5.1010     0.8400 H     1 <1>   0.1500 
 25 H        3.5900    -3.9620     1.6930 H     1 <1>   0.1500 
 26 H        4.6460    -1.7800     2.1990 H     1 <1>   0.0800 
 27 H        4.1800    -0.3260     1.3310 H     1 <1>   0.0800 
 28 H        5.1180    -1.2530    -0.6620 H     1 <1>   0.4500 
 29 H        5.4360    -2.6610     0.0910 H     1 <1>   0.4500 
 30 H        7.0390    -1.5070     1.5890 H     1 <1>   0.0800 
 31 H        6.2270     0.7840     1.3100 H     1 <1>   0.0800 
 32 H        6.5390     0.7340    -0.4050 H     1 <1>   0.0800 
 33 H        7.5340    -1.5260    -1.4050 H     1 <1>   0.0800 
 34 H        7.8060    -2.8400    -0.2930 H     1 <1>   0.0800 
 35 H        8.5850     0.6060     1.8200 H     1 <1>   0.0800 
 36 H        8.3220     1.9330     0.7170 H     1 <1>   0.0800 
 37 H        9.8860    -1.6580    -0.8620 H     1 <1>   0.0800 
 38 H        9.5500    -1.6020     0.8490 H     1 <1>   0.0800 
 39 H        8.9880     0.5470    -1.1080 H     1 <1>   0.4500 
 40 H       11.0450     0.3180     0.9700 H     1 <1>   0.0800 
 41 H       10.5760     1.8320     0.2380 H     1 <1>   0.0800 
 42 H       11.0750     0.8960    -2.0140 H     1 <1>   0.0800 
 43 H       11.6620    -0.5690    -1.2560 H     1 <1>   0.0800 
 44 H       12.8090     2.2020    -0.8220 H     1 <1>   0.0800 
 45 H       13.5170     0.9340    -1.7860 H     1 <1>   0.0800 
 46 H       13.3890     0.7370    -0.0590 H     1 <1>   0.0800 
@<TRIPOS>BOND
  1   1   2  1   
  2   2   3  1   
  3   2   4  1   
  4   2   5  1   
  5   5   6  ar  
  6   5   7  ar  
  7   6   8  ar  
  8   6  22  1   
  9   7   9  ar  
 10   7  23  1   
 11   8  10  ar  
 12   8  11  1   
 13   9  10  ar  
 14   9  24  1   
 15  10  25  1   
 16  11  12  1   
 17  11  26  1   
 18  11  27  1   
 19  12  13  1   
 20  12  28  1   
 21  12  29  1   
 22  13  14  1   
 23  13  15  1   
 24  13  30  1   
 25  14  16  1   
 26  14  31  1   
 27  14  32  1   
 28  15  17  1   
 29  15  33  1   
 30  15  34  1   
 31  16  18  1   
 32  16  35  1   
 33  16  36  1   
 34  17  18  1   
 35  17  37  1   
 36  17  38  1   
 37  18  19  1   
 38  18  39  1   
 39  19  20  1   
 40  19  40  1   
 41  19  41  1   
 42  20  21  1   
 43  20  42  1   
 44  20  43  1   
 45  21  44  1   
 46  21  45  1   
 47  21  46  1   
@<TRIPOS>SUBSTRUCTURE
  1 ****  12 GROUP 4 **** **** 0

# MOE 2024.06 (io_trps.svl 2023.06)
