@<TRIPOS>MOLECULE
NONAME
46 47 1 0 0 
SMALL
USER_CHARGES


@<TRIPOS>ATOM
  1 O      -15.6320     2.1970    -0.3880 O.3   1 <1>  -0.5600 
  2 C      -14.9760     2.7910     0.7000 C.3   1 <1>   0.1200 
  3 C      -15.7550     0.8030    -0.2920 C.3   1 <1>   0.1200 
  4 C      -13.5430     2.2330     0.8590 C.3   1 <1>   0.3430 
  5 C      -14.3760     0.1250    -0.1140 C.3   1 <1>   0.3430 
  6 N      -13.2630     1.1330    -0.1310 N.4   1 <1>  -0.9590 
  7 C      -11.9160     0.4960     0.0250 C.3   1 <1>   0.3430 
  8 C      -10.7730     1.4800    -0.2250 C.3   1 <1>   0.1200 
  9 O       -9.5650     0.7800    -0.0660 O.3   1 <1>  -0.3630 
 10 C       -8.3780     1.4290     0.1140 C.ar  1 <1>   0.0830 
 11 C       -8.0910     2.7560    -0.2570 C.ar  1 <1>   0.0830 
 12 C       -7.3940     0.6670     0.7230 C.ar  1 <1>  -0.1500 
 13 O       -9.0310     3.5140    -0.8980 O.3   1 <1>  -0.3630 
 14 C       -6.8290     3.2750     0.0290 C.ar  1 <1>  -0.1500 
 15 C       -6.1450     1.1960     0.9900 C.ar  1 <1>  -0.1500 
 16 C       -8.6690     4.6700    -1.6240 C.3   1 <1>   0.0400 
 17 C       -5.8590     2.5050     0.6490 C.ar  1 <1>  -0.1430 
 18 C       -4.4870     3.0910     0.9470 C.3   1 <1>  -0.0170 
 19 C       -3.5480     2.8960    -0.2490 C.3   1 <1>  -0.1600 
 20 C       -2.1580     3.4790     0.0250 C.3   1 <1>  -0.2400 
 21 H      -15.5560     2.6160     1.5900 H     1 <1>   0.0800 
 22 H      -14.9440     3.8530     0.5250 H     1 <1>   0.0800 
 23 H      -16.2250     0.4540    -1.1960 H     1 <1>   0.0800 
 24 H      -16.4050     0.5690     0.5340 H     1 <1>   0.0800 
 25 H      -13.4210     1.8650     1.8650 H     1 <1>   0.0800 
 26 H      -12.8400     3.0390     0.7230 H     1 <1>   0.0800 
 27 H      -14.2350    -0.5950    -0.9040 H     1 <1>   0.0800 
 28 H      -14.3700    -0.4130     0.8190 H     1 <1>   0.0800 
 29 H      -13.3300     1.5830    -1.0580 H     1 <1>   0.4500 
 30 H      -11.8190    -0.3140    -0.6790 H     1 <1>   0.0800 
 31 H      -11.8170     0.0960     1.0200 H     1 <1>   0.0800 
 32 H      -10.7850     2.2830     0.4910 H     1 <1>   0.0800 
 33 H      -10.8070     1.8580    -1.2310 H     1 <1>   0.0800 
 34 H       -7.6080    -0.3510     0.9930 H     1 <1>   0.1500 
 35 H       -6.5780     4.2870    -0.2240 H     1 <1>   0.1500 
 36 H       -5.3980     0.5830     1.4640 H     1 <1>   0.1500 
 37 H       -9.5280     5.0010    -2.1800 H     1 <1>   0.0800 
 38 H       -7.8700     4.4230    -2.3020 H     1 <1>   0.0800 
 39 H       -8.3660     5.4380    -0.9350 H     1 <1>   0.0800 
 40 H       -4.0710     2.6120     1.8160 H     1 <1>   0.0800 
 41 H       -4.5820     4.1400     1.1680 H     1 <1>   0.0800 
 42 H       -3.9710     3.3740    -1.1160 H     1 <1>   0.0800 
 43 H       -3.4590     1.8450    -0.4630 H     1 <1>   0.0800 
 44 H       -2.2230     4.5350     0.2190 H     1 <1>   0.0800 
 45 H       -1.5220     3.3270    -0.8290 H     1 <1>   0.0800 
 46 H       -1.7080     2.9960     0.8750 H     1 <1>   0.0800 
@<TRIPOS>BOND
  1   1   2  1   
  2   1   3  1   
  3   2   4  1   
  4   2  21  1   
  5   2  22  1   
  6   3   5  1   
  7   3  23  1   
  8   3  24  1   
  9   4   6  1   
 10   4  25  1   
 11   4  26  1   
 12   5   6  1   
 13   5  27  1   
 14   5  28  1   
 15   6   7  1   
 16   6  29  1   
 17   7   8  1   
 18   7  30  1   
 19   7  31  1   
 20   8   9  1   
 21   8  32  1   
 22   8  33  1   
 23   9  10  1   
 24  10  11  ar  
 25  10  12  ar  
 26  11  13  1   
 27  11  14  ar  
 28  12  15  ar  
 29  12  34  1   
 30  13  16  1   
 31  14  17  ar  
 32  14  35  1   
 33  15  17  ar  
 34  15  36  1   
 35  16  37  1   
 36  16  38  1   
 37  16  39  1   
 38  17  18  1   
 39  18  19  1   
 40  18  40  1   
 41  18  41  1   
 42  19  20  1   
 43  19  42  1   
 44  19  43  1   
 45  20  44  1   
 46  20  45  1   
 47  20  46  1   
@<TRIPOS>SUBSTRUCTURE
  1 ****   9 GROUP 4 **** **** 0

# MOE 2024.06 (io_trps.svl 2023.06)
