@<TRIPOS>MOLECULE
NONAME
42 43 1 0 0 
SMALL
USER_CHARGES


@<TRIPOS>ATOM
  1 O       -0.4050     0.6080     2.1220 O.2   1 <1>  -0.5700 
  2 C       -0.4560     1.8190     2.0740 C.2   1 <1>   0.5690 
  3 N        0.5190     2.5370     1.4070 N.am  1 <1>  -0.6600 
  4 C       -1.6600     2.4530     2.8090 C.3   1 <1>   0.2610 
  5 C        1.6000     1.8180     0.6760 C.3   1 <1>   0.1400 
  6 C        0.5530     4.0180     1.2720 C.3   1 <1>   0.1400 
  7 O       -2.3220     3.4640     2.0610 O.3   1 <1>  -0.3630 
  8 C       -1.2770     3.0570     4.1670 C.3   1 <1>  -0.2400 
  9 C        1.1700     1.5940    -0.7780 C.3   1 <1>  -0.1600 
 10 C        0.2640     4.4620    -0.1680 C.3   1 <1>  -0.1600 
 11 C       -2.9620     3.2050     0.8930 C.ar  1 <1>   0.0820 
 12 C        1.4310     2.7690    -1.7390 C.3   1 <1>  -0.1600 
 13 C        1.4260     4.1830    -1.1340 C.3   1 <1>  -0.1600 
 14 C       -3.4840     4.3000     0.2210 C.ar  1 <1>  -0.1500 
 15 C       -3.1110     1.9330     0.3450 C.ar  1 <1>  -0.1500 
 16 C       -4.1410     4.1450    -0.9880 C.ar  1 <1>  -0.1440 
 17 C       -3.7660     1.7760    -0.8630 C.ar  1 <1>  -0.1500 
 18 C       -4.2780     2.8770    -1.5280 C.ar  1 <1>  -0.1500 
 19 C       -4.7050     5.3480    -1.7210 C.3   1 <1>  -0.0970 
 20 H       -2.3840     1.6790     2.9890 H     1 <1>   0.0800 
 21 H        1.7720     0.8620     1.1410 H     1 <1>   0.0800 
 22 H        2.5220     2.3690     0.7250 H     1 <1>   0.0800 
 23 H        1.5210     4.3760     1.5760 H     1 <1>   0.0800 
 24 H       -0.1650     4.4750     1.9230 H     1 <1>   0.0800 
 25 H       -0.5590     3.8460     4.0470 H     1 <1>   0.0800 
 26 H       -2.1530     3.4380     4.6590 H     1 <1>   0.0800 
 27 H       -0.8410     2.2940     4.7860 H     1 <1>   0.0800 
 28 H        0.1230     1.3450    -0.7890 H     1 <1>   0.0800 
 29 H        1.6940     0.7340    -1.1560 H     1 <1>   0.0800 
 30 H        0.1020     5.5250    -0.1450 H     1 <1>   0.0800 
 31 H       -0.6450     4.0100    -0.5240 H     1 <1>   0.0800 
 32 H        0.6910     2.7260    -2.5200 H     1 <1>   0.0800 
 33 H        2.3880     2.6200    -2.2090 H     1 <1>   0.0800 
 34 H        2.3610     4.3660    -0.6340 H     1 <1>   0.0800 
 35 H        1.3670     4.8840    -1.9490 H     1 <1>   0.0800 
 36 H       -3.3650     5.2750     0.6560 H     1 <1>   0.1500 
 37 H       -2.7270     1.0580     0.8340 H     1 <1>   0.1500 
 38 H       -3.8760     0.7930    -1.2880 H     1 <1>   0.1500 
 39 H       -4.7840     2.7410    -2.4680 H     1 <1>   0.1500 
 40 H       -4.8090     6.1850    -1.0550 H     1 <1>   0.0800 
 41 H       -5.6730     5.1150    -2.1270 H     1 <1>   0.0800 
 42 H       -4.0470     5.6250    -2.5250 H     1 <1>   0.0800 
@<TRIPOS>BOND
  1   1   2  2   
  2   2   3  am  
  3   2   4  1   
  4   3   5  1   
  5   3   6  1   
  6   4   7  1   
  7   4   8  1   
  8   4  20  1   
  9   5   9  1   
 10   5  21  1   
 11   5  22  1   
 12   6  10  1   
 13   6  23  1   
 14   6  24  1   
 15   7  11  1   
 16   8  25  1   
 17   8  26  1   
 18   8  27  1   
 19   9  12  1   
 20   9  28  1   
 21   9  29  1   
 22  10  13  1   
 23  10  30  1   
 24  10  31  1   
 25  11  14  ar  
 26  11  15  ar  
 27  12  13  1   
 28  12  32  1   
 29  12  33  1   
 30  13  34  1   
 31  13  35  1   
 32  14  16  ar  
 33  14  36  1   
 34  15  17  ar  
 35  15  37  1   
 36  16  18  ar  
 37  16  19  1   
 38  17  18  ar  
 39  17  38  1   
 40  18  39  1   
 41  19  40  1   
 42  19  41  1   
 43  19  42  1   
@<TRIPOS>SUBSTRUCTURE
  1 ****  11 GROUP 4 **** **** 0

# MOE 2024.06 (io_trps.svl 2023.06)
