@<TRIPOS>MOLECULE
NONAME
34 34 1 0 0 
SMALL
USER_CHARGES


@<TRIPOS>ATOM
  1 F        0.0130    -1.5510    -2.0570 F     1 <1>  -0.1900 
  2 C        0.6080    -2.1390    -1.0500 C.ar  1 <1>   0.1900 
  3 C       -0.1300    -2.9650    -0.2070 C.ar  1 <1>   0.0830 
  4 C        1.9580    -1.9070    -0.8680 C.ar  1 <1>  -0.1500 
  5 O       -1.4570    -3.1350    -0.4630 O.3   1 <1>  -0.3630 
  6 C        0.5350    -3.5750     0.8550 C.ar  1 <1>  -0.1500 
  7 C        2.6020    -2.5220     0.1920 C.ar  1 <1>  -0.1500 
  8 C       -2.2710    -3.9520     0.3370 C.3   1 <1>   0.1200 
  9 C        1.8910    -3.3510     1.0470 C.ar  1 <1>  -0.1500 
 10 C       -3.6780    -3.8880    -0.2610 C.3   1 <1>   0.3430 
 11 N       -4.6540    -4.7260     0.5100 N.4   1 <1>  -0.9060 
 12 C       -6.0330    -4.7310     0.0150 C.3   1 <1>   0.5030 
 13 C       -6.0720    -5.2930    -1.4060 C.3   1 <1>  -0.2400 
 14 C       -6.6080    -3.3160     0.0640 C.3   1 <1>  -0.2400 
 15 C       -6.8190    -5.6420     0.9530 C.3   1 <1>  -0.2400 
 16 H        2.4900    -1.2610    -1.5430 H     1 <1>   0.1500 
 17 H        0.0280    -4.2240     1.5420 H     1 <1>   0.1500 
 18 H        3.6540    -2.3560     0.3530 H     1 <1>   0.1500 
 19 H       -2.2550    -3.5590     1.3390 H     1 <1>   0.0800 
 20 H       -1.8770    -4.9520     0.3030 H     1 <1>   0.0800 
 21 H        2.4020    -3.8240     1.8700 H     1 <1>   0.1500 
 22 H       -3.6300    -4.2310    -1.2810 H     1 <1>   0.0800 
 23 H       -4.0020    -2.8600    -0.2610 H     1 <1>   0.0800 
 24 H       -4.6890    -4.4080     1.4840 H     1 <1>   0.4500 
 25 H       -4.3380    -5.7010     0.5220 H     1 <1>   0.4500 
 26 H       -5.5820    -4.6400    -2.1060 H     1 <1>   0.0800 
 27 H       -7.0950    -5.3900    -1.7280 H     1 <1>   0.0800 
 28 H       -5.6220    -6.2680    -1.4520 H     1 <1>   0.0800 
 29 H       -6.1180    -2.6630    -0.6350 H     1 <1>   0.0800 
 30 H       -6.5340    -2.9000     1.0530 H     1 <1>   0.0800 
 31 H       -7.6500    -3.3400    -0.2040 H     1 <1>   0.0800 
 32 H       -6.4310    -6.6450     0.9390 H     1 <1>   0.0800 
 33 H       -7.8480    -5.6880     0.6400 H     1 <1>   0.0800 
 34 H       -6.8040    -5.2690     1.9620 H     1 <1>   0.0800 
@<TRIPOS>BOND
  1   1   2  1   
  2   2   3  ar  
  3   2   4  ar  
  4   3   5  1   
  5   3   6  ar  
  6   4   7  ar  
  7   4  16  1   
  8   5   8  1   
  9   6   9  ar  
 10   6  17  1   
 11   7   9  ar  
 12   7  18  1   
 13   8  10  1   
 14   8  19  1   
 15   8  20  1   
 16   9  21  1   
 17  10  11  1   
 18  10  22  1   
 19  10  23  1   
 20  11  12  1   
 21  11  24  1   
 22  11  25  1   
 23  12  13  1   
 24  12  14  1   
 25  12  15  1   
 26  13  26  1   
 27  13  27  1   
 28  13  28  1   
 29  14  29  1   
 30  14  30  1   
 31  14  31  1   
 32  15  32  1   
 33  15  33  1   
 34  15  34  1   
@<TRIPOS>SUBSTRUCTURE
  1 ****   8 GROUP 4 **** **** 0

# MOE 2024.06 (io_trps.svl 2023.06)
