@<TRIPOS>MOLECULE
NONAME
33 33 1 0 0 
SMALL
USER_CHARGES


@<TRIPOS>ATOM
  1 CL       0.1440    -0.2140    -0.8080 Cl    1 <1>  -0.1770 
  2 C        1.5860     0.7180    -0.4960 C.ar  1 <1>   0.1770 
  3 C        2.0720     1.5630    -1.4750 C.ar  1 <1>  -0.1500 
  4 C        2.2200     0.5960     0.7260 C.ar  1 <1>  -0.1500 
  5 C        3.2170     2.3020    -1.2240 C.ar  1 <1>  -0.1500 
  6 C        3.3640     1.3380     0.9720 C.ar  1 <1>  -0.1500 
  7 C        3.8640     2.1950     0.0000 C.ar  1 <1>  -0.1430 
  8 C        5.1160     3.0110     0.2740 C.3   1 <1>   0.2140 
  9 S        6.5400     2.0830    -0.3580 S.3   1 <1>  -0.4600 
 10 C        7.9640     3.1170     0.1110 C.3   1 <1>   0.0700 
 11 C        9.2610     2.3690    -0.2130 C.3   1 <1>   0.2000 
 12 O        9.2320     1.1540     0.4580 O.3   1 <1>  -0.6800 
 13 C       10.5050     3.1690     0.2060 C.3   1 <1>   0.1200 
 14 O       11.6410     2.6470    -0.4140 O.3   1 <1>  -0.5600 
 15 C       12.8360     3.1670     0.0580 C.3   1 <1>   0.1200 
 16 C       13.9620     2.5290    -0.7450 C.3   1 <1>  -0.2400 
 17 H        1.5630     1.6370    -2.4190 H     1 <1>   0.1500 
 18 H        1.8230    -0.0710     1.4700 H     1 <1>   0.1500 
 19 H        3.6050     2.9560    -1.9850 H     1 <1>   0.1500 
 20 H        3.8650     1.2410     1.9190 H     1 <1>   0.1500 
 21 H        5.2680     3.1610     1.3280 H     1 <1>   0.0800 
 22 H        5.0910     3.9570    -0.2360 H     1 <1>   0.0800 
 23 H        7.8910     3.3220     1.1640 H     1 <1>   0.0800 
 24 H        7.8940     4.0320    -0.4490 H     1 <1>   0.0800 
 25 H        9.3050     2.1690    -1.2700 H     1 <1>   0.0800 
 26 H        8.4070     0.6860     0.2100 H     1 <1>   0.4000 
 27 H       10.6260     3.1240     1.2750 H     1 <1>   0.0800 
 28 H       10.4090     4.1940    -0.1060 H     1 <1>   0.0800 
 29 H       12.9310     2.9240     1.1030 H     1 <1>   0.0800 
 30 H       12.8310     4.2360    -0.0770 H     1 <1>   0.0800 
 31 H       13.9440     1.4620    -0.6140 H     1 <1>   0.0800 
 32 H       14.9100     2.9030    -0.4060 H     1 <1>   0.0800 
 33 H       13.8490     2.7630    -1.7880 H     1 <1>   0.0800 
@<TRIPOS>BOND
  1   1   2  1   
  2   2   3  ar  
  3   2   4  ar  
  4   3   5  ar  
  5   3  17  1   
  6   4   6  ar  
  7   4  18  1   
  8   5   7  ar  
  9   5  19  1   
 10   6   7  ar  
 11   6  20  1   
 12   7   8  1   
 13   8   9  1   
 14   8  21  1   
 15   8  22  1   
 16   9  10  1   
 17  10  11  1   
 18  10  23  1   
 19  10  24  1   
 20  11  12  1   
 21  11  13  1   
 22  11  25  1   
 23  12  26  1   
 24  13  14  1   
 25  13  27  1   
 26  13  28  1   
 27  14  15  1   
 28  15  16  1   
 29  15  29  1   
 30  15  30  1   
 31  16  31  1   
 32  16  32  1   
 33  16  33  1   
@<TRIPOS>SUBSTRUCTURE
  1 ****   9 GROUP 4 **** **** 0

# MOE 2024.06 (io_trps.svl 2023.06)
