@<TRIPOS>MOLECULE
NONAME
40 41 1 0 0 
SMALL
USER_CHARGES


@<TRIPOS>ATOM
  1 O       -0.0170     1.2560    -2.4680 O.2   1 <1>  -0.5700 
  2 C       -0.1810     2.1530    -1.6600 C.2   1 <1>   0.5440 
  3 N        0.9250     2.7930    -1.1330 N.am  1 <1>  -0.6600 
  4 C       -1.5350     2.5310    -1.3170 C.ar  1 <1>   0.0860 
  5 C        0.8450     3.9430    -0.1900 C.3   1 <1>   0.1400 
  6 C        2.3130     2.3430    -1.4290 C.3   1 <1>   0.1400 
  7 C       -2.0880     2.2820    -0.0570 C.ar  1 <1>   0.0820 
  8 C       -2.3370     3.1590    -2.2690 C.ar  1 <1>  -0.1500 
  9 C        1.5510     3.5900     1.1230 C.3   1 <1>  -0.1600 
 10 C        3.0230     1.9730    -0.1230 C.3   1 <1>  -0.1600 
 11 O       -1.3430     1.6730     0.8950 O.3   1 <1>  -0.3620 
 12 C       -3.3950     2.6700     0.2470 C.ar  1 <1>   0.0820 
 13 C       -3.6320     3.5440    -1.9800 C.ar  1 <1>  -0.1500 
 14 C        2.9990     3.1330     0.8840 C.3   1 <1>  -0.0800 
 15 C       -1.2640     0.2680     0.8280 C.3   1 <1>   0.0400 
 16 O       -3.8680     2.4020     1.4980 O.3   1 <1>  -0.3630 
 17 C       -4.1620     3.3040    -0.7250 C.ar  1 <1>  -0.1500 
 18 C        3.6570     2.7160     2.2040 C.3   1 <1>  -0.2400 
 19 C       -5.1530     2.8120     1.9090 C.3   1 <1>   0.0400 
 20 H       -0.1760     4.2090     0.0140 H     1 <1>   0.0800 
 21 H        1.3250     4.7950    -0.6410 H     1 <1>   0.0800 
 22 H        2.8410     3.1410    -1.9220 H     1 <1>   0.0800 
 23 H        2.3090     1.4920    -2.0880 H     1 <1>   0.0800 
 24 H       -1.9270     3.3400    -3.2480 H     1 <1>   0.1500 
 25 H        0.9950     2.8090     1.6120 H     1 <1>   0.0800 
 26 H        1.5420     4.4490     1.7680 H     1 <1>   0.0800 
 27 H        4.0400     1.7010    -0.3430 H     1 <1>   0.0800 
 28 H        2.5350     1.1100     0.2960 H     1 <1>   0.0800 
 29 H       -4.2300     4.0290    -2.7330 H     1 <1>   0.1500 
 30 H        3.5550     3.9580     0.4710 H     1 <1>   0.0800 
 31 H       -0.6690    -0.0740     1.6540 H     1 <1>   0.0800 
 32 H       -0.8020    -0.0180    -0.1010 H     1 <1>   0.0800 
 33 H       -2.2580    -0.1370     0.8950 H     1 <1>   0.0800 
 34 H       -5.1710     3.6140    -0.5290 H     1 <1>   0.1500 
 35 H        3.1260     1.8920     2.6480 H     1 <1>   0.0800 
 36 H        3.6560     3.5380     2.8970 H     1 <1>   0.0800 
 37 H        4.6770     2.4170     2.0350 H     1 <1>   0.0800 
 38 H       -5.2850     2.5130     2.9330 H     1 <1>   0.0800 
 39 H       -5.8880     2.3300     1.2900 H     1 <1>   0.0800 
 40 H       -5.2190     3.8830     1.8300 H     1 <1>   0.0800 
@<TRIPOS>BOND
  1   1   2  2   
  2   2   3  am  
  3   2   4  1   
  4   3   5  1   
  5   3   6  1   
  6   4   7  ar  
  7   4   8  ar  
  8   5   9  1   
  9   5  20  1   
 10   5  21  1   
 11   6  10  1   
 12   6  22  1   
 13   6  23  1   
 14   7  11  1   
 15   7  12  ar  
 16   8  13  ar  
 17   8  24  1   
 18   9  14  1   
 19   9  25  1   
 20   9  26  1   
 21  10  14  1   
 22  10  27  1   
 23  10  28  1   
 24  11  15  1   
 25  12  16  1   
 26  12  17  ar  
 27  13  17  ar  
 28  13  29  1   
 29  14  18  1   
 30  14  30  1   
 31  15  31  1   
 32  15  32  1   
 33  15  33  1   
 34  16  19  1   
 35  17  34  1   
 36  18  35  1   
 37  18  36  1   
 38  18  37  1   
 39  19  38  1   
 40  19  39  1   
 41  19  40  1   
@<TRIPOS>SUBSTRUCTURE
  1 ****   4 GROUP 4 **** **** 0

# MOE 2024.06 (io_trps.svl 2023.06)
