@<TRIPOS>MOLECULE
NONAME
48 51 1 0 0 
SMALL
USER_CHARGES


@<TRIPOS>ATOM
  1 CL       1.1100    -0.8610     2.0500 Cl    1 <1>  -0.1230 
  2 C        1.2000     0.6760     1.2050 C.2   1 <1>   0.1230 
  3 C        2.3400     1.3560     0.9300 C.2   1 <1>  -0.0260 
  4 C        0.1320     1.4110     0.7030 C.2   1 <1>   0.2030 
  5 N        3.6590     1.0740     1.2050 N.2   1 <1>  -0.5760 
  6 N        1.9230     2.4850     0.2670 N.pl3 1 <1>   0.6010 
  7 N        0.5800     2.5220     0.1260 N.2   1 <1>  -0.7070 
  8 C       -1.2750     1.0580     0.7740 C.2   1 <1>   0.7160 
  9 C        4.5710     1.9240     0.8140 C.2   1 <1>   0.5210 
 10 C        2.8700     3.3890    -0.1530 C.2   1 <1>  -0.1690 
 11 O       -1.6930     0.0230     1.2570 O.2   1 <1>  -0.5700 
 12 N       -2.2040     1.9130     0.2470 N.am  1 <1>  -0.7300 
 13 C        5.9770     1.6870     1.0710 C.2   1 <1>   0.0550 
 14 C        4.1770     3.1140     0.1170 C.2   1 <1>  -0.1360 
 15 C        2.3360     4.6050    -0.8780 C.3   1 <1>   1.1580 
 16 C       -3.6640     1.9310     0.5490 C.3   1 <1>   0.1400 
 17 O        6.3680     0.5930     1.7180 O.3   1 <1>  -0.2800 
 18 C        7.0920     2.4140     0.7640 C.2   1 <1>  -0.1500 
 19 F        1.5190     5.3370    -0.1320 F     1 <1>  -0.3400 
 20 F        3.3190     5.4180    -1.2420 F     1 <1>  -0.3400 
 21 F        1.6850     4.3010    -1.9920 F     1 <1>  -0.3400 
 22 C       -4.4660     0.9970    -0.3810 C.3   1 <1>   0.3430 
 23 C        7.6770     0.6000     1.8300 C.2   1 <1>  -0.0100 
 24 C        8.1900     1.7070     1.2560 C.2   1 <1>  -0.1500 
 25 N       -4.0180    -0.4240    -0.2810 N.4   1 <1>  -0.9590 
 26 C       -4.2910    -1.2270    -1.5230 C.3   1 <1>   0.3430 
 27 C       -4.4740    -1.1410     0.9540 C.3   1 <1>   0.3430 
 28 C       -4.2240    -2.7500    -1.2750 C.3   1 <1>   0.1200 
 29 C       -3.8290    -2.5450     1.0500 C.3   1 <1>   0.1200 
 30 O       -3.3860    -3.0300    -0.1940 O.3   1 <1>  -0.5600 
 31 H       -1.8000     2.7840    -0.1240 H     1 <1>   0.3700 
 32 H        4.9620     3.7840    -0.1860 H     1 <1>   0.1500 
 33 H       -4.0280     2.9380     0.4330 H     1 <1>   0.0800 
 34 H       -3.8220     1.6460     1.5760 H     1 <1>   0.0800 
 35 H        7.1690     3.3530     0.2450 H     1 <1>   0.1500 
 36 H       -4.3340     1.3460    -1.3920 H     1 <1>   0.0800 
 37 H       -5.5150     1.0650    -0.1440 H     1 <1>   0.0800 
 38 H        8.1620    -0.2200     2.3310 H     1 <1>   0.1500 
 39 H        9.2210     2.0060     1.1810 H     1 <1>   0.1500 
 40 H       -2.9850    -0.4090    -0.1570 H     1 <1>   0.4500 
 41 H       -3.5670    -0.9680    -2.2780 H     1 <1>   0.0800 
 42 H       -5.2660    -0.9880    -1.9150 H     1 <1>   0.0800 
 43 H       -5.5460    -1.2480     0.9380 H     1 <1>   0.0800 
 44 H       -4.2090    -0.5780     1.8340 H     1 <1>   0.0800 
 45 H       -3.8320    -3.2530    -2.1420 H     1 <1>   0.0800 
 46 H       -5.2010    -3.1500    -1.0640 H     1 <1>   0.0800 
 47 H       -4.5270    -3.2520     1.4630 H     1 <1>   0.0800 
 48 H       -2.9700    -2.5050     1.6970 H     1 <1>   0.0800 
@<TRIPOS>BOND
  1   1   2  1   
  2   2   3  2   
  3   2   4  1   
  4   3   5  1   
  5   3   6  1   
  6   4   7  2   
  7   4   8  1   
  8   5   9  2   
  9   6   7  1   
 10   6  10  1   
 11   8  11  2   
 12   8  12  am  
 13   9  13  1   
 14   9  14  1   
 15  10  14  2   
 16  10  15  1   
 17  12  16  1   
 18  12  31  1   
 19  13  17  1   
 20  13  18  2   
 21  14  32  1   
 22  15  19  1   
 23  15  20  1   
 24  15  21  1   
 25  16  22  1   
 26  16  33  1   
 27  16  34  1   
 28  17  23  1   
 29  18  24  1   
 30  18  35  1   
 31  22  25  1   
 32  22  36  1   
 33  22  37  1   
 34  23  24  2   
 35  23  38  1   
 36  24  39  1   
 37  25  26  1   
 38  25  27  1   
 39  25  40  1   
 40  26  28  1   
 41  26  41  1   
 42  26  42  1   
 43  27  29  1   
 44  27  43  1   
 45  27  44  1   
 46  28  30  1   
 47  28  45  1   
 48  28  46  1   
 49  29  30  1   
 50  29  47  1   
 51  29  48  1   
@<TRIPOS>SUBSTRUCTURE
  1 ****   4 GROUP 4 **** **** 0

# MOE 2024.06 (io_trps.svl 2023.06)
