@<TRIPOS>MOLECULE
NONAME
49 50 1 0 0 
SMALL
USER_CHARGES


@<TRIPOS>ATOM
  1 S        0.2960     0.1560    -0.7060 S.o2  1 <1>   1.3330 
  2 O       -0.7740    -0.7620    -0.4090 O.2   1 <1>  -0.6500 
  3 O        1.6440    -0.3360    -0.8700 O.2   1 <1>  -0.6500 
  4 N        0.3690     1.3100     0.5780 N.am  1 <1>  -0.6930 
  5 C       -0.1160     1.1670    -2.1120 C.3   1 <1>  -0.1350 
  6 C       -0.6840     2.1920     0.8200 C.ar  1 <1>   0.1990 
  7 C        1.2130     0.9300     1.7530 C.3   1 <1>   0.2570 
  8 C       -0.5080     3.5790     0.7450 C.ar  1 <1>  -0.1440 
  9 C       -1.9350     1.6840     1.1520 C.ar  1 <1>  -0.1500 
 10 C        2.6550     1.4470     1.6990 C.2   1 <1>   0.5690 
 11 C       -1.5810     4.4270     1.0080 C.ar  1 <1>  -0.1440 
 12 C        0.8640     4.1560     0.3890 C.3   1 <1>  -0.0970 
 13 C       -2.9990     2.5260     1.3990 C.ar  1 <1>  -0.1500 
 14 O        3.0160     2.2330     2.5430 O.2   1 <1>  -0.5700 
 15 N        3.4920     0.9850     0.7220 N.am  1 <1>  -0.5470 
 16 C       -2.8200     3.8930     1.3260 C.ar  1 <1>  -0.1500 
 17 C       -1.4490     5.9450     0.9700 C.3   1 <1>  -0.0970 
 18 C        4.8740     1.1680     0.5960 C.ar  1 <1>   0.1170 
 19 C        5.4470     2.3640     0.1520 C.ar  1 <1>  -0.1430 
 20 C        5.7020     0.0960     0.9040 C.ar  1 <1>  -0.1500 
 21 C        6.8260     2.4560     0.0320 C.ar  1 <1>  -0.1500 
 22 C        4.6040     3.5790    -0.2170 C.3   1 <1>  -0.0170 
 23 C        7.0750     0.1970     0.7820 C.ar  1 <1>  -0.1500 
 24 C        7.6390     1.3810     0.3460 C.ar  1 <1>  -0.1500 
 25 C        4.0330     3.4370    -1.6310 C.3   1 <1>  -0.2400 
 26 H       -0.1620     0.5640    -2.9980 H     1 <1>   0.0800 
 27 H        0.6240     1.9290    -2.2500 H     1 <1>   0.0800 
 28 H       -1.0700     1.6350    -1.9650 H     1 <1>   0.0800 
 29 H        1.2360    -0.1410     1.8460 H     1 <1>   0.0800 
 30 H        0.7600     1.3180     2.6490 H     1 <1>   0.0800 
 31 H       -2.0790     0.6210     1.2240 H     1 <1>   0.1500 
 32 H        1.4300     4.3180     1.2890 H     1 <1>   0.0800 
 33 H        0.7800     5.0870    -0.1390 H     1 <1>   0.0800 
 34 H        1.4150     3.4880    -0.2450 H     1 <1>   0.0800 
 35 H       -3.9630     2.1190     1.6500 H     1 <1>   0.1500 
 36 H        3.0680     0.3410     0.0380 H     1 <1>   0.3700 
 37 H       -3.6570     4.5400     1.5250 H     1 <1>   0.1500 
 38 H       -1.3160     6.2780    -0.0430 H     1 <1>   0.0800 
 39 H       -0.6070     6.2600     1.5600 H     1 <1>   0.0800 
 40 H       -2.3270     6.4200     1.3690 H     1 <1>   0.0800 
 41 H        5.2650    -0.8250     1.2440 H     1 <1>   0.1500 
 42 H        7.2790     3.3700    -0.3090 H     1 <1>   0.1500 
 43 H        5.2080     4.4680    -0.1670 H     1 <1>   0.0800 
 44 H        3.8100     3.7030     0.4940 H     1 <1>   0.0800 
 45 H        7.7030    -0.6420     1.0270 H     1 <1>   0.1500 
 46 H        8.7080     1.4670     0.2500 H     1 <1>   0.1500 
 47 H        4.8330     3.3360    -2.3420 H     1 <1>   0.0800 
 48 H        3.4510     4.3050    -1.8840 H     1 <1>   0.0800 
 49 H        3.4060     2.5660    -1.6930 H     1 <1>   0.0800 
@<TRIPOS>BOND
  1   1   2  2   
  2   1   3  2   
  3   1   4  am  
  4   1   5  1   
  5   4   6  1   
  6   4   7  1   
  7   5  26  1   
  8   5  27  1   
  9   5  28  1   
 10   6   8  ar  
 11   6   9  ar  
 12   7  10  1   
 13   7  29  1   
 14   7  30  1   
 15   8  11  ar  
 16   8  12  1   
 17   9  13  ar  
 18   9  31  1   
 19  10  14  2   
 20  10  15  am  
 21  11  16  ar  
 22  11  17  1   
 23  12  32  1   
 24  12  33  1   
 25  12  34  1   
 26  13  16  ar  
 27  13  35  1   
 28  15  18  1   
 29  15  36  1   
 30  16  37  1   
 31  17  38  1   
 32  17  39  1   
 33  17  40  1   
 34  18  19  ar  
 35  18  20  ar  
 36  19  21  ar  
 37  19  22  1   
 38  20  23  ar  
 39  20  41  1   
 40  21  24  ar  
 41  21  42  1   
 42  22  25  1   
 43  22  43  1   
 44  22  44  1   
 45  23  24  ar  
 46  23  45  1   
 47  24  46  1   
 48  25  47  1   
 49  25  48  1   
 50  25  49  1   
@<TRIPOS>SUBSTRUCTURE
  1 ****  10 GROUP 4 **** **** 0

# MOE 2024.06 (io_trps.svl 2023.06)
