@<TRIPOS>MOLECULE
NONAME
35 36 1 0 0 
SMALL
USER_CHARGES


@<TRIPOS>ATOM
  1 F        1.8640    -2.2170     1.7120 F     1 <1>  -0.1900 
  2 C        0.9880    -2.5540     0.8000 C.ar  1 <1>   0.1900 
  3 C       -0.2180    -3.1070     1.1940 C.ar  1 <1>   0.1900 
  4 C        1.2880    -2.3490    -0.5430 C.ar  1 <1>   0.0860 
  5 F       -0.4560    -3.2920     2.4690 F     1 <1>  -0.1900 
  6 C       -1.1840    -3.4750     0.2690 C.ar  1 <1>  -0.1440 
  7 C        2.5450    -1.7850    -0.9760 C.2   1 <1>   0.5440 
  8 C        0.3070    -2.7130    -1.4680 C.ar  1 <1>  -0.1500 
  9 C       -0.9030    -3.2660    -1.0750 C.ar  1 <1>  -0.1500 
 10 C       -2.5100    -4.0820     0.7020 C.3   1 <1>  -0.0960 
 11 O        2.5470    -0.6470    -1.4050 O.2   1 <1>  -0.5700 
 12 N        3.7240    -2.5070    -0.9530 N.am  1 <1>  -0.6600 
 13 C        3.7960    -3.9500    -0.6000 C.3   1 <1>   0.1400 
 14 C        5.0230    -1.8580    -1.2890 C.3   1 <1>   0.1400 
 15 C        4.5790    -4.1810     0.6990 C.3   1 <1>  -0.1600 
 16 C        5.7180    -1.4160     0.0010 C.3   1 <1>  -0.1600 
 17 C        6.0910    -3.9580     0.5420 C.3   1 <1>  -0.1600 
 18 C        6.5480    -2.5000     0.7150 C.3   1 <1>  -0.1600 
 19 H        0.5050    -2.5510    -2.5150 H     1 <1>   0.1500 
 20 H       -1.6280    -3.5320    -1.8250 H     1 <1>   0.1500 
 21 H       -3.0390    -3.3930     1.3360 H     1 <1>   0.0800 
 22 H       -2.3360    -4.9910     1.2510 H     1 <1>   0.0800 
 23 H       -3.1290    -4.3090    -0.1470 H     1 <1>   0.0800 
 24 H        4.2630    -4.4860    -1.4080 H     1 <1>   0.0800 
 25 H        2.8070    -4.3550    -0.4830 H     1 <1>   0.0800 
 26 H        4.8450    -0.9930    -1.9050 H     1 <1>   0.0800 
 27 H        5.6460    -2.5310    -1.8520 H     1 <1>   0.0800 
 28 H        4.4270    -5.2080     0.9820 H     1 <1>   0.0800 
 29 H        4.1830    -3.5710     1.4910 H     1 <1>   0.0800 
 30 H        4.9710    -1.0290     0.6740 H     1 <1>   0.0800 
 31 H        6.3740    -0.5970    -0.2330 H     1 <1>   0.0800 
 32 H        6.4110    -4.3250    -0.4180 H     1 <1>   0.0800 
 33 H        6.6020    -4.5480     1.2840 H     1 <1>   0.0800 
 34 H        6.5640    -2.2640     1.7650 H     1 <1>   0.0800 
 35 H        7.5650    -2.4340     0.3670 H     1 <1>   0.0800 
@<TRIPOS>BOND
  1   1   2  1   
  2   2   3  ar  
  3   2   4  ar  
  4   3   5  1   
  5   3   6  ar  
  6   4   7  1   
  7   4   8  ar  
  8   6   9  ar  
  9   6  10  1   
 10   7  11  2   
 11   7  12  am  
 12   8   9  ar  
 13   8  19  1   
 14   9  20  1   
 15  10  21  1   
 16  10  22  1   
 17  10  23  1   
 18  12  13  1   
 19  12  14  1   
 20  13  15  1   
 21  13  24  1   
 22  13  25  1   
 23  14  16  1   
 24  14  26  1   
 25  14  27  1   
 26  15  17  1   
 27  15  28  1   
 28  15  29  1   
 29  16  18  1   
 30  16  30  1   
 31  16  31  1   
 32  17  18  1   
 33  17  32  1   
 34  17  33  1   
 35  18  34  1   
 36  18  35  1   
@<TRIPOS>SUBSTRUCTURE
  1 ****   4 GROUP 4 **** **** 0

# MOE 2024.06 (io_trps.svl 2023.06)
