@<TRIPOS>MOLECULE
NONAME
36 37 1 0 0 
SMALL
USER_CHARGES


@<TRIPOS>ATOM
  1 O      -11.4610     0.9150    -0.1350 O.3   1 <1>  -0.5600 
  2 C      -11.5880     2.2680     0.1920 C.3   1 <1>   0.1200 
  3 C      -10.1840     0.4000     0.1100 C.3   1 <1>   0.1200 
  4 C      -10.6050     3.1300    -0.6230 C.3   1 <1>   0.2090 
  5 C       -9.1240     1.1500    -0.7150 C.3   1 <1>   0.2090 
  6 N       -9.1910     2.6380    -0.4740 N.pl3 1 <1>  -0.8380 
  7 C       -8.1030     3.3970    -0.1920 C.ar  1 <1>   0.4100 
  8 N       -6.9460     2.7560     0.0320 N.ar  1 <1>  -0.6200 
  9 C       -8.1320     4.7980    -0.1300 C.ar  1 <1>  -0.1500 
 10 C       -5.8810     3.4440     0.3120 C.ar  1 <1>   0.5280 
 11 C       -6.9980     5.4950     0.1670 C.ar  1 <1>   0.2180 
 12 N       -5.8720     4.7900     0.3890 N.ar  1 <1>  -0.1790 
 13 C       -4.5800     2.6960     0.5640 C.3   1 <1>  -0.0170 
 14 C       -6.9510     7.0110     0.2520 C.3   1 <1>  -0.0970 
 15 C       -3.5620     2.8910    -0.5730 C.3   1 <1>  -0.1600 
 16 C       -2.2690     2.1170    -0.2980 C.3   1 <1>  -0.2400 
 17 H      -11.4080     2.3850     1.2470 H     1 <1>   0.0800 
 18 H      -12.6010     2.5600    -0.0200 H     1 <1>   0.0800 
 19 H      -10.1930    -0.6410    -0.1590 H     1 <1>   0.0800 
 20 H       -9.9710     0.4830     1.1620 H     1 <1>   0.0800 
 21 H      -10.7080     4.1440    -0.2910 H     1 <1>   0.0800 
 22 H      -10.8860     3.0890    -1.6610 H     1 <1>   0.0800 
 23 H       -9.2970     0.9550    -1.7590 H     1 <1>   0.0800 
 24 H       -8.1580     0.7470    -0.4700 H     1 <1>   0.0800 
 25 H       -9.0430     5.3230    -0.3260 H     1 <1>   0.1500 
 26 H       -4.9950     5.2610     0.6110 H     1 <1>   0.4570 
 27 H       -4.7990     1.6450     0.6580 H     1 <1>   0.0800 
 28 H       -4.1570     3.0170     1.4990 H     1 <1>   0.0800 
 29 H       -7.9220     7.4300     0.0500 H     1 <1>   0.0800 
 30 H       -6.2610     7.4080    -0.4720 H     1 <1>   0.0800 
 31 H       -6.6500     7.3250     1.2360 H     1 <1>   0.0800 
 32 H       -3.3210     3.9330    -0.6950 H     1 <1>   0.0800 
 33 H       -3.9880     2.5370    -1.4980 H     1 <1>   0.0800 
 34 H       -1.8000     2.4580     0.6090 H     1 <1>   0.0800 
 35 H       -1.5750     2.2580    -1.1090 H     1 <1>   0.0800 
 36 H       -2.4690     1.0630    -0.2080 H     1 <1>   0.0800 
@<TRIPOS>BOND
  1   1   2  1   
  2   1   3  1   
  3   2   4  1   
  4   2  17  1   
  5   2  18  1   
  6   3   5  1   
  7   3  19  1   
  8   3  20  1   
  9   4   6  1   
 10   4  21  1   
 11   4  22  1   
 12   5   6  1   
 13   5  23  1   
 14   5  24  1   
 15   6   7  1   
 16   7   8  ar  
 17   7   9  ar  
 18   8  10  ar  
 19   9  11  ar  
 20   9  25  1   
 21  10  12  ar  
 22  10  13  1   
 23  11  12  ar  
 24  11  14  1   
 25  12  26  1   
 26  13  15  1   
 27  13  27  1   
 28  13  28  1   
 29  14  29  1   
 30  14  30  1   
 31  14  31  1   
 32  15  16  1   
 33  15  32  1   
 34  15  33  1   
 35  16  34  1   
 36  16  35  1   
 37  16  36  1   
@<TRIPOS>SUBSTRUCTURE
  1 ****   7 GROUP 4 **** **** 0

# MOE 2024.06 (io_trps.svl 2023.06)
