@<TRIPOS>MOLECULE
NONAME
45 46 1 0 0 
SMALL
USER_CHARGES


@<TRIPOS>ATOM
  1 O       -0.3360     1.1100    -1.5540 O.2   1 <1>  -0.5700 
  2 C       -0.0480    -0.0530    -1.7080 C.2   1 <1>   0.5690 
  3 N       -0.9710    -0.9940    -2.0020 N.am  1 <1>  -0.7300 
  4 C        1.3910    -0.5050    -1.5410 C.3   1 <1>   0.0440 
  5 C       -2.4050    -0.8700    -1.7580 C.3   1 <1>   0.3640 
  6 C        1.5440    -1.4040    -0.3120 C.ar  1 <1>  -0.1440 
  7 C       -2.8100    -2.1110    -0.9600 C.ar  1 <1>  -0.1440 
  8 C       -3.0980    -0.7000    -3.1080 C.3   1 <1>  -0.2400 
  9 C        1.2060    -2.7570    -0.3510 C.ar  1 <1>   0.0830 
 10 C        2.0100    -0.8520     0.8710 C.ar  1 <1>  -0.1500 
 11 C       -2.2800    -2.2600     0.3140 C.ar  1 <1>  -0.1500 
 12 C       -3.6540    -3.1020    -1.4420 C.ar  1 <1>  -0.1500 
 13 O        0.7320    -3.2680    -1.5190 O.3   1 <1>  -0.3630 
 14 C        1.3470    -3.5350     0.7960 C.ar  1 <1>  -0.1500 
 15 C        2.1470    -1.6300     2.0070 C.ar  1 <1>  -0.1500 
 16 C       -2.5690    -3.3660     1.0980 C.ar  1 <1>  -0.1430 
 17 C       -3.9530    -4.2070    -0.6650 C.ar  1 <1>  -0.1500 
 18 C        0.0050    -4.4790    -1.5410 C.3   1 <1>   0.0400 
 19 C        1.8160    -2.9720     1.9690 C.ar  1 <1>  -0.1500 
 20 C       -3.4170    -4.3500     0.6050 C.ar  1 <1>  -0.1430 
 21 C       -1.9410    -3.4680     2.4800 C.3   1 <1>  -0.0970 
 22 C       -3.7710    -5.5800     1.4270 C.3   1 <1>  -0.0970 
 23 H       -0.6520    -1.9690    -1.9730 H     1 <1>   0.3700 
 24 H        2.0170     0.3620    -1.4460 H     1 <1>   0.0800 
 25 H        1.6980    -1.0310    -2.4250 H     1 <1>   0.0800 
 26 H       -2.5920     0.0060    -1.1570 H     1 <1>   0.0800 
 27 H       -2.8770    -1.5280    -3.7560 H     1 <1>   0.0800 
 28 H       -2.7610     0.2100    -3.5700 H     1 <1>   0.0800 
 29 H       -4.1610    -0.6330    -2.9650 H     1 <1>   0.0800 
 30 H        2.2650     0.1930     0.9170 H     1 <1>   0.1500 
 31 H       -1.6190    -1.5000     0.6960 H     1 <1>   0.1500 
 32 H       -4.0900    -3.0340    -2.4210 H     1 <1>   0.1500 
 33 H        1.0990    -4.5790     0.7920 H     1 <1>   0.1500 
 34 H        2.5100    -1.1900     2.9190 H     1 <1>   0.1500 
 35 H       -4.6130    -4.9590    -1.0600 H     1 <1>   0.1500 
 36 H       -0.4160    -4.6010    -2.5230 H     1 <1>   0.0800 
 37 H       -0.7860    -4.4290    -0.8120 H     1 <1>   0.0800 
 38 H        0.6730    -5.2930    -1.3270 H     1 <1>   0.0800 
 39 H        1.9250    -3.5780     2.8510 H     1 <1>   0.1500 
 40 H       -1.2710    -2.6460     2.6600 H     1 <1>   0.0800 
 41 H       -1.3810    -4.3800     2.5660 H     1 <1>   0.0800 
 42 H       -2.7080    -3.4510     3.2340 H     1 <1>   0.0800 
 43 H       -4.2260    -5.2820     2.3550 H     1 <1>   0.0800 
 44 H       -2.8850    -6.1500     1.6370 H     1 <1>   0.0800 
 45 H       -4.4640    -6.2100     0.9000 H     1 <1>   0.0800 
@<TRIPOS>BOND
  1   1   2  2   
  2   2   3  am  
  3   2   4  1   
  4   3   5  1   
  5   3  23  1   
  6   4   6  1   
  7   4  24  1   
  8   4  25  1   
  9   5   7  1   
 10   5   8  1   
 11   5  26  1   
 12   6   9  ar  
 13   6  10  ar  
 14   7  11  ar  
 15   7  12  ar  
 16   8  27  1   
 17   8  28  1   
 18   8  29  1   
 19   9  13  1   
 20   9  14  ar  
 21  10  15  ar  
 22  10  30  1   
 23  11  16  ar  
 24  11  31  1   
 25  12  17  ar  
 26  12  32  1   
 27  13  18  1   
 28  14  19  ar  
 29  14  33  1   
 30  15  19  ar  
 31  15  34  1   
 32  16  20  ar  
 33  16  21  1   
 34  17  20  ar  
 35  17  35  1   
 36  18  36  1   
 37  18  37  1   
 38  18  38  1   
 39  19  39  1   
 40  20  22  1   
 41  21  40  1   
 42  21  41  1   
 43  21  42  1   
 44  22  43  1   
 45  22  44  1   
 46  22  45  1   
@<TRIPOS>SUBSTRUCTURE
  1 ****  11 GROUP 4 **** **** 0

# MOE 2024.06 (io_trps.svl 2023.06)
