@<TRIPOS>MOLECULE
NONAME
50 52 1 0 0 
SMALL
USER_CHARGES


@<TRIPOS>ATOM
  1 O       -2.3520     2.3650     2.5020 O.2   1 <1>  -0.5700 
  2 C       -1.5450     2.2750     1.6120 C.2   1 <1>   0.5690 
  3 N       -1.8110     1.6950     0.4050 N.am  1 <1>  -0.5470 
  4 C       -0.1650     2.8450     1.8230 C.3   1 <1>  -0.1790 
  5 C       -2.9860     1.0720    -0.0370 C.ar  1 <1>   0.1170 
  6 C       -3.3370     1.1460    -1.3780 C.ar  1 <1>  -0.1500 
  7 C       -3.8180     0.3670     0.8250 C.ar  1 <1>  -0.1500 
  8 C       -4.4990     0.5550    -1.8430 C.ar  1 <1>  -0.1500 
  9 C       -4.9780    -0.2290     0.3680 C.ar  1 <1>  -0.1500 
 10 C       -5.3340    -0.1270    -0.9690 C.ar  1 <1>  -0.1430 
 11 C       -6.6310    -0.7380    -1.4650 C.3   1 <1>   0.4860 
 12 N       -7.7660     0.0200    -0.8750 N.4   1 <1>  -0.9590 
 13 C       -9.0800    -0.5930    -1.2010 C.3   1 <1>   0.4860 
 14 C       -7.7560     1.4680    -1.2440 C.3   1 <1>   0.3430 
 15 C      -10.1980     0.1870    -0.5290 C.ar  1 <1>  -0.1430 
 16 C       -8.7230     2.2410    -0.3440 C.3   1 <1>  -0.0170 
 17 C      -10.0440     1.5100    -0.1390 C.ar  1 <1>  -0.1430 
 18 C      -11.4100    -0.4450    -0.3090 C.ar  1 <1>  -0.1500 
 19 C      -11.0990     2.1770     0.4620 C.ar  1 <1>  -0.1500 
 20 C      -12.4740     0.2070     0.2890 C.ar  1 <1>   0.0830 
 21 C      -12.3220     1.5470     0.6870 C.ar  1 <1>   0.0830 
 22 O      -13.5850    -0.5750     0.4220 O.3   1 <1>  -0.3620 
 23 O      -13.3540     2.2120     1.2830 O.3   1 <1>  -0.3620 
 24 C      -14.8110    -0.1130     0.9440 C.3   1 <1>   0.0400 
 25 C      -13.2670     3.5610     1.6890 C.3   1 <1>   0.0400 
 26 H       -1.0650     1.7650    -0.2840 H     1 <1>   0.3700 
 27 H        0.0040     3.6540     1.1380 H     1 <1>   0.0800 
 28 H        0.5740     2.0810     1.6730 H     1 <1>   0.0800 
 29 H       -0.0780     3.2180     2.8280 H     1 <1>   0.0800 
 30 H       -2.6990     1.6770    -2.0620 H     1 <1>   0.1500 
 31 H       -3.5520     0.2840     1.8650 H     1 <1>   0.1500 
 32 H       -4.7390     0.6380    -2.8900 H     1 <1>   0.1500 
 33 H       -5.5890    -0.7670     1.0720 H     1 <1>   0.1500 
 34 H       -6.6740    -1.7720    -1.1620 H     1 <1>   0.0800 
 35 H       -6.6690    -0.6930    -2.5410 H     1 <1>   0.0800 
 36 H       -7.6660    -0.0180     0.1460 H     1 <1>   0.4500 
 37 H       -9.1070    -1.6150    -0.8590 H     1 <1>   0.0800 
 38 H       -9.2390    -0.5860    -2.2670 H     1 <1>   0.0800 
 39 H       -8.0560     1.5820    -2.2730 H     1 <1>   0.0800 
 40 H       -6.7660     1.8820    -1.1310 H     1 <1>   0.0800 
 41 H       -8.9050     3.2080    -0.7810 H     1 <1>   0.0800 
 42 H       -8.2580     2.4020     0.6130 H     1 <1>   0.0800 
 43 H      -11.5600    -1.4700    -0.6030 H     1 <1>   0.1500 
 44 H      -10.9500     3.1980     0.7570 H     1 <1>   0.1500 
 45 H      -15.5190    -0.9190     0.9000 H     1 <1>   0.0800 
 46 H      -15.1560     0.7110     0.3460 H     1 <1>   0.0800 
 47 H      -14.6630     0.1880     1.9660 H     1 <1>   0.0800 
 48 H      -14.2120     3.8410     2.1190 H     1 <1>   0.0800 
 49 H      -13.0640     4.1740     0.8290 H     1 <1>   0.0800 
 50 H      -12.4910     3.6560     2.4270 H     1 <1>   0.0800 
@<TRIPOS>BOND
  1   1   2  2   
  2   2   3  am  
  3   2   4  1   
  4   3   5  1   
  5   3  26  1   
  6   4  27  1   
  7   4  28  1   
  8   4  29  1   
  9   5   6  ar  
 10   5   7  ar  
 11   6   8  ar  
 12   6  30  1   
 13   7   9  ar  
 14   7  31  1   
 15   8  10  ar  
 16   8  32  1   
 17   9  10  ar  
 18   9  33  1   
 19  10  11  1   
 20  11  12  1   
 21  11  34  1   
 22  11  35  1   
 23  12  13  1   
 24  12  14  1   
 25  12  36  1   
 26  13  15  1   
 27  13  37  1   
 28  13  38  1   
 29  14  16  1   
 30  14  39  1   
 31  14  40  1   
 32  15  17  ar  
 33  15  18  ar  
 34  16  17  1   
 35  16  41  1   
 36  16  42  1   
 37  17  19  ar  
 38  18  20  ar  
 39  18  43  1   
 40  19  21  ar  
 41  19  44  1   
 42  20  21  ar  
 43  20  22  1   
 44  21  23  1   
 45  22  24  1   
 46  23  25  1   
 47  24  45  1   
 48  24  46  1   
 49  24  47  1   
 50  25  48  1   
 51  25  49  1   
 52  25  50  1   
@<TRIPOS>SUBSTRUCTURE
  1 ****  12 GROUP 4 **** **** 0

# MOE 2024.06 (io_trps.svl 2023.06)
