@<TRIPOS>MOLECULE
NONAME
32 33 1 0 0 
SMALL
USER_CHARGES


@<TRIPOS>ATOM
  1 O       -2.6310     2.8750     1.1350 O.3   1 <1>  -0.5320 
  2 C       -2.5880     1.6310     0.6370 C.ar  1 <1>   0.0830 
  3 C       -1.9170     1.4050    -0.5510 C.ar  1 <1>  -0.1500 
  4 C       -3.2100     0.5880     1.3020 C.ar  1 <1>  -0.1500 
  5 C       -1.8590     0.1260    -1.0750 C.ar  1 <1>  -0.1500 
  6 C       -3.1480    -0.6910     0.7760 C.ar  1 <1>  -0.1500 
  7 C       -2.4650    -0.9300    -0.4090 C.ar  1 <1>  -0.1430 
  8 C       -2.3680    -2.3430    -0.9610 C.3   1 <1>  -0.0170 
  9 C       -1.3600    -3.1720    -0.1460 C.3   1 <1>  -0.0800 
 10 C       -0.0280    -2.4160     0.0030 C.3   1 <1>   0.3430 
 11 C       -1.1440    -4.5560    -0.7820 C.3   1 <1>  -0.1600 
 12 N        0.9570    -3.2420     0.7580 N.4   1 <1>  -0.9060 
 13 C       -0.0650    -5.3450    -0.0250 C.3   1 <1>  -0.1600 
 14 C        1.2370    -4.5500     0.1060 C.3   1 <1>   0.3430 
 15 H       -3.1700     2.9510     1.9420 H     1 <1>   0.4500 
 16 H       -1.4520     2.2320    -1.0570 H     1 <1>   0.1500 
 17 H       -3.7410     0.7660     2.2190 H     1 <1>   0.1500 
 18 H       -1.3420    -0.0310    -2.0060 H     1 <1>   0.1500 
 19 H       -3.6380    -1.4970     1.2950 H     1 <1>   0.1500 
 20 H       -2.0720    -2.3060    -1.9960 H     1 <1>   0.0800 
 21 H       -3.3390    -2.8070    -0.9230 H     1 <1>   0.0800 
 22 H       -1.7750    -3.3050     0.8390 H     1 <1>   0.0800 
 23 H       -0.2010    -1.4850     0.5210 H     1 <1>   0.0800 
 24 H        0.3610    -2.1860    -0.9760 H     1 <1>   0.0800 
 25 H       -0.8430    -4.4430    -1.8110 H     1 <1>   0.0800 
 26 H       -2.0680    -5.1120    -0.7740 H     1 <1>   0.0800 
 27 H        0.5850    -3.4120     1.7000 H     1 <1>   0.4500 
 28 H        1.8310    -2.7120     0.8720 H     1 <1>   0.4500 
 29 H        0.1370    -6.2630    -0.5500 H     1 <1>   0.0800 
 30 H       -0.4230    -5.6110     0.9550 H     1 <1>   0.0800 
 31 H        1.9480    -5.1130     0.6900 H     1 <1>   0.0800 
 32 H        1.6560    -4.3860    -0.8740 H     1 <1>   0.0800 
@<TRIPOS>BOND
  1   1   2  1   
  2   1  15  1   
  3   2   3  ar  
  4   2   4  ar  
  5   3   5  ar  
  6   3  16  1   
  7   4   6  ar  
  8   4  17  1   
  9   5   7  ar  
 10   5  18  1   
 11   6   7  ar  
 12   6  19  1   
 13   7   8  1   
 14   8   9  1   
 15   8  20  1   
 16   8  21  1   
 17   9  10  1   
 18   9  11  1   
 19   9  22  1   
 20  10  12  1   
 21  10  23  1   
 22  10  24  1   
 23  11  13  1   
 24  11  25  1   
 25  11  26  1   
 26  12  14  1   
 27  12  27  1   
 28  12  28  1   
 29  13  14  1   
 30  13  29  1   
 31  13  30  1   
 32  14  31  1   
 33  14  32  1   
@<TRIPOS>SUBSTRUCTURE
  1 ****   7 GROUP 4 **** **** 0

# MOE 2024.06 (io_trps.svl 2023.06)
