@<TRIPOS>MOLECULE
NONAME
50 53 1 0 0 
SMALL
USER_CHARGES


@<TRIPOS>ATOM
  1 S        1.3260     0.1960     2.2310 S.3   1 <1>  -0.0800 
  2 C        0.1180     0.8430     1.1120 C.2   1 <1>   0.1040 
  3 C        2.4960     0.1020     0.9410 C.2   1 <1>  -0.1400 
  4 N       -1.1480     1.1650     1.5750 N.am  1 <1>  -0.4940 
  5 C        0.6280     0.9590    -0.1590 C.2   1 <1>  -0.0860 
  6 C        2.0010     0.5220    -0.2100 C.2   1 <1>  -0.1810 
  7 C        3.9160    -0.3640     0.9490 C.3   1 <1>   0.0200 
  8 C       -1.7970     0.9960     2.7700 C.2   1 <1>   0.5690 
  9 C       -0.1070     1.4460    -1.2930 C.2   1 <1>   0.8060 
 10 C        3.0510     0.4210    -1.2880 C.3   1 <1>   0.0210 
 11 C        4.2900    -0.1530    -0.5400 C.3   1 <1>  -0.1600 
 12 O       -1.3300     0.4450     3.7360 O.2   1 <1>  -0.5700 
 13 C       -3.2190     1.5550     2.8550 C.3   1 <1>   0.1710 
 14 O       -1.2770     1.7800    -1.2360 O.2   1 <1>  -0.5700 
 15 O        0.5190     1.5370    -2.4750 O.3   1 <1>  -0.4300 
 16 N       -3.8490     1.8170     1.5270 N.3   1 <1>  -0.8100 
 17 C       -0.1400     2.0120    -3.6330 C.3   1 <1>   0.0400 
 18 C       -4.2650     0.5590     0.8780 C.3   1 <1>   0.1100 
 19 C       -4.9880     2.7390     1.6640 C.3   1 <1>   0.1100 
 20 C       -4.7610     0.8500    -0.5380 C.3   1 <1>  -0.1600 
 21 C       -5.5150     3.1140     0.2790 C.3   1 <1>  -0.1600 
 22 C       -5.9030     1.8650    -0.4980 C.3   1 <1>   0.5600 
 23 O       -7.0350     1.2980     0.0820 O.3   1 <1>  -0.5600 
 24 O       -6.2920     2.2230    -1.7810 O.3   1 <1>  -0.5600 
 25 C       -7.8490     0.7870    -0.9120 C.3   1 <1>   0.1200 
 26 C       -7.2980     1.3740    -2.1970 C.3   1 <1>   0.1200 
 27 H       -1.7800     1.5930     0.8790 H     1 <1>   0.3700 
 28 H        3.9750    -1.3990     1.2360 H     1 <1>   0.0800 
 29 H        4.5120     0.2470     1.6030 H     1 <1>   0.0800 
 30 H        3.2630     1.3920    -1.7000 H     1 <1>   0.0800 
 31 H        2.7270    -0.2440    -2.0690 H     1 <1>   0.0800 
 32 H        4.5810    -1.0910    -0.9800 H     1 <1>   0.0800 
 33 H        5.1150     0.5330    -0.6170 H     1 <1>   0.0800 
 34 H       -3.1540     2.4760     3.4060 H     1 <1>   0.0800 
 35 H       -3.8280     0.8750     3.4240 H     1 <1>   0.0800 
 36 H        0.5560     1.9980    -4.4520 H     1 <1>   0.0800 
 37 H       -0.4800     3.0180    -3.4530 H     1 <1>   0.0800 
 38 H       -0.9770     1.3700    -3.8460 H     1 <1>   0.0800 
 39 H       -5.0500     0.0920     1.4500 H     1 <1>   0.0800 
 40 H       -3.4340    -0.1240     0.8220 H     1 <1>   0.0800 
 41 H       -4.6720     3.6350     2.1700 H     1 <1>   0.0800 
 42 H       -5.7710     2.2760     2.2420 H     1 <1>   0.0800 
 43 H       -5.0830    -0.0610    -1.0060 H     1 <1>   0.0800 
 44 H       -3.9480     1.2580    -1.1100 H     1 <1>   0.0800 
 45 H       -4.7420     3.6360    -0.2540 H     1 <1>   0.0800 
 46 H       -6.3680     3.7590     0.3690 H     1 <1>   0.0800 
 47 H       -8.8600     1.1020    -0.7290 H     1 <1>   0.0800 
 48 H       -7.7840    -0.2870    -0.9050 H     1 <1>   0.0800 
 49 H       -6.8740     0.6140    -2.8290 H     1 <1>   0.0800 
 50 H       -8.0370     1.9400    -2.7370 H     1 <1>   0.0800 
@<TRIPOS>BOND
  1   1   2  1   
  2   1   3  1   
  3   2   4  1   
  4   2   5  2   
  5   3   6  2   
  6   3   7  1   
  7   4   8  am  
  8   4  27  1   
  9   5   6  1   
 10   5   9  1   
 11   6  10  1   
 12   7  11  1   
 13   7  28  1   
 14   7  29  1   
 15   8  12  2   
 16   8  13  1   
 17   9  14  2   
 18   9  15  1   
 19  10  11  1   
 20  10  30  1   
 21  10  31  1   
 22  11  32  1   
 23  11  33  1   
 24  13  16  1   
 25  13  34  1   
 26  13  35  1   
 27  15  17  1   
 28  16  18  1   
 29  16  19  1   
 30  17  36  1   
 31  17  37  1   
 32  17  38  1   
 33  18  20  1   
 34  18  39  1   
 35  18  40  1   
 36  19  21  1   
 37  19  41  1   
 38  19  42  1   
 39  20  22  1   
 40  20  43  1   
 41  20  44  1   
 42  21  22  1   
 43  21  45  1   
 44  21  46  1   
 45  22  23  1   
 46  22  24  1   
 47  23  25  1   
 48  24  26  1   
 49  25  26  1   
 50  25  47  1   
 51  25  48  1   
 52  26  49  1   
 53  26  50  1   
@<TRIPOS>SUBSTRUCTURE
  1 ****   4 GROUP 4 **** **** 0

# MOE 2024.06 (io_trps.svl 2023.06)
