@<TRIPOS>MOLECULE
NONAME
40 40 1 0 0 
SMALL
USER_CHARGES


@<TRIPOS>ATOM
  1 O       -0.0940    -0.5090     1.8740 O.2   1 <1>  -0.5700 
  2 C       -0.1060    -1.2840     0.9510 C.2   1 <1>   0.5690 
  3 N        0.9370    -1.4760     0.0890 N.am  1 <1>  -0.5470 
  4 C       -1.3630    -2.0960     0.7250 C.3   1 <1>  -0.0990 
  5 C        2.2050    -0.8720     0.0270 C.ar  1 <1>   0.1170 
  6 C       -2.3960    -1.3000    -0.0870 C.3   1 <1>  -0.0990 
  7 C        3.2290    -1.5380    -0.6350 C.ar  1 <1>  -0.1500 
  8 C        2.4850     0.3720     0.5820 C.ar  1 <1>  -0.1500 
  9 C       -3.6370    -2.1250    -0.3420 C.2   1 <1>   0.5690 
 10 C        4.4910    -0.9830    -0.7360 C.ar  1 <1>  -0.1500 
 11 C        3.7480     0.9280     0.4810 C.ar  1 <1>  -0.1500 
 12 O       -3.6050    -2.9680    -1.2030 O.2   1 <1>  -0.5700 
 13 N       -4.7430    -1.8990     0.4080 N.am  1 <1>  -0.7300 
 14 C        4.7720     0.2600    -0.1820 C.ar  1 <1>   0.1170 
 15 C       -6.0100    -2.6590     0.2760 C.3   1 <1>   0.1400 
 16 N        6.0730     0.7760    -0.3000 N.am  1 <1>  -0.5470 
 17 C       -6.9010    -2.0200    -0.7910 C.3   1 <1>   0.1200 
 18 C        6.5270     2.0630    -0.2550 C.2   1 <1>   0.5690 
 19 O       -8.0860    -2.7340    -0.8900 O.3   1 <1>  -0.6800 
 20 O        5.8210     3.0300    -0.1290 O.2   1 <1>  -0.5700 
 21 C        8.0140     2.2730    -0.3880 C.3   1 <1>  -0.1790 
 22 H        0.7850    -2.1980    -0.6120 H     1 <1>   0.3700 
 23 H       -1.7790    -2.3550     1.6820 H     1 <1>   0.0800 
 24 H       -1.1210    -3.0100     0.2140 H     1 <1>   0.0800 
 25 H       -1.9750    -1.0190    -1.0360 H     1 <1>   0.0800 
 26 H       -2.6570    -0.4000     0.4390 H     1 <1>   0.0800 
 27 H        3.0400    -2.5010    -1.0730 H     1 <1>   0.1500 
 28 H        1.7170     0.9200     1.0960 H     1 <1>   0.1500 
 29 H        5.2640    -1.5200    -1.2540 H     1 <1>   0.1500 
 30 H        3.9330     1.8890     0.9250 H     1 <1>   0.1500 
 31 H       -4.7350    -1.1630     1.1180 H     1 <1>   0.3700 
 32 H       -6.5210    -2.6650     1.2230 H     1 <1>   0.0800 
 33 H       -5.7840    -3.6740    -0.0060 H     1 <1>   0.0800 
 34 H        6.7890     0.0760    -0.4770 H     1 <1>   0.3700 
 35 H       -6.4170    -2.0310    -1.7530 H     1 <1>   0.0800 
 36 H       -7.1500    -1.0090    -0.5180 H     1 <1>   0.0800 
 37 H       -7.9310    -3.6020    -1.3140 H     1 <1>   0.4000 
 38 H        8.3460     1.9310    -1.3510 H     1 <1>   0.0800 
 39 H        8.5300     1.7370     0.3860 H     1 <1>   0.0800 
 40 H        8.2410     3.3190    -0.2950 H     1 <1>   0.0800 
@<TRIPOS>BOND
  1   1   2  2   
  2   2   3  am  
  3   2   4  1   
  4   3   5  1   
  5   3  22  1   
  6   4   6  1   
  7   4  23  1   
  8   4  24  1   
  9   5   7  ar  
 10   5   8  ar  
 11   6   9  1   
 12   6  25  1   
 13   6  26  1   
 14   7  10  ar  
 15   7  27  1   
 16   8  11  ar  
 17   8  28  1   
 18   9  12  2   
 19   9  13  am  
 20  10  14  ar  
 21  10  29  1   
 22  11  14  ar  
 23  11  30  1   
 24  13  15  1   
 25  13  31  1   
 26  14  16  1   
 27  15  17  1   
 28  15  32  1   
 29  15  33  1   
 30  16  18  am  
 31  16  34  1   
 32  17  19  1   
 33  17  35  1   
 34  17  36  1   
 35  18  20  2   
 36  18  21  1   
 37  19  37  1   
 38  21  38  1   
 39  21  39  1   
 40  21  40  1   
@<TRIPOS>SUBSTRUCTURE
  1 ****   3 GROUP 4 **** **** 0

# MOE 2024.06 (io_trps.svl 2023.06)
