@<TRIPOS>MOLECULE
NONAME
43 44 1 0 0 
SMALL
USER_CHARGES


@<TRIPOS>ATOM
  1 O       -1.5240     0.7820     0.2160 O.3   1 <1>  -0.3630 
  2 C       -0.8390     1.8470    -0.2680 C.ar  1 <1>   0.0830 
  3 C       -1.0350    -0.4950    -0.1470 C.3   1 <1>   0.0400 
  4 C       -1.4080     2.5700    -1.3130 C.ar  1 <1>  -0.1440 
  5 C        0.3860     2.2280     0.2770 C.ar  1 <1>  -0.1440 
  6 C       -0.7180     3.6380    -1.8620 C.ar  1 <1>  -0.1500 
  7 C       -2.7860     2.2080    -1.8310 C.3   1 <1>   0.4870 
  8 C        1.0740     3.2980    -0.2890 C.ar  1 <1>   0.0830 
  9 C        0.9850     1.5140     1.4910 C.3   1 <1>  -0.0960 
 10 C        0.5190     3.9940    -1.3600 C.ar  1 <1>  -0.1500 
 11 N       -3.7370     2.2910    -0.6950 N.4   1 <1>  -0.9590 
 12 O        2.2830     3.6240     0.2400 O.3   1 <1>  -0.3630 
 13 C       -5.0560     1.6570    -1.0150 C.3   1 <1>   0.3430 
 14 C       -3.8700     3.6810    -0.1720 C.3   1 <1>   0.3430 
 15 C        3.0860     4.6550    -0.2920 C.3   1 <1>   0.0400 
 16 C       -6.0070     1.6700     0.1970 C.3   1 <1>   0.2000 
 17 C       -4.7570     3.6790     1.0770 C.3   1 <1>  -0.1600 
 18 O       -7.2530     1.2700    -0.2380 O.3   1 <1>  -0.6800 
 19 C       -6.1420     3.0710     0.8030 C.3   1 <1>  -0.1600 
 20 H       -0.0310    -0.6140     0.2190 H     1 <1>   0.0800 
 21 H       -1.0450    -0.5850    -1.2190 H     1 <1>   0.0800 
 22 H       -1.6700    -1.2420     0.2940 H     1 <1>   0.0800 
 23 H       -1.1290     4.2030    -2.6820 H     1 <1>   0.1500 
 24 H       -2.7600     1.2030    -2.2190 H     1 <1>   0.0800 
 25 H       -3.0810     2.8790    -2.6200 H     1 <1>   0.0800 
 26 H        0.2430     0.9550     2.0300 H     1 <1>   0.0800 
 27 H        1.4050     2.2310     2.1740 H     1 <1>   0.0800 
 28 H        1.7670     0.8490     1.1730 H     1 <1>   0.0800 
 29 H        1.0350     4.8210    -1.8110 H     1 <1>   0.1500 
 30 H       -3.2670     1.7380     0.0440 H     1 <1>   0.4500 
 31 H       -4.9080     0.6370    -1.3280 H     1 <1>   0.0800 
 32 H       -5.5270     2.1990    -1.8180 H     1 <1>   0.0800 
 33 H       -4.3100     4.3150    -0.9240 H     1 <1>   0.0800 
 34 H       -2.8980     4.0760     0.0810 H     1 <1>   0.0800 
 35 H        3.9940     4.7000     0.2820 H     1 <1>   0.0800 
 36 H        2.5580     5.5880    -0.2110 H     1 <1>   0.0800 
 37 H        3.3150     4.4260    -1.3180 H     1 <1>   0.0800 
 38 H       -5.6690     0.9620     0.9360 H     1 <1>   0.0800 
 39 H       -4.8760     4.6930     1.4190 H     1 <1>   0.0800 
 40 H       -4.2610     3.1340     1.8620 H     1 <1>   0.0800 
 41 H       -7.8950     1.2500     0.5020 H     1 <1>   0.4000 
 42 H       -6.6990     3.0190     1.7240 H     1 <1>   0.0800 
 43 H       -6.6740     3.7090     0.1180 H     1 <1>   0.0800 
@<TRIPOS>BOND
  1   1   2  1   
  2   1   3  1   
  3   2   4  ar  
  4   2   5  ar  
  5   3  20  1   
  6   3  21  1   
  7   3  22  1   
  8   4   6  ar  
  9   4   7  1   
 10   5   8  ar  
 11   5   9  1   
 12   6  10  ar  
 13   6  23  1   
 14   7  11  1   
 15   7  24  1   
 16   7  25  1   
 17   8  10  ar  
 18   8  12  1   
 19   9  26  1   
 20   9  27  1   
 21   9  28  1   
 22  10  29  1   
 23  11  13  1   
 24  11  14  1   
 25  11  30  1   
 26  12  15  1   
 27  13  16  1   
 28  13  31  1   
 29  13  32  1   
 30  14  17  1   
 31  14  33  1   
 32  14  34  1   
 33  15  35  1   
 34  15  36  1   
 35  15  37  1   
 36  16  18  1   
 37  16  19  1   
 38  16  38  1   
 39  17  19  1   
 40  17  39  1   
 41  17  40  1   
 42  18  41  1   
 43  19  42  1   
 44  19  43  1   
@<TRIPOS>SUBSTRUCTURE
  1 ****   4 GROUP 4 **** **** 0

# MOE 2024.06 (io_trps.svl 2023.06)
