@<TRIPOS>MOLECULE
NONAME
47 48 1 0 0 
SMALL
USER_CHARGES


@<TRIPOS>ATOM
  1 S        0.4780     0.8670    -2.0870 S.o2  1 <1>   1.3330 
  2 O        1.8840     1.0020    -2.3960 O.2   1 <1>  -0.6500 
  3 O       -0.4720     0.5800    -3.1320 O.2   1 <1>  -0.6500 
  4 N       -0.0070     2.3240    -1.2860 N.am  1 <1>  -0.6930 
  5 C        0.2970    -0.3330    -0.7860 C.3   1 <1>  -0.1350 
  6 C       -1.3150     2.5340    -0.8460 C.ar  1 <1>   0.1990 
  7 C        1.0620     3.2970    -0.8970 C.3   1 <1>   0.2570 
  8 C       -2.3770     2.5490    -1.7420 C.ar  1 <1>  -0.1500 
  9 C       -1.5870     2.7340     0.5040 C.ar  1 <1>  -0.1500 
 10 C        1.9630     2.8240     0.2500 C.2   1 <1>   0.5690 
 11 C       -3.6720     2.7530    -1.3040 C.ar  1 <1>  -0.1500 
 12 C       -2.8800     2.9410     0.9500 C.ar  1 <1>  -0.1500 
 13 O        1.7510     3.2310     1.3680 O.2   1 <1>  -0.5700 
 14 N        2.9750     1.9570    -0.0140 N.am  1 <1>  -0.7300 
 15 C       -3.9350     2.9510     0.0420 C.ar  1 <1>   0.0830 
 16 C        3.9580     1.4480     0.9520 C.3   1 <1>   0.2200 
 17 O       -5.2360     3.1460     0.3900 O.3   1 <1>  -0.3630 
 18 C        5.3640     1.7000     0.3990 C.3   1 <1>  -0.1600 
 19 C        3.7060    -0.0470     1.1750 C.3   1 <1>  -0.1600 
 20 C       -5.5970     3.3830     1.7320 C.3   1 <1>   0.0400 
 21 C        6.4380     1.0880     1.3100 C.3   1 <1>  -0.1600 
 22 C        4.7780    -0.6630     2.0850 C.3   1 <1>  -0.1600 
 23 C        6.1880    -0.4100     1.5330 C.3   1 <1>  -0.1600 
 24 H        0.6090    -1.2990    -1.1300 H     1 <1>   0.0800 
 25 H       -0.7290    -0.3920    -0.4800 H     1 <1>   0.0800 
 26 H        0.8920    -0.0580     0.0610 H     1 <1>   0.0800 
 27 H        0.6030     4.2230    -0.6000 H     1 <1>   0.0800 
 28 H        1.6750     3.5050    -1.7550 H     1 <1>   0.0800 
 29 H       -2.1880     2.4040    -2.7910 H     1 <1>   0.1500 
 30 H       -0.7820     2.7260     1.2170 H     1 <1>   0.1500 
 31 H       -4.4890     2.7620    -2.0030 H     1 <1>   0.1500 
 32 H       -3.0450     3.0920     2.0000 H     1 <1>   0.1500 
 33 H        3.0590     1.5770    -0.9690 H     1 <1>   0.3700 
 34 H        3.8480     1.9690     1.8900 H     1 <1>   0.0800 
 35 H        5.5290     2.7600     0.3180 H     1 <1>   0.0800 
 36 H        5.4480     1.2640    -0.5810 H     1 <1>   0.0800 
 37 H        3.7150    -0.5580     0.2280 H     1 <1>   0.0800 
 38 H        2.7410    -0.1790     1.6310 H     1 <1>   0.0800 
 39 H       -6.6620     3.5180     1.7720 H     1 <1>   0.0800 
 40 H       -5.1020     4.2750     2.0740 H     1 <1>   0.0800 
 41 H       -5.3140     2.5320     2.3260 H     1 <1>   0.0800 
 42 H        6.4310     1.5960     2.2600 H     1 <1>   0.0800 
 43 H        7.4090     1.2300     0.8690 H     1 <1>   0.0800 
 44 H        4.6110    -1.7220     2.1750 H     1 <1>   0.0800 
 45 H        4.7000    -0.2320     3.0690 H     1 <1>   0.0800 
 46 H        6.9190    -0.7980     2.2210 H     1 <1>   0.0800 
 47 H        6.3040    -0.9330     0.5990 H     1 <1>   0.0800 
@<TRIPOS>BOND
  1   1   2  2   
  2   1   3  2   
  3   1   4  am  
  4   1   5  1   
  5   4   6  1   
  6   4   7  1   
  7   5  24  1   
  8   5  25  1   
  9   5  26  1   
 10   6   8  ar  
 11   6   9  ar  
 12   7  10  1   
 13   7  27  1   
 14   7  28  1   
 15   8  11  ar  
 16   8  29  1   
 17   9  12  ar  
 18   9  30  1   
 19  10  13  2   
 20  10  14  am  
 21  11  15  ar  
 22  11  31  1   
 23  12  15  ar  
 24  12  32  1   
 25  14  16  1   
 26  14  33  1   
 27  15  17  1   
 28  16  18  1   
 29  16  19  1   
 30  16  34  1   
 31  17  20  1   
 32  18  21  1   
 33  18  35  1   
 34  18  36  1   
 35  19  22  1   
 36  19  37  1   
 37  19  38  1   
 38  20  39  1   
 39  20  40  1   
 40  20  41  1   
 41  21  23  1   
 42  21  42  1   
 43  21  43  1   
 44  22  23  1   
 45  22  44  1   
 46  22  45  1   
 47  23  46  1   
 48  23  47  1   
@<TRIPOS>SUBSTRUCTURE
  1 ****   4 GROUP 4 **** **** 0

# MOE 2024.06 (io_trps.svl 2023.06)
