@<TRIPOS>MOLECULE
NONAME
41 42 1 0 0 
SMALL
USER_CHARGES


@<TRIPOS>ATOM
  1 O       -0.1270     0.4360    -1.0890 O.2   1 <1>  -0.5700 
  2 C       -0.1680     1.5330    -0.5920 C.2   1 <1>   0.4950 
  3 C       -1.3470     2.3360    -0.6500 C.2   1 <1>  -0.1360 
  4 C        1.0480     2.1050     0.1550 C.3   1 <1>  -0.0190 
  5 C       -1.4910     3.5820    -0.1420 C.2   1 <1>  -0.1670 
  6 C        1.0330     3.6480     0.0900 C.3   1 <1>  -0.1600 
  7 C        2.4150     1.5880    -0.3540 C.3   1 <1>  -0.1600 
  8 C       -2.7180     4.3310    -0.1900 C.ar  1 <1>   0.0280 
  9 C       -0.3050     4.2400     0.5600 C.3   1 <1>  -0.0220 
 10 C        2.7500     0.1700     0.1350 C.3   1 <1>  -0.1600 
 11 C       -3.9090     3.7640     0.2620 C.ar  1 <1>  -0.1500 
 12 C       -2.7750     5.6320    -0.6910 C.ar  1 <1>  -0.1500 
 13 C        4.1350    -0.2640    -0.3510 C.3   1 <1>  -0.2400 
 14 C       -5.1020     4.4610     0.2320 C.ar  1 <1>  -0.1500 
 15 C       -3.9630     6.3360    -0.7240 C.ar  1 <1>  -0.1500 
 16 C       -5.1360     5.7620    -0.2630 C.ar  1 <1>   0.0820 
 17 O       -6.2560     6.5180    -0.3260 O.3   1 <1>  -0.3630 
 18 C       -7.5010     6.0380     0.1200 C.3   1 <1>   0.1200 
 19 C       -8.5360     7.1390    -0.0920 C.3   1 <1>  -0.2400 
 20 H       -2.1680     1.8590    -1.1530 H     1 <1>   0.1500 
 21 H        0.9440     1.8220     1.1870 H     1 <1>   0.0800 
 22 H        1.2060     3.9560    -0.9280 H     1 <1>   0.0800 
 23 H        1.8260     4.0500     0.6960 H     1 <1>   0.0800 
 24 H        3.1930     2.2450    -0.0070 H     1 <1>   0.0800 
 25 H        2.4250     1.6120    -1.4310 H     1 <1>   0.0800 
 26 H       -0.4130     4.0990     1.6220 H     1 <1>   0.0800 
 27 H       -0.2910     5.2990     0.3760 H     1 <1>   0.0800 
 28 H        2.0210    -0.5330    -0.2280 H     1 <1>   0.0800 
 29 H        2.7300     0.1410     1.2110 H     1 <1>   0.0800 
 30 H       -3.8930     2.7600     0.6490 H     1 <1>   0.1500 
 31 H       -1.8820     6.0950    -1.0680 H     1 <1>   0.1500 
 32 H        4.1710    -0.2660    -1.4270 H     1 <1>   0.0800 
 33 H        4.3510    -1.2590    -0.0020 H     1 <1>   0.0800 
 34 H        4.8940     0.4010     0.0210 H     1 <1>   0.0800 
 35 H       -5.9910     3.9810     0.5940 H     1 <1>   0.1500 
 36 H       -3.9930     7.3390    -1.1110 H     1 <1>   0.1500 
 37 H       -7.4170     5.7910     1.1650 H     1 <1>   0.0800 
 38 H       -7.7540     5.1620    -0.4530 H     1 <1>   0.0800 
 39 H       -8.2640     8.0140     0.4710 H     1 <1>   0.0800 
 40 H       -9.5010     6.8020     0.2400 H     1 <1>   0.0800 
 41 H       -8.5990     7.3890    -1.1360 H     1 <1>   0.0800 
@<TRIPOS>BOND
  1   1   2  2   
  2   2   3  1   
  3   2   4  1   
  4   3   5  2   
  5   3  20  1   
  6   4   6  1   
  7   4   7  1   
  8   4  21  1   
  9   5   8  1   
 10   5   9  1   
 11   6   9  1   
 12   6  22  1   
 13   6  23  1   
 14   7  10  1   
 15   7  24  1   
 16   7  25  1   
 17   8  11  ar  
 18   8  12  ar  
 19   9  26  1   
 20   9  27  1   
 21  10  13  1   
 22  10  28  1   
 23  10  29  1   
 24  11  14  ar  
 25  11  30  1   
 26  12  15  ar  
 27  12  31  1   
 28  13  32  1   
 29  13  33  1   
 30  13  34  1   
 31  14  16  ar  
 32  14  35  1   
 33  15  16  ar  
 34  15  36  1   
 35  16  17  1   
 36  17  18  1   
 37  18  19  1   
 38  18  37  1   
 39  18  38  1   
 40  19  39  1   
 41  19  40  1   
 42  19  41  1   
@<TRIPOS>SUBSTRUCTURE
  1 ****   5 GROUP 4 **** **** 0

# MOE 2024.06 (io_trps.svl 2023.06)
