@<TRIPOS>MOLECULE
NONAME
32 34 1 0 0 
SMALL
USER_CHARGES


@<TRIPOS>ATOM
  1 S       -0.6290     0.2030     0.0040 S.3   1 <1>  -0.2020 
  2 C       -2.3470    -0.2060    -0.0730 C.ar  1 <1>   0.1020 
  3 C       -0.1420    -1.4770     0.3240 C.2   1 <1>   0.2010 
  4 C       -2.5060    -1.5600     0.1480 C.ar  1 <1>   0.1000 
  5 C       -3.3890     0.6630    -0.3190 C.ar  1 <1>  -0.1500 
  6 N       -1.2960    -2.2510     0.3850 N.pl3 1 <1>  -0.5690 
  7 C        1.1590    -1.8550     0.4590 C.2   1 <1>  -0.1360 
  8 C       -3.8010    -2.0710     0.1060 C.ar  1 <1>  -0.1500 
  9 C       -4.6710     0.1380    -0.3500 C.ar  1 <1>  -0.1500 
 10 C       -1.2900    -3.6910     0.7370 C.3   1 <1>   0.2090 
 11 C        2.3580    -1.0990     0.4100 C.2   1 <1>   0.5560 
 12 C       -4.8710    -1.2220    -0.1390 C.ar  1 <1>  -0.1500 
 13 C       -1.1840    -4.5240    -0.5380 C.3   1 <1>  -0.2400 
 14 O        2.4300     0.1020     0.2900 O.2   1 <1>  -0.5700 
 15 C        3.6830    -1.8440     0.5380 C.3   1 <1>  -0.1000 
 16 C        4.6700    -1.8270    -0.5930 C.3   1 <1>  -0.2000 
 17 C        3.9790    -3.1040    -0.2290 C.3   1 <1>  -0.2000 
 18 H       -3.1990     1.7090    -0.4810 H     1 <1>   0.1500 
 19 H        1.3380    -2.8940     0.6280 H     1 <1>   0.1500 
 20 H       -3.9790    -3.1170     0.2600 H     1 <1>   0.1500 
 21 H       -5.5120     0.7830    -0.5390 H     1 <1>   0.1500 
 22 H       -0.4640    -3.9030     1.3910 H     1 <1>   0.0800 
 23 H       -2.1910    -3.9380     1.2710 H     1 <1>   0.0800 
 24 H       -5.8710    -1.6200    -0.1690 H     1 <1>   0.1500 
 25 H       -0.2740    -4.2900    -1.0610 H     1 <1>   0.0800 
 26 H       -2.0220    -4.3240    -1.1810 H     1 <1>   0.0800 
 27 H       -1.1820    -5.5700    -0.2920 H     1 <1>   0.0800 
 28 H        4.0920    -1.7440     1.5270 H     1 <1>   0.1000 
 29 H        4.3920    -1.3160    -1.4990 H     1 <1>   0.1000 
 30 H        5.7130    -1.7070    -0.3580 H     1 <1>   0.1000 
 31 H        4.5530    -3.8790     0.2470 H     1 <1>   0.1000 
 32 H        3.2590    -3.4950    -0.9280 H     1 <1>   0.1000 
@<TRIPOS>BOND
  1   1   2  1   
  2   1   3  1   
  3   2   4  ar  
  4   2   5  ar  
  5   3   6  1   
  6   3   7  2   
  7   4   6  1   
  8   4   8  ar  
  9   5   9  ar  
 10   5  18  1   
 11   6  10  1   
 12   7  11  1   
 13   7  19  1   
 14   8  12  ar  
 15   8  20  1   
 16   9  12  ar  
 17   9  21  1   
 18  10  13  1   
 19  10  22  1   
 20  10  23  1   
 21  11  14  2   
 22  11  15  1   
 23  12  24  1   
 24  13  25  1   
 25  13  26  1   
 26  13  27  1   
 27  15  16  1   
 28  15  17  1   
 29  15  28  1   
 30  16  17  1   
 31  16  29  1   
 32  16  30  1   
 33  17  31  1   
 34  17  32  1   
@<TRIPOS>SUBSTRUCTURE
  1 ****   3 GROUP 4 **** **** 0

# MOE 2024.06 (io_trps.svl 2023.06)
