@<TRIPOS>MOLECULE
NONAME
49 52 1 0 0 
SMALL
USER_CHARGES


@<TRIPOS>ATOM
  1 S        0.2920    -0.5410    -1.5910 S.o2  1 <1>   1.4470 
  2 O        1.1620    -1.3220    -2.4380 O.2   1 <1>  -0.6500 
  3 O       -0.9910    -0.0760    -2.0600 O.2   1 <1>  -0.6500 
  4 N        1.1210     0.9120    -1.2080 N.am  1 <1>  -0.7570 
  5 C        0.1130    -1.3090     0.0420 C.ar  1 <1>  -0.0090 
  6 C        2.3340     1.0070    -0.5350 C.ar  1 <1>   0.1990 
  7 C        1.0970    -2.1500     0.5510 C.ar  1 <1>  -0.1500 
  8 C       -0.9960    -1.0520     0.8420 C.ar  1 <1>  -0.1500 
  9 C        3.4140     0.2090    -0.8590 C.ar  1 <1>  -0.1500 
 10 C        2.4570     1.9430     0.5040 C.ar  1 <1>  -0.1500 
 11 C        0.9820    -2.7150     1.8090 C.ar  1 <1>  -0.1500 
 12 C       -1.1200    -1.6130     2.1010 C.ar  1 <1>  -0.1500 
 13 C        4.5960     0.3280    -0.1370 C.ar  1 <1>   0.2270 
 14 C        3.6260     2.0710     1.2210 C.ar  1 <1>  -0.1500 
 15 C       -0.1290    -2.4460     2.5860 C.ar  1 <1>  -0.1500 
 16 N        5.7600    -0.3600    -0.2790 N.2   1 <1>  -0.5650 
 17 C        4.7020     1.2450     0.8890 C.ar  1 <1>  -0.1520 
 18 C        6.5390     0.1280     0.6300 C.2   1 <1>   0.0060 
 19 N        5.9640     1.1100     1.3840 N.pl3 1 <1>   0.0480 
 20 C        7.9670    -0.3650     0.8310 C.3   1 <1>   0.5230 
 21 C        6.5040     1.8950     2.5140 C.3   1 <1>   0.0160 
 22 N        8.3290    -1.1620    -0.3680 N.4   1 <1>  -0.9590 
 23 C        9.2200    -2.3160    -0.1500 C.3   1 <1>   0.3430 
 24 C        8.8720    -0.3630    -1.4900 C.3   1 <1>   0.3430 
 25 C        9.6830    -2.6740    -1.5530 C.3   1 <1>  -0.1600 
 26 C        9.6400    -1.3650    -2.3480 C.3   1 <1>  -0.1600 
 27 H        0.4480     1.6620    -1.0960 H     1 <1>   0.4200 
 28 H        1.9670    -2.3660    -0.0470 H     1 <1>   0.1500 
 29 H       -1.7760    -0.4060     0.4740 H     1 <1>   0.1500 
 30 H        3.3720    -0.5010    -1.6620 H     1 <1>   0.1500 
 31 H        1.6150     2.5670     0.7430 H     1 <1>   0.1500 
 32 H        1.7550    -3.3650     2.1820 H     1 <1>   0.1500 
 33 H       -1.9870    -1.4020     2.7040 H     1 <1>   0.1500 
 34 H        3.7110     2.7890     2.0180 H     1 <1>   0.1500 
 35 H       -0.2230    -2.8850     3.5650 H     1 <1>   0.1500 
 36 H        7.9990    -0.9850     1.7120 H     1 <1>   0.0800 
 37 H        8.6450     0.4620     0.9540 H     1 <1>   0.0800 
 38 H        6.5040     2.9380     2.2520 H     1 <1>   0.0800 
 39 H        7.5060     1.5870     2.7480 H     1 <1>   0.0800 
 40 H        5.8780     1.7500     3.3760 H     1 <1>   0.0800 
 41 H        7.4030    -1.5000    -0.6960 H     1 <1>   0.4500 
 42 H        8.7060    -3.1370     0.3240 H     1 <1>   0.0800 
 43 H       10.0680    -2.0210     0.4470 H     1 <1>   0.0800 
 44 H        9.5480     0.3900    -1.1210 H     1 <1>   0.0800 
 45 H        8.0770     0.1100    -2.0470 H     1 <1>   0.0800 
 46 H        8.9980    -3.3870    -1.9790 H     1 <1>   0.0800 
 47 H       10.6670    -3.1100    -1.5400 H     1 <1>   0.0800 
 48 H       10.6320    -0.9910    -2.5360 H     1 <1>   0.0800 
 49 H        9.1450    -1.5050    -3.2930 H     1 <1>   0.0800 
@<TRIPOS>BOND
  1   1   2  2   
  2   1   3  2   
  3   1   4  am  
  4   1   5  1   
  5   4   6  1   
  6   4  27  1   
  7   5   7  ar  
  8   5   8  ar  
  9   6   9  ar  
 10   6  10  ar  
 11   7  11  ar  
 12   7  28  1   
 13   8  12  ar  
 14   8  29  1   
 15   9  13  ar  
 16   9  30  1   
 17  10  14  ar  
 18  10  31  1   
 19  11  15  ar  
 20  11  32  1   
 21  12  15  ar  
 22  12  33  1   
 23  13  16  1   
 24  13  17  ar  
 25  14  17  ar  
 26  14  34  1   
 27  15  35  1   
 28  16  18  2   
 29  17  19  1   
 30  18  19  1   
 31  18  20  1   
 32  19  21  1   
 33  20  22  1   
 34  20  36  1   
 35  20  37  1   
 36  21  38  1   
 37  21  39  1   
 38  21  40  1   
 39  22  23  1   
 40  22  24  1   
 41  22  41  1   
 42  23  25  1   
 43  23  42  1   
 44  23  43  1   
 45  24  26  1   
 46  24  44  1   
 47  24  45  1   
 48  25  26  1   
 49  25  46  1   
 50  25  47  1   
 51  26  48  1   
 52  26  49  1   
@<TRIPOS>SUBSTRUCTURE
  1 ****  13 GROUP 4 **** **** 0

# MOE 2024.06 (io_trps.svl 2023.06)
