@<TRIPOS>MOLECULE
NONAME
34 37 1 0 0 
SMALL
USER_CHARGES


@<TRIPOS>ATOM
  1 S        0.2720    -0.0800     0.1260 S.3   1 <1>  -0.0800 
  2 C        0.9890     1.5070    -0.1570 C.2   1 <1>   0.1660 
  3 C       -1.3210     0.6510     0.1790 C.2   1 <1>  -0.1400 
  4 N        2.3230     1.6860    -0.3040 N.2   1 <1>  -0.5760 
  5 C        0.0450     2.4850    -0.2000 C.2   1 <1>  -0.0860 
  6 C       -1.2750     1.9620    -0.0030 C.2   1 <1>  -0.1810 
  7 C       -2.6740     0.0540     0.3900 C.3   1 <1>   0.0200 
  8 C        2.7140     2.8970    -0.5090 C.2   1 <1>   0.4490 
  9 C        0.5020     3.8100    -0.4250 C.2   1 <1>   0.7160 
 10 C       -2.6550     2.5600     0.0490 C.3   1 <1>   0.0210 
 11 C       -3.5650     1.3220     0.3030 C.3   1 <1>  -0.1600 
 12 N        1.8670     3.9910    -0.5950 N.am  1 <1>  -0.4200 
 13 C        4.2170     3.1060    -0.6540 C.3   1 <1>  -0.0990 
 14 O       -0.2720     4.7580    -0.4690 O.2   1 <1>  -0.5700 
 15 C        2.3870     5.3640    -0.8670 C.3   1 <1>   0.1400 
 16 C        4.8220     3.9140     0.5060 C.3   1 <1>  -0.1600 
 17 C        3.1840     5.9010     0.3270 C.3   1 <1>  -0.1600 
 18 C        4.6460     5.4300     0.3560 C.3   1 <1>  -0.1600 
 19 H       -2.7370    -0.4140     1.3570 H     1 <1>   0.0800 
 20 H       -2.9040    -0.6520    -0.3880 H     1 <1>   0.0800 
 21 H       -2.8900     3.0380    -0.8860 H     1 <1>   0.0800 
 22 H       -2.7240     3.2730     0.8510 H     1 <1>   0.0800 
 23 H       -4.1080     1.4520     1.2220 H     1 <1>   0.0800 
 24 H       -4.2710     1.2180    -0.5020 H     1 <1>   0.0800 
 25 H        4.4410     3.5620    -1.6000 H     1 <1>   0.0800 
 26 H        4.6870     2.1380    -0.6610 H     1 <1>   0.0800 
 27 H        1.5730     6.0390    -1.0640 H     1 <1>   0.0800 
 28 H        2.9980     5.3520    -1.7530 H     1 <1>   0.0800 
 29 H        5.8780     3.7050     0.5490 H     1 <1>   0.0800 
 30 H        4.3940     3.5830     1.4380 H     1 <1>   0.0800 
 31 H        2.6840     5.6460     1.2460 H     1 <1>   0.0800 
 32 H        3.1910     6.9750     0.2600 H     1 <1>   0.0800 
 33 H        5.1430     5.7580    -0.5420 H     1 <1>   0.0800 
 34 H        5.1400     5.9110     1.1830 H     1 <1>   0.0800 
@<TRIPOS>BOND
  1   1   2  1   
  2   1   3  1   
  3   2   4  1   
  4   2   5  2   
  5   3   6  2   
  6   3   7  1   
  7   4   8  2   
  8   5   6  1   
  9   5   9  1   
 10   6  10  1   
 11   7  11  1   
 12   7  19  1   
 13   7  20  1   
 14   8  12  1   
 15   8  13  1   
 16   9  12  am  
 17   9  14  2   
 18  10  11  1   
 19  10  21  1   
 20  10  22  1   
 21  11  23  1   
 22  11  24  1   
 23  12  15  1   
 24  13  16  1   
 25  13  25  1   
 26  13  26  1   
 27  15  17  1   
 28  15  27  1   
 29  15  28  1   
 30  16  18  1   
 31  16  29  1   
 32  16  30  1   
 33  17  18  1   
 34  17  31  1   
 35  17  32  1   
 36  18  33  1   
 37  18  34  1   
@<TRIPOS>SUBSTRUCTURE
  1 ****   5 GROUP 4 **** **** 0

# MOE 2024.06 (io_trps.svl 2023.06)
