@<TRIPOS>MOLECULE
NONAME
25 26 1 0 0 
SMALL
USER_CHARGES


@<TRIPOS>ATOM
  1 O       -0.3000     0.3640    -1.3070 O.2   1 <1>  -0.5700 
  2 C       -1.1980     1.0700    -0.8740 C.2   1 <1>   0.7670 
  3 N       -2.4580     0.5390    -0.8760 N.2   1 <1>  -0.6610 
  4 C       -0.9560     2.3870    -0.3870 C.2   1 <1>   0.0790 
  5 C       -3.4090     1.2630    -0.4230 C.2   1 <1>   0.4400 
  6 C        0.3910     2.8530    -0.4440 C.1   1 <1>   0.4920 
  7 C       -2.0070     3.1170     0.0920 C.2   1 <1>  -0.0380 
  8 N       -3.2580     2.5360     0.0710 N.pl3 1 <1>  -0.5190 
  9 N        1.4420     3.2980    -0.4540 N.1   1 <1>  -0.5570 
 10 C       -1.8650     4.5440     0.6360 C.3   1 <1>  -0.0220 
 11 C       -4.4840     3.2360     0.5470 C.3   1 <1>   0.2090 
 12 C       -2.5360     5.5740    -0.2830 C.3   1 <1>  -0.1600 
 13 C       -4.8400     4.4090    -0.3720 C.3   1 <1>  -0.1600 
 14 C       -4.0520     5.6940    -0.0720 C.3   1 <1>  -0.1600 
 15 H       -4.4060     0.8560    -0.4230 H     1 <1>   0.0600 
 16 H       -0.8280     4.8130     0.7240 H     1 <1>   0.0800 
 17 H       -2.2710     4.6060     1.6310 H     1 <1>   0.0800 
 18 H       -4.3420     3.5760     1.5590 H     1 <1>   0.0800 
 19 H       -5.3080     2.5430     0.5560 H     1 <1>   0.0800 
 20 H       -2.3250     5.3350    -1.3110 H     1 <1>   0.0800 
 21 H       -2.0990     6.5380    -0.0840 H     1 <1>   0.0800 
 22 H       -5.8830     4.6310    -0.2340 H     1 <1>   0.0800 
 23 H       -4.7090     4.1200    -1.4010 H     1 <1>   0.0800 
 24 H       -4.4200     6.4740    -0.7160 H     1 <1>   0.0800 
 25 H       -4.2460     6.0030     0.9410 H     1 <1>   0.0800 
@<TRIPOS>BOND
  1   1   2  2   
  2   2   3  1   
  3   2   4  1   
  4   3   5  2   
  5   4   6  1   
  6   4   7  2   
  7   5   8  1   
  8   5  15  1   
  9   6   9  3   
 10   7   8  1   
 11   7  10  1   
 12   8  11  1   
 13  10  12  1   
 14  10  16  1   
 15  10  17  1   
 16  11  13  1   
 17  11  18  1   
 18  11  19  1   
 19  12  14  1   
 20  12  20  1   
 21  12  21  1   
 22  13  14  1   
 23  13  22  1   
 24  13  23  1   
 25  14  24  1   
 26  14  25  1   
@<TRIPOS>SUBSTRUCTURE
  1 ****   7 GROUP 4 **** **** 0

# MOE 2024.06 (io_trps.svl 2023.06)
