@<TRIPOS>MOLECULE
NONAME
32 32 1 0 0 
SMALL
USER_CHARGES


@<TRIPOS>ATOM
  1 BR       0.2930     0.2990    -2.0400 Br    1 <1>  -0.1110 
  2 C       -1.0940     0.9450    -0.8600 C.ar  1 <1>   0.1110 
  3 C       -0.8860     2.0920    -0.1020 C.ar  1 <1>   0.0820 
  4 C       -2.2800     0.2380    -0.8040 C.ar  1 <1>  -0.1500 
  5 O        0.2740     2.7850    -0.1560 O.3   1 <1>  -0.3630 
  6 C       -1.9080     2.5450     0.7170 C.ar  1 <1>  -0.1500 
  7 C       -3.2900     0.6950     0.0270 C.ar  1 <1>  -0.1500 
  8 C        1.3590     2.2530     0.5610 C.3   1 <1>   0.1200 
  9 C       -3.1040     1.8450     0.7820 C.ar  1 <1>  -0.1500 
 10 C        2.6320     2.7970    -0.0870 C.3   1 <1>  -0.1600 
 11 C        3.8730     2.1990     0.5640 C.3   1 <1>   0.3430 
 12 N        5.0750     2.7190    -0.1340 N.4   1 <1>  -0.9060 
 13 C        6.3390     2.1740     0.4470 C.3   1 <1>   0.3430 
 14 C        7.5810     2.7130    -0.2760 C.3   1 <1>   0.1200 
 15 O        8.6890     2.1610     0.3380 O.3   1 <1>  -0.6800 
 16 H       -2.4120    -0.6480    -1.4000 H     1 <1>   0.1500 
 17 H       -1.7690     3.4400     1.2960 H     1 <1>   0.1500 
 18 H       -4.2220     0.1600     0.0860 H     1 <1>   0.1500 
 19 H        1.3220     1.1780     0.5050 H     1 <1>   0.0800 
 20 H        1.2630     2.5650     1.5870 H     1 <1>   0.0800 
 21 H       -3.8950     2.1990     1.4210 H     1 <1>   0.1500 
 22 H        2.6390     3.8680     0.0190 H     1 <1>   0.0800 
 23 H        2.6120     2.5390    -1.1320 H     1 <1>   0.0800 
 24 H        3.8400     1.1230     0.4880 H     1 <1>   0.0800 
 25 H        3.9040     2.4680     1.6080 H     1 <1>   0.0800 
 26 H        5.0780     3.7460    -0.0770 H     1 <1>   0.4500 
 27 H        5.0140     2.4720    -1.1310 H     1 <1>   0.4500 
 28 H        6.3400     1.0980     0.3720 H     1 <1>   0.0800 
 29 H        6.4070     2.4430     1.4880 H     1 <1>   0.0800 
 30 H        7.6520     3.7840    -0.1880 H     1 <1>   0.0800 
 31 H        7.5920     2.4160    -1.3110 H     1 <1>   0.0800 
 32 H        9.5280     2.4620    -0.0740 H     1 <1>   0.4000 
@<TRIPOS>BOND
  1   1   2  1   
  2   2   3  ar  
  3   2   4  ar  
  4   3   5  1   
  5   3   6  ar  
  6   4   7  ar  
  7   4  16  1   
  8   5   8  1   
  9   6   9  ar  
 10   6  17  1   
 11   7   9  ar  
 12   7  18  1   
 13   8  10  1   
 14   8  19  1   
 15   8  20  1   
 16   9  21  1   
 17  10  11  1   
 18  10  22  1   
 19  10  23  1   
 20  11  12  1   
 21  11  24  1   
 22  11  25  1   
 23  12  13  1   
 24  12  26  1   
 25  12  27  1   
 26  13  14  1   
 27  13  28  1   
 28  13  29  1   
 29  14  15  1   
 30  14  30  1   
 31  14  31  1   
 32  15  32  1   
@<TRIPOS>SUBSTRUCTURE
  1 ****   8 GROUP 4 **** **** 0

# MOE 2024.06 (io_trps.svl 2023.06)
