@<TRIPOS>MOLECULE
NONAME
53 55 1 0 0 
SMALL
USER_CHARGES


@<TRIPOS>ATOM
  1 O        1.1440     4.9700    -0.2910 O.3   1 <1>  -0.3630 
  2 C        2.3710     5.5070    -0.0730 C.ar  1 <1>   0.0830 
  3 C       -0.0290     5.7310    -0.1270 C.3   1 <1>   0.1200 
  4 C        3.4590     4.6690    -0.2720 C.ar  1 <1>  -0.1500 
  5 C        2.5800     6.8280     0.3300 C.ar  1 <1>  -0.1500 
  6 C       -1.2220     4.8310    -0.4500 C.3   1 <1>  -0.1600 
  7 C        4.7360     5.1530    -0.0680 C.ar  1 <1>  -0.1440 
  8 C        3.8670     7.3020     0.5310 C.ar  1 <1>  -0.1500 
  9 C       -2.5530     5.5870    -0.3180 C.3   1 <1>  -0.1600 
 10 C        4.9380     6.4510     0.3280 C.ar  1 <1>  -0.1430 
 11 C        6.0430     4.4180    -0.2260 C.3   1 <1>  -0.0170 
 12 C       -3.7330     4.6630    -0.6320 C.3   1 <1>   0.1100 
 13 C        6.4070     6.7540     0.4860 C.3   1 <1>  -0.0170 
 14 C        7.0660     5.3650     0.4260 C.3   1 <1>  -0.1600 
 15 N       -5.0140     5.3410    -0.3720 N.3   1 <1>  -0.8100 
 16 C       -5.3480     6.3470    -1.4140 C.3   1 <1>   0.1100 
 17 C       -6.1140     4.3550    -0.2450 C.3   1 <1>   0.1100 
 18 C       -6.7490     6.9790    -1.2120 C.3   1 <1>   0.3430 
 19 C       -7.4710     5.0210     0.0900 C.3   1 <1>   0.3430 
 20 N       -7.3680     6.5200     0.0730 N.4   1 <1>  -0.9590 
 21 C       -8.6250     7.2360     0.4010 C.3   1 <1>   0.3430 
 22 C       -8.9860     7.0000     1.8620 C.3   1 <1>  -0.2400 
 23 H        0.0150     6.5680    -0.8020 H     1 <1>   0.0800 
 24 H       -0.0720     6.0730     0.8930 H     1 <1>   0.0800 
 25 H        3.2960     3.6530    -0.5810 H     1 <1>   0.1500 
 26 H        1.7590     7.4980     0.4910 H     1 <1>   0.1500 
 27 H       -1.2140     3.9940     0.2260 H     1 <1>   0.0800 
 28 H       -1.1150     4.4630    -1.4560 H     1 <1>   0.0800 
 29 H        4.0340     8.3180     0.8410 H     1 <1>   0.1500 
 30 H       -2.5450     6.4210    -0.9950 H     1 <1>   0.0800 
 31 H       -2.6530     5.9550     0.6890 H     1 <1>   0.0800 
 32 H        6.2560     4.2890    -1.2720 H     1 <1>   0.0800 
 33 H        6.0200     3.4610     0.2650 H     1 <1>   0.0800 
 34 H       -3.6560     3.7980     0.0070 H     1 <1>   0.0800 
 35 H       -3.6850     4.3250    -1.6540 H     1 <1>   0.0800 
 36 H        6.6110     7.2490     1.4190 H     1 <1>   0.0800 
 37 H        6.7360     7.3670    -0.3340 H     1 <1>   0.0800 
 38 H        7.9950     5.3850    -0.1160 H     1 <1>   0.0800 
 39 H        7.2550     5.0290     1.4310 H     1 <1>   0.0800 
 40 H       -5.3060     5.8940    -2.3900 H     1 <1>   0.0800 
 41 H       -4.6180     7.1370    -1.3950 H     1 <1>   0.0800 
 42 H       -5.8770     3.6510     0.5350 H     1 <1>   0.0800 
 43 H       -6.2110     3.7980    -1.1620 H     1 <1>   0.0800 
 44 H       -7.3810     6.7070    -2.0410 H     1 <1>   0.0800 
 45 H       -6.6500     8.0520    -1.2130 H     1 <1>   0.0800 
 46 H       -7.7830     4.6890     1.0660 H     1 <1>   0.0800 
 47 H       -8.2120     4.6920    -0.6190 H     1 <1>   0.0800 
 48 H       -6.6460     6.7260     0.7820 H     1 <1>   0.4500 
 49 H       -9.4240     6.8970    -0.2390 H     1 <1>   0.0800 
 50 H       -8.4900     8.2940     0.2420 H     1 <1>   0.0800 
 51 H       -9.2300     5.9700     2.0470 H     1 <1>   0.0800 
 52 H       -9.8520     7.5890     2.1090 H     1 <1>   0.0800 
 53 H       -8.1830     7.3060     2.5090 H     1 <1>   0.0800 
@<TRIPOS>BOND
  1   1   2  1   
  2   1   3  1   
  3   2   4  ar  
  4   2   5  ar  
  5   3   6  1   
  6   3  23  1   
  7   3  24  1   
  8   4   7  ar  
  9   4  25  1   
 10   5   8  ar  
 11   5  26  1   
 12   6   9  1   
 13   6  27  1   
 14   6  28  1   
 15   7  10  ar  
 16   7  11  1   
 17   8  10  ar  
 18   8  29  1   
 19   9  12  1   
 20   9  30  1   
 21   9  31  1   
 22  10  13  1   
 23  11  14  1   
 24  11  32  1   
 25  11  33  1   
 26  12  15  1   
 27  12  34  1   
 28  12  35  1   
 29  13  14  1   
 30  13  36  1   
 31  13  37  1   
 32  14  38  1   
 33  14  39  1   
 34  15  16  1   
 35  15  17  1   
 36  16  18  1   
 37  16  40  1   
 38  16  41  1   
 39  17  19  1   
 40  17  42  1   
 41  17  43  1   
 42  18  20  1   
 43  18  44  1   
 44  18  45  1   
 45  19  20  1   
 46  19  46  1   
 47  19  47  1   
 48  20  21  1   
 49  20  48  1   
 50  21  22  1   
 51  21  49  1   
 52  21  50  1   
 53  22  51  1   
 54  22  52  1   
 55  22  53  1   
@<TRIPOS>SUBSTRUCTURE
  1 ****   3 GROUP 4 **** **** 0

# MOE 2024.06 (io_trps.svl 2023.06)
