@<TRIPOS>MOLECULE
NONAME
41 43 1 0 0 
SMALL
USER_CHARGES


@<TRIPOS>ATOM
  1 S       -0.0980     0.4160     0.4190 S.3   1 <1>  -0.0800 
  2 C        1.4490     1.2530     0.2960 C.2   1 <1>  -0.0450 
  3 C       -1.0040     1.8590     0.0730 C.2   1 <1>  -0.1400 
  4 C        1.2150     2.5670     0.0020 C.2   1 <1>   0.1250 
  5 C        2.6490     0.5010     0.5050 C.2   1 <1>   0.8050 
  6 C       -0.1710     2.9130    -0.1240 C.2   1 <1>  -0.0860 
  7 C       -2.5150     1.7100     0.0480 C.3   1 <1>  -0.0600 
  8 N        2.2000     3.5250    -0.1700 N.2   1 <1>  -0.1250 
  9 O        2.6590    -0.6900     0.7540 O.2   1 <1>  -0.5700 
 10 O        3.8190     1.1460     0.4210 O.3   1 <1>  -0.4300 
 11 C       -0.4550     4.2870    -0.4310 C.2   1 <1>   0.7160 
 12 N        1.9300     4.7310    -0.4470 N.2   1 <1>  -0.0620 
 13 C        5.0690     0.5060     0.5740 C.3   1 <1>   0.1200 
 14 O       -1.5910     4.7100    -0.5480 O.2   1 <1>  -0.5700 
 15 N        0.6320     5.1320    -0.5830 N.am  1 <1>  -0.2980 
 16 C        5.4880    -0.0880    -0.7690 C.3   1 <1>  -0.2400 
 17 C        0.4180     6.5640    -0.9130 C.3   1 <1>   0.1400 
 18 C        0.1600     7.3770     0.3580 C.3   1 <1>  -0.0160 
 19 C       -0.0430     8.8400     0.0030 C.ar  1 <1>  -0.1440 
 20 C        1.0260     9.7230     0.0220 C.ar  1 <1>  -0.1500 
 21 C       -1.3010     9.3010    -0.3510 C.ar  1 <1>  -0.1500 
 22 C        0.8380    11.0540    -0.3100 C.ar  1 <1>  -0.1500 
 23 C       -1.4900    10.6320    -0.6830 C.ar  1 <1>  -0.1500 
 24 C       -0.4200    11.5090    -0.6620 C.ar  1 <1>  -0.1500 
 25 H       -2.7980     0.9930    -0.7020 H     1 <1>   0.0800 
 26 H       -2.9960     2.6440    -0.1760 H     1 <1>   0.0800 
 27 H       -2.8640     1.3660     1.0050 H     1 <1>   0.0800 
 28 H        4.9950    -0.2520     1.3380 H     1 <1>   0.0800 
 29 H        5.7780     1.2510     0.8900 H     1 <1>   0.0800 
 30 H        4.7910    -0.8470    -1.0780 H     1 <1>   0.0800 
 31 H        6.4590    -0.5400    -0.6770 H     1 <1>   0.0800 
 32 H        5.5400     0.6830    -1.5170 H     1 <1>   0.0800 
 33 H       -0.4180     6.6610    -1.5850 H     1 <1>   0.0800 
 34 H        1.2900     6.9480    -1.4140 H     1 <1>   0.0800 
 35 H        0.9950     7.2790     1.0280 H     1 <1>   0.0800 
 36 H       -0.7200     7.0070     0.8550 H     1 <1>   0.0800 
 37 H        2.0090     9.3810     0.2940 H     1 <1>   0.1500 
 38 H       -2.1400     8.6270    -0.3710 H     1 <1>   0.1500 
 39 H        1.6710    11.7350    -0.2920 H     1 <1>   0.1500 
 40 H       -2.4690    10.9840    -0.9560 H     1 <1>   0.1500 
 41 H       -0.5660    12.5440    -0.9190 H     1 <1>   0.1500 
@<TRIPOS>BOND
  1   1   2  1   
  2   1   3  1   
  3   2   4  2   
  4   2   5  1   
  5   3   6  2   
  6   3   7  1   
  7   4   6  1   
  8   4   8  1   
  9   5   9  2   
 10   5  10  1   
 11   6  11  1   
 12   7  25  1   
 13   7  26  1   
 14   7  27  1   
 15   8  12  2   
 16  10  13  1   
 17  11  14  2   
 18  11  15  am  
 19  12  15  1   
 20  13  16  1   
 21  13  28  1   
 22  13  29  1   
 23  15  17  1   
 24  16  30  1   
 25  16  31  1   
 26  16  32  1   
 27  17  18  1   
 28  17  33  1   
 29  17  34  1   
 30  18  19  1   
 31  18  35  1   
 32  18  36  1   
 33  19  20  ar  
 34  19  21  ar  
 35  20  22  ar  
 36  20  37  1   
 37  21  23  ar  
 38  21  38  1   
 39  22  24  ar  
 40  22  39  1   
 41  23  24  ar  
 42  23  40  1   
 43  24  41  1   
@<TRIPOS>SUBSTRUCTURE
  1 ****  15 GROUP 4 **** **** 0

# MOE 2024.06 (io_trps.svl 2023.06)
