@<TRIPOS>MOLECULE
NONAME
42 42 1 0 0 
SMALL
USER_CHARGES


@<TRIPOS>ATOM
  1 O       -0.9780    -0.9120     1.5850 O.2   1 <1>  -0.5700 
  2 C       -0.5960    -1.8340     0.8980 C.2   1 <1>   0.7800 
  3 O        0.5330    -2.4470     1.2340 O.3   1 <1>  -0.4300 
  4 N       -1.3250    -2.2960    -0.1710 N.am  1 <1>  -0.6600 
  5 C        1.6030    -2.4830     0.3190 C.3   1 <1>   0.1200 
  6 C       -1.4160    -3.7410    -0.4780 C.3   1 <1>   0.1400 
  7 C       -2.4110    -1.4680    -0.7400 C.3   1 <1>   0.1400 
  8 C        2.7000    -3.3600     0.9130 C.3   1 <1>  -0.2400 
  9 C       -2.7260    -4.2670     0.1150 C.3   1 <1>  -0.1600 
 10 C       -3.7390    -1.9430    -0.1510 C.3   1 <1>  -0.1600 
 11 C       -3.9320    -3.4510    -0.3670 C.3   1 <1>   0.4230 
 12 N       -5.1200    -3.9120     0.3820 N.4   1 <1>  -0.9060 
 13 C       -6.4170    -3.4230    -0.1470 C.3   1 <1>   0.3430 
 14 C       -7.5370    -4.0050     0.7030 C.3   1 <1>  -0.1600 
 15 C       -8.9040    -3.5380     0.2080 C.3   1 <1>   0.1200 
 16 O       -9.8380    -4.1260     1.0400 O.3   1 <1>  -0.5600 
 17 C      -11.1600    -3.8090     0.7350 C.3   1 <1>   0.0400 
 18 H        1.9540    -1.4750     0.1760 H     1 <1>   0.0800 
 19 H        1.2590    -2.8810    -0.6190 H     1 <1>   0.0800 
 20 H       -0.5840    -4.2750    -0.0480 H     1 <1>   0.0800 
 21 H       -1.3910    -3.8830    -1.5460 H     1 <1>   0.0800 
 22 H       -2.4090    -1.5640    -1.8130 H     1 <1>   0.0800 
 23 H       -2.2500    -0.4280    -0.5000 H     1 <1>   0.0800 
 24 H        3.0310    -2.9520     1.8510 H     1 <1>   0.0800 
 25 H        3.5390    -3.3980     0.2420 H     1 <1>   0.0800 
 26 H        2.3360    -4.3610     1.0650 H     1 <1>   0.0800 
 27 H       -2.6450    -4.2160     1.1870 H     1 <1>   0.0800 
 28 H       -2.8400    -5.2970    -0.1700 H     1 <1>   0.0800 
 29 H       -4.5300    -1.3880    -0.6210 H     1 <1>   0.0800 
 30 H       -3.7350    -1.7100     0.9010 H     1 <1>   0.0800 
 31 H       -4.0680    -3.6370    -1.4210 H     1 <1>   0.0800 
 32 H       -5.0190    -3.6160     1.3620 H     1 <1>   0.4500 
 33 H       -5.1320    -4.9390     0.3950 H     1 <1>   0.4500 
 34 H       -6.5400    -3.7320    -1.1730 H     1 <1>   0.0800 
 35 H       -6.4550    -2.3460    -0.1040 H     1 <1>   0.0800 
 36 H       -7.4230    -3.6890     1.7250 H     1 <1>   0.0800 
 37 H       -7.5120    -5.0800     0.6550 H     1 <1>   0.0800 
 38 H       -9.0910    -3.8630    -0.8020 H     1 <1>   0.0800 
 39 H       -9.0050    -2.4670     0.2810 H     1 <1>   0.0800 
 40 H      -11.7960    -4.3170     1.4390 H     1 <1>   0.0800 
 41 H      -11.3880    -4.1440    -0.2630 H     1 <1>   0.0800 
 42 H      -11.3030    -2.7460     0.8220 H     1 <1>   0.0800 
@<TRIPOS>BOND
  1   1   2  2   
  2   2   3  1   
  3   2   4  am  
  4   3   5  1   
  5   4   6  1   
  6   4   7  1   
  7   5   8  1   
  8   5  18  1   
  9   5  19  1   
 10   6   9  1   
 11   6  20  1   
 12   6  21  1   
 13   7  10  1   
 14   7  22  1   
 15   7  23  1   
 16   8  24  1   
 17   8  25  1   
 18   8  26  1   
 19   9  11  1   
 20   9  27  1   
 21   9  28  1   
 22  10  11  1   
 23  10  29  1   
 24  10  30  1   
 25  11  12  1   
 26  11  31  1   
 27  12  13  1   
 28  12  32  1   
 29  12  33  1   
 30  13  14  1   
 31  13  34  1   
 32  13  35  1   
 33  14  15  1   
 34  14  36  1   
 35  14  37  1   
 36  15  16  1   
 37  15  38  1   
 38  15  39  1   
 39  16  17  1   
 40  17  40  1   
 41  17  41  1   
 42  17  42  1   
@<TRIPOS>SUBSTRUCTURE
  1 ****  11 GROUP 4 **** **** 0

# MOE 2024.06 (io_trps.svl 2023.06)
