@<TRIPOS>MOLECULE
NONAME
40 41 1 0 0 
SMALL
USER_CHARGES


@<TRIPOS>ATOM
  1 CL       0.1040     0.1880    -0.6790 Cl    1 <1>  -0.1770 
  2 C       -0.9200     1.5300    -0.2060 C.ar  1 <1>   0.1770 
  3 C       -0.3760     2.6180     0.4690 C.ar  1 <1>   0.0820 
  4 C       -2.2630     1.4710    -0.5240 C.ar  1 <1>  -0.1500 
  5 O        0.9590     2.6080     0.7520 O.3   1 <1>  -0.3630 
  6 C       -1.2220     3.6650     0.8250 C.ar  1 <1>  -0.1500 
  7 C       -3.1120     2.5140    -0.1770 C.ar  1 <1>   0.1170 
  8 C        1.5530     3.6470     1.4980 C.3   1 <1>   0.0400 
  9 C       -2.5670     3.6130     0.5010 C.ar  1 <1>   0.0820 
 10 N       -4.4780     2.4680    -0.5140 N.am  1 <1>  -0.5470 
 11 O       -3.3460     4.6460     0.9060 O.3   1 <1>  -0.3630 
 12 C       -5.3790     1.4480    -0.4480 C.2   1 <1>   0.5690 
 13 C       -3.7320     5.5880    -0.0740 C.3   1 <1>   0.0400 
 14 O       -5.0310     0.3270    -0.1470 O.2   1 <1>  -0.5700 
 15 C       -6.8520     1.7260    -0.8270 C.3   1 <1>  -0.0190 
 16 C       -7.4690     3.0100    -0.1920 C.3   1 <1>  -0.1860 
 17 C       -7.7780     0.5370    -0.4740 C.3   1 <1>  -0.0220 
 18 C       -6.8890     4.3250    -0.6890 C.2   1 <1>   0.9060 
 19 C       -7.4410     2.9210     1.3460 C.3   1 <1>  -0.0220 
 20 C       -8.1160     0.5130     1.0120 C.2   1 <1>  -0.2880 
 21 O       -7.1790     5.3750    -0.1150 O.co2 1 <1>  -0.9000 
 22 O       -6.1110     4.3150    -1.6510 O.co2 1 <1>  -0.9000 
 23 C       -7.9530     1.5660     1.8180 C.2   1 <1>  -0.2880 
 24 H       -2.6510     0.6140    -1.0420 H     1 <1>   0.1500 
 25 H       -0.8690     4.5270     1.3540 H     1 <1>   0.1500 
 26 H        2.5950     3.4140     1.6220 H     1 <1>   0.0800 
 27 H        1.0740     3.7040     2.4600 H     1 <1>   0.0800 
 28 H        1.4470     4.5710     0.9570 H     1 <1>   0.0800 
 29 H       -4.8880     3.3610    -0.8460 H     1 <1>   0.3700 
 30 H       -4.6690     6.0250     0.2250 H     1 <1>   0.0800 
 31 H       -3.8510     5.1030    -1.0260 H     1 <1>   0.0800 
 32 H       -2.9750     6.3460    -0.1400 H     1 <1>   0.0800 
 33 H       -6.8690     1.8380    -1.8960 H     1 <1>   0.0800 
 34 H       -8.5010     3.0490    -0.4860 H     1 <1>   0.0800 
 35 H       -7.3160    -0.3920    -0.7590 H     1 <1>   0.0800 
 36 H       -8.6950     0.6220    -1.0280 H     1 <1>   0.0800 
 37 H       -8.0610     3.7020     1.7510 H     1 <1>   0.0800 
 38 H       -6.4390     3.0750     1.7090 H     1 <1>   0.0800 
 39 H       -8.4940    -0.4360     1.3500 H     1 <1>   0.1500 
 40 H       -8.1690     1.5410     2.8720 H     1 <1>   0.1500 
@<TRIPOS>BOND
  1   1   2  1   
  2   2   3  ar  
  3   2   4  ar  
  4   3   5  1   
  5   3   6  ar  
  6   4   7  ar  
  7   4  24  1   
  8   5   8  1   
  9   6   9  ar  
 10   6  25  1   
 11   7   9  ar  
 12   7  10  1   
 13   8  26  1   
 14   8  27  1   
 15   8  28  1   
 16   9  11  1   
 17  10  12  am  
 18  10  29  1   
 19  11  13  1   
 20  12  14  2   
 21  12  15  1   
 22  13  30  1   
 23  13  31  1   
 24  13  32  1   
 25  15  16  1   
 26  15  17  1   
 27  15  33  1   
 28  16  18  1   
 29  16  19  1   
 30  16  34  1   
 31  17  20  1   
 32  17  35  1   
 33  17  36  1   
 34  18  21  ar  
 35  18  22  ar  
 36  19  23  1   
 37  19  37  1   
 38  19  38  1   
 39  20  23  2   
 40  20  39  1   
 41  23  40  1   
@<TRIPOS>SUBSTRUCTURE
  1 ****  10 GROUP 4 **** **** 0

# MOE 2024.06 (io_trps.svl 2023.06)
