@<TRIPOS>MOLECULE
NONAME
36 37 1 0 0 
SMALL
USER_CHARGES


@<TRIPOS>ATOM
  1 CL       0.0570     0.4270    -0.3690 Cl    1 <1>  -0.1770 
  2 C        1.6880     1.0590    -0.3230 C.ar  1 <1>   0.1770 
  3 C        2.7470     0.2370     0.0340 C.ar  1 <1>  -0.1440 
  4 C        1.8830     2.3880    -0.6490 C.ar  1 <1>  -0.1500 
  5 C        4.0230     0.7770     0.0580 C.ar  1 <1>  -0.1500 
  6 C        2.5200    -1.2250     0.3920 C.3   1 <1>  -0.0960 
  7 C        3.1590     2.9250    -0.6240 C.ar  1 <1>  -0.1430 
  8 C        4.2370     2.1170    -0.2690 C.ar  1 <1>   0.0830 
  9 C        3.3700     4.3890    -0.9850 C.3   1 <1>  -0.0960 
 10 O        5.4700     2.6890    -0.2580 O.3   1 <1>  -0.3630 
 11 C        6.6260     1.9570     0.0870 C.3   1 <1>   0.1200 
 12 C        7.8280     2.8890    -0.0020 C.3   1 <1>   0.1200 
 13 O        8.9830     2.1550     0.3440 O.3   1 <1>  -0.3160 
 14 N       10.1150     2.9820     0.2750 N.am  1 <1>  -0.0850 
 15 C       10.6070     3.6800     1.3370 C.2   1 <1>   0.5690 
 16 C       10.8930     3.1050    -0.8380 C.2   1 <1>   0.5690 
 17 O       10.1170     3.7900     2.4340 O.2   1 <1>  -0.5700 
 18 C       11.9010     4.3630     0.9500 C.3   1 <1>  -0.0990 
 19 O       10.6910     2.6360    -1.9310 O.2   1 <1>  -0.5700 
 20 C       12.0960     3.9710    -0.5320 C.3   1 <1>  -0.0990 
 21 H        1.0330     2.9880    -0.9200 H     1 <1>   0.1500 
 22 H        4.8430     0.1420     0.3340 H     1 <1>   0.1500 
 23 H        2.0770    -1.7410    -0.4410 H     1 <1>   0.0800 
 24 H        1.8570    -1.2970     1.2350 H     1 <1>   0.0800 
 25 H        3.4450    -1.7120     0.6420 H     1 <1>   0.0800 
 26 H        2.4400     4.8670    -1.2330 H     1 <1>   0.0800 
 27 H        4.0310     4.4640    -1.8290 H     1 <1>   0.0800 
 28 H        3.8110     4.9080    -0.1530 H     1 <1>   0.0800 
 29 H        6.7320     1.1430    -0.6080 H     1 <1>   0.0800 
 30 H        6.5090     1.5940     1.0930 H     1 <1>   0.0800 
 31 H        7.7190     3.7040     0.6930 H     1 <1>   0.0800 
 32 H        7.9430     3.2540    -1.0080 H     1 <1>   0.0800 
 33 H       12.7040     3.9970     1.5640 H     1 <1>   0.0800 
 34 H       11.8040     5.4270     1.0690 H     1 <1>   0.0800 
 35 H       12.0980     4.8340    -1.1730 H     1 <1>   0.0800 
 36 H       12.9990     3.4050    -0.6760 H     1 <1>   0.0800 
@<TRIPOS>BOND
  1   1   2  1   
  2   2   3  ar  
  3   2   4  ar  
  4   3   5  ar  
  5   3   6  1   
  6   4   7  ar  
  7   4  21  1   
  8   5   8  ar  
  9   5  22  1   
 10   6  23  1   
 11   6  24  1   
 12   6  25  1   
 13   7   8  ar  
 14   7   9  1   
 15   8  10  1   
 16   9  26  1   
 17   9  27  1   
 18   9  28  1   
 19  10  11  1   
 20  11  12  1   
 21  11  29  1   
 22  11  30  1   
 23  12  13  1   
 24  12  31  1   
 25  12  32  1   
 26  13  14  1   
 27  14  15  am  
 28  14  16  am  
 29  15  17  2   
 30  15  18  1   
 31  16  19  2   
 32  16  20  1   
 33  18  20  1   
 34  18  33  1   
 35  18  34  1   
 36  20  35  1   
 37  20  36  1   
@<TRIPOS>SUBSTRUCTURE
  1 ****  11 GROUP 4 **** **** 0

# MOE 2024.06 (io_trps.svl 2023.06)
