@<TRIPOS>MOLECULE
NONAME
48 50 1 0 0 
SMALL
USER_CHARGES


@<TRIPOS>ATOM
  1 O       -0.8350    -0.2890     0.6210 O.3   1 <1>  -0.3630 
  2 C       -1.8690     0.5410     0.3360 C.ar  1 <1>   0.0830 
  3 C       -0.2250    -1.0720    -0.3800 C.3   1 <1>   0.0400 
  4 C       -2.4360     0.6690    -0.9290 C.ar  1 <1>  -0.1500 
  5 C       -2.3720     1.2940     1.3830 C.ar  1 <1>  -0.1500 
  6 C       -3.4920     1.5400    -1.1300 C.ar  1 <1>  -0.1500 
  7 C       -3.4270     2.1650     1.1800 C.ar  1 <1>  -0.1500 
  8 C       -3.9960     2.2910    -0.0780 C.ar  1 <1>  -0.1430 
  9 C       -5.1640     3.2360    -0.3010 C.3   1 <1>  -0.0170 
 10 C       -6.4830     2.4580    -0.1530 C.3   1 <1>  -0.1600 
 11 C       -7.7570     3.3280    -0.1260 C.3   1 <1>   0.4230 
 12 N       -8.9840     2.4720    -0.0880 N.4   1 <1>  -0.9590 
 13 C       -7.8320     4.2300    -1.3650 C.3   1 <1>  -0.2400 
 14 C      -10.2330     3.2700     0.1190 C.3   1 <1>   0.4860 
 15 C       -8.9660     1.3660     0.9280 C.3   1 <1>   0.3430 
 16 C      -11.4620     2.3810     0.0270 C.ar  1 <1>  -0.1430 
 17 C      -10.0760     0.3520     0.6390 C.3   1 <1>  -0.0170 
 18 C      -11.3940     1.0160     0.2810 C.ar  1 <1>  -0.1430 
 19 C      -12.6800     2.9540    -0.3120 C.ar  1 <1>  -0.1500 
 20 C      -12.5400     0.2420     0.1960 C.ar  1 <1>  -0.1500 
 21 C      -13.8200     2.1760    -0.3960 C.ar  1 <1>  -0.1500 
 22 C      -13.7500     0.8190    -0.1420 C.ar  1 <1>  -0.1500 
 23 H        0.5720    -1.6320     0.0740 H     1 <1>   0.0800 
 24 H        0.1720    -0.4210    -1.1390 H     1 <1>   0.0800 
 25 H       -0.9560    -1.7450    -0.7910 H     1 <1>   0.0800 
 26 H       -2.0680     0.1020    -1.7620 H     1 <1>   0.1500 
 27 H       -1.9260     1.1940     2.3560 H     1 <1>   0.1500 
 28 H       -3.9170     1.6290    -2.1140 H     1 <1>   0.1500 
 29 H       -3.7960     2.7420     2.0100 H     1 <1>   0.1500 
 30 H       -5.0760     3.6640    -1.2850 H     1 <1>   0.0800 
 31 H       -5.1160     4.0370     0.4170 H     1 <1>   0.0800 
 32 H       -6.4010     1.9240     0.7760 H     1 <1>   0.0800 
 33 H       -6.5440     1.7420    -0.9540 H     1 <1>   0.0800 
 34 H       -7.7260     3.9480     0.7570 H     1 <1>   0.0800 
 35 H       -9.0880     2.0290    -1.0090 H     1 <1>   0.4500 
 36 H       -7.8390     3.6440    -2.2670 H     1 <1>   0.0800 
 37 H       -6.9810     4.8860    -1.4020 H     1 <1>   0.0800 
 38 H       -8.6920     4.8730    -1.3510 H     1 <1>   0.0800 
 39 H      -10.3180     4.0370    -0.6300 H     1 <1>   0.0800 
 40 H      -10.2120     3.7420     1.0870 H     1 <1>   0.0800 
 41 H       -9.1070     1.7800     1.9130 H     1 <1>   0.0800 
 42 H       -8.0270     0.8410     0.9130 H     1 <1>   0.0800 
 43 H      -10.2090    -0.2740     1.5040 H     1 <1>   0.0800 
 44 H       -9.7710    -0.2820    -0.1740 H     1 <1>   0.0800 
 45 H      -12.7610     4.0090    -0.5130 H     1 <1>   0.1500 
 46 H      -12.5020    -0.8170     0.3890 H     1 <1>   0.1500 
 47 H      -14.7640     2.6230    -0.6590 H     1 <1>   0.1500 
 48 H      -14.6380     0.2130    -0.2070 H     1 <1>   0.1500 
@<TRIPOS>BOND
  1   1   2  1   
  2   1   3  1   
  3   2   4  ar  
  4   2   5  ar  
  5   3  23  1   
  6   3  24  1   
  7   3  25  1   
  8   4   6  ar  
  9   4  26  1   
 10   5   7  ar  
 11   5  27  1   
 12   6   8  ar  
 13   6  28  1   
 14   7   8  ar  
 15   7  29  1   
 16   8   9  1   
 17   9  10  1   
 18   9  30  1   
 19   9  31  1   
 20  10  11  1   
 21  10  32  1   
 22  10  33  1   
 23  11  12  1   
 24  11  13  1   
 25  11  34  1   
 26  12  14  1   
 27  12  15  1   
 28  12  35  1   
 29  13  36  1   
 30  13  37  1   
 31  13  38  1   
 32  14  16  1   
 33  14  39  1   
 34  14  40  1   
 35  15  17  1   
 36  15  41  1   
 37  15  42  1   
 38  16  18  ar  
 39  16  19  ar  
 40  17  18  1   
 41  17  43  1   
 42  17  44  1   
 43  18  20  ar  
 44  19  21  ar  
 45  19  45  1   
 46  20  22  ar  
 47  20  46  1   
 48  21  22  ar  
 49  21  47  1   
 50  22  48  1   
@<TRIPOS>SUBSTRUCTURE
  1 ****  10 GROUP 4 **** **** 0

# MOE 2024.06 (io_trps.svl 2023.06)
