@<TRIPOS>MOLECULE
NONAME
38 40 1 0 0 
SMALL
USER_CHARGES


@<TRIPOS>ATOM
  1 CL      -0.6810     0.9130    -0.5350 Cl    1 <1>  -0.1770 
  2 C        0.2220     2.3680    -0.2000 C.ar  1 <1>   0.1770 
  3 C       -0.4440     3.4830     0.2770 C.ar  1 <1>  -0.1500 
  4 C        1.5870     2.3820    -0.4170 C.ar  1 <1>  -0.1500 
  5 C        0.2700     4.6410     0.5480 C.ar  1 <1>  -0.1440 
  6 C        2.2990     3.5390    -0.1520 C.ar  1 <1>  -0.1500 
  7 C        1.6410     4.6600     0.3280 C.ar  1 <1>  -0.1500 
  8 C       -0.4290     5.8820     1.0790 C.3   1 <1>   0.2840 
  9 N       -0.3530     6.9470     0.0760 N.am  1 <1>  -0.7300 
 10 C       -1.1390     8.0470     0.0920 C.2   1 <1>   0.5690 
 11 O       -2.1710     8.0620     0.7250 O.2   1 <1>  -0.5700 
 12 C       -0.7410     9.2730    -0.7500 C.3   1 <1>  -0.0190 
 13 C        0.8390     9.8490    -0.5720 C.3   1 <1>  -0.1860 
 14 C       -1.7460    10.5440    -0.4790 C.3   1 <1>  -0.0800 
 15 C        1.7770     8.8970     0.1610 C.2   1 <1>   0.9060 
 16 C        0.7480    11.3850     0.0040 C.3   1 <1>  -0.0800 
 17 C       -0.4990    10.9680    -0.2570 C.3   1 <1>  -0.1600 
 18 C       -1.8280    12.0830     0.0650 C.3   1 <1>  -0.1600 
 19 O        2.1860     7.9160    -0.4720 O.co2 1 <1>  -0.9000 
 20 O        2.0520     9.0540     1.3530 O.co2 1 <1>  -0.9000 
 21 C       -0.2640    12.6430     0.2470 C.3   1 <1>  -0.1600 
 22 H       -1.5070     3.4420     0.4300 H     1 <1>   0.1500 
 23 H        2.0800     1.5030    -0.7900 H     1 <1>   0.1500 
 24 H        3.3610     3.5800    -0.3190 H     1 <1>   0.1500 
 25 H        2.2010     5.5640     0.5250 H     1 <1>   0.1500 
 26 H        0.0630     6.2190     1.9760 H     1 <1>   0.0800 
 27 H       -1.4590     5.6730     1.3090 H     1 <1>   0.0800 
 28 H        0.6100     7.0660    -0.3010 H     1 <1>   0.3700 
 29 H       -0.8530     8.9510    -1.7720 H     1 <1>   0.0800 
 30 H        1.2710     9.9060    -1.5600 H     1 <1>   0.0800 
 31 H       -2.2160    10.6420    -1.4470 H     1 <1>   0.0800 
 32 H        1.1840    11.2880     0.9890 H     1 <1>   0.0800 
 33 H       -0.5820    10.6000     0.8590 H     1 <1>   0.0800 
 34 H       -0.4170    11.3200    -1.3750 H     1 <1>   0.0800 
 35 H       -2.3410    12.1060     1.0150 H     1 <1>   0.0800 
 36 H       -2.3790    12.7090    -0.6190 H     1 <1>   0.0800 
 37 H       -0.0600    13.4250    -0.4690 H     1 <1>   0.0800 
 38 H       -0.1260    13.0590     1.2320 H     1 <1>   0.0800 
@<TRIPOS>BOND
  1   1   2  1   
  2   2   3  ar  
  3   2   4  ar  
  4   3   5  ar  
  5   3  22  1   
  6   4   6  ar  
  7   4  23  1   
  8   5   7  ar  
  9   5   8  1   
 10   6   7  ar  
 11   6  24  1   
 12   7  25  1   
 13   8   9  1   
 14   8  26  1   
 15   8  27  1   
 16   9  10  am  
 17   9  28  1   
 18  10  11  2   
 19  10  12  1   
 20  12  13  1   
 21  12  14  1   
 22  12  29  1   
 23  13  15  1   
 24  13  16  1   
 25  13  30  1   
 26  14  17  1   
 27  14  18  1   
 28  14  31  1   
 29  15  19  ar  
 30  15  20  ar  
 31  16  17  1   
 32  16  21  1   
 33  16  32  1   
 34  17  33  1   
 35  17  34  1   
 36  18  21  1   
 37  18  35  1   
 38  18  36  1   
 39  21  37  1   
 40  21  38  1   
@<TRIPOS>SUBSTRUCTURE
  1 ****   9 GROUP 4 **** **** 0

# MOE 2024.06 (io_trps.svl 2023.06)
