@<TRIPOS>MOLECULE
NONAME
49 50 1 0 0 
SMALL
USER_CHARGES


@<TRIPOS>ATOM
  1 CL      -0.0010    -0.3430     1.2630 Cl    1 <1>  -0.1770 
  2 C        1.1640    -1.6470     1.3060 C.ar  1 <1>   0.1770 
  3 C        1.4750    -2.3530     0.1520 C.ar  1 <1>  -0.1440 
  4 C        1.7510    -1.9340     2.5240 C.ar  1 <1>  -0.1500 
  5 C        2.4260    -3.3760     0.2330 C.ar  1 <1>   0.1990 
  6 C        0.7760    -1.9910    -1.1610 C.3   1 <1>  -0.0970 
  7 C        2.6810    -2.9530     2.6030 C.ar  1 <1>  -0.1500 
  8 N        2.7940    -4.1060    -0.8970 N.am  1 <1>  -0.6930 
  9 C        3.0120    -3.6620     1.4640 C.ar  1 <1>  -0.1500 
 10 S        2.5620    -5.8140    -1.0160 S.o2  1 <1>   1.3330 
 11 C        3.8310    -3.5160    -1.8060 C.3   1 <1>   0.2570 
 12 O        2.6380    -6.1310    -2.4190 O.2   1 <1>  -0.6500 
 13 O        3.5010    -6.4010    -0.0920 O.2   1 <1>  -0.6500 
 14 C        0.8870    -6.0360    -0.4570 C.3   1 <1>  -0.1350 
 15 C        5.2750    -3.5650    -1.2940 C.2   1 <1>   0.5690 
 16 O        6.0320    -2.7180    -1.7030 O.2   1 <1>  -0.5700 
 17 N        5.6630    -4.5450    -0.4200 N.am  1 <1>  -0.5470 
 18 C        6.9230    -4.7840     0.1480 C.ar  1 <1>   0.1170 
 19 C        7.5540    -3.8480     0.9730 C.ar  1 <1>  -0.1430 
 20 C        7.5460    -6.0100    -0.0920 C.ar  1 <1>  -0.1430 
 21 C        8.7930    -4.1380     1.5190 C.ar  1 <1>  -0.1500 
 22 C        6.9200    -2.5030     1.3100 C.3   1 <1>  -0.0970 
 23 C        8.7830    -6.2810     0.4690 C.ar  1 <1>  -0.1500 
 24 C        6.8890    -7.0690    -0.9710 C.3   1 <1>  -0.0970 
 25 C        9.4150    -5.3480     1.2710 C.ar  1 <1>  -0.1430 
 26 C       10.7720    -5.6510     1.8790 C.3   1 <1>  -0.0970 
 27 H        1.4810    -1.3650     3.3960 H     1 <1>   0.1500 
 28 H       -0.2780    -1.8570    -0.9980 H     1 <1>   0.0800 
 29 H        0.8890    -2.7540    -1.9080 H     1 <1>   0.0800 
 30 H        1.1820    -1.0730    -1.5460 H     1 <1>   0.0800 
 31 H        3.1490    -3.1890     3.5440 H     1 <1>   0.1500 
 32 H        3.7440    -4.4470     1.5410 H     1 <1>   0.1500 
 33 H        3.5870    -2.4820    -1.9730 H     1 <1>   0.0800 
 34 H        3.8000    -4.0030    -2.7630 H     1 <1>   0.0800 
 35 H        0.2140    -5.4730    -1.0720 H     1 <1>   0.0800 
 36 H        0.7850    -5.7070     0.5590 H     1 <1>   0.0800 
 37 H        0.6160    -7.0720    -0.5110 H     1 <1>   0.0800 
 38 H        4.9770    -5.2870    -0.2330 H     1 <1>   0.3700 
 39 H        9.2820    -3.4140     2.1460 H     1 <1>   0.1500 
 40 H        7.1020    -1.8070     0.5110 H     1 <1>   0.0800 
 41 H        7.3370    -2.1000     2.2150 H     1 <1>   0.0800 
 42 H        5.8600    -2.6050     1.4490 H     1 <1>   0.0800 
 43 H        9.2610    -7.2250     0.2810 H     1 <1>   0.1500 
 44 H        7.5560    -7.8930    -1.1480 H     1 <1>   0.0800 
 45 H        6.0030    -7.4450    -0.4930 H     1 <1>   0.0800 
 46 H        6.6210    -6.6460    -1.9230 H     1 <1>   0.0800 
 47 H       11.3470    -4.7480     1.9790 H     1 <1>   0.0800 
 48 H       11.3200    -6.3340     1.2550 H     1 <1>   0.0800 
 49 H       10.6440    -6.0930     2.8510 H     1 <1>   0.0800 
@<TRIPOS>BOND
  1   1   2  1   
  2   2   3  ar  
  3   2   4  ar  
  4   3   5  ar  
  5   3   6  1   
  6   4   7  ar  
  7   4  27  1   
  8   5   8  1   
  9   5   9  ar  
 10   6  28  1   
 11   6  29  1   
 12   6  30  1   
 13   7   9  ar  
 14   7  31  1   
 15   8  10  am  
 16   8  11  1   
 17   9  32  1   
 18  10  12  2   
 19  10  13  2   
 20  10  14  1   
 21  11  15  1   
 22  11  33  1   
 23  11  34  1   
 24  14  35  1   
 25  14  36  1   
 26  14  37  1   
 27  15  16  2   
 28  15  17  am  
 29  17  18  1   
 30  17  38  1   
 31  18  19  ar  
 32  18  20  ar  
 33  19  21  ar  
 34  19  22  1   
 35  20  23  ar  
 36  20  24  1   
 37  21  25  ar  
 38  21  39  1   
 39  22  40  1   
 40  22  41  1   
 41  22  42  1   
 42  23  25  ar  
 43  23  43  1   
 44  24  44  1   
 45  24  45  1   
 46  24  46  1   
 47  25  26  1   
 48  26  47  1   
 49  26  48  1   
 50  26  49  1   
@<TRIPOS>SUBSTRUCTURE
  1 ****  17 GROUP 4 **** **** 0

# MOE 2024.06 (io_trps.svl 2023.06)
