@<TRIPOS>MOLECULE
NONAME
54 56 1 0 0 
SMALL
USER_CHARGES


@<TRIPOS>ATOM
  1 S       -0.4820     0.1790     0.5080 S.o2  1 <1>   1.4470 
  2 O        0.0790    -0.3380     1.7390 O.2   1 <1>  -0.6500 
  3 O        0.0340     1.4140    -0.0420 O.2   1 <1>  -0.6500 
  4 N       -0.2820    -1.0250    -0.6690 N.am  1 <1>  -0.8490 
  5 C       -2.2830     0.3130     0.6620 C.ar  1 <1>  -0.0090 
  6 C        1.0800    -1.0170    -1.2100 C.3   1 <1>   0.1960 
  7 C       -0.6350    -2.3550    -0.1590 C.3   1 <1>   0.1960 
  8 C       -3.0880     0.4150    -0.4660 C.ar  1 <1>  -0.1500 
  9 C       -2.9010     0.3230     1.9060 C.ar  1 <1>  -0.1500 
 10 C        1.1960    -2.0060    -2.3760 C.3   1 <1>  -0.1600 
 11 C       -0.5940    -3.3850    -1.2920 C.3   1 <1>  -0.1600 
 12 C       -4.4660     0.5190    -0.3710 C.ar  1 <1>  -0.1430 
 13 C       -4.2750     0.4260     2.0230 C.ar  1 <1>  -0.1500 
 14 C        0.7870    -3.4230    -1.9570 C.3   1 <1>  -0.1600 
 15 C       -5.0660     0.5260     0.8830 C.ar  1 <1>   0.0830 
 16 C       -5.3030     0.6280    -1.6380 C.3   1 <1>  -0.0970 
 17 O       -6.4160     0.6330     0.9290 O.3   1 <1>  -0.3630 
 18 C       -7.1230     0.7330     2.1600 C.3   1 <1>   0.1810 
 19 C       -8.6150     0.9160     1.9180 C.2   1 <1>   0.5690 
 20 O       -9.3540     0.9750     2.8720 O.2   1 <1>  -0.5700 
 21 N       -9.0690     1.0090     0.6430 N.am  1 <1>  -0.7300 
 22 C      -10.4660     1.1870     0.2210 C.3   1 <1>   0.2200 
 23 C      -10.8380     0.0550    -0.7280 C.3   1 <1>  -0.1600 
 24 C      -10.5560     2.4270    -0.6600 C.3   1 <1>  -0.1600 
 25 C      -10.2800     0.4590    -2.0980 C.3   1 <1>  -0.1600 
 26 C      -10.1000     1.9820    -2.0550 C.3   1 <1>  -0.1600 
 27 H        1.7830    -1.2720    -0.4340 H     1 <1>   0.0800 
 28 H        1.3230    -0.0310    -1.5730 H     1 <1>   0.0800 
 29 H       -1.6290    -2.3340     0.2570 H     1 <1>   0.0800 
 30 H        0.0500    -2.6450     0.6220 H     1 <1>   0.0800 
 31 H       -2.6140     0.4130    -1.4340 H     1 <1>   0.1500 
 32 H       -2.2970     0.2480     2.7950 H     1 <1>   0.1500 
 33 H        2.2090    -2.0130    -2.7370 H     1 <1>   0.0800 
 34 H        0.5640    -1.6670    -3.1780 H     1 <1>   0.0800 
 35 H       -1.3430    -3.1290    -2.0210 H     1 <1>   0.0800 
 36 H       -0.8340    -4.3570    -0.9000 H     1 <1>   0.0800 
 37 H       -4.7040     0.4270     3.0070 H     1 <1>   0.1500 
 38 H        1.5090    -3.8120    -1.2600 H     1 <1>   0.0800 
 39 H        0.7660    -4.0700    -2.8170 H     1 <1>   0.0800 
 40 H       -4.6860     0.5940    -2.5170 H     1 <1>   0.0800 
 41 H       -5.8470     1.5560    -1.6360 H     1 <1>   0.0800 
 42 H       -6.0050    -0.1860    -1.6820 H     1 <1>   0.0800 
 43 H       -6.7470     1.5800     2.7020 H     1 <1>   0.0800 
 44 H       -6.9620    -0.1700     2.7200 H     1 <1>   0.0800 
 45 H       -8.3870     0.9460    -0.1160 H     1 <1>   0.3700 
 46 H      -11.1190     1.2400     1.0770 H     1 <1>   0.0800 
 47 H      -11.9110     0.0030    -0.7890 H     1 <1>   0.0800 
 48 H      -10.4670    -0.8970    -0.3900 H     1 <1>   0.0800 
 49 H       -9.9750     3.2450    -0.2710 H     1 <1>   0.0800 
 50 H      -11.5870     2.7320    -0.7110 H     1 <1>   0.0800 
 51 H      -10.9500     0.1630    -2.8870 H     1 <1>   0.0800 
 52 H       -9.3260    -0.0150    -2.2580 H     1 <1>   0.0800 
 53 H       -9.0610     2.2280    -2.1950 H     1 <1>   0.0800 
 54 H      -10.6780     2.4690    -2.8210 H     1 <1>   0.0800 
@<TRIPOS>BOND
  1   1   2  2   
  2   1   3  2   
  3   1   4  am  
  4   1   5  1   
  5   4   6  1   
  6   4   7  1   
  7   5   8  ar  
  8   5   9  ar  
  9   6  10  1   
 10   6  27  1   
 11   6  28  1   
 12   7  11  1   
 13   7  29  1   
 14   7  30  1   
 15   8  12  ar  
 16   8  31  1   
 17   9  13  ar  
 18   9  32  1   
 19  10  14  1   
 20  10  33  1   
 21  10  34  1   
 22  11  14  1   
 23  11  35  1   
 24  11  36  1   
 25  12  15  ar  
 26  12  16  1   
 27  13  15  ar  
 28  13  37  1   
 29  14  38  1   
 30  14  39  1   
 31  15  17  1   
 32  16  40  1   
 33  16  41  1   
 34  16  42  1   
 35  17  18  1   
 36  18  19  1   
 37  18  43  1   
 38  18  44  1   
 39  19  20  2   
 40  19  21  am  
 41  21  22  1   
 42  21  45  1   
 43  22  23  1   
 44  22  24  1   
 45  22  46  1   
 46  23  25  1   
 47  23  47  1   
 48  23  48  1   
 49  24  26  1   
 50  24  49  1   
 51  24  50  1   
 52  25  26  1   
 53  25  51  1   
 54  25  52  1   
 55  26  53  1   
 56  26  54  1   
@<TRIPOS>SUBSTRUCTURE
  1 ****  12 GROUP 4 **** **** 0

# MOE 2024.06 (io_trps.svl 2023.06)
