@<TRIPOS>MOLECULE
NONAME
33 33 1 0 0 
SMALL
USER_CHARGES


@<TRIPOS>ATOM
  1 CL      -3.1350    -2.7770     2.0100 Cl    1 <1>  -0.1770 
  2 C       -1.6780    -2.9160     1.0530 C.ar  1 <1>   0.1770 
  3 C       -1.6070    -2.3890    -0.2320 C.ar  1 <1>  -0.0090 
  4 C       -0.6090    -3.5770     1.6380 C.ar  1 <1>  -0.1500 
  5 S       -3.0070    -1.5290    -0.9830 S.o2  1 <1>   1.4470 
  6 C       -0.4100    -2.5470    -0.9260 C.ar  1 <1>  -0.1500 
  7 C        0.5730    -3.7260     0.9340 C.ar  1 <1>  -0.1500 
  8 O       -3.3870    -0.4210    -0.1370 O.2   1 <1>  -0.6500 
  9 O       -2.7310    -1.2840    -2.3810 O.2   1 <1>  -0.6500 
 10 N       -4.2630    -2.6650    -0.9490 N.am  1 <1>  -0.8490 
 11 C        0.6560    -3.2080    -0.3440 C.ar  1 <1>   0.1770 
 12 C       -5.5900    -2.0160    -1.1750 C.3   1 <1>   0.2570 
 13 C       -4.0390    -3.7790    -1.8760 C.3   1 <1>   0.1960 
 14 CL       2.1370    -3.3910    -1.2440 Cl    1 <1>  -0.1770 
 15 C       -6.7080    -2.5610    -0.2800 C.2   1 <1>   0.5690 
 16 C       -4.9330    -4.9670    -1.5260 C.3   1 <1>  -0.2400 
 17 O       -7.8280    -2.6470    -0.7280 O.2   1 <1>  -0.5700 
 18 N       -6.4050    -2.9340     0.9930 N.am  1 <1>  -0.7300 
 19 C       -7.3530    -3.4680     1.9990 C.3   1 <1>   0.0600 
 20 H       -0.7050    -3.9680     2.6360 H     1 <1>   0.1500 
 21 H       -0.3020    -2.1550    -1.9230 H     1 <1>   0.1500 
 22 H        1.4180    -4.2350     1.3650 H     1 <1>   0.1500 
 23 H       -5.8860    -2.1170    -2.2040 H     1 <1>   0.0800 
 24 H       -5.5420    -0.9610    -0.9720 H     1 <1>   0.0800 
 25 H       -3.0160    -4.1060    -1.8030 H     1 <1>   0.0800 
 26 H       -4.2100    -3.4640    -2.8940 H     1 <1>   0.0800 
 27 H       -4.8280    -5.2200    -0.4860 H     1 <1>   0.0800 
 28 H       -4.6440    -5.8180    -2.1150 H     1 <1>   0.0800 
 29 H       -5.9650    -4.7550    -1.7410 H     1 <1>   0.0800 
 30 H       -5.4180    -2.8760     1.2710 H     1 <1>   0.3700 
 31 H       -8.3510    -3.4910     1.5950 H     1 <1>   0.0800 
 32 H       -7.3460    -2.8410     2.8730 H     1 <1>   0.0800 
 33 H       -7.0660    -4.4680     2.2740 H     1 <1>   0.0800 
@<TRIPOS>BOND
  1   1   2  1   
  2   2   3  ar  
  3   2   4  ar  
  4   3   5  1   
  5   3   6  ar  
  6   4   7  ar  
  7   4  20  1   
  8   5   8  2   
  9   5   9  2   
 10   5  10  am  
 11   6  11  ar  
 12   6  21  1   
 13   7  11  ar  
 14   7  22  1   
 15  10  12  1   
 16  10  13  1   
 17  11  14  1   
 18  12  15  1   
 19  12  23  1   
 20  12  24  1   
 21  13  16  1   
 22  13  25  1   
 23  13  26  1   
 24  15  17  2   
 25  15  18  am  
 26  16  27  1   
 27  16  28  1   
 28  16  29  1   
 29  18  19  1   
 30  18  30  1   
 31  19  31  1   
 32  19  32  1   
 33  19  33  1   
@<TRIPOS>SUBSTRUCTURE
  1 ****  10 GROUP 4 **** **** 0

# MOE 2024.06 (io_trps.svl 2023.06)
