@<TRIPOS>MOLECULE
NONAME
32 32 1 0 0 
SMALL
USER_CHARGES


@<TRIPOS>ATOM
  1 O       -1.0300     0.8650    -2.1200 O.2   1 <1>  -0.5700 
  2 C       -1.5780     1.2150    -1.1000 C.2   1 <1>   0.4950 
  3 C       -1.1870     2.3720    -0.3520 C.2   1 <1>   0.0290 
  4 C       -2.7220     0.3220    -0.6460 C.3   1 <1>  -0.0990 
  5 C       -1.9190     2.6900     0.8440 C.2   1 <1>   0.4950 
  6 C       -0.1290     3.1350    -0.8040 C.2   1 <1>  -0.0500 
  7 C       -3.7750     1.0680     0.1830 C.3   1 <1>   0.0000 
  8 O       -1.7000     3.6470     1.5540 O.2   1 <1>  -0.5700 
  9 C       -3.0530     1.7980     1.3240 C.3   1 <1>  -0.0990 
 10 N        0.3650     4.2510    -0.2160 N.pl3 1 <1>  -0.8690 
 11 C       -4.5490     2.0680    -0.6960 C.3   1 <1>  -0.2400 
 12 C       -4.7770     0.0620     0.7680 C.3   1 <1>  -0.2400 
 13 C        1.5080     5.0590    -0.6720 C.3   1 <1>   0.3470 
 14 C        2.4690     5.2040     0.4880 C.2   1 <1>  -0.2880 
 15 C        3.7450     4.8010     0.4980 C.2   1 <1>  -0.3000 
 16 H       -3.1870    -0.1150    -1.5120 H     1 <1>   0.0800 
 17 H       -2.2980    -0.4800    -0.0700 H     1 <1>   0.0800 
 18 H        0.3680     2.8260    -1.7120 H     1 <1>   0.1500 
 19 H       -2.6380     1.0870     2.0140 H     1 <1>   0.0800 
 20 H       -3.7600     2.3990     1.8690 H     1 <1>   0.0800 
 21 H       -0.0640     4.5790     0.6670 H     1 <1>   0.4000 
 22 H       -5.0580     1.5530    -1.4930 H     1 <1>   0.0800 
 23 H       -3.9010     2.8030    -1.1390 H     1 <1>   0.0800 
 24 H       -5.2880     2.5890    -0.1120 H     1 <1>   0.0800 
 25 H       -4.2800    -0.6590     1.3930 H     1 <1>   0.0800 
 26 H       -5.2840    -0.4690    -0.0190 H     1 <1>   0.0800 
 27 H       -5.5180     0.5670     1.3630 H     1 <1>   0.0800 
 28 H        1.9910     4.5760    -1.5050 H     1 <1>   0.0800 
 29 H        1.1590     6.0280    -0.9870 H     1 <1>   0.0800 
 30 H        2.0060     5.6760     1.3370 H     1 <1>   0.1500 
 31 H        4.4020     4.9170     1.3430 H     1 <1>   0.1500 
 32 H        4.2360     4.3210    -0.3300 H     1 <1>   0.1500 
@<TRIPOS>BOND
  1   1   2  2   
  2   2   3  1   
  3   2   4  1   
  4   3   5  1   
  5   3   6  2   
  6   4   7  1   
  7   4  16  1   
  8   4  17  1   
  9   5   8  2   
 10   5   9  1   
 11   6  10  1   
 12   6  18  1   
 13   7   9  1   
 14   7  11  1   
 15   7  12  1   
 16   9  19  1   
 17   9  20  1   
 18  10  13  1   
 19  10  21  1   
 20  11  22  1   
 21  11  23  1   
 22  11  24  1   
 23  12  25  1   
 24  12  26  1   
 25  12  27  1   
 26  13  14  1   
 27  13  28  1   
 28  13  29  1   
 29  14  15  2   
 30  14  30  1   
 31  15  31  1   
 32  15  32  1   
@<TRIPOS>SUBSTRUCTURE
  1 ****   3 GROUP 4 **** **** 0

# MOE 2024.06 (io_trps.svl 2023.06)
