@<TRIPOS>MOLECULE
NONAME
47 49 1 0 0 
SMALL
USER_CHARGES


@<TRIPOS>ATOM
  1 F       -2.4590    -0.4360    -1.7040 F     1 <1>  -0.3400 
  2 C       -3.1370     0.5830    -2.2120 C.3   1 <1>   1.1640 
  3 F       -2.3640     1.1300    -3.1410 F     1 <1>  -0.3400 
  4 F       -4.1770     0.0590    -2.8520 F     1 <1>  -0.3400 
  5 C       -3.5850     1.5750    -1.1220 C.ar  1 <1>  -0.1440 
  6 C       -4.6390     1.2500    -0.2730 C.ar  1 <1>  -0.1500 
  7 C       -2.9530     2.8020    -0.9550 C.ar  1 <1>  -0.1500 
  8 C       -5.0610     2.1280     0.7160 C.ar  1 <1>  -0.1440 
  9 C       -3.3630     3.6780     0.0330 C.ar  1 <1>  -0.1500 
 10 C       -4.4120     3.3440     0.8680 C.ar  1 <1>  -0.1500 
 11 C       -6.2230     1.7620     1.6220 C.3   1 <1>   0.4870 
 12 N       -7.4120     2.5560     1.2180 N.4   1 <1>  -0.9590 
 13 C       -8.5560     2.3910     2.1880 C.3   1 <1>   0.3430 
 14 C       -7.8550     2.2370    -0.1910 C.3   1 <1>   0.3430 
 15 C       -9.7990     3.2070     1.7780 C.3   1 <1>   0.2090 
 16 C       -9.0920     3.0510    -0.6180 C.3   1 <1>   0.2090 
 17 N      -10.1990     2.9040     0.3730 N.pl3 1 <1>  -0.8380 
 18 C      -11.4100     3.4890    -0.0220 C.ar  1 <1>   0.1000 
 19 C      -11.6040     4.8760    -0.1640 C.ar  1 <1>   0.0830 
 20 C      -12.4720     2.6360    -0.2860 C.ar  1 <1>  -0.1500 
 21 O      -10.5480     5.7120     0.0960 O.3   1 <1>  -0.3630 
 22 C      -12.8480     5.3580    -0.5620 C.ar  1 <1>  -0.1500 
 23 C      -13.7030     3.1230    -0.6810 C.ar  1 <1>  -0.1500 
 24 C      -10.6650     7.1090    -0.0700 C.3   1 <1>   0.0400 
 25 C      -13.8920     4.4850    -0.8180 C.ar  1 <1>  -0.1500 
 26 H       -5.1280     0.2950    -0.3900 H     1 <1>   0.1500 
 27 H       -2.1300     3.0880    -1.5910 H     1 <1>   0.1500 
 28 H       -2.8570     4.6230     0.1520 H     1 <1>   0.1500 
 29 H       -4.7050     4.0410     1.6350 H     1 <1>   0.1500 
 30 H       -5.9580     1.9830     2.6430 H     1 <1>   0.0800 
 31 H       -6.4350     0.7080     1.5440 H     1 <1>   0.0800 
 32 H       -7.1360     3.5460     1.2160 H     1 <1>   0.4500 
 33 H       -8.2500     2.6950     3.1750 H     1 <1>   0.0800 
 34 H       -8.8430     1.3540     2.2330 H     1 <1>   0.0800 
 35 H       -8.1040     1.1920    -0.2640 H     1 <1>   0.0800 
 36 H       -7.0540     2.4360    -0.8830 H     1 <1>   0.0800 
 37 H       -9.5930     4.2580     1.8850 H     1 <1>   0.0800 
 38 H      -10.6170     2.9660     2.4350 H     1 <1>   0.0800 
 39 H       -9.4340     2.7060    -1.5790 H     1 <1>   0.0800 
 40 H       -8.8240     4.0880    -0.7200 H     1 <1>   0.0800 
 41 H      -12.3250     1.5770    -0.1790 H     1 <1>   0.1500 
 42 H      -13.0360     6.4080    -0.6800 H     1 <1>   0.1500 
 43 H      -14.5140     2.4430    -0.8800 H     1 <1>   0.1500 
 44 H       -9.7180     7.5580     0.1700 H     1 <1>   0.0800 
 45 H      -11.4230     7.4800     0.5970 H     1 <1>   0.0800 
 46 H      -10.9180     7.3200    -1.0950 H     1 <1>   0.0800 
 47 H      -14.8510     4.8660    -1.1250 H     1 <1>   0.1500 
@<TRIPOS>BOND
  1   1   2  1   
  2   2   3  1   
  3   2   4  1   
  4   2   5  1   
  5   5   6  ar  
  6   5   7  ar  
  7   6   8  ar  
  8   6  26  1   
  9   7   9  ar  
 10   7  27  1   
 11   8  10  ar  
 12   8  11  1   
 13   9  10  ar  
 14   9  28  1   
 15  10  29  1   
 16  11  12  1   
 17  11  30  1   
 18  11  31  1   
 19  12  13  1   
 20  12  14  1   
 21  12  32  1   
 22  13  15  1   
 23  13  33  1   
 24  13  34  1   
 25  14  16  1   
 26  14  35  1   
 27  14  36  1   
 28  15  17  1   
 29  15  37  1   
 30  15  38  1   
 31  16  17  1   
 32  16  39  1   
 33  16  40  1   
 34  17  18  1   
 35  18  19  ar  
 36  18  20  ar  
 37  19  21  1   
 38  19  22  ar  
 39  20  23  ar  
 40  20  41  1   
 41  21  24  1   
 42  22  25  ar  
 43  22  42  1   
 44  23  25  ar  
 45  23  43  1   
 46  24  44  1   
 47  24  45  1   
 48  24  46  1   
 49  25  47  1   
@<TRIPOS>SUBSTRUCTURE
  1 ****  14 GROUP 4 **** **** 0

# MOE 2024.06 (io_trps.svl 2023.06)
