@<TRIPOS>MOLECULE
NONAME
39 40 1 0 0 
SMALL
USER_CHARGES


@<TRIPOS>ATOM
  1 O       -0.5080     0.9200    -2.0870 O.2   1 <1>  -0.5700 
  2 C       -0.7780     1.2830    -0.9680 C.2   1 <1>   0.5690 
  3 N       -1.8730     0.8250    -0.3150 N.am  1 <1>  -0.7300 
  4 C        0.1370     2.2880    -0.2710 C.3   1 <1>  -0.0190 
  5 C       -2.8970    -0.0400    -0.9020 C.3   1 <1>   0.3640 
  6 C        0.7350     1.7970     1.0490 C.3   1 <1>  -0.1600 
  7 C       -0.5410     3.6100     0.1060 C.3   1 <1>  -0.1600 
  8 C       -4.2260     0.2810    -0.2290 C.ar  1 <1>  -0.1440 
  9 C       -2.4900    -1.4980    -0.7040 C.3   1 <1>  -0.2400 
 10 C        1.2040     3.0690     1.7540 C.3   1 <1>  -0.1600 
 11 C        0.3050     4.2000     1.2390 C.3   1 <1>  -0.1600 
 12 C       -5.2680     0.8000    -0.9830 C.ar  1 <1>  -0.1500 
 13 C       -4.4210     0.0750     1.1310 C.ar  1 <1>  -0.1500 
 14 C       -6.4880     1.1080    -0.4020 C.ar  1 <1>   0.0820 
 15 C       -5.6350     0.3810     1.7220 C.ar  1 <1>  -0.1500 
 16 O       -7.4460     1.6080    -1.2230 O.3   1 <1>  -0.3630 
 17 C       -6.6690     0.8960     0.9610 C.ar  1 <1>  -0.1500 
 18 C       -8.7230     1.9500    -0.7350 C.3   1 <1>   0.0400 
 19 H       -2.1250     1.2110     0.5920 H     1 <1>   0.3700 
 20 H        0.9510     2.5130    -0.9390 H     1 <1>   0.0800 
 21 H       -2.9650     0.1630    -1.9590 H     1 <1>   0.0800 
 22 H        1.5420     1.1030     0.8860 H     1 <1>   0.0800 
 23 H       -0.0230     1.3200     1.6460 H     1 <1>   0.0800 
 24 H       -1.5370     3.4260     0.4700 H     1 <1>   0.0800 
 25 H       -0.6010     4.2740    -0.7390 H     1 <1>   0.0800 
 26 H       -2.3380    -1.7210     0.3350 H     1 <1>   0.0800 
 27 H       -1.5840    -1.6970    -1.2470 H     1 <1>   0.0800 
 28 H       -3.2620    -2.1410    -1.0870 H     1 <1>   0.0800 
 29 H        2.2250     3.2740     1.4790 H     1 <1>   0.0800 
 30 H        1.1470     2.9690     2.8240 H     1 <1>   0.0800 
 31 H       -0.3300     4.5750     2.0240 H     1 <1>   0.0800 
 32 H        0.9130     5.0090     0.8700 H     1 <1>   0.0800 
 33 H       -5.1470     0.9740    -2.0370 H     1 <1>   0.1500 
 34 H       -3.6290    -0.3260     1.7390 H     1 <1>   0.1500 
 35 H       -5.7750     0.2160     2.7760 H     1 <1>   0.1500 
 36 H       -7.6000     1.1240     1.4430 H     1 <1>   0.1500 
 37 H       -9.3070     2.3190    -1.5590 H     1 <1>   0.0800 
 38 H       -8.6180     2.7180     0.0110 H     1 <1>   0.0800 
 39 H       -9.1870     1.0710    -0.3230 H     1 <1>   0.0800 
@<TRIPOS>BOND
  1   1   2  2   
  2   2   3  am  
  3   2   4  1   
  4   3   5  1   
  5   3  19  1   
  6   4   6  1   
  7   4   7  1   
  8   4  20  1   
  9   5   8  1   
 10   5   9  1   
 11   5  21  1   
 12   6  10  1   
 13   6  22  1   
 14   6  23  1   
 15   7  11  1   
 16   7  24  1   
 17   7  25  1   
 18   8  12  ar  
 19   8  13  ar  
 20   9  26  1   
 21   9  27  1   
 22   9  28  1   
 23  10  11  1   
 24  10  29  1   
 25  10  30  1   
 26  11  31  1   
 27  11  32  1   
 28  12  14  ar  
 29  12  33  1   
 30  13  15  ar  
 31  13  34  1   
 32  14  16  1   
 33  14  17  ar  
 34  15  17  ar  
 35  15  35  1   
 36  16  18  1   
 37  17  36  1   
 38  18  37  1   
 39  18  38  1   
 40  18  39  1   
@<TRIPOS>SUBSTRUCTURE
  1 ****   3 GROUP 4 **** **** 0

# MOE 2024.06 (io_trps.svl 2023.06)
