@<TRIPOS>MOLECULE
NONAME
32 33 1 0 0 
SMALL
USER_CHARGES


@<TRIPOS>ATOM
  1 I        0.1530     1.5380     0.5100 I     1 <1>  -0.0280 
  2 C        1.7250     0.1270     0.2960 C.2   1 <1>   0.1680 
  3 O        2.9550     0.5700     0.3490 O.3   1 <1>  -0.2800 
  4 C        1.6450    -1.2030     0.1080 C.2   1 <1>  -0.1500 
  5 C        3.7540    -0.4810     0.1930 C.2   1 <1>   0.0950 
  6 C        2.9810    -1.6030     0.0400 C.2   1 <1>  -0.1500 
  7 C        5.1630    -0.2410     0.2150 C.2   1 <1>  -0.1050 
  8 C        6.2160    -1.0880     0.0840 C.2   1 <1>   0.1150 
  9 S        6.0520    -2.8390    -0.1660 S.3   1 <1>  -0.2320 
 10 C        7.6290    -0.8460     0.1070 C.2   1 <1>   0.9370 
 11 C        7.7770    -3.1050    -0.2190 C.cat 1 <1>   0.8400 
 12 O        8.1220     0.2490     0.2580 O.2   1 <1>  -0.5700 
 13 N        8.4490    -1.9670    -0.0600 N.pl3 1 <1>  -0.7250 
 14 N        8.2440    -4.3160    -0.4010 N.pl3 1 <1>  -0.7940 
 15 C        9.9220    -1.6870    -0.0290 C.3   1 <1>   0.3290 
 16 C        7.5060    -5.5900    -0.5660 C.3   1 <1>   0.3290 
 17 C       10.8330    -2.9050    -0.1820 C.3   1 <1>  -0.2400 
 18 C        8.0660    -6.5930     0.4340 C.3   1 <1>  -0.2400 
 19 H        0.7720    -1.8260     0.0270 H     1 <1>   0.1500 
 20 H        3.2920    -2.6200    -0.1070 H     1 <1>   0.1500 
 21 H        5.3900     0.8030     0.3630 H     1 <1>   0.1500 
 22 H        9.2550    -4.4480    -0.4340 H     1 <1>   0.4500 
 23 H       10.1580    -0.9870    -0.8150 H     1 <1>   0.0800 
 24 H       10.1620    -1.2040     0.9060 H     1 <1>   0.0800 
 25 H        6.4500    -5.4630    -0.3940 H     1 <1>   0.0800 
 26 H        7.6430    -5.9590    -1.5700 H     1 <1>   0.0800 
 27 H       10.7000    -3.3710    -1.1420 H     1 <1>   0.0800 
 28 H       10.6830    -3.6050     0.6210 H     1 <1>   0.0800 
 29 H       11.8570    -2.5750    -0.1290 H     1 <1>   0.0800 
 30 H        7.9320    -6.2400     1.4410 H     1 <1>   0.0800 
 31 H        9.1090    -6.7780     0.2500 H     1 <1>   0.0800 
 32 H        7.5400    -7.5270     0.3350 H     1 <1>   0.0800 
@<TRIPOS>BOND
  1   1   2  1   
  2   2   3  1   
  3   2   4  2   
  4   3   5  1   
  5   4   6  1   
  6   4  19  1   
  7   5   6  2   
  8   5   7  1   
  9   6  20  1   
 10   7   8  2   
 11   7  21  1   
 12   8   9  1   
 13   8  10  1   
 14   9  11  1   
 15  10  12  2   
 16  10  13  1   
 17  11  13  ar  
 18  11  14  ar  
 19  13  15  1   
 20  14  16  1   
 21  14  22  1   
 22  15  17  1   
 23  15  23  1   
 24  15  24  1   
 25  16  18  1   
 26  16  25  1   
 27  16  26  1   
 28  17  27  1   
 29  17  28  1   
 30  17  29  1   
 31  18  30  1   
 32  18  31  1   
 33  18  32  1   
@<TRIPOS>SUBSTRUCTURE
  1 ****   8 GROUP 4 **** **** 0

# MOE 2024.06 (io_trps.svl 2023.06)
