@<TRIPOS>MOLECULE
NONAME
35 36 1 0 0 
SMALL
USER_CHARGES


@<TRIPOS>ATOM
  1 BR       0.5410     0.3730     0.9410 Br    1 <1>  -0.1110 
  2 C       -1.1040     1.3610     0.7600 C.ar  1 <1>   0.1110 
  3 C       -1.2730     2.3040    -0.2450 C.ar  1 <1>  -0.0090 
  4 C       -2.0830     1.0820     1.6940 C.ar  1 <1>  -0.1500 
  5 S        0.0260     2.6830    -1.4460 S.o2  1 <1>   1.4470 
  6 C       -2.4880     2.9780    -0.2660 C.ar  1 <1>  -0.1500 
  7 C       -3.2760     1.7730     1.6400 C.ar  1 <1>  -0.1500 
  8 O       -0.3970     3.7290    -2.3540 O.2   1 <1>  -0.6500 
  9 O        0.5540     1.4650    -2.0240 O.2   1 <1>  -0.6500 
 10 N        1.2470     3.3720    -0.4930 N.am  1 <1>  -0.8490 
 11 C       -3.5070     2.7440     0.6640 C.ar  1 <1>  -0.1790 
 12 C        0.8570     4.6870     0.0280 C.3   1 <1>   0.1960 
 13 C        2.5140     3.4470    -1.2230 C.3   1 <1>   0.1960 
 14 C       -4.7590     3.4890     0.6220 C.2   1 <1>   0.9790 
 15 C        1.9150     5.2020     1.0070 C.3   1 <1>  -0.1600 
 16 C        3.6330     3.9300    -0.2940 C.3   1 <1>  -0.1600 
 17 O       -5.6830     3.2190     1.4080 O.co2 1 <1>  -0.9000 
 18 O       -4.9130     4.4150    -0.1930 O.co2 1 <1>  -0.9000 
 19 C        3.2940     5.2860     0.3380 C.3   1 <1>  -0.0800 
 20 C        4.3670     5.7020     1.3490 C.3   1 <1>  -0.2400 
 21 H       -1.9150     0.3400     2.4530 H     1 <1>   0.1500 
 22 H       -2.6670     3.7240    -1.0260 H     1 <1>   0.1500 
 23 H       -4.0540     1.5730     2.3610 H     1 <1>   0.1500 
 24 H       -0.0860     4.6120     0.5440 H     1 <1>   0.0800 
 25 H        0.7380     5.3870    -0.7840 H     1 <1>   0.0800 
 26 H        2.4120     4.1130    -2.0640 H     1 <1>   0.0800 
 27 H        2.7760     2.4700    -1.5960 H     1 <1>   0.0800 
 28 H        1.9520     4.5370     1.8520 H     1 <1>   0.0800 
 29 H        1.6220     6.1730     1.3630 H     1 <1>   0.0800 
 30 H        4.5460     4.0080    -0.8560 H     1 <1>   0.0800 
 31 H        3.7800     3.1900     0.4740 H     1 <1>   0.0800 
 32 H        3.2520     6.0280    -0.4430 H     1 <1>   0.0800 
 33 H        4.4380     4.9820     2.1450 H     1 <1>   0.0800 
 34 H        4.1290     6.6620     1.7730 H     1 <1>   0.0800 
 35 H        5.3260     5.7750     0.8660 H     1 <1>   0.0800 
@<TRIPOS>BOND
  1   1   2  1   
  2   2   3  ar  
  3   2   4  ar  
  4   3   5  1   
  5   3   6  ar  
  6   4   7  ar  
  7   4  21  1   
  8   5   8  2   
  9   5   9  2   
 10   5  10  am  
 11   6  11  ar  
 12   6  22  1   
 13   7  11  ar  
 14   7  23  1   
 15  10  12  1   
 16  10  13  1   
 17  11  14  1   
 18  12  15  1   
 19  12  24  1   
 20  12  25  1   
 21  13  16  1   
 22  13  26  1   
 23  13  27  1   
 24  14  17  ar  
 25  14  18  ar  
 26  15  19  1   
 27  15  28  1   
 28  15  29  1   
 29  16  19  1   
 30  16  30  1   
 31  16  31  1   
 32  19  20  1   
 33  19  32  1   
 34  20  33  1   
 35  20  34  1   
 36  20  35  1   
@<TRIPOS>SUBSTRUCTURE
  1 ****   3 GROUP 4 **** **** 0

# MOE 2024.06 (io_trps.svl 2023.06)
