@<TRIPOS>MOLECULE
NONAME
46 47 1 0 0 
SMALL
USER_CHARGES


@<TRIPOS>ATOM
  1 CL       4.1260     2.8920    -1.8790 Cl    1 <1>  -0.1770 
  2 C        2.6730     2.8540    -0.9060 C.ar  1 <1>   0.1770 
  3 C        2.5040     1.9040     0.0880 C.ar  1 <1>   0.1900 
  4 C        1.6850     3.7910    -1.1370 C.ar  1 <1>  -0.1500 
  5 F        3.4400     1.0170     0.3140 F     1 <1>  -0.1900 
  6 C        1.3570     1.8700     0.8610 C.ar  1 <1>  -0.1500 
  7 C        0.5240     3.7820    -0.3690 C.ar  1 <1>   0.1990 
  8 C        0.3710     2.8130     0.6240 C.ar  1 <1>  -0.1500 
  9 N       -0.4560     4.7370    -0.6090 N.am  1 <1>  -0.6930 
 10 S       -0.9070     5.8810     0.6060 S.o2  1 <1>   1.3330 
 11 C       -1.5370     4.3600    -1.5750 C.3   1 <1>   0.2570 
 12 O       -1.6930     6.8840    -0.0730 O.2   1 <1>  -0.6500 
 13 O       -1.5020     5.1430     1.6940 O.2   1 <1>  -0.6500 
 14 C        0.6500     6.5930     1.0940 C.3   1 <1>  -0.1350 
 15 C       -2.5990     3.4180    -0.9780 C.2   1 <1>   0.5690 
 16 O       -2.4110     2.2320    -1.1170 O.2   1 <1>  -0.5700 
 17 N       -3.7170     3.8630    -0.3040 N.am  1 <1>  -0.6600 
 18 C       -4.2030     5.2790    -0.2580 C.3   1 <1>   0.1400 
 19 C       -4.4250     2.9380     0.6400 C.3   1 <1>   0.1400 
 20 C       -5.7390     5.3630    -0.3450 C.3   1 <1>   0.3430 
 21 C       -5.9530     3.0620     0.5260 C.3   1 <1>   0.3430 
 22 N       -6.4140     4.4890     0.6750 N.4   1 <1>  -0.9590 
 23 C       -7.8910     4.6240     0.5920 C.3   1 <1>   0.3430 
 24 C       -8.5310     4.0540     1.8520 C.3   1 <1>  -0.2400 
 25 H        1.8140     4.5260    -1.9090 H     1 <1>   0.1500 
 26 H        1.2410     1.1210     1.6240 H     1 <1>   0.1500 
 27 H       -0.5320     2.7940     1.2090 H     1 <1>   0.1500 
 28 H       -1.0840     3.8480    -2.4050 H     1 <1>   0.0800 
 29 H       -1.9960     5.2450    -1.9710 H     1 <1>   0.0800 
 30 H        1.1400     7.0290     0.2460 H     1 <1>   0.0800 
 31 H        1.2880     5.8410     1.5160 H     1 <1>   0.0800 
 32 H        0.4900     7.3580     1.8290 H     1 <1>   0.0800 
 33 H       -3.7900     5.8490    -1.0700 H     1 <1>   0.0800 
 34 H       -3.8830     5.7340     0.6630 H     1 <1>   0.0800 
 35 H       -4.1160     3.1670     1.6460 H     1 <1>   0.0800 
 36 H       -4.1500     1.9150     0.4480 H     1 <1>   0.0800 
 37 H       -6.0410     5.0640    -1.3350 H     1 <1>   0.0800 
 38 H       -6.0380     6.3890    -0.2040 H     1 <1>   0.0800 
 39 H       -6.4060     2.4470     1.2850 H     1 <1>   0.0800 
 40 H       -6.2570     2.6790    -0.4340 H     1 <1>   0.0800 
 41 H       -6.1140     4.8160     1.6050 H     1 <1>   0.4500 
 42 H       -8.2650     4.1120    -0.2810 H     1 <1>   0.0800 
 43 H       -8.1560     5.6670     0.5100 H     1 <1>   0.0800 
 44 H       -8.3770     2.9930     1.9290 H     1 <1>   0.0800 
 45 H       -9.5920     4.2250     1.8140 H     1 <1>   0.0800 
 46 H       -8.1490     4.5420     2.7310 H     1 <1>   0.0800 
@<TRIPOS>BOND
  1   1   2  1   
  2   2   3  ar  
  3   2   4  ar  
  4   3   5  1   
  5   3   6  ar  
  6   4   7  ar  
  7   4  25  1   
  8   6   8  ar  
  9   6  26  1   
 10   7   8  ar  
 11   7   9  1   
 12   8  27  1   
 13   9  10  am  
 14   9  11  1   
 15  10  12  2   
 16  10  13  2   
 17  10  14  1   
 18  11  15  1   
 19  11  28  1   
 20  11  29  1   
 21  14  30  1   
 22  14  31  1   
 23  14  32  1   
 24  15  16  2   
 25  15  17  am  
 26  17  18  1   
 27  17  19  1   
 28  18  20  1   
 29  18  33  1   
 30  18  34  1   
 31  19  21  1   
 32  19  35  1   
 33  19  36  1   
 34  20  22  1   
 35  20  37  1   
 36  20  38  1   
 37  21  22  1   
 38  21  39  1   
 39  21  40  1   
 40  22  23  1   
 41  22  41  1   
 42  23  24  1   
 43  23  42  1   
 44  23  43  1   
 45  24  44  1   
 46  24  45  1   
 47  24  46  1   
@<TRIPOS>SUBSTRUCTURE
  1 ****  15 GROUP 4 **** **** 0

# MOE 2024.06 (io_trps.svl 2023.06)
