@<TRIPOS>MOLECULE
NONAME
38 39 1 0 0 
SMALL
USER_CHARGES


@<TRIPOS>ATOM
  1 O       -1.0010     1.9780    -0.8700 O.2   1 <1>  -0.5700 
  2 C       -1.2190     2.9890    -0.2510 C.2   1 <1>   0.5690 
  3 N       -2.4610     3.4000     0.1440 N.am  1 <1>  -0.5470 
  4 C       -0.0370     3.8670     0.0980 C.3   1 <1>  -0.0990 
  5 C       -3.7230     2.8000    -0.0090 C.ar  1 <1>   0.1170 
  6 C        1.2550     3.0640    -0.0720 C.3   1 <1>   0.3430 
  7 C       -4.8720     3.5950     0.0410 C.ar  1 <1>  -0.1440 
  8 C       -3.8700     1.4270    -0.1880 C.ar  1 <1>  -0.1500 
  9 N        2.4650     3.8760     0.2570 N.4   1 <1>  -0.9590 
 10 C       -6.1230     3.0110    -0.0910 C.ar  1 <1>  -0.1500 
 11 C       -4.7910     5.1050     0.2330 C.3   1 <1>  -0.0970 
 12 C       -5.1200     0.8530    -0.3200 C.ar  1 <1>  -0.1500 
 13 C        2.7560     4.9570    -0.7210 C.3   1 <1>   0.3430 
 14 C        3.6910     3.0420     0.2980 C.3   1 <1>   0.3430 
 15 C       -6.2500     1.6460    -0.2720 C.ar  1 <1>  -0.1500 
 16 C        4.2290     5.2770    -0.5070 C.3   1 <1>  -0.1600 
 17 C        4.8330     4.0400     0.1620 C.3   1 <1>  -0.1600 
 18 H       -2.5170     4.3190     0.5770 H     1 <1>   0.3700 
 19 H       -0.1340     4.1950     1.1160 H     1 <1>   0.0800 
 20 H       -0.0460     4.7120    -0.5630 H     1 <1>   0.0800 
 21 H        1.3190     2.7030    -1.0870 H     1 <1>   0.0800 
 22 H        1.2100     2.2010     0.5750 H     1 <1>   0.0800 
 23 H       -3.0070     0.7890    -0.2210 H     1 <1>   0.1500 
 24 H        2.3600     4.3040     1.1860 H     1 <1>   0.4500 
 25 H       -7.0130     3.6150    -0.0550 H     1 <1>   0.1500 
 26 H       -4.1710     5.5430    -0.5290 H     1 <1>   0.0800 
 27 H       -4.3870     5.3340     1.2020 H     1 <1>   0.0800 
 28 H       -5.7660     5.5530     0.1630 H     1 <1>   0.0800 
 29 H       -5.2120    -0.2100    -0.4610 H     1 <1>   0.1500 
 30 H        2.1320     5.8220    -0.5620 H     1 <1>   0.0800 
 31 H        2.6110     4.5890    -1.7250 H     1 <1>   0.0800 
 32 H        3.7030     2.3670    -0.5430 H     1 <1>   0.0800 
 33 H        3.7620     2.4750     1.2140 H     1 <1>   0.0800 
 34 H       -7.2250     1.2030    -0.3750 H     1 <1>   0.1500 
 35 H        4.3280     6.1370     0.1330 H     1 <1>   0.0800 
 36 H        4.7050     5.4960    -1.4470 H     1 <1>   0.0800 
 37 H        5.6330     3.6180    -0.4220 H     1 <1>   0.0800 
 38 H        5.2180     4.2890     1.1360 H     1 <1>   0.0800 
@<TRIPOS>BOND
  1   1   2  2   
  2   2   3  am  
  3   2   4  1   
  4   3   5  1   
  5   3  18  1   
  6   4   6  1   
  7   4  19  1   
  8   4  20  1   
  9   5   7  ar  
 10   5   8  ar  
 11   6   9  1   
 12   6  21  1   
 13   6  22  1   
 14   7  10  ar  
 15   7  11  1   
 16   8  12  ar  
 17   8  23  1   
 18   9  13  1   
 19   9  14  1   
 20   9  24  1   
 21  10  15  ar  
 22  10  25  1   
 23  11  26  1   
 24  11  27  1   
 25  11  28  1   
 26  12  15  ar  
 27  12  29  1   
 28  13  16  1   
 29  13  30  1   
 30  13  31  1   
 31  14  17  1   
 32  14  32  1   
 33  14  33  1   
 34  15  34  1   
 35  16  17  1   
 36  16  35  1   
 37  16  36  1   
 38  17  37  1   
 39  17  38  1   
@<TRIPOS>SUBSTRUCTURE
  1 ****   2 GROUP 4 **** **** 0

# MOE 2024.06 (io_trps.svl 2023.06)
