@<TRIPOS>MOLECULE
NONAME
53 55 1 0 0 
SMALL
USER_CHARGES


@<TRIPOS>ATOM
  1 O       -7.2630     2.9420    -0.0240 O.2   1 <1>  -0.5700 
  2 C       -7.8220     1.8750     0.0270 C.2   1 <1>   0.6590 
  3 O       -7.1210     0.7470    -0.0960 O.3   1 <1>  -0.4300 
  4 C       -9.3420     1.7270     0.2320 C.3   1 <1>   0.0610 
  5 C       -5.7250     0.7890    -0.2970 C.3   1 <1>   0.1200 
  6 C       -9.9740     0.9780    -0.9660 C.3   1 <1>  -0.1600 
  7 C      -10.0330     3.1100     0.3550 C.3   1 <1>  -0.1600 
  8 C       -9.6340     0.9260     1.5240 C.3   1 <1>  -0.1600 
  9 C       -5.1960    -0.6470    -0.3650 C.3   1 <1>   0.3430 
 10 C      -11.4940     0.8040    -0.7740 C.3   1 <1>   0.0000 
 11 C      -11.5520     2.9610     0.5600 C.3   1 <1>   0.0000 
 12 C      -11.1510     0.7520     1.7400 C.3   1 <1>   0.0000 
 13 N       -3.7230    -0.7070    -0.6670 N.4   1 <1>  -0.9590 
 14 C      -12.1420     2.1970    -0.6420 C.3   1 <1>  -0.1600 
 15 C      -11.7450     0.0120     0.5250 C.3   1 <1>  -0.1600 
 16 C      -12.0950     0.0570    -1.9720 C.3   1 <1>  -0.2400 
 17 C      -11.8030     2.1450     1.8430 C.3   1 <1>  -0.1600 
 18 C      -12.2060     4.3430     0.6780 C.3   1 <1>  -0.2400 
 19 C      -11.4130    -0.0470     3.0230 C.3   1 <1>  -0.2400 
 20 C       -3.3070    -2.1190    -0.9330 C.3   1 <1>   0.2630 
 21 C       -2.8910    -0.1200     0.4330 C.3   1 <1>   0.2630 
 22 H       -5.2910     1.3280     0.5280 H     1 <1>   0.0800 
 23 H       -5.5420     1.3140    -1.2190 H     1 <1>   0.0800 
 24 H       -9.7850     1.5280    -1.8720 H     1 <1>   0.0800 
 25 H       -9.5170     0.0100    -1.0720 H     1 <1>   0.0800 
 26 H       -9.8430     3.6860    -0.5340 H     1 <1>   0.0800 
 27 H       -9.6090     3.6510     1.1840 H     1 <1>   0.0800 
 28 H       -9.2060     1.4400     2.3680 H     1 <1>   0.0800 
 29 H       -9.1710    -0.0430     1.4640 H     1 <1>   0.0800 
 30 H       -5.7370    -1.1670    -1.1390 H     1 <1>   0.0800 
 31 H       -5.3930    -1.1380     0.5740 H     1 <1>   0.0800 
 32 H       -3.5520    -0.1620    -1.5290 H     1 <1>   0.4500 
 33 H      -13.2050     2.0890    -0.5130 H     1 <1>   0.0800 
 34 H      -11.9800     2.7600    -1.5440 H     1 <1>   0.0800 
 35 H      -11.3050    -0.9660     0.4440 H     1 <1>   0.0800 
 36 H      -12.8040    -0.1190     0.6660 H     1 <1>   0.0800 
 37 H      -11.9220     0.6030    -2.8820 H     1 <1>   0.0800 
 38 H      -13.1560    -0.0630    -1.8450 H     1 <1>   0.0800 
 39 H      -11.6520    -0.9180    -2.0700 H     1 <1>   0.0800 
 40 H      -11.4010     2.6720     2.6910 H     1 <1>   0.0800 
 41 H      -12.8620     2.0370     2.0000 H     1 <1>   0.0800 
 42 H      -11.7980     4.8830     1.5140 H     1 <1>   0.0800 
 43 H      -13.2670     4.2470     0.8210 H     1 <1>   0.0800 
 44 H      -12.0340     4.9190    -0.2140 H     1 <1>   0.0800 
 45 H      -12.4700    -0.1670     3.1810 H     1 <1>   0.0800 
 46 H      -10.9980     0.4620     3.8750 H     1 <1>   0.0800 
 47 H      -10.9670    -1.0240     2.9590 H     1 <1>   0.0800 
 48 H       -3.4690    -2.7300    -0.0590 H     1 <1>   0.0800 
 49 H       -2.2600    -2.1590    -1.1910 H     1 <1>   0.0800 
 50 H       -3.8760    -2.5310    -1.7510 H     1 <1>   0.0800 
 51 H       -3.0580    -0.6530     1.3550 H     1 <1>   0.0800 
 52 H       -3.1390     0.9180     0.5840 H     1 <1>   0.0800 
 53 H       -1.8430    -0.1850     0.1840 H     1 <1>   0.0800 
@<TRIPOS>BOND
  1   1   2  2   
  2   2   3  1   
  3   2   4  1   
  4   3   5  1   
  5   4   6  1   
  6   4   7  1   
  7   4   8  1   
  8   5   9  1   
  9   5  22  1   
 10   5  23  1   
 11   6  10  1   
 12   6  24  1   
 13   6  25  1   
 14   7  11  1   
 15   7  26  1   
 16   7  27  1   
 17   8  12  1   
 18   8  28  1   
 19   8  29  1   
 20   9  13  1   
 21   9  30  1   
 22   9  31  1   
 23  10  14  1   
 24  10  15  1   
 25  10  16  1   
 26  11  14  1   
 27  11  17  1   
 28  11  18  1   
 29  12  15  1   
 30  12  17  1   
 31  12  19  1   
 32  13  20  1   
 33  13  21  1   
 34  13  32  1   
 35  14  33  1   
 36  14  34  1   
 37  15  35  1   
 38  15  36  1   
 39  16  37  1   
 40  16  38  1   
 41  16  39  1   
 42  17  40  1   
 43  17  41  1   
 44  18  42  1   
 45  18  43  1   
 46  18  44  1   
 47  19  45  1   
 48  19  46  1   
 49  19  47  1   
 50  20  48  1   
 51  20  49  1   
 52  20  50  1   
 53  21  51  1   
 54  21  52  1   
 55  21  53  1   
@<TRIPOS>SUBSTRUCTURE
  1 ****   4 GROUP 4 **** **** 0

# MOE 2024.06 (io_trps.svl 2023.06)
