@<TRIPOS>MOLECULE
NONAME
39 40 1 0 0 
SMALL
USER_CHARGES


@<TRIPOS>ATOM
  1 O        0.1640     0.2620    -0.1460 O.2   1 <1>  -0.5700 
  2 C        0.7080     1.3220     0.0970 C.2   1 <1>   0.5440 
  3 N       -0.0730     2.3810     0.4610 N.am  1 <1>  -0.7300 
  4 C        2.1530     1.4580     0.0070 C.ar  1 <1>   0.0860 
  5 C       -1.5530     2.4160     0.4830 C.3   1 <1>   0.1400 
  6 C        2.9840     0.3400     0.0950 C.ar  1 <1>  -0.1500 
  7 C        2.7740     2.6980    -0.1740 C.ar  1 <1>  -0.1500 
  8 C       -2.0530     3.7140    -0.1700 C.3   1 <1>   0.2000 
  9 C        4.3600     0.4500     0.0210 C.ar  1 <1>  -0.1500 
 10 C        4.1490     2.8170    -0.2500 C.ar  1 <1>  -0.1500 
 11 O       -1.3830     4.8160     0.3620 O.3   1 <1>  -0.5600 
 12 C       -3.5250     4.0110     0.0720 C.3   1 <1>  -0.1600 
 13 C        4.9560     1.6900    -0.1430 C.ar  1 <1>   0.0830 
 14 C       -2.1470     5.9730     0.2160 C.3   1 <1>   0.1200 
 15 C       -3.5800     5.5230    -0.0630 C.3   1 <1>  -0.1600 
 16 O        6.3100     1.7250    -0.2130 O.3   1 <1>  -0.2320 
 17 C        7.1370     2.7180     0.1140 C.2   1 <1>   0.6590 
 18 O        6.7740     3.7530     0.6120 O.2   1 <1>  -0.5700 
 19 C        8.6040     2.4380    -0.1860 C.3   1 <1>  -0.0990 
 20 C        9.5600     3.6020     0.1320 C.3   1 <1>  -0.2400 
 21 H        0.3420     3.2910     0.6770 H     1 <1>   0.3700 
 22 H       -1.8870     2.3720     1.5050 H     1 <1>   0.0800 
 23 H       -1.9560     1.5660    -0.0410 H     1 <1>   0.0800 
 24 H        2.5340    -0.6300     0.2250 H     1 <1>   0.1500 
 25 H        2.1740     3.5850    -0.2650 H     1 <1>   0.1500 
 26 H       -1.8510     3.6920    -1.2270 H     1 <1>   0.0800 
 27 H        4.9750    -0.4290     0.0930 H     1 <1>   0.1500 
 28 H        4.5810     3.7910    -0.3980 H     1 <1>   0.1500 
 29 H       -3.7990     3.7200     1.0710 H     1 <1>   0.0800 
 30 H       -4.1600     3.5070    -0.6350 H     1 <1>   0.0800 
 31 H       -1.7460     6.5450    -0.6030 H     1 <1>   0.0800 
 32 H       -2.0750     6.5380     1.1290 H     1 <1>   0.0800 
 33 H       -4.2750     5.9660     0.6290 H     1 <1>   0.0800 
 34 H       -3.8540     5.8060    -1.0640 H     1 <1>   0.0800 
 35 H        8.6890     2.1900    -1.2280 H     1 <1>   0.0800 
 36 H        8.9000     1.5750     0.3830 H     1 <1>   0.0800 
 37 H        9.2920     4.4720    -0.4410 H     1 <1>   0.0800 
 38 H       10.5730     3.3290    -0.1070 H     1 <1>   0.0800 
 39 H        9.5080     3.8520     1.1780 H     1 <1>   0.0800 
@<TRIPOS>BOND
  1   1   2  2   
  2   2   3  am  
  3   2   4  1   
  4   3   5  1   
  5   3  21  1   
  6   4   6  ar  
  7   4   7  ar  
  8   5   8  1   
  9   5  22  1   
 10   5  23  1   
 11   6   9  ar  
 12   6  24  1   
 13   7  10  ar  
 14   7  25  1   
 15   8  11  1   
 16   8  12  1   
 17   8  26  1   
 18   9  13  ar  
 19   9  27  1   
 20  10  13  ar  
 21  10  28  1   
 22  11  14  1   
 23  12  15  1   
 24  12  29  1   
 25  12  30  1   
 26  13  16  1   
 27  14  15  1   
 28  14  31  1   
 29  14  32  1   
 30  15  33  1   
 31  15  34  1   
 32  16  17  1   
 33  17  18  2   
 34  17  19  1   
 35  19  20  1   
 36  19  35  1   
 37  19  36  1   
 38  20  37  1   
 39  20  38  1   
 40  20  39  1   
@<TRIPOS>SUBSTRUCTURE
  1 ****   7 GROUP 4 **** **** 0

# MOE 2024.06 (io_trps.svl 2023.06)
