@<TRIPOS>MOLECULE
NONAME
42 44 1 0 0 
SMALL
USER_CHARGES


@<TRIPOS>ATOM
  1 CL      -0.4120    -0.3360    -1.5870 Cl    1 <1>  -0.1770 
  2 C        1.0690    -0.8850    -0.8390 C.ar  1 <1>   0.1770 
  3 C        1.3610    -0.5440     0.4700 C.ar  1 <1>  -0.1440 
  4 C        1.9320    -1.6620    -1.5830 C.ar  1 <1>  -0.1500 
  5 C        2.5500    -1.0020     1.0140 C.ar  1 <1>  -0.1500 
  6 C        0.4100     0.3080     1.2960 C.3   1 <1>  -0.0960 
  7 C        3.1190    -2.1170    -1.0280 C.ar  1 <1>  -0.1430 
  8 C        3.4500    -1.7850     0.2920 C.ar  1 <1>  -0.0090 
  9 C        4.0300    -2.9770    -1.8960 C.3   1 <1>  -0.0960 
 10 S        5.0010    -2.3110     1.0970 S.o2  1 <1>   1.4470 
 11 O        5.1500    -3.7460     0.9870 O.2   1 <1>  -0.6500 
 12 O        5.1090    -1.6990     2.4050 O.2   1 <1>  -0.6500 
 13 N        6.2100    -1.6000     0.1420 N.am  1 <1>  -0.8490 
 14 C        6.2260    -0.1390     0.2690 C.3   1 <1>   0.1960 
 15 C        7.5310    -2.1590     0.4530 C.3   1 <1>   0.1960 
 16 C        7.1870     0.4580    -0.7560 C.3   1 <1>  -0.1600 
 17 C        8.5590    -1.6490    -0.5540 C.3   1 <1>  -0.1600 
 18 C        8.5820    -0.1280    -0.5590 C.3   1 <1>   0.5600 
 19 O        9.4440     0.3140    -1.5500 O.3   1 <1>  -0.5600 
 20 O        9.1270     0.3220     0.6370 O.3   1 <1>  -0.5600 
 21 C       10.0780     1.4600    -1.1160 C.3   1 <1>   0.1200 
 22 C        9.9260     1.4240     0.3930 C.3   1 <1>   0.1200 
 23 H        1.6640    -1.9060    -2.5950 H     1 <1>   0.1500 
 24 H        2.7910    -0.7450     2.0330 H     1 <1>   0.1500 
 25 H       -0.5430    -0.1840     1.3810 H     1 <1>   0.0800 
 26 H        0.2640     1.2630     0.8220 H     1 <1>   0.0800 
 27 H        0.7960     0.4740     2.2860 H     1 <1>   0.0800 
 28 H        3.5860    -3.1660    -2.8570 H     1 <1>   0.0800 
 29 H        4.2110    -3.9270    -1.4260 H     1 <1>   0.0800 
 30 H        4.9710    -2.4830    -2.0600 H     1 <1>   0.0800 
 31 H        6.5280     0.1430     1.2660 H     1 <1>   0.0800 
 32 H        5.2400     0.2560     0.0910 H     1 <1>   0.0800 
 33 H        7.4980    -3.2350     0.3940 H     1 <1>   0.0800 
 34 H        7.8210    -1.8860     1.4550 H     1 <1>   0.0800 
 35 H        7.2110     1.5260    -0.6540 H     1 <1>   0.0800 
 36 H        6.8350     0.2150    -1.7420 H     1 <1>   0.0800 
 37 H        8.2930    -2.0050    -1.5320 H     1 <1>   0.0800 
 38 H        9.5350    -2.0220    -0.3060 H     1 <1>   0.0800 
 39 H        9.5860     2.3160    -1.5420 H     1 <1>   0.0800 
 40 H       11.1090     1.4320    -1.4220 H     1 <1>   0.0800 
 41 H       10.8710     1.2830     0.8870 H     1 <1>   0.0800 
 42 H        9.4370     2.3070     0.7660 H     1 <1>   0.0800 
@<TRIPOS>BOND
  1   1   2  1   
  2   2   3  ar  
  3   2   4  ar  
  4   3   5  ar  
  5   3   6  1   
  6   4   7  ar  
  7   4  23  1   
  8   5   8  ar  
  9   5  24  1   
 10   6  25  1   
 11   6  26  1   
 12   6  27  1   
 13   7   8  ar  
 14   7   9  1   
 15   8  10  1   
 16   9  28  1   
 17   9  29  1   
 18   9  30  1   
 19  10  11  2   
 20  10  12  2   
 21  10  13  am  
 22  13  14  1   
 23  13  15  1   
 24  14  16  1   
 25  14  31  1   
 26  14  32  1   
 27  15  17  1   
 28  15  33  1   
 29  15  34  1   
 30  16  18  1   
 31  16  35  1   
 32  16  36  1   
 33  17  18  1   
 34  17  37  1   
 35  17  38  1   
 36  18  19  1   
 37  18  20  1   
 38  19  21  1   
 39  20  22  1   
 40  21  22  1   
 41  21  39  1   
 42  21  40  1   
 43  22  41  1   
 44  22  42  1   
@<TRIPOS>SUBSTRUCTURE
  1 ****  13 GROUP 4 **** **** 0

# MOE 2024.06 (io_trps.svl 2023.06)
