@<TRIPOS>MOLECULE
NONAME
48 49 1 0 0 
SMALL
USER_CHARGES


@<TRIPOS>ATOM
  1 O        2.1960     1.3050    -1.7570 O.2   1 <1>  -0.5700 
  2 C        1.9360     1.1370    -0.5920 C.2   1 <1>   0.6590 
  3 O        1.3090     2.0590     0.1320 O.3   1 <1>  -0.4300 
  4 C        2.3230    -0.1740     0.1350 C.3   1 <1>   0.2510 
  5 C        0.9140     3.3040    -0.3970 C.3   1 <1>   0.2000 
  6 N        1.8370    -0.2940     1.5270 N.3   1 <1>  -0.9900 
  7 C        3.8410    -0.3730     0.1450 C.3   1 <1>  -0.0990 
  8 C        0.7710     4.2850     0.7730 C.3   1 <1>  -0.1600 
  9 C       -0.4140     3.1350    -1.1470 C.3   1 <1>  -0.1600 
 10 C        4.5360     0.8560     0.6810 C.2   1 <1>   0.6590 
 11 C        0.2410     5.6430     0.2930 C.3   1 <1>  -0.1600 
 12 C       -0.9530     4.4910    -1.6260 C.3   1 <1>  -0.1600 
 13 O        4.4450     1.1780     1.8380 O.2   1 <1>  -0.5700 
 14 O        5.1990     1.5730    -0.2130 O.3   1 <1>  -0.4300 
 15 C       -1.0860     5.4820    -0.4610 C.3   1 <1>  -0.1600 
 16 C        5.7710     2.8230     0.0900 C.3   1 <1>   0.2000 
 17 C        4.6670     3.8890     0.0410 C.3   1 <1>  -0.1600 
 18 C        6.8640     3.1000    -0.9470 C.3   1 <1>  -0.1600 
 19 C        5.2470     5.3010     0.2080 C.3   1 <1>  -0.1600 
 20 C        7.4460     4.5110    -0.7760 C.3   1 <1>  -0.1600 
 21 C        6.3420     5.5770    -0.8310 C.3   1 <1>  -0.1600 
 22 H        1.8830    -0.9780    -0.4290 H     1 <1>   0.0800 
 23 H        1.6810     3.6540    -1.0690 H     1 <1>   0.0800 
 24 H        2.4270     0.3180     2.1170 H     1 <1>   0.3600 
 25 H        0.8920     0.1080     1.5750 H     1 <1>   0.3600 
 26 H        4.1800    -0.5500    -0.8590 H     1 <1>   0.0800 
 27 H        4.0990    -1.2270     0.7420 H     1 <1>   0.0800 
 28 H        1.7260     4.4230     1.2470 H     1 <1>   0.0800 
 29 H        0.0870     3.8760     1.4960 H     1 <1>   0.0800 
 30 H       -1.1380     2.6810    -0.4920 H     1 <1>   0.0800 
 31 H       -0.2700     2.4950    -1.9990 H     1 <1>   0.0800 
 32 H        0.9670     6.1010    -0.3570 H     1 <1>   0.0800 
 33 H        0.0980     6.2940     1.1380 H     1 <1>   0.0800 
 34 H       -1.9120     4.3530    -2.0950 H     1 <1>   0.0800 
 35 H       -0.2830     4.8990    -2.3650 H     1 <1>   0.0800 
 36 H       -1.4050     6.4390    -0.8380 H     1 <1>   0.0800 
 37 H       -1.8420     5.1290     0.2200 H     1 <1>   0.0800 
 38 H        6.2080     2.7780     1.0750 H     1 <1>   0.0800 
 39 H        3.9600     3.7050     0.8290 H     1 <1>   0.0800 
 40 H        4.1580     3.8270    -0.9050 H     1 <1>   0.0800 
 41 H        6.4450     3.0110    -1.9340 H     1 <1>   0.0800 
 42 H        7.6490     2.3740    -0.8410 H     1 <1>   0.0800 
 43 H        5.6610     5.4000     1.1970 H     1 <1>   0.0800 
 44 H        4.4600     6.0280     0.1060 H     1 <1>   0.0800 
 45 H        8.1670     4.7000    -1.5530 H     1 <1>   0.0800 
 46 H        7.9560     4.5750     0.1700 H     1 <1>   0.0800 
 47 H        6.7700     6.5480    -0.6540 H     1 <1>   0.0800 
 48 H        5.9050     5.5850    -1.8150 H     1 <1>   0.0800 
@<TRIPOS>BOND
  1   1   2  2   
  2   2   3  1   
  3   2   4  1   
  4   3   5  1   
  5   4   6  1   
  6   4   7  1   
  7   4  22  1   
  8   5   8  1   
  9   5   9  1   
 10   5  23  1   
 11   6  24  1   
 12   6  25  1   
 13   7  10  1   
 14   7  26  1   
 15   7  27  1   
 16   8  11  1   
 17   8  28  1   
 18   8  29  1   
 19   9  12  1   
 20   9  30  1   
 21   9  31  1   
 22  10  13  2   
 23  10  14  1   
 24  11  15  1   
 25  11  32  1   
 26  11  33  1   
 27  12  15  1   
 28  12  34  1   
 29  12  35  1   
 30  14  16  1   
 31  15  36  1   
 32  15  37  1   
 33  16  17  1   
 34  16  18  1   
 35  16  38  1   
 36  17  19  1   
 37  17  39  1   
 38  17  40  1   
 39  18  20  1   
 40  18  41  1   
 41  18  42  1   
 42  19  21  1   
 43  19  43  1   
 44  19  44  1   
 45  20  21  1   
 46  20  45  1   
 47  20  46  1   
 48  21  47  1   
 49  21  48  1   
@<TRIPOS>SUBSTRUCTURE
  1 ****   3 GROUP 4 **** **** 0

# MOE 2024.06 (io_trps.svl 2023.06)
