@<TRIPOS>MOLECULE
NONAME
38 39 1 0 0 
SMALL
USER_CHARGES


@<TRIPOS>ATOM
  1 S        0.0540    -0.5480     1.6150 S.3   1 <1>  -0.2860 
  2 C       -1.3250    -1.2050     0.6740 C.2   1 <1>   0.2420 
  3 C        0.9900    -2.0540     2.1790 C.3   1 <1>   0.1310 
  4 N       -1.5140    -2.4470     0.4020 N.2   1 <1>  -0.3380 
  5 N       -2.2600    -0.4110     0.1750 N.pl3 1 <1>   0.0330 
  6 C        2.4530    -1.9620     1.7660 C.2   1 <1>   0.5690 
  7 N       -2.6380    -2.4920    -0.3230 N.2   1 <1>  -0.3380 
  8 C       -3.0670    -1.2780    -0.4450 C.2   1 <1>   0.0060 
  9 O        3.2310    -1.6240     2.6280 O.2   1 <1>  -0.5700 
 10 N        2.8690    -2.2740     0.4820 N.am  1 <1>  -0.4770 
 11 C       -4.3240    -0.8740    -1.1950 C.3   1 <1>   0.0200 
 12 C        4.2200    -2.1960     0.0970 C.ar  1 <1>   0.1170 
 13 C        1.9340    -2.7530    -0.5720 C.3   1 <1>   0.1400 
 14 C       -5.3730    -0.2740    -0.2520 C.3   1 <1>  -0.2400 
 15 C        5.1670    -3.0460     0.6570 C.ar  1 <1>  -0.1500 
 16 C        4.6340    -1.2760    -0.8600 C.ar  1 <1>  -0.1500 
 17 C        1.8120    -4.2750    -0.5110 C.3   1 <1>  -0.2400 
 18 C        6.4910    -2.9890     0.2630 C.ar  1 <1>  -0.1500 
 19 C        5.9580    -1.2160    -1.2580 C.ar  1 <1>  -0.1500 
 20 C        6.8880    -2.0750    -0.6980 C.ar  1 <1>  -0.1500 
 21 H        0.5230    -2.9290     1.7770 H     1 <1>   0.0800 
 22 H        0.9140    -2.0760     3.2500 H     1 <1>   0.0800 
 23 H       -2.3270     0.6030     0.2610 H     1 <1>   0.2700 
 24 H       -4.7370    -1.7450    -1.6740 H     1 <1>   0.0800 
 25 H       -4.0710    -0.1650    -1.9630 H     1 <1>   0.0800 
 26 H        2.3100    -2.4700    -1.5400 H     1 <1>   0.0800 
 27 H        0.9700    -2.2950    -0.4610 H     1 <1>   0.0800 
 28 H       -5.6210    -0.9840     0.5180 H     1 <1>   0.0800 
 29 H       -6.2670    -0.0380    -0.8000 H     1 <1>   0.0800 
 30 H       -5.0040     0.6240     0.2090 H     1 <1>   0.0800 
 31 H        4.8570    -3.7480     1.4090 H     1 <1>   0.1500 
 32 H        3.9150    -0.6030    -1.2870 H     1 <1>   0.1500 
 33 H        2.7700    -4.7320    -0.6840 H     1 <1>   0.0800 
 34 H        1.1330    -4.6100    -1.2740 H     1 <1>   0.0800 
 35 H        1.4310    -4.5930     0.4420 H     1 <1>   0.0800 
 36 H        7.2130    -3.6530     0.7060 H     1 <1>   0.1500 
 37 H        6.2660    -0.5000    -1.9990 H     1 <1>   0.1500 
 38 H        7.9190    -2.0290    -1.0050 H     1 <1>   0.1500 
@<TRIPOS>BOND
  1   1   2  1   
  2   1   3  1   
  3   2   4  2   
  4   2   5  1   
  5   3   6  1   
  6   3  21  1   
  7   3  22  1   
  8   4   7  1   
  9   5   8  1   
 10   5  23  1   
 11   6   9  2   
 12   6  10  am  
 13   7   8  2   
 14   8  11  1   
 15  10  12  1   
 16  10  13  1   
 17  11  14  1   
 18  11  24  1   
 19  11  25  1   
 20  12  15  ar  
 21  12  16  ar  
 22  13  17  1   
 23  13  26  1   
 24  13  27  1   
 25  14  28  1   
 26  14  29  1   
 27  14  30  1   
 28  15  18  ar  
 29  15  31  1   
 30  16  19  ar  
 31  16  32  1   
 32  17  33  1   
 33  17  34  1   
 34  17  35  1   
 35  18  20  ar  
 36  18  36  1   
 37  19  20  ar  
 38  19  37  1   
 39  20  38  1   
@<TRIPOS>SUBSTRUCTURE
  1 ****  13 GROUP 4 **** **** 0

# MOE 2024.06 (io_trps.svl 2023.06)
