@<TRIPOS>MOLECULE
NONAME
29 30 1 0 0 
SMALL
USER_CHARGES


@<TRIPOS>ATOM
  1 S       -0.0900    -0.2700    -0.3070 S.3   1 <1>  -0.4600 
  2 C        1.4770     0.5280    -0.7420 C.3   1 <1>   0.0700 
  3 C        0.3550    -2.0260    -0.2850 C.3   1 <1>   0.0700 
  4 C        2.5660     0.0500     0.2270 C.3   1 <1>   0.3430 
  5 C        1.5680    -2.2220     0.6340 C.3   1 <1>   0.3430 
  6 N        2.7690    -1.4430     0.1770 N.4   1 <1>  -0.9590 
  7 C        3.9850    -1.8490     0.9360 C.3   1 <1>   0.4860 
  8 C        5.2080    -1.2390     0.2820 C.ar  1 <1>  -0.1440 
  9 C        5.5680    -1.5930    -1.0100 C.ar  1 <1>   0.1900 
 10 C        6.0000    -0.3160     0.9500 C.ar  1 <1>  -0.1500 
 11 F        4.8250    -2.4520    -1.6580 F     1 <1>  -0.1900 
 12 C        6.6720    -1.0640    -1.6480 C.ar  1 <1>  -0.1500 
 13 C        7.1120     0.2290     0.3240 C.ar  1 <1>  -0.1500 
 14 C        7.4490    -0.1420    -0.9690 C.ar  1 <1>  -0.1500 
 15 H        1.3230     1.5900    -0.6590 H     1 <1>   0.0800 
 16 H        1.7070     0.2770    -1.7620 H     1 <1>   0.0800 
 17 H        0.5620    -2.3290    -1.2960 H     1 <1>   0.0800 
 18 H       -0.5030    -2.5620     0.0830 H     1 <1>   0.0800 
 19 H        2.2960     0.3480     1.2270 H     1 <1>   0.0800 
 20 H        3.4870     0.5500    -0.0290 H     1 <1>   0.0800 
 21 H        1.8080    -3.2730     0.6600 H     1 <1>   0.0800 
 22 H        1.2970    -1.9200     1.6330 H     1 <1>   0.0800 
 23 H        2.9650    -1.6970    -0.8040 H     1 <1>   0.4500 
 24 H        4.0850    -2.9230     0.9250 H     1 <1>   0.0800 
 25 H        3.9120    -1.5230     1.9600 H     1 <1>   0.0800 
 26 H        5.7720    -0.0110     1.9580 H     1 <1>   0.1500 
 27 H        6.9200    -1.3650    -2.6510 H     1 <1>   0.1500 
 28 H        7.7270     0.9440     0.8470 H     1 <1>   0.1500 
 29 H        8.3170     0.2860    -1.4430 H     1 <1>   0.1500 
@<TRIPOS>BOND
  1   1   2  1   
  2   1   3  1   
  3   2   4  1   
  4   2  15  1   
  5   2  16  1   
  6   3   5  1   
  7   3  17  1   
  8   3  18  1   
  9   4   6  1   
 10   4  19  1   
 11   4  20  1   
 12   5   6  1   
 13   5  21  1   
 14   5  22  1   
 15   6   7  1   
 16   6  23  1   
 17   7   8  1   
 18   7  24  1   
 19   7  25  1   
 20   8   9  ar  
 21   8  10  ar  
 22   9  11  1   
 23   9  12  ar  
 24  10  13  ar  
 25  10  26  1   
 26  12  14  ar  
 27  12  27  1   
 28  13  14  ar  
 29  13  28  1   
 30  14  29  1   
@<TRIPOS>SUBSTRUCTURE
  1 ****   6 GROUP 4 **** **** 0

# MOE 2024.06 (io_trps.svl 2023.06)
