@<TRIPOS>MOLECULE
NONAME
50 52 1 0 0 
SMALL
USER_CHARGES


@<TRIPOS>ATOM
  1 CL       1.2060    -0.5010     1.0510 Cl    1 <1>  -0.1770 
  2 C        2.6250     0.5000     0.8100 C.ar  1 <1>   0.1770 
  3 C        2.4970     1.7970     0.3240 C.ar  1 <1>   0.0820 
  4 C        3.8580    -0.0420     1.1150 C.ar  1 <1>  -0.1500 
  5 O        1.2460     2.2600     0.0410 O.3   1 <1>  -0.3630 
  6 C        3.6480     2.5590     0.1490 C.ar  1 <1>  -0.1500 
  7 C        5.0030     0.7230     0.9320 C.ar  1 <1>   0.0830 
  8 C        1.0540     3.5360    -0.5310 C.3   1 <1>   0.0400 
  9 C        4.8990     2.0320     0.4460 C.ar  1 <1>   0.1170 
 10 O        6.2610     0.2550     1.2000 O.3   1 <1>  -0.3630 
 11 N        6.0790     2.7710     0.2790 N.am  1 <1>  -0.5470 
 12 C        6.4710    -1.0510     1.6910 C.3   1 <1>   0.0400 
 13 C        6.4370     3.8150    -0.5200 C.2   1 <1>   0.5690 
 14 O        5.6590     4.4720    -1.1710 O.2   1 <1>  -0.5700 
 15 C        7.9360     4.1260    -0.5850 C.3   1 <1>   0.1710 
 16 N        8.7910     3.0060    -0.0880 N.3   1 <1>  -0.8100 
 17 C       10.1680     3.4460     0.2200 C.3   1 <1>   0.1100 
 18 C        8.8420     1.8780    -1.0540 C.3   1 <1>   0.1100 
 19 C       11.0230     2.2950     0.7910 C.3   1 <1>   0.2090 
 20 C        9.6530     0.6930    -0.5020 C.3   1 <1>   0.2090 
 21 N       11.0340     1.1180    -0.1240 N.pl3 1 <1>  -0.8380 
 22 C       11.9590     0.1310     0.1580 C.ar  1 <1>   0.4100 
 23 N       11.5110    -0.9950     0.7050 N.ar  1 <1>  -0.6200 
 24 C       13.3030     0.3570    -0.1280 C.ar  1 <1>  -0.1500 
 25 C       12.4270    -1.9100     0.9740 C.ar  1 <1>   0.1600 
 26 C       14.2450    -0.6030     0.1580 C.ar  1 <1>  -0.1500 
 27 C       13.7820    -1.7710     0.7280 C.ar  1 <1>  -0.1500 
 28 H        3.8930    -1.0480     1.4850 H     1 <1>   0.1500 
 29 H        3.5920     3.5650    -0.2140 H     1 <1>   0.1500 
 30 H        0.0010     3.6700    -0.7000 H     1 <1>   0.0800 
 31 H        1.5830     3.5850    -1.4660 H     1 <1>   0.0800 
 32 H        1.4120     4.2840     0.1540 H     1 <1>   0.0800 
 33 H        6.9090     2.3140     0.6830 H     1 <1>   0.3700 
 34 H        7.5290    -1.1920     1.8260 H     1 <1>   0.0800 
 35 H        6.0980    -1.7600     0.9730 H     1 <1>   0.0800 
 36 H        5.9670    -1.1550     2.6360 H     1 <1>   0.0800 
 37 H        8.1030     4.9980     0.0230 H     1 <1>   0.0800 
 38 H        8.2010     4.3710    -1.5980 H     1 <1>   0.0800 
 39 H       10.1360     4.2410     0.9440 H     1 <1>   0.0800 
 40 H       10.6420     3.8210    -0.6710 H     1 <1>   0.0800 
 41 H        9.2930     2.2030    -1.9760 H     1 <1>   0.0800 
 42 H        7.8480     1.5320    -1.2750 H     1 <1>   0.0800 
 43 H       10.6210     1.9960     1.7440 H     1 <1>   0.0800 
 44 H       12.0290     2.6420     0.9480 H     1 <1>   0.0800 
 45 H        9.7110    -0.0830    -1.2450 H     1 <1>   0.0800 
 46 H        9.1510     0.2920     0.3620 H     1 <1>   0.0800 
 47 H       13.5830     1.2890    -0.5790 H     1 <1>   0.1500 
 48 H       12.0780    -2.8260     1.4170 H     1 <1>   0.1500 
 49 H       15.2890    -0.4530    -0.0540 H     1 <1>   0.1500 
 50 H       14.4620    -2.5640     0.9770 H     1 <1>   0.1500 
@<TRIPOS>BOND
  1   1   2  1   
  2   2   3  ar  
  3   2   4  ar  
  4   3   5  1   
  5   3   6  ar  
  6   4   7  ar  
  7   4  28  1   
  8   5   8  1   
  9   6   9  ar  
 10   6  29  1   
 11   7   9  ar  
 12   7  10  1   
 13   8  30  1   
 14   8  31  1   
 15   8  32  1   
 16   9  11  1   
 17  10  12  1   
 18  11  13  am  
 19  11  33  1   
 20  12  34  1   
 21  12  35  1   
 22  12  36  1   
 23  13  14  2   
 24  13  15  1   
 25  15  16  1   
 26  15  37  1   
 27  15  38  1   
 28  16  17  1   
 29  16  18  1   
 30  17  19  1   
 31  17  39  1   
 32  17  40  1   
 33  18  20  1   
 34  18  41  1   
 35  18  42  1   
 36  19  21  1   
 37  19  43  1   
 38  19  44  1   
 39  20  21  1   
 40  20  45  1   
 41  20  46  1   
 42  21  22  1   
 43  22  23  ar  
 44  22  24  ar  
 45  23  25  ar  
 46  24  26  ar  
 47  24  47  1   
 48  25  27  ar  
 49  25  48  1   
 50  26  27  ar  
 51  26  49  1   
 52  27  50  1   
@<TRIPOS>SUBSTRUCTURE
  1 ****  10 GROUP 4 **** **** 0

# MOE 2024.06 (io_trps.svl 2023.06)
