@<TRIPOS>MOLECULE
NONAME
35 36 1 0 0 
SMALL
USER_CHARGES


@<TRIPOS>ATOM
  1 S       -0.0450    -0.0660    -1.3300 S.3   1 <1>   0.1810 
  2 N       -1.6570    -0.6120    -1.3590 N.2   1 <1>  -0.5100 
  3 C       -0.4240     1.4590    -0.5760 C.2   1 <1>   0.1040 
  4 C       -2.3930     0.2910    -0.8420 C.2   1 <1>   0.1080 
  5 N        0.5640     2.3870    -0.2850 N.am  1 <1>  -0.4940 
  6 C       -1.7700     1.5020    -0.3680 C.2   1 <1>  -0.0860 
  7 C       -3.8870     0.0250    -0.7650 C.3   1 <1>  -0.0590 
  8 C        1.9230     2.3960    -0.4730 C.2   1 <1>   0.5690 
  9 C       -2.4280     2.6260     0.2400 C.2   1 <1>   0.8060 
 10 O        2.5380     1.4790    -0.9630 O.2   1 <1>  -0.5700 
 11 C        2.6800     3.6550    -0.0340 C.3   1 <1>   0.2610 
 12 O       -1.8390     3.6500     0.5380 O.2   1 <1>  -0.5700 
 13 O       -3.7380     2.5650     0.5030 O.3   1 <1>  -0.4300 
 14 O        1.8580     4.5330     0.6910 O.3   1 <1>  -0.5600 
 15 C        3.1890     4.5050    -1.1910 C.3   1 <1>  -0.1600 
 16 C       -4.4290     3.6370     1.1060 C.3   1 <1>   0.1200 
 17 C        2.3600     5.8310     0.6370 C.3   1 <1>   0.1200 
 18 C        3.2720     5.8970    -0.5870 C.3   1 <1>  -0.1600 
 19 C       -5.8910     3.2290     1.2540 C.3   1 <1>  -0.2400 
 20 H        0.2400     3.2540     0.1700 H     1 <1>   0.3700 
 21 H       -4.1180    -0.9280    -1.2080 H     1 <1>   0.0800 
 22 H       -4.4280     0.7830    -1.2990 H     1 <1>   0.0800 
 23 H       -4.2080     0.0050     0.2600 H     1 <1>   0.0800 
 24 H        3.4960     3.3730     0.6080 H     1 <1>   0.0800 
 25 H        2.4700     4.4870    -1.9920 H     1 <1>   0.0800 
 26 H        4.1360     4.1490    -1.5580 H     1 <1>   0.0800 
 27 H       -4.3320     4.5060     0.4770 H     1 <1>   0.0800 
 28 H       -3.9840     3.8340     2.0670 H     1 <1>   0.0800 
 29 H        2.9060     6.0220     1.5450 H     1 <1>   0.0800 
 30 H        1.5290     6.5120     0.5580 H     1 <1>   0.0800 
 31 H        2.9460     6.6530    -1.2790 H     1 <1>   0.0800 
 32 H        4.2770     6.1210    -0.2740 H     1 <1>   0.0800 
 33 H       -6.3210     3.0270     0.2890 H     1 <1>   0.0800 
 34 H       -6.4450     4.0290     1.7130 H     1 <1>   0.0800 
 35 H       -5.9730     2.3560     1.8760 H     1 <1>   0.0800 
@<TRIPOS>BOND
  1   1   2  1   
  2   1   3  1   
  3   2   4  2   
  4   3   5  1   
  5   3   6  2   
  6   4   6  1   
  7   4   7  1   
  8   5   8  am  
  9   5  20  1   
 10   6   9  1   
 11   7  21  1   
 12   7  22  1   
 13   7  23  1   
 14   8  10  2   
 15   8  11  1   
 16   9  12  2   
 17   9  13  1   
 18  11  14  1   
 19  11  15  1   
 20  11  24  1   
 21  13  16  1   
 22  14  17  1   
 23  15  18  1   
 24  15  25  1   
 25  15  26  1   
 26  16  19  1   
 27  16  27  1   
 28  16  28  1   
 29  17  18  1   
 30  17  29  1   
 31  17  30  1   
 32  18  31  1   
 33  18  32  1   
 34  19  33  1   
 35  19  34  1   
 36  19  35  1   
@<TRIPOS>SUBSTRUCTURE
  1 ****   5 GROUP 4 **** **** 0

# MOE 2024.06 (io_trps.svl 2023.06)
