@<TRIPOS>MOLECULE
NONAME
33 34 1 0 0 
SMALL
USER_CHARGES


@<TRIPOS>ATOM
  1 S       -0.2350     0.1560     0.4370 S.3   1 <1>  -0.3320 
  2 C        1.5320     0.0180     0.2460 C.ar  1 <1>   0.7220 
  3 C       -0.8860    -1.3770    -0.3600 C.3   1 <1>   0.2140 
  4 N        2.2230     1.0110     0.7760 N.ar  1 <1>  -0.6200 
  5 N        1.9590    -1.0570    -0.3990 N.ar  1 <1>  -0.6200 
  6 C       -2.4000    -1.3740    -0.2610 C.ar  1 <1>  -0.1440 
  7 C        3.5240     0.9070     0.6360 C.ar  1 <1>   0.1670 
  8 C        3.2640    -1.1330    -0.5230 C.ar  1 <1>   0.1660 
  9 C       -3.0550    -1.6320     0.9310 C.ar  1 <1>   0.4100 
 10 C       -3.1870    -1.1340    -1.3560 C.ar  1 <1>   0.1600 
 11 C        4.0990    -0.1620    -0.0150 C.ar  1 <1>  -0.1500 
 12 C        4.3660     2.0180     1.2250 C.3   1 <1>  -0.0960 
 13 C        3.8160    -2.3400    -1.2510 C.3   1 <1>  -0.0970 
 14 N       -4.3610    -1.6690     1.0150 N.ar  1 <1>  -0.6200 
 15 N       -2.4050    -1.8470     2.0990 N.pl3 1 <1>  -0.9000 
 16 N       -4.5050    -1.1590    -1.2970 N.ar  1 <1>  -0.6200 
 17 C       -5.0110    -1.4310    -0.1070 C.ar  1 <1>   0.4770 
 18 C       -6.5180    -1.4660    -0.0260 C.3   1 <1>  -0.0970 
 19 H       -0.4610    -2.2170     0.1610 H     1 <1>   0.0800 
 20 H       -0.5510    -1.3720    -1.3810 H     1 <1>   0.0800 
 21 H       -2.7410    -0.9180    -2.3110 H     1 <1>   0.1500 
 22 H        5.1640    -0.2350    -0.1220 H     1 <1>   0.1500 
 23 H        4.0970     2.9530     0.7690 H     1 <1>   0.0800 
 24 H        5.4130     1.8390     1.0620 H     1 <1>   0.0800 
 25 H        4.1850     2.0850     2.2820 H     1 <1>   0.0800 
 26 H        3.4300    -2.3640    -2.2540 H     1 <1>   0.0800 
 27 H        3.5140    -3.2370    -0.7420 H     1 <1>   0.0800 
 28 H        4.8890    -2.3100    -1.2930 H     1 <1>   0.0800 
 29 H       -3.0270    -1.9040     2.9070 H     1 <1>   0.4000 
 30 H       -1.5700    -1.2850     2.2750 H     1 <1>   0.4000 
 31 H       -6.8340    -2.0050     0.8480 H     1 <1>   0.0800 
 32 H       -6.9180    -1.9500    -0.8970 H     1 <1>   0.0800 
 33 H       -6.8930    -0.4620     0.0240 H     1 <1>   0.0800 
@<TRIPOS>BOND
  1   1   2  1   
  2   1   3  1   
  3   2   4  ar  
  4   2   5  ar  
  5   3   6  1   
  6   3  19  1   
  7   3  20  1   
  8   4   7  ar  
  9   5   8  ar  
 10   6   9  ar  
 11   6  10  ar  
 12   7  11  ar  
 13   7  12  1   
 14   8  11  ar  
 15   8  13  1   
 16   9  14  ar  
 17   9  15  1   
 18  10  16  ar  
 19  10  21  1   
 20  11  22  1   
 21  12  23  1   
 22  12  24  1   
 23  12  25  1   
 24  13  26  1   
 25  13  27  1   
 26  13  28  1   
 27  14  17  ar  
 28  15  29  1   
 29  15  30  1   
 30  16  17  ar  
 31  17  18  1   
 32  18  31  1   
 33  18  32  1   
 34  18  33  1   
@<TRIPOS>SUBSTRUCTURE
  1 ****   3 GROUP 4 **** **** 0

# MOE 2024.06 (io_trps.svl 2023.06)
