@<TRIPOS>MOLECULE
NONAME
38 40 1 0 0 
SMALL
USER_CHARGES


@<TRIPOS>ATOM
  1 S       -0.2350     0.0970    -0.0820 S.o2  1 <1>   1.0900 
  2 O       -1.0360     0.0430     1.1160 O.2   1 <1>  -0.6500 
  3 O       -0.8380     0.6610    -1.2680 O.2   1 <1>  -0.6500 
  4 C        1.3530     0.9110     0.2380 C.3   1 <1>   0.2100 
  5 C        0.1600    -1.5910    -0.5220 C.3   1 <1>  -0.0550 
  6 S        2.2280    -0.0710     1.4770 S.o2  1 <1>   1.0900 
  7 C        1.1550     2.3660     0.7100 C.3   1 <1>  -0.1600 
  8 C        2.1750     1.1170    -1.0600 C.3   1 <1>  -0.1600 
  9 C        0.9300    -2.3390     0.5670 C.3   1 <1>   0.0640 
 10 O        3.5960     0.3910     1.5470 O.2   1 <1>  -0.6500 
 11 O        1.4790    -0.1410     2.7070 O.2   1 <1>  -0.6500 
 12 C        2.3100    -1.7250     0.8070 C.3   1 <1>  -0.0550 
 13 C        1.0020     3.2140    -0.5530 C.3   1 <1>  -0.1600 
 14 C        1.7190     2.4480    -1.6680 C.3   1 <1>  -0.1600 
 15 C        1.0790    -3.8050     0.1760 C.ar  1 <1>  -0.1440 
 16 C        1.7690    -4.1850    -0.9680 C.ar  1 <1>  -0.1500 
 17 C        0.5160    -4.7870     0.9790 C.ar  1 <1>  -0.1500 
 18 C        1.8920    -5.5220    -1.3030 C.ar  1 <1>  -0.1500 
 19 C        0.6390    -6.1240     0.6450 C.ar  1 <1>  -0.1500 
 20 C        1.3270    -6.4930    -0.4960 C.ar  1 <1>  -0.1500 
 21 H        0.7130    -1.6110    -1.4410 H     1 <1>   0.0800 
 22 H       -0.7600    -2.1170    -0.7000 H     1 <1>   0.0800 
 23 H        2.0370     2.6920     1.2370 H     1 <1>   0.0800 
 24 H        0.3100     2.4670     1.3710 H     1 <1>   0.0800 
 25 H        2.0640     0.3100    -1.7610 H     1 <1>   0.0800 
 26 H        3.2200     1.2120    -0.8170 H     1 <1>   0.0800 
 27 H        0.3650    -2.2840     1.4850 H     1 <1>   0.0800 
 28 H        2.8360    -2.3490     1.5060 H     1 <1>   0.0800 
 29 H        2.8770    -1.7250    -0.1040 H     1 <1>   0.0800 
 30 H        1.4160     4.1980    -0.4160 H     1 <1>   0.0800 
 31 H       -0.0430     3.3120    -0.8010 H     1 <1>   0.0800 
 32 H        1.0360     2.2770    -2.4840 H     1 <1>   0.0800 
 33 H        2.5620     3.0070    -2.0400 H     1 <1>   0.0800 
 34 H        2.2190    -3.4530    -1.6150 H     1 <1>   0.1500 
 35 H       -0.0240    -4.5230     1.8720 H     1 <1>   0.1500 
 36 H        2.4280    -5.8100    -2.1910 H     1 <1>   0.1500 
 37 H        0.1990    -6.8790     1.2740 H     1 <1>   0.1500 
 38 H        1.4230    -7.5330    -0.7560 H     1 <1>   0.1500 
@<TRIPOS>BOND
  1   1   2  2   
  2   1   3  2   
  3   1   4  1   
  4   1   5  1   
  5   4   6  1   
  6   4   7  1   
  7   4   8  1   
  8   5   9  1   
  9   5  21  1   
 10   5  22  1   
 11   6  10  2   
 12   6  11  2   
 13   6  12  1   
 14   7  13  1   
 15   7  23  1   
 16   7  24  1   
 17   8  14  1   
 18   8  25  1   
 19   8  26  1   
 20   9  12  1   
 21   9  15  1   
 22   9  27  1   
 23  12  28  1   
 24  12  29  1   
 25  13  14  1   
 26  13  30  1   
 27  13  31  1   
 28  14  32  1   
 29  14  33  1   
 30  15  16  ar  
 31  15  17  ar  
 32  16  18  ar  
 33  16  34  1   
 34  17  19  ar  
 35  17  35  1   
 36  18  20  ar  
 37  18  36  1   
 38  19  20  ar  
 39  19  37  1   
 40  20  38  1   
@<TRIPOS>SUBSTRUCTURE
  1 ****   9 GROUP 4 **** **** 0

# MOE 2024.06 (io_trps.svl 2023.06)
