@<TRIPOS>MOLECULE
NONAME
36 39 1 0 0 
SMALL
USER_CHARGES


@<TRIPOS>ATOM
  1 S       -0.0350     0.0120     0.7350 S.3   1 <1>  -0.0800 
  2 C        0.5670     1.3180    -0.3010 C.2   1 <1>   0.4420 
  3 C       -1.6760     0.4320     0.3060 C.ar  1 <1>   0.0400 
  4 N       -0.3650     1.9920    -0.8810 N.2   1 <1>  -0.5650 
  5 N        1.9350     1.5550    -0.3800 N.am  1 <1>  -0.1240 
  6 C       -1.6240     1.5080    -0.5590 C.ar  1 <1>   0.2270 
  7 C       -2.8510    -0.1630     0.7230 C.ar  1 <1>  -0.1500 
  8 N        2.3270     2.9600    -0.5450 N.am  1 <1>  -0.4300 
  9 C        2.8930     0.5580    -0.3940 C.2   1 <1>   0.6300 
 10 C       -2.8260     2.0170    -1.0350 C.ar  1 <1>  -0.1500 
 11 C       -4.0390     0.3590     0.2380 C.ar  1 <1>  -0.1500 
 12 C        2.5680     3.8240     0.4700 C.2   1 <1>   0.6300 
 13 O        2.6320    -0.6120    -0.5660 O.2   1 <1>  -0.5700 
 14 C        4.3690     0.9340    -0.2530 C.3   1 <1>  -0.1000 
 15 C       -4.0240     1.4440    -0.6360 C.ar  1 <1>  -0.1500 
 16 O        2.5890     3.4820     1.6300 O.2   1 <1>  -0.5700 
 17 C        2.8220     5.2830     0.1260 C.3   1 <1>  -0.1000 
 18 C        5.3360     0.0390     0.4700 C.3   1 <1>  -0.2000 
 19 C        4.9430     1.3500     1.0720 C.3   1 <1>  -0.2000 
 20 C        3.6960     5.6890    -1.0290 C.3   1 <1>  -0.2000 
 21 C        4.1690     5.8960     0.3750 C.3   1 <1>  -0.2000 
 22 H       -2.8340    -1.0000     1.3990 H     1 <1>   0.1500 
 23 H        2.2100     3.3360    -1.4880 H     1 <1>   0.3700 
 24 H       -2.8070     2.8530    -1.7090 H     1 <1>   0.1500 
 25 H       -4.9780    -0.0740     0.5370 H     1 <1>   0.1500 
 26 H        4.7390     1.4200    -1.1370 H     1 <1>   0.1000 
 27 H       -4.9540     1.8390    -1.0060 H     1 <1>   0.1500 
 28 H        1.9660     5.8920     0.3540 H     1 <1>   0.1000 
 29 H        6.3290    -0.0770     0.0730 H     1 <1>   0.1000 
 30 H        4.9620    -0.8690     0.9150 H     1 <1>   0.1000 
 31 H        4.3010     1.3500     1.9370 H     1 <1>   0.1000 
 32 H        5.6580     2.1530     1.0940 H     1 <1>   0.1000 
 33 H        3.4200     6.5540    -1.6090 H     1 <1>   0.1000 
 34 H        4.2020     4.9440    -1.6180 H     1 <1>   0.1000 
 35 H        4.9500     5.2670     0.7670 H     1 <1>   0.1000 
 36 H        4.2100     6.8960     0.7740 H     1 <1>   0.1000 
@<TRIPOS>BOND
  1   1   2  1   
  2   1   3  1   
  3   2   4  2   
  4   2   5  1   
  5   3   6  ar  
  6   3   7  ar  
  7   4   6  1   
  8   5   8  1   
  9   5   9  am  
 10   6  10  ar  
 11   7  11  ar  
 12   7  22  1   
 13   8  12  am  
 14   8  23  1   
 15   9  13  2   
 16   9  14  1   
 17  10  15  ar  
 18  10  24  1   
 19  11  15  ar  
 20  11  25  1   
 21  12  16  2   
 22  12  17  1   
 23  14  18  1   
 24  14  19  1   
 25  14  26  1   
 26  15  27  1   
 27  17  20  1   
 28  17  21  1   
 29  17  28  1   
 30  18  19  1   
 31  18  29  1   
 32  18  30  1   
 33  19  31  1   
 34  19  32  1   
 35  20  21  1   
 36  20  33  1   
 37  20  34  1   
 38  21  35  1   
 39  21  36  1   
@<TRIPOS>SUBSTRUCTURE
  1 ****   2 GROUP 4 **** **** 0

# MOE 2024.06 (io_trps.svl 2023.06)
