@<TRIPOS>MOLECULE
NONAME
31 31 1 0 0 
SMALL
USER_CHARGES


@<TRIPOS>ATOM
  1 N        7.1790     2.2850    -1.1230 N.4   1 <1>  -0.8530 
  2 C        7.8590     1.0360    -0.7410 C.3   1 <1>   0.4380 
  3 C        6.8050    -0.0540    -0.8270 C.3   1 <1>  -0.1950 
  4 C        6.6890    -1.2360     0.0900 C.3   1 <1>  -0.1900 
  5 C        5.7420    -0.0850     0.2350 C.3   1 <1>  -0.0600 
  6 C        6.1920    -2.5700    -0.4840 C.3   1 <1>  -0.1450 
  7 C        7.7250    -1.4670     1.2000 C.3   1 <1>  -0.1450 
  8 C        4.2940    -0.0560    -0.2260 C.2   1 <1>  -0.1900 
  9 C        3.2560     0.5780     0.3340 C.2   1 <1>  -0.2760 
 10 C        1.8620     0.4960    -0.2730 C.3   1 <1>  -0.1020 
 11 C        3.2670     1.4250     1.6010 C.3   1 <1>  -0.1020 
 12 H        7.7550     3.1120    -0.9430 H     1 <1>   0.4500 
 13 H        6.3040     2.3530    -0.5860 H     1 <1>   0.4500 
 14 H        6.9190     2.2570    -2.1130 H     1 <1>   0.4500 
 15 H        8.6850     0.8210    -1.4010 H     1 <1>   0.0800 
 16 H        8.2260     1.1090     0.2700 H     1 <1>   0.0800 
 17 H        6.5200    -0.2510    -1.8470 H     1 <1>   0.1000 
 18 H        5.8910     0.4840     1.1340 H     1 <1>   0.1000 
 19 H        7.0220    -3.1570    -0.8370 H     1 <1>   0.0800 
 20 H        5.5150    -2.4260    -1.3060 H     1 <1>   0.0800 
 21 H        5.6790    -3.1300     0.2780 H     1 <1>   0.0800 
 22 H        7.2990    -2.0880     1.9700 H     1 <1>   0.0800 
 23 H        8.0410    -0.5480     1.6580 H     1 <1>   0.0800 
 24 H        8.5900    -1.9700     0.8040 H     1 <1>   0.0800 
 25 H        4.1530    -0.6380    -1.1210 H     1 <1>   0.1500 
 26 H        1.5060     1.4780    -0.5280 H     1 <1>   0.0800 
 27 H        1.1780     0.0530     0.4300 H     1 <1>   0.0800 
 28 H        1.8620    -0.1060    -1.1640 H     1 <1>   0.0800 
 29 H        2.5860     1.0060     2.3220 H     1 <1>   0.0800 
 30 H        2.9480     2.4270     1.3790 H     1 <1>   0.0800 
 31 H        4.2340     1.4730     2.0610 H     1 <1>   0.0800 
@<TRIPOS>BOND
  1   1   2  1   
  2   1  12  1   
  3   1  13  1   
  4   1  14  1   
  5   2   3  1   
  6   2  15  1   
  7   2  16  1   
  8   3   4  1   
  9   3   5  1   
 10   3  17  1   
 11   4   5  1   
 12   4   6  1   
 13   4   7  1   
 14   5   8  1   
 15   5  18  1   
 16   6  19  1   
 17   6  20  1   
 18   6  21  1   
 19   7  22  1   
 20   7  23  1   
 21   7  24  1   
 22   8   9  2   
 23   8  25  1   
 24   9  10  1   
 25   9  11  1   
 26  10  26  1   
 27  10  27  1   
 28  10  28  1   
 29  11  29  1   
 30  11  30  1   
 31  11  31  1   
@<TRIPOS>SUBSTRUCTURE
  1 ****   5 GROUP 4 **** **** 0

# MOE 2024.06 (io_trps.svl 2023.06)
