@<TRIPOS>MOLECULE
NONAME
30 30 1 0 0 
SMALL
USER_CHARGES


@<TRIPOS>ATOM
  1 P       -0.2170    -0.0240    -0.6610 P.3   1 <1>   1.0390 
  2 O        0.8740    -0.2250     0.3410 O.co2 1 <1>  -0.9500 
  3 O       -0.0280    -0.3750    -2.1020 O.co2 1 <1>  -0.9500 
  4 C       -0.8420     1.6740    -0.5340 C.ar  1 <1>  -0.1390 
  5 C       -1.6430    -0.9500    -0.0780 C.3   1 <1>  -0.1600 
  6 C       -1.5170     2.2840    -1.5850 C.ar  1 <1>  -0.1500 
  7 C       -0.6990     2.4190     0.6300 C.ar  1 <1>  -0.1500 
  8 C       -1.4380    -2.4760    -0.0560 C.3   1 <1>  -0.1600 
  9 C       -2.0310     3.5660    -1.4850 C.ar  1 <1>  -0.1500 
 10 C       -1.2060     3.7020     0.7500 C.ar  1 <1>  -0.1500 
 11 C       -2.7020    -3.2760     0.3100 C.3   1 <1>  -0.0800 
 12 C       -1.8770     4.2790    -0.3110 C.ar  1 <1>  -0.1500 
 13 C       -3.1760    -2.9870     1.7410 C.3   1 <1>  -0.2400 
 14 C       -2.4240    -4.7750     0.1560 C.3   1 <1>  -0.2400 
 15 H       -2.4870    -0.7370    -0.7040 H     1 <1>   0.0800 
 16 H       -1.8880    -0.6240     0.9120 H     1 <1>   0.0800 
 17 H       -1.6280     1.7270    -2.5010 H     1 <1>   0.1500 
 18 H       -0.1680     1.9680     1.4520 H     1 <1>   0.1500 
 19 H       -0.6390    -2.7040     0.6290 H     1 <1>   0.0800 
 20 H       -1.1050    -2.7710    -1.0380 H     1 <1>   0.0800 
 21 H       -2.5450     4.0010    -2.3230 H     1 <1>   0.1500 
 22 H       -1.0710     4.2450     1.6680 H     1 <1>   0.1500 
 23 H       -3.4880    -3.0080    -0.3760 H     1 <1>   0.0800 
 24 H       -2.2730     5.2750    -0.2260 H     1 <1>   0.1500 
 25 H       -2.3830    -3.1740     2.4430 H     1 <1>   0.0800 
 26 H       -4.0130    -3.6140     1.9910 H     1 <1>   0.0800 
 27 H       -3.4880    -1.9640     1.8390 H     1 <1>   0.0800 
 28 H       -1.6380    -5.0820     0.8240 H     1 <1>   0.0800 
 29 H       -2.1200    -4.9940    -0.8520 H     1 <1>   0.0800 
 30 H       -3.3090    -5.3460     0.3750 H     1 <1>   0.0800 
@<TRIPOS>BOND
  1   1   2  ar  
  2   1   3  ar  
  3   1   4  1   
  4   1   5  1   
  5   4   6  ar  
  6   4   7  ar  
  7   5   8  1   
  8   5  15  1   
  9   5  16  1   
 10   6   9  ar  
 11   6  17  1   
 12   7  10  ar  
 13   7  18  1   
 14   8  11  1   
 15   8  19  1   
 16   8  20  1   
 17   9  12  ar  
 18   9  21  1   
 19  10  12  ar  
 20  10  22  1   
 21  11  13  1   
 22  11  14  1   
 23  11  23  1   
 24  12  24  1   
 25  13  25  1   
 26  13  26  1   
 27  13  27  1   
 28  14  28  1   
 29  14  29  1   
 30  14  30  1   
@<TRIPOS>SUBSTRUCTURE
  1 ****   5 GROUP 4 **** **** 0

# MOE 2024.06 (io_trps.svl 2023.06)
