@<TRIPOS>MOLECULE
NONAME
34 35 1 0 0 
SMALL
USER_CHARGES


@<TRIPOS>ATOM
  1 F       -3.0180     1.2890    -1.9140 F     1 <1>  -0.1900 
  2 C       -2.9400     0.1990    -1.2000 C.ar  1 <1>   0.1900 
  3 C       -1.9640     0.1060    -0.2280 C.ar  1 <1>  -0.1500 
  4 C       -3.8360    -0.8200    -1.4410 C.ar  1 <1>  -0.1500 
  5 C       -1.8680    -1.0510     0.5330 C.ar  1 <1>  -0.1440 
  6 C       -3.7370    -1.9740    -0.6850 C.ar  1 <1>  -0.1500 
  7 C       -2.7530    -2.1050     0.2920 C.ar  1 <1>  -0.1430 
  8 C       -0.7940    -1.0970     1.6140 C.3   1 <1>  -0.0960 
  9 C       -2.6880    -3.4230     1.0600 C.3   1 <1>  -0.0160 
 10 C       -1.5830    -4.3430     0.5070 C.3   1 <1>  -0.0800 
 11 C       -1.6710    -4.4730    -1.0210 C.3   1 <1>   0.3430 
 12 C       -1.6210    -5.7300     1.1840 C.3   1 <1>  -0.1600 
 13 N       -0.5310    -5.2780    -1.5710 N.4   1 <1>  -0.9060 
 14 C       -0.9740    -6.8290     0.3200 C.3   1 <1>  -0.1600 
 15 C        0.0840    -6.2680    -0.6320 C.3   1 <1>   0.3430 
 16 H       -1.3000     0.9380    -0.0770 H     1 <1>   0.1500 
 17 H       -4.5910    -0.7040    -2.1980 H     1 <1>   0.1500 
 18 H       -4.4430    -2.7660    -0.8640 H     1 <1>   0.1500 
 19 H       -1.2080    -1.4330     2.5470 H     1 <1>   0.0800 
 20 H        0.0080    -1.7480     1.3240 H     1 <1>   0.0800 
 21 H       -0.3820    -0.1180     1.7820 H     1 <1>   0.0800 
 22 H       -3.6420    -3.9180     0.9890 H     1 <1>   0.0800 
 23 H       -2.5220    -3.2360     2.1060 H     1 <1>   0.0800 
 24 H       -0.6390    -3.8800     0.7310 H     1 <1>   0.0800 
 25 H       -2.6030    -4.9550    -1.2670 H     1 <1>   0.0800 
 26 H       -1.6750    -3.4930    -1.4730 H     1 <1>   0.0800 
 27 H       -2.6370    -6.0230     1.3950 H     1 <1>   0.0800 
 28 H       -1.1090    -5.6640     2.1300 H     1 <1>   0.0800 
 29 H        0.2020    -4.6320    -1.8900 H     1 <1>   0.4500 
 30 H       -0.8610    -5.7720    -2.4090 H     1 <1>   0.4500 
 31 H       -1.7290    -7.3360    -0.2570 H     1 <1>   0.0800 
 32 H       -0.5220    -7.5650     0.9630 H     1 <1>   0.0800 
 33 H        0.8480    -5.7820    -0.0460 H     1 <1>   0.0800 
 34 H        0.5470    -7.0700    -1.1870 H     1 <1>   0.0800 
@<TRIPOS>BOND
  1   1   2  1   
  2   2   3  ar  
  3   2   4  ar  
  4   3   5  ar  
  5   3  16  1   
  6   4   6  ar  
  7   4  17  1   
  8   5   7  ar  
  9   5   8  1   
 10   6   7  ar  
 11   6  18  1   
 12   7   9  1   
 13   8  19  1   
 14   8  20  1   
 15   8  21  1   
 16   9  10  1   
 17   9  22  1   
 18   9  23  1   
 19  10  11  1   
 20  10  12  1   
 21  10  24  1   
 22  11  13  1   
 23  11  25  1   
 24  11  26  1   
 25  12  14  1   
 26  12  27  1   
 27  12  28  1   
 28  13  15  1   
 29  13  29  1   
 30  13  30  1   
 31  14  15  1   
 32  14  31  1   
 33  14  32  1   
 34  15  33  1   
 35  15  34  1   
@<TRIPOS>SUBSTRUCTURE
  1 ****   7 GROUP 4 **** **** 0

# MOE 2024.06 (io_trps.svl 2023.06)
