@<TRIPOS>MOLECULE
NONAME
33 34 1 0 0 
SMALL
USER_CHARGES


@<TRIPOS>ATOM
  1 F       -0.1030     0.1960     0.0640 F     1 <1>  -0.3400 
  2 C       -1.4090     0.4410     0.0490 C.3   1 <1>   1.1640 
  3 F       -1.6460     1.2290     1.0900 F     1 <1>  -0.3400 
  4 F       -1.6340     1.1730    -1.0340 F     1 <1>  -0.3400 
  5 C       -2.2640    -0.8360     0.0730 C.ar  1 <1>  -0.1440 
  6 C       -3.6410    -0.7390     0.2330 C.ar  1 <1>  -0.1500 
  7 C       -1.6990    -2.1000    -0.0650 C.ar  1 <1>  -0.1500 
  8 C       -4.4560    -1.8660     0.2580 C.ar  1 <1>   0.1170 
  9 C       -2.4920    -3.2350    -0.0410 C.ar  1 <1>  -0.1500 
 10 N       -5.8530    -1.8080     0.4170 N.am  1 <1>  -0.5470 
 11 C       -3.8680    -3.1260     0.1210 C.ar  1 <1>   0.0830 
 12 C       -6.7540    -0.7830     0.5060 C.2   1 <1>   0.5770 
 13 O       -4.6990    -4.2110     0.1540 O.3   1 <1>  -0.3630 
 14 O       -6.4420     0.3830     0.4790 O.2   1 <1>  -0.5700 
 15 C       -8.2240    -1.1490     0.6660 C.3   1 <1>   0.0530 
 16 C       -4.2010    -5.5240     0.0100 C.3   1 <1>   0.0400 
 17 C       -8.7310    -2.2920    -0.2570 C.3   1 <1>   0.0000 
 18 C       -9.2300    -0.2230    -0.0730 C.3   1 <1>   0.0000 
 19 C      -10.0570    -1.4980    -0.3790 C.3   1 <1>   0.0000 
 20 H       -4.0820     0.2360     0.3400 H     1 <1>   0.1500 
 21 H       -0.6350    -2.2160    -0.1930 H     1 <1>   0.1500 
 22 H       -2.0140    -4.1900    -0.1500 H     1 <1>   0.1500 
 23 H       -6.2570    -2.7470     0.4420 H     1 <1>   0.3700 
 24 H       -8.5060    -1.3080     1.6940 H     1 <1>   0.0000 
 25 H       -5.0310    -6.2050     0.0630 H     1 <1>   0.0800 
 26 H       -3.5120    -5.7270     0.8110 H     1 <1>   0.0800 
 27 H       -3.7170    -5.6120    -0.9470 H     1 <1>   0.0800 
 28 H       -8.8340    -3.2400     0.2400 H     1 <1>   0.0000 
 29 H       -8.2010    -2.3500    -1.1930 H     1 <1>   0.0000 
 30 H       -8.8220     0.2240    -0.9650 H     1 <1>   0.0000 
 31 H       -9.7310     0.4780     0.5700 H     1 <1>   0.0000 
 32 H      -10.7580    -1.7370     0.4030 H     1 <1>   0.0000 
 33 H      -10.4860    -1.5140    -1.3650 H     1 <1>   0.0000 
@<TRIPOS>BOND
  1   1   2  1   
  2   2   3  1   
  3   2   4  1   
  4   2   5  1   
  5   5   6  ar  
  6   5   7  ar  
  7   6   8  ar  
  8   6  20  1   
  9   7   9  ar  
 10   7  21  1   
 11   8  10  1   
 12   8  11  ar  
 13   9  11  ar  
 14   9  22  1   
 15  10  12  am  
 16  10  23  1   
 17  11  13  1   
 18  12  14  2   
 19  12  15  1   
 20  13  16  1   
 21  15  17  1   
 22  15  18  1   
 23  15  24  1   
 24  16  25  1   
 25  16  26  1   
 26  16  27  1   
 27  17  19  1   
 28  17  28  1   
 29  17  29  1   
 30  18  19  1   
 31  18  30  1   
 32  18  31  1   
 33  19  32  1   
 34  19  33  1   
@<TRIPOS>SUBSTRUCTURE
  1 ****   8 GROUP 4 **** **** 0

# MOE 2024.06 (io_trps.svl 2023.06)
