@<TRIPOS>MOLECULE
NONAME
34 36 1 0 0 
SMALL
USER_CHARGES


@<TRIPOS>ATOM
  1 S       -0.4160     0.4530    -1.6440 S.3   1 <1>  -0.0800 
  2 C       -1.3510     1.2330    -0.3620 C.2   1 <1>   0.0410 
  3 C        1.0940     0.6840    -0.7840 C.2   1 <1>  -0.1100 
  4 C       -2.7800     1.3570    -0.5030 C.2   1 <1>   0.5150 
  5 C       -0.4990     1.6170     0.6210 C.2   1 <1>  -0.1500 
  6 C        0.8750     1.3100     0.3870 C.2   1 <1>  -0.1500 
  7 N       -3.4830     0.9440    -1.5050 N.2   1 <1>  -0.4100 
  8 N       -3.5280     1.9440     0.4500 N.2   1 <1>  -0.5650 
  9 O       -4.6790     1.2640    -1.1970 O.3   1 <1>  -0.0190 
 10 C       -4.7200     1.8590    -0.0380 C.2   1 <1>   0.3930 
 11 C       -6.0050     2.3020     0.4880 C.2   1 <1>   0.7150 
 12 O       -6.0940     2.8630     1.5670 O.2   1 <1>  -0.5700 
 13 N       -7.1620     2.0970    -0.2250 N.am  1 <1>  -0.7300 
 14 C       -8.5180     2.4940     0.1900 C.3   1 <1>   0.2200 
 15 C       -9.3880     1.2370     0.2960 C.3   1 <1>  -0.1600 
 16 C       -9.0820     3.4750    -0.8420 C.3   1 <1>  -0.1600 
 17 C      -10.8460     1.5980     0.6190 C.3   1 <1>  -0.1600 
 18 C      -10.5390     3.8410    -0.5220 C.3   1 <1>  -0.1600 
 19 C      -11.4140     2.5850    -0.4100 C.3   1 <1>  -0.1600 
 20 H        1.9930     0.3240    -1.2510 H     1 <1>   0.1500 
 21 H       -0.8080     2.1180     1.5230 H     1 <1>   0.1500 
 22 H        1.6320     1.5720     1.1050 H     1 <1>   0.1500 
 23 H       -7.1100     1.6300    -1.1300 H     1 <1>   0.3700 
 24 H       -8.4850     2.9790     1.1530 H     1 <1>   0.0800 
 25 H       -9.0010     0.6010     1.0730 H     1 <1>   0.0800 
 26 H       -9.3610     0.6970    -0.6340 H     1 <1>   0.0800 
 27 H       -9.0420     3.0340    -1.8230 H     1 <1>   0.0800 
 28 H       -8.4860     4.3710    -0.8440 H     1 <1>   0.0800 
 29 H      -10.8940     2.0400     1.6000 H     1 <1>   0.0800 
 30 H      -11.4450     0.7040     0.6320 H     1 <1>   0.0800 
 31 H      -10.9280     4.4840    -1.2910 H     1 <1>   0.0800 
 32 H      -10.5740     4.3820     0.4090 H     1 <1>   0.0800 
 33 H      -12.4130     2.8670    -0.1240 H     1 <1>   0.0800 
 34 H      -11.4720     2.1030    -1.3710 H     1 <1>   0.0800 
@<TRIPOS>BOND
  1   1   2  1   
  2   1   3  1   
  3   2   4  1   
  4   2   5  2   
  5   3   6  2   
  6   3  20  1   
  7   4   7  2   
  8   4   8  1   
  9   5   6  1   
 10   5  21  1   
 11   6  22  1   
 12   7   9  1   
 13   8  10  2   
 14   9  10  1   
 15  10  11  1   
 16  11  12  2   
 17  11  13  am  
 18  13  14  1   
 19  13  23  1   
 20  14  15  1   
 21  14  16  1   
 22  14  24  1   
 23  15  17  1   
 24  15  25  1   
 25  15  26  1   
 26  16  18  1   
 27  16  27  1   
 28  16  28  1   
 29  17  19  1   
 30  17  29  1   
 31  17  30  1   
 32  18  19  1   
 33  18  31  1   
 34  18  32  1   
 35  19  33  1   
 36  19  34  1   
@<TRIPOS>SUBSTRUCTURE
  1 ****  10 GROUP 4 **** **** 0

# MOE 2024.06 (io_trps.svl 2023.06)
