@<TRIPOS>MOLECULE
NONAME
46 47 1 0 0 
SMALL
USER_CHARGES


@<TRIPOS>ATOM
  1 O        0.4660    -0.8320    -1.0000 O.2   1 <1>  -0.5700 
  2 C        0.4100    -1.6810    -0.1420 C.2   1 <1>   0.5690 
  3 N        1.4970    -2.0100     0.6040 N.am  1 <1>  -0.7300 
  4 C       -0.9040    -2.4200     0.1130 C.3   1 <1>  -0.0190 
  5 C        2.8230    -1.3580     0.4830 C.3   1 <1>   0.1400 
  6 C       -1.3290    -3.2480    -1.1150 C.3   1 <1>  -0.1600 
  7 C       -2.0260    -1.4470     0.5250 C.3   1 <1>  -0.1600 
  8 C        3.6930    -2.1240    -0.5130 C.3   1 <1>  -0.0170 
  9 C       -2.6530    -3.9850    -0.8690 C.3   1 <1>  -0.1600 
 10 C       -3.3500    -2.1840     0.7720 C.3   1 <1>  -0.1600 
 11 C        5.0700    -1.4870    -0.6050 C.ar  1 <1>  -0.1430 
 12 C       -3.7610    -3.0090    -0.4550 C.3   1 <1>  -0.1600 
 13 C        6.1400    -2.0030     0.1100 C.ar  1 <1>  -0.1500 
 14 C        5.2620    -0.3760    -1.4090 C.ar  1 <1>  -0.1500 
 15 C        7.4050    -1.4220     0.0340 C.ar  1 <1>   0.0820 
 16 C        6.5080     0.2170    -1.4860 C.ar  1 <1>  -0.1500 
 17 O        8.4640    -1.9550     0.7110 O.3   1 <1>  -0.3630 
 18 C        7.5820    -0.2820    -0.7680 C.ar  1 <1>   0.0820 
 19 C        8.4520    -3.2880     1.1710 C.3   1 <1>   0.0400 
 20 O        8.7470     0.4080    -0.9250 O.3   1 <1>  -0.3630 
 21 C        9.6810     0.5120     0.1280 C.3   1 <1>   0.0400 
 22 H        1.4230    -2.7480     1.3050 H     1 <1>   0.3700 
 23 H       -0.7480    -3.1020     0.9300 H     1 <1>   0.0800 
 24 H        3.3000    -1.3300     1.4470 H     1 <1>   0.0800 
 25 H        2.6960    -0.3440     0.1410 H     1 <1>   0.0800 
 26 H       -0.5590    -3.9600    -1.3550 H     1 <1>   0.0800 
 27 H       -1.4410    -2.5900    -1.9610 H     1 <1>   0.0800 
 28 H       -2.1660    -0.7190    -0.2560 H     1 <1>   0.0800 
 29 H       -1.7360    -0.9180     1.4160 H     1 <1>   0.0800 
 30 H        3.2240    -2.1040    -1.4820 H     1 <1>   0.0800 
 31 H        3.7840    -3.1500    -0.2030 H     1 <1>   0.0800 
 32 H       -2.5160    -4.7190    -0.0940 H     1 <1>   0.0800 
 33 H       -2.9470    -4.5030    -1.7660 H     1 <1>   0.0800 
 34 H       -4.1220    -1.4690     0.9990 H     1 <1>   0.0800 
 35 H       -3.2450    -2.8370     1.6220 H     1 <1>   0.0800 
 36 H       -4.6620    -3.5560    -0.2370 H     1 <1>   0.0800 
 37 H       -3.9720    -2.3430    -1.2750 H     1 <1>   0.0800 
 38 H        5.9710    -2.8620     0.7290 H     1 <1>   0.1500 
 39 H        4.4420     0.0330    -1.9740 H     1 <1>   0.1500 
 40 H        6.6550     1.0810    -2.1080 H     1 <1>   0.1500 
 41 H        9.4440    -3.5340     1.5060 H     1 <1>   0.0800 
 42 H        8.1690    -3.9360     0.3600 H     1 <1>   0.0800 
 43 H        7.7610    -3.3700     1.9910 H     1 <1>   0.0800 
 44 H       10.3110     1.3610    -0.0660 H     1 <1>   0.0800 
 45 H       10.2750    -0.3830     0.1530 H     1 <1>   0.0800 
 46 H        9.1520     0.6460     1.0550 H     1 <1>   0.0800 
@<TRIPOS>BOND
  1   1   2  2   
  2   2   3  am  
  3   2   4  1   
  4   3   5  1   
  5   3  22  1   
  6   4   6  1   
  7   4   7  1   
  8   4  23  1   
  9   5   8  1   
 10   5  24  1   
 11   5  25  1   
 12   6   9  1   
 13   6  26  1   
 14   6  27  1   
 15   7  10  1   
 16   7  28  1   
 17   7  29  1   
 18   8  11  1   
 19   8  30  1   
 20   8  31  1   
 21   9  12  1   
 22   9  32  1   
 23   9  33  1   
 24  10  12  1   
 25  10  34  1   
 26  10  35  1   
 27  11  13  ar  
 28  11  14  ar  
 29  12  36  1   
 30  12  37  1   
 31  13  15  ar  
 32  13  38  1   
 33  14  16  ar  
 34  14  39  1   
 35  15  17  1   
 36  15  18  ar  
 37  16  18  ar  
 38  16  40  1   
 39  17  19  1   
 40  18  20  1   
 41  19  41  1   
 42  19  42  1   
 43  19  43  1   
 44  20  21  1   
 45  21  44  1   
 46  21  45  1   
 47  21  46  1   
@<TRIPOS>SUBSTRUCTURE
  1 ****   8 GROUP 4 **** **** 0

# MOE 2024.06 (io_trps.svl 2023.06)
