@<TRIPOS>MOLECULE
NONAME
42 43 1 0 0 
SMALL
USER_CHARGES


@<TRIPOS>ATOM
  1 O        0.4130     2.4470     1.7620 O.2   1 <1>  -0.5700 
  2 C        0.9150     1.7080     0.9360 C.2   1 <1>   0.5440 
  3 N        0.0900     1.0020     0.0980 N.am  1 <1>  -0.5470 
  4 C        2.3670     1.5970     0.8470 C.ar  1 <1>   0.0860 
  5 C       -1.2730     0.9100    -0.0870 C.ar  1 <1>   0.4270 
  6 C        3.0540     0.6030     0.1180 C.ar  1 <1>   0.0830 
  7 C        3.1580     2.5350     1.5240 C.ar  1 <1>  -0.1500 
  8 N       -1.6080    -0.0550    -0.9330 N.ar  1 <1>  -0.6200 
  9 C       -2.2090     1.7390     0.5310 C.ar  1 <1>  -0.1500 
 10 O        2.3340    -0.3340    -0.5490 O.3   1 <1>  -0.3620 
 11 C        4.4460     0.5810     0.0870 C.ar  1 <1>  -0.1500 
 12 C        4.5370     2.5090     1.4920 C.ar  1 <1>  -0.1500 
 13 C       -2.9020    -0.2020    -1.1620 C.ar  1 <1>   0.1600 
 14 C       -3.5540     1.5770     0.2850 C.ar  1 <1>  -0.1430 
 15 C        2.9060    -1.3690    -1.3130 C.3   1 <1>   0.1200 
 16 C        5.1930     1.5230     0.7660 C.ar  1 <1>   0.0830 
 17 C       -3.8980     0.5690    -0.5920 C.ar  1 <1>  -0.1500 
 18 C       -4.6080     2.4530     0.9370 C.3   1 <1>  -0.0970 
 19 C        1.7640    -2.1870    -1.9080 C.3   1 <1>  -0.2400 
 20 O        6.5390     1.4210     0.6780 O.3   1 <1>  -0.3630 
 21 C        7.3990     2.3210     1.3360 C.3   1 <1>   0.1200 
 22 C        8.8360     1.9140     1.0270 C.3   1 <1>  -0.2400 
 23 H        0.5820     0.3220    -0.4840 H     1 <1>   0.3700 
 24 H        2.6730     3.3090     2.0940 H     1 <1>   0.1500 
 25 H       -1.8810     2.5090     1.2010 H     1 <1>   0.1500 
 26 H        4.9880    -0.1650    -0.4600 H     1 <1>   0.1500 
 27 H        5.0820     3.2590     2.0350 H     1 <1>   0.1500 
 28 H       -3.1870    -0.9840    -1.8450 H     1 <1>   0.1500 
 29 H        3.5150    -1.9780    -0.6660 H     1 <1>   0.0800 
 30 H        3.5070    -0.9310    -2.0920 H     1 <1>   0.0800 
 31 H       -4.9280     0.3820    -0.8330 H     1 <1>   0.1500 
 32 H       -4.1550     3.1510     1.6180 H     1 <1>   0.0800 
 33 H       -5.3050     1.8440     1.4840 H     1 <1>   0.0800 
 34 H       -5.1420     3.0060     0.1850 H     1 <1>   0.0800 
 35 H        1.1590    -2.6050    -1.1230 H     1 <1>   0.0800 
 36 H        2.1600    -2.9910    -2.5010 H     1 <1>   0.0800 
 37 H        1.1510    -1.5660    -2.5370 H     1 <1>   0.0800 
 38 H        7.2070     2.2650     2.3940 H     1 <1>   0.0800 
 39 H        7.1990     3.3140     0.9710 H     1 <1>   0.0800 
 40 H        9.0210     0.9150     1.3810 H     1 <1>   0.0800 
 41 H        9.5190     2.5840     1.5160 H     1 <1>   0.0800 
 42 H        9.0130     1.9570    -0.0330 H     1 <1>   0.0800 
@<TRIPOS>BOND
  1   1   2  2   
  2   2   3  am  
  3   2   4  1   
  4   3   5  1   
  5   3  23  1   
  6   4   6  ar  
  7   4   7  ar  
  8   5   8  ar  
  9   5   9  ar  
 10   6  10  1   
 11   6  11  ar  
 12   7  12  ar  
 13   7  24  1   
 14   8  13  ar  
 15   9  14  ar  
 16   9  25  1   
 17  10  15  1   
 18  11  16  ar  
 19  11  26  1   
 20  12  16  ar  
 21  12  27  1   
 22  13  17  ar  
 23  13  28  1   
 24  14  17  ar  
 25  14  18  1   
 26  15  19  1   
 27  15  29  1   
 28  15  30  1   
 29  16  20  1   
 30  17  31  1   
 31  18  32  1   
 32  18  33  1   
 33  18  34  1   
 34  19  35  1   
 35  19  36  1   
 36  19  37  1   
 37  20  21  1   
 38  21  22  1   
 39  21  38  1   
 40  21  39  1   
 41  22  40  1   
 42  22  41  1   
 43  22  42  1   
@<TRIPOS>SUBSTRUCTURE
  1 ****   2 GROUP 4 **** **** 0

# MOE 2024.06 (io_trps.svl 2023.06)
