@<TRIPOS>MOLECULE
NONAME
44 45 1 0 0 
SMALL
USER_CHARGES


@<TRIPOS>ATOM
  1 O        0.0400     0.6110    -1.3180 O.2   1 <1>  -0.5700 
  2 C       -0.0770     1.5410    -0.5550 C.2   1 <1>   0.5690 
  3 N       -1.2660     1.9260     0.0100 N.am  1 <1>  -0.5470 
  4 C        1.2100     2.3130    -0.2140 C.3   1 <1>   0.4040 
  5 C       -2.5510     1.3630    -0.0960 C.ar  1 <1>   0.1170 
  6 N        2.4640     1.4950    -0.4230 N.4   1 <1>  -0.9590 
  7 C       -3.6710     2.1680     0.1270 C.ar  1 <1>  -0.1430 
  8 C       -2.7440     0.0160    -0.3940 C.ar  1 <1>  -0.1500 
  9 C        2.5580     0.3530     0.5460 C.3   1 <1>   0.3430 
 10 C        3.7100     2.3010    -0.4840 C.3   1 <1>   0.3430 
 11 C       -4.9390     1.6180     0.0470 C.ar  1 <1>  -0.1500 
 12 C       -3.5430     3.6510     0.4560 C.3   1 <1>  -0.0970 
 13 C       -4.0120    -0.5290    -0.4780 C.ar  1 <1>  -0.1430 
 14 C        3.9450    -0.3240     0.5220 C.3   1 <1>  -0.0800 
 15 C        4.8440     1.4440    -1.0610 C.3   1 <1>  -0.1600 
 16 C       -5.1120     0.2790    -0.2540 C.ar  1 <1>  -0.1500 
 17 C       -4.2020    -1.9980    -0.8080 C.3   1 <1>  -0.0970 
 18 C        4.6920    -0.0670    -0.7970 C.3   1 <1>  -0.1600 
 19 C        3.8080    -1.8320     0.7720 C.3   1 <1>  -0.2400 
 20 H       -1.2780     2.7900     0.5500 H     1 <1>   0.3700 
 21 H        1.1610     2.6450     0.8070 H     1 <1>   0.0800 
 22 H        1.2440     3.1800    -0.8510 H     1 <1>   0.0800 
 23 H        2.3410     1.0420    -1.3450 H     1 <1>   0.4500 
 24 H       -1.8990    -0.6240    -0.5600 H     1 <1>   0.1500 
 25 H        1.8070    -0.3790     0.2910 H     1 <1>   0.0800 
 26 H        2.3580     0.6950     1.5490 H     1 <1>   0.0800 
 27 H        3.9750     2.6240     0.5100 H     1 <1>   0.0800 
 28 H        3.5710     3.1750    -1.1010 H     1 <1>   0.0800 
 29 H       -5.8110     2.2260     0.2170 H     1 <1>   0.1500 
 30 H       -2.9780     4.1540    -0.3080 H     1 <1>   0.0800 
 31 H       -3.0610     3.7810     1.4080 H     1 <1>   0.0800 
 32 H       -4.5120     4.1160     0.5080 H     1 <1>   0.0800 
 33 H        4.5290     0.0880     1.3280 H     1 <1>   0.0800 
 34 H        5.7690     1.7890    -0.6320 H     1 <1>   0.0800 
 35 H        4.9150     1.6110    -2.1220 H     1 <1>   0.0800 
 36 H       -6.1050    -0.1300    -0.3120 H     1 <1>   0.1500 
 37 H       -3.3500    -2.3800    -1.3410 H     1 <1>   0.0800 
 38 H       -5.0730    -2.1320    -1.4240 H     1 <1>   0.0800 
 39 H       -4.3270    -2.5620     0.0980 H     1 <1>   0.0800 
 40 H        4.1430    -0.5170    -1.6070 H     1 <1>   0.0800 
 41 H        5.6660    -0.5290    -0.7730 H     1 <1>   0.0800 
 42 H        3.2330    -2.3010    -0.0080 H     1 <1>   0.0800 
 43 H        3.3230    -2.0190     1.7150 H     1 <1>   0.0800 
 44 H        4.7800    -2.2960     0.8010 H     1 <1>   0.0800 
@<TRIPOS>BOND
  1   1   2  2   
  2   2   3  am  
  3   2   4  1   
  4   3   5  1   
  5   3  20  1   
  6   4   6  1   
  7   4  21  1   
  8   4  22  1   
  9   5   7  ar  
 10   5   8  ar  
 11   6   9  1   
 12   6  10  1   
 13   6  23  1   
 14   7  11  ar  
 15   7  12  1   
 16   8  13  ar  
 17   8  24  1   
 18   9  14  1   
 19   9  25  1   
 20   9  26  1   
 21  10  15  1   
 22  10  27  1   
 23  10  28  1   
 24  11  16  ar  
 25  11  29  1   
 26  12  30  1   
 27  12  31  1   
 28  12  32  1   
 29  13  16  ar  
 30  13  17  1   
 31  14  18  1   
 32  14  19  1   
 33  14  33  1   
 34  15  18  1   
 35  15  34  1   
 36  15  35  1   
 37  16  36  1   
 38  17  37  1   
 39  17  38  1   
 40  17  39  1   
 41  18  40  1   
 42  18  41  1   
 43  19  42  1   
 44  19  43  1   
 45  19  44  1   
@<TRIPOS>SUBSTRUCTURE
  1 ****   2 GROUP 4 **** **** 0

# MOE 2024.06 (io_trps.svl 2023.06)
