@<TRIPOS>MOLECULE
NONAME
32 32 1 0 0 
SMALL
USER_CHARGES


@<TRIPOS>ATOM
  1 O        0.1080     0.9500    -1.9800 O.2   1 <1>  -0.5700 
  2 C        0.0800     1.9180    -1.2540 C.2   1 <1>   0.6900 
  3 N        1.2250     2.5080    -0.8620 N.am  1 <1>  -0.7300 
  4 N       -1.0970     2.4040    -0.8150 N.am  1 <1>  -0.7300 
  5 C        1.3040     3.5830     0.1390 C.3   1 <1>   0.2200 
  6 C       -1.2330     3.5130     0.1510 C.3   1 <1>   0.1400 
  7 C        0.0100     4.4070     0.0760 C.3   1 <1>  -0.1600 
  8 C        2.5390     4.4540    -0.1240 C.3   1 <1>  -0.1600 
  9 C        3.8640     3.6930     0.0520 C.3   1 <1>  -0.1600 
 10 C        5.0650     4.6300    -0.1240 C.3   1 <1>  -0.1600 
 11 C        6.3880     3.8780     0.0730 C.3   1 <1>  -0.1600 
 12 C        7.5950     4.8160    -0.0990 C.3   1 <1>  -0.2660 
 13 C        8.9130     4.1010     0.0980 C.2   1 <1>   0.9060 
 14 O        9.4390     4.1280     1.2140 O.co2 1 <1>  -0.9000 
 15 O        9.4160     3.5160    -0.8670 O.co2 1 <1>  -0.9000 
 16 H        2.0920     2.0680    -1.1630 H     1 <1>   0.3700 
 17 H       -1.9260     1.8780    -1.0880 H     1 <1>   0.3700 
 18 H        1.3880     3.1320     1.1150 H     1 <1>   0.0800 
 19 H       -1.3350     3.1020     1.1410 H     1 <1>   0.0800 
 20 H       -2.1140     4.0880    -0.0800 H     1 <1>   0.0800 
 21 H       -0.0170     4.9620    -0.8450 H     1 <1>   0.0800 
 22 H       -0.0100     5.1150     0.8840 H     1 <1>   0.0800 
 23 H        2.5260     5.2780     0.5680 H     1 <1>   0.0800 
 24 H        2.4830     4.8630    -1.1180 H     1 <1>   0.0800 
 25 H        3.9330     2.8990    -0.6710 H     1 <1>   0.0800 
 26 H        3.9000     3.2540     1.0350 H     1 <1>   0.0800 
 27 H        5.0090     5.4320     0.5910 H     1 <1>   0.0800 
 28 H        5.0480     5.0580    -1.1120 H     1 <1>   0.0800 
 29 H        6.4690     3.0770    -0.6420 H     1 <1>   0.0800 
 30 H        6.4250     3.4470     1.0600 H     1 <1>   0.0800 
 31 H        7.5490     5.6160     0.6140 H     1 <1>   0.0800 
 32 H        7.5990     5.2370    -1.0860 H     1 <1>   0.0800 
@<TRIPOS>BOND
  1   1   2  2   
  2   2   3  am  
  3   2   4  am  
  4   3   5  1   
  5   3  16  1   
  6   4   6  1   
  7   4  17  1   
  8   5   7  1   
  9   5   8  1   
 10   5  18  1   
 11   6   7  1   
 12   6  19  1   
 13   6  20  1   
 14   7  21  1   
 15   7  22  1   
 16   8   9  1   
 17   8  23  1   
 18   8  24  1   
 19   9  10  1   
 20   9  25  1   
 21   9  26  1   
 22  10  11  1   
 23  10  27  1   
 24  10  28  1   
 25  11  12  1   
 26  11  29  1   
 27  11  30  1   
 28  12  13  1   
 29  12  31  1   
 30  12  32  1   
 31  13  14  ar  
 32  13  15  ar  
@<TRIPOS>SUBSTRUCTURE
  1 ****   9 GROUP 4 **** **** 0

# MOE 2024.06 (io_trps.svl 2023.06)
