@<TRIPOS>MOLECULE
NONAME
47 49 1 0 0 
SMALL
USER_CHARGES


@<TRIPOS>ATOM
  1 O        0.2820    -0.6810    -0.5900 O.2   1 <1>  -0.5700 
  2 C        0.2890    -1.7810    -0.0690 C.2   1 <1>   0.5440 
  3 N        1.4950    -2.2950     0.3630 N.am  1 <1>  -0.6600 
  4 C       -0.9540    -2.5180     0.0630 C.ar  1 <1>   0.0860 
  5 C        1.7920    -3.7610     0.4180 C.3   1 <1>   0.1400 
  6 C        2.7110    -1.4350     0.4900 C.3   1 <1>   0.1400 
  7 C       -1.8640    -2.5830    -0.9920 C.ar  1 <1>  -0.1500 
  8 C       -1.2940    -3.1810     1.2440 C.ar  1 <1>  -0.1500 
  9 C        2.8450    -4.1370    -0.6360 C.3   1 <1>   0.1400 
 10 C        3.7630    -1.8120    -0.5650 C.3   1 <1>   0.1400 
 11 C       -3.0470    -3.2920    -0.8900 C.ar  1 <1>  -0.1500 
 12 C       -2.4740    -3.8920     1.3540 C.ar  1 <1>  -0.1500 
 13 N        4.0630    -3.2770    -0.5100 N.am  1 <1>  -0.6600 
 14 C       -3.3600    -3.9590     0.2910 C.ar  1 <1>   0.0830 
 15 C        5.2540    -3.7810    -0.0240 C.2   1 <1>   0.7150 
 16 O       -4.4890    -4.6800     0.4870 O.3   1 <1>  -0.3630 
 17 O        5.2340    -4.8660     0.5320 O.2   1 <1>  -0.5700 
 18 C        6.4980    -3.0520    -0.1710 C.2   1 <1>   0.0550 
 19 C       -5.4860    -4.8590    -0.4940 C.3   1 <1>   0.2000 
 20 O        7.4240    -3.0710     0.7840 O.3   1 <1>  -0.2800 
 21 C        6.9570    -2.2740    -1.1920 C.2   1 <1>  -0.1500 
 22 C       -6.7700    -5.2410     0.2380 C.3   1 <1>  -0.2400 
 23 C       -5.0450    -5.9700    -1.4500 C.3   1 <1>  -0.2400 
 24 C        8.4450    -2.3370     0.4050 C.2   1 <1>  -0.0100 
 25 C        8.2180    -1.8100    -0.8160 C.2   1 <1>  -0.1500 
 26 H        0.9040    -4.3400     0.2400 H     1 <1>   0.0800 
 27 H        2.1650    -4.0130     1.3960 H     1 <1>   0.0800 
 28 H        3.1310    -1.5650     1.4720 H     1 <1>   0.0800 
 29 H        2.4530    -0.3960     0.3820 H     1 <1>   0.0800 
 30 H       -1.6300    -2.0630    -1.9050 H     1 <1>   0.1500 
 31 H       -0.6230    -3.1310     2.0830 H     1 <1>   0.1500 
 32 H        2.4240    -4.0060    -1.6170 H     1 <1>   0.0800 
 33 H        3.1020    -5.1770    -0.5290 H     1 <1>   0.0800 
 34 H        4.6490    -1.2300    -0.3880 H     1 <1>   0.0800 
 35 H        3.3880    -1.5610    -1.5420 H     1 <1>   0.0800 
 36 H       -3.7090    -3.3110    -1.7340 H     1 <1>   0.1500 
 37 H       -2.7230    -4.4000     2.2690 H     1 <1>   0.1500 
 38 H       -5.6390    -3.9280    -1.0110 H     1 <1>   0.0800 
 39 H        6.4640    -2.0530    -2.1220 H     1 <1>   0.1500 
 40 H       -6.6300    -6.1520     0.7910 H     1 <1>   0.0800 
 41 H       -7.5680    -5.3850    -0.4680 H     1 <1>   0.0800 
 42 H       -7.0520    -4.4540     0.9140 H     1 <1>   0.0800 
 43 H       -4.8910    -6.8860    -0.9080 H     1 <1>   0.0800 
 44 H       -4.1350    -5.7020    -1.9520 H     1 <1>   0.0800 
 45 H       -5.8040    -6.1360    -2.1930 H     1 <1>   0.0800 
 46 H        9.2920    -2.2430     1.0620 H     1 <1>   0.1500 
 47 H        8.8570    -1.1700    -1.4000 H     1 <1>   0.1500 
@<TRIPOS>BOND
  1   1   2  2   
  2   2   3  am  
  3   2   4  1   
  4   3   5  1   
  5   3   6  1   
  6   4   7  ar  
  7   4   8  ar  
  8   5   9  1   
  9   5  26  1   
 10   5  27  1   
 11   6  10  1   
 12   6  28  1   
 13   6  29  1   
 14   7  11  ar  
 15   7  30  1   
 16   8  12  ar  
 17   8  31  1   
 18   9  13  1   
 19   9  32  1   
 20   9  33  1   
 21  10  13  1   
 22  10  34  1   
 23  10  35  1   
 24  11  14  ar  
 25  11  36  1   
 26  12  14  ar  
 27  12  37  1   
 28  13  15  am  
 29  14  16  1   
 30  15  17  2   
 31  15  18  1   
 32  16  19  1   
 33  18  20  1   
 34  18  21  2   
 35  19  22  1   
 36  19  23  1   
 37  19  38  1   
 38  20  24  1   
 39  21  25  1   
 40  21  39  1   
 41  22  40  1   
 42  22  41  1   
 43  22  42  1   
 44  23  43  1   
 45  23  44  1   
 46  23  45  1   
 47  24  25  2   
 48  24  46  1   
 49  25  47  1   
@<TRIPOS>SUBSTRUCTURE
  1 ****   5 GROUP 4 **** **** 0

# MOE 2024.06 (io_trps.svl 2023.06)
