@<TRIPOS>MOLECULE
NONAME
48 51 1 0 0 
SMALL
USER_CHARGES


@<TRIPOS>ATOM
  1 CL      -0.0730     0.5570    -0.1500 Cl    1 <1>  -0.1770 
  2 C       -1.8080     0.3870    -0.0510 C.ar  1 <1>   0.1770 
  3 C       -2.4210    -0.6900    -0.6610 C.ar  1 <1>  -0.1500 
  4 C       -2.5450     1.3320     0.6370 C.ar  1 <1>  -0.1500 
  5 C       -3.7970    -0.8210    -0.5790 C.ar  1 <1>  -0.1500 
  6 C       -3.9200     1.1930     0.7130 C.ar  1 <1>  -0.1500 
  7 C       -4.5680     0.1170     0.1080 C.ar  1 <1>   0.1170 
  8 N       -5.9740    -0.0200     0.1900 N.am  1 <1>  -0.2370 
  9 C       -6.6710    -1.2150     0.2960 C.2   1 <1>   0.5690 
 10 C       -6.8940     1.0190     0.1810 C.2   1 <1>   0.5690 
 11 O       -6.2490    -2.3170     0.5280 O.2   1 <1>  -0.5700 
 12 C       -8.1040    -0.9080     0.0090 C.3   1 <1>  -0.0190 
 13 O       -6.7200     2.1720    -0.1130 O.2   1 <1>  -0.5700 
 14 C       -8.2000     0.4630     0.6640 C.3   1 <1>  -0.0190 
 15 C       -9.5290    -1.4160     0.1850 C.3   1 <1>   0.4180 
 16 C       -9.7190     0.7110     0.5530 C.3   1 <1>   0.3380 
 17 O      -10.1220    -0.2670    -0.3610 O.3   1 <1>  -0.5600 
 18 C      -10.1070    -1.2710     1.5860 C.2   1 <1>  -0.2880 
 19 C       -9.9400    -2.6800    -0.5930 C.3   1 <1>   0.1400 
 20 C      -10.2820     0.0340     1.7860 C.2   1 <1>  -0.2880 
 21 N      -11.4190    -2.7870    -0.6970 N.am  1 <1>  -0.7300 
 22 C      -12.1660    -3.8520    -0.3030 C.2   1 <1>   0.5690 
 23 O      -11.6350    -4.8740     0.0640 O.2   1 <1>  -0.5700 
 24 C      -13.7100    -3.7170    -0.3120 C.3   1 <1>   0.0610 
 25 C      -14.4030    -5.0410     0.0690 C.3   1 <1>  -0.2400 
 26 C      -14.2090    -3.3080    -1.7120 C.3   1 <1>  -0.2400 
 27 C      -14.1480    -2.6420     0.7010 C.3   1 <1>  -0.2400 
 28 H       -1.8270    -1.4140    -1.1890 H     1 <1>   0.1500 
 29 H       -2.0460     2.1630     1.1020 H     1 <1>   0.1500 
 30 H       -4.2690    -1.6640    -1.0540 H     1 <1>   0.1500 
 31 H       -4.4890     1.9340     1.2480 H     1 <1>   0.1500 
 32 H       -8.0520    -0.7820    -1.0640 H     1 <1>   0.0800 
 33 H       -8.0050     0.3870     1.7230 H     1 <1>   0.0800 
 34 H      -10.0850     1.6920     0.2980 H     1 <1>   0.0800 
 35 H      -10.3100    -2.1380     2.1910 H     1 <1>   0.1500 
 36 H       -9.5420    -3.5460    -0.0930 H     1 <1>   0.0800 
 37 H       -9.5210    -2.6490    -1.5830 H     1 <1>   0.0800 
 38 H      -10.6790     0.6000     2.6110 H     1 <1>   0.1500 
 39 H      -11.8840    -1.9000    -0.9060 H     1 <1>   0.3700 
 40 H      -14.1000    -5.3500     1.0540 H     1 <1>   0.0800 
 41 H      -14.1260    -5.8170    -0.6230 H     1 <1>   0.0800 
 42 H      -15.4730    -4.9360     0.0580 H     1 <1>   0.0800 
 43 H      -13.9010    -4.0380    -2.4400 H     1 <1>   0.0800 
 44 H      -13.8100    -2.3530    -2.0000 H     1 <1>   0.0800 
 45 H      -15.2830    -3.2430    -1.7290 H     1 <1>   0.0800 
 46 H      -13.8090    -2.9060     1.6880 H     1 <1>   0.0800 
 47 H      -15.2190    -2.5500     0.7210 H     1 <1>   0.0800 
 48 H      -13.7300    -1.6840     0.4490 H     1 <1>   0.0800 
@<TRIPOS>BOND
  1   1   2  1   
  2   2   3  ar  
  3   2   4  ar  
  4   3   5  ar  
  5   3  28  1   
  6   4   6  ar  
  7   4  29  1   
  8   5   7  ar  
  9   5  30  1   
 10   6   7  ar  
 11   6  31  1   
 12   7   8  1   
 13   8   9  am  
 14   8  10  am  
 15   9  11  2   
 16   9  12  1   
 17  10  13  2   
 18  10  14  1   
 19  12  14  1   
 20  12  15  1   
 21  12  32  1   
 22  14  16  1   
 23  14  33  1   
 24  15  17  1   
 25  15  18  1   
 26  15  19  1   
 27  16  17  1   
 28  16  20  1   
 29  16  34  1   
 30  18  20  2   
 31  18  35  1   
 32  19  21  1   
 33  19  36  1   
 34  19  37  1   
 35  20  38  1   
 36  21  22  am  
 37  21  39  1   
 38  22  23  2   
 39  22  24  1   
 40  24  25  1   
 41  24  26  1   
 42  24  27  1   
 43  25  40  1   
 44  25  41  1   
 45  25  42  1   
 46  26  43  1   
 47  26  44  1   
 48  26  45  1   
 49  27  46  1   
 50  27  47  1   
 51  27  48  1   
@<TRIPOS>SUBSTRUCTURE
  1 ****  12 GROUP 4 **** **** 0

# MOE 2024.06 (io_trps.svl 2023.06)
