@<TRIPOS>MOLECULE
NONAME
25 25 1 0 0 
SMALL
USER_CHARGES


@<TRIPOS>ATOM
  1 O       -0.2210     0.1290     0.3990 O.3   1 <1>  -0.6800 
  2 C       -1.3700     0.7160    -0.1220 C.3   1 <1>   0.2000 
  3 C       -1.3370     2.2130     0.2470 C.3   1 <1>   0.4230 
  4 C       -2.6010    -0.0240     0.4110 C.3   1 <1>  -0.1600 
  5 N       -0.0030     2.7520    -0.0880 N.4   1 <1>  -0.8530 
  6 C       -2.4390     3.0450    -0.4140 C.3   1 <1>  -0.1600 
  7 C       -3.8460     0.3010    -0.4310 C.3   1 <1>  -0.1600 
  8 C       -3.7750     2.8450     0.3180 C.3   1 <1>  -0.1600 
  9 C       -4.5910     1.6020    -0.0800 C.3   1 <1>  -0.1600 
 10 H       -0.2680    -0.8490     0.3150 H     1 <1>   0.4000 
 11 H       -1.3240     0.6010    -1.1920 H     1 <1>   0.0800 
 12 H       -1.4680     2.2770     1.3150 H     1 <1>   0.0800 
 13 H       -2.4280    -1.0830     0.3290 H     1 <1>   0.0800 
 14 H       -2.7790     0.2050     1.4480 H     1 <1>   0.0800 
 15 H        0.1020     2.8980    -1.0940 H     1 <1>   0.4500 
 16 H        0.6570     2.0090     0.1960 H     1 <1>   0.4500 
 17 H        0.2080     3.6110     0.4260 H     1 <1>   0.4500 
 18 H       -2.1850     4.0880    -0.3310 H     1 <1>   0.0800 
 19 H       -2.5450     2.8050    -1.4580 H     1 <1>   0.0800 
 20 H       -3.5820     0.3160    -1.4750 H     1 <1>   0.0800 
 21 H       -4.5500    -0.5080    -0.3150 H     1 <1>   0.0800 
 22 H       -3.6030     2.8230     1.3820 H     1 <1>   0.0800 
 23 H       -4.3980     3.7060     0.1350 H     1 <1>   0.0800 
 24 H       -5.2050     1.8580    -0.9280 H     1 <1>   0.0800 
 25 H       -5.2730     1.3920     0.7270 H     1 <1>   0.0800 
@<TRIPOS>BOND
  1   1   2  1   
  2   1  10  1   
  3   2   3  1   
  4   2   4  1   
  5   2  11  1   
  6   3   5  1   
  7   3   6  1   
  8   3  12  1   
  9   4   7  1   
 10   4  13  1   
 11   4  14  1   
 12   5  15  1   
 13   5  16  1   
 14   5  17  1   
 15   6   8  1   
 16   6  18  1   
 17   6  19  1   
 18   7   9  1   
 19   7  20  1   
 20   7  21  1   
 21   8   9  1   
 22   8  22  1   
 23   8  23  1   
 24   9  24  1   
 25   9  25  1   
@<TRIPOS>SUBSTRUCTURE
  1 ****   3 GROUP 4 **** **** 0

# MOE 2024.06 (io_trps.svl 2023.06)
