@<TRIPOS>MOLECULE
NONAME
49 51 1 0 0 
SMALL
USER_CHARGES


@<TRIPOS>ATOM
  1 S       -0.0440     0.1160    -0.3720 S.o2  1 <1>   1.3330 
  2 O        0.2120     0.0380    -1.7920 O.2   1 <1>  -0.6500 
  3 O       -0.1910    -1.0940     0.4040 O.2   1 <1>  -0.6500 
  4 N       -1.5450     0.9120    -0.2510 N.am  1 <1>  -0.8490 
  5 C        1.1170     1.2210     0.4470 C.3   1 <1>   0.0890 
  6 C       -1.7460     1.9270    -1.3120 C.3   1 <1>   0.1960 
  7 C       -2.6510    -0.0790    -0.2940 C.3   1 <1>   0.1960 
  8 C        2.5550     0.7220     0.4390 C.ar  1 <1>  -0.1440 
  9 C       -3.0840     2.6950    -1.1530 C.3   1 <1>   0.3430 
 10 C       -4.0600     0.5590    -0.3890 C.3   1 <1>   0.3430 
 11 C        3.4990     1.3020    -0.3960 C.ar  1 <1>  -0.1500 
 12 C        2.9320    -0.3240     1.2680 C.ar  1 <1>  -0.1500 
 13 N       -4.0150     2.0470    -0.1620 N.4   1 <1>  -0.9590 
 14 C        4.8050     0.8450    -0.3970 C.ar  1 <1>  -0.1500 
 15 C        4.2380    -0.7810     1.2660 C.ar  1 <1>  -0.1500 
 16 C       -5.3580     2.7070    -0.1480 C.3   1 <1>   0.3430 
 17 C        5.1760    -0.1960     0.4350 C.ar  1 <1>  -0.1500 
 18 C       -6.2060     2.2750     1.0500 C.3   1 <1>  -0.0170 
 19 C       -7.5090     3.0490     1.0190 C.ar  1 <1>  -0.1440 
 20 C       -7.6210     4.2590     1.6870 C.ar  1 <1>  -0.1500 
 21 C       -8.5970     2.5580     0.3120 C.ar  1 <1>  -0.1500 
 22 C       -8.8050     4.9740     1.6420 C.ar  1 <1>  -0.1500 
 23 C       -9.7810     3.2740     0.2670 C.ar  1 <1>  -0.1500 
 24 C       -9.8840     4.4830     0.9310 C.ar  1 <1>  -0.1500 
 25 H        0.8140     1.3520     1.4670 H     1 <1>   0.0800 
 26 H        1.0850     2.1830    -0.0240 H     1 <1>   0.0800 
 27 H       -1.7420     1.4490    -2.2790 H     1 <1>   0.0800 
 28 H       -0.9340     2.6340    -1.3060 H     1 <1>   0.0800 
 29 H       -2.6150    -0.6850     0.5960 H     1 <1>   0.0800 
 30 H       -2.5150    -0.7450    -1.1320 H     1 <1>   0.0800 
 31 H       -3.5580     2.7600    -2.1190 H     1 <1>   0.0800 
 32 H       -2.8680     3.7020    -0.8350 H     1 <1>   0.0800 
 33 H       -4.7000     0.0860     0.3370 H     1 <1>   0.0800 
 34 H       -4.4680     0.3530    -1.3650 H     1 <1>   0.0800 
 35 H        3.2300     2.1100    -1.0540 H     1 <1>   0.1500 
 36 H        2.2130    -0.7960     1.9160 H     1 <1>   0.1500 
 37 H       -3.5580     2.1670     0.7550 H     1 <1>   0.4500 
 38 H        5.5340     1.2980    -1.0470 H     1 <1>   0.1500 
 39 H        4.5230    -1.5950     1.9100 H     1 <1>   0.1500 
 40 H       -5.8900     2.4820    -1.0580 H     1 <1>   0.0800 
 41 H       -5.2330     3.7770    -0.0990 H     1 <1>   0.0800 
 42 H        6.1910    -0.5520     0.4330 H     1 <1>   0.1500 
 43 H       -5.6890     2.4850     1.9700 H     1 <1>   0.0800 
 44 H       -6.4240     1.2230     1.0090 H     1 <1>   0.0800 
 45 H       -6.7960     4.6600     2.2510 H     1 <1>   0.1500 
 46 H       -8.5420     1.6180    -0.2080 H     1 <1>   0.1500 
 47 H       -8.8890     5.9130     2.1620 H     1 <1>   0.1500 
 48 H      -10.6250     2.8920    -0.2810 H     1 <1>   0.1500 
 49 H      -10.8060     5.0390     0.8970 H     1 <1>   0.1500 
@<TRIPOS>BOND
  1   1   2  2   
  2   1   3  2   
  3   1   4  am  
  4   1   5  1   
  5   4   6  1   
  6   4   7  1   
  7   5   8  1   
  8   5  25  1   
  9   5  26  1   
 10   6   9  1   
 11   6  27  1   
 12   6  28  1   
 13   7  10  1   
 14   7  29  1   
 15   7  30  1   
 16   8  11  ar  
 17   8  12  ar  
 18   9  13  1   
 19   9  31  1   
 20   9  32  1   
 21  10  13  1   
 22  10  33  1   
 23  10  34  1   
 24  11  14  ar  
 25  11  35  1   
 26  12  15  ar  
 27  12  36  1   
 28  13  16  1   
 29  13  37  1   
 30  14  17  ar  
 31  14  38  1   
 32  15  17  ar  
 33  15  39  1   
 34  16  18  1   
 35  16  40  1   
 36  16  41  1   
 37  17  42  1   
 38  18  19  1   
 39  18  43  1   
 40  18  44  1   
 41  19  20  ar  
 42  19  21  ar  
 43  20  22  ar  
 44  20  45  1   
 45  21  23  ar  
 46  21  46  1   
 47  22  24  ar  
 48  22  47  1   
 49  23  24  ar  
 50  23  48  1   
 51  24  49  1   
@<TRIPOS>SUBSTRUCTURE
  1 ****   4 GROUP 4 **** **** 0

# MOE 2024.06 (io_trps.svl 2023.06)
