@<TRIPOS>MOLECULE
NONAME
40 42 1 0 0 
SMALL
USER_CHARGES


@<TRIPOS>ATOM
  1 S       -0.9930     1.3670    -0.5800 S.3   1 <1>  -0.0800 
  2 C       -2.1680     0.9360     0.6560 C.2   1 <1>  -0.1400 
  3 C       -0.2060     2.5020     0.5020 C.2   1 <1>  -0.1100 
  4 C       -1.9340     1.6270     1.7870 C.2   1 <1>  -0.1500 
  5 C       -3.2120    -0.1060     0.3010 C.3   1 <1>   0.2900 
  6 C       -0.8190     2.5200     1.6990 C.2   1 <1>  -0.1500 
  7 N       -4.4960     0.5280    -0.0700 N.3   1 <1>  -0.8100 
  8 C       -4.3660     1.4390    -1.2380 C.3   1 <1>   0.1100 
  9 C       -5.5500    -0.4850    -0.3090 C.3   1 <1>   0.1100 
 10 C       -5.7190     2.0530    -1.6720 C.3   1 <1>   0.3430 
 11 C       -6.9210     0.1580    -0.6370 C.3   1 <1>   0.3430 
 12 N       -6.8120     1.6520    -0.7330 N.4   1 <1>  -0.9590 
 13 C       -8.1060     2.3430    -0.9680 C.3   1 <1>   0.4860 
 14 C       -9.0840     1.9390     0.1180 C.ar  1 <1>  -0.1430 
 15 C       -8.9190     2.3970     1.4180 C.ar  1 <1>  -0.1500 
 16 C      -10.1480     1.0990    -0.1800 C.ar  1 <1>  -0.1500 
 17 C       -9.8030     2.0100     2.4100 C.ar  1 <1>  -0.1500 
 18 C      -11.0310     0.7130     0.8140 C.ar  1 <1>  -0.1500 
 19 C      -10.8570     1.1670     2.1090 C.ar  1 <1>  -0.1500 
 20 H        0.6440     3.0420     0.1220 H     1 <1>   0.1500 
 21 H       -2.5050     1.5490     2.6960 H     1 <1>   0.1500 
 22 H       -3.3680    -0.7320     1.1630 H     1 <1>   0.0800 
 23 H       -2.8510    -0.7270    -0.5020 H     1 <1>   0.0800 
 24 H       -0.5310     3.1290     2.5390 H     1 <1>   0.1500 
 25 H       -3.9290     0.9130    -2.0700 H     1 <1>   0.0800 
 26 H       -3.7020     2.2490    -0.9860 H     1 <1>   0.0800 
 27 H       -5.6620    -1.1020     0.5670 H     1 <1>   0.0800 
 28 H       -5.2600    -1.1290    -1.1220 H     1 <1>   0.0800 
 29 H       -5.9520     1.7230    -2.6710 H     1 <1>   0.0800 
 30 H       -5.6210     3.1260    -1.6930 H     1 <1>   0.0800 
 31 H       -7.6200    -0.1070     0.1410 H     1 <1>   0.0800 
 32 H       -7.2930    -0.2490    -1.5620 H     1 <1>   0.0800 
 33 H       -6.4610     1.9180     0.2000 H     1 <1>   0.4500 
 34 H       -8.5010     2.0720    -1.9330 H     1 <1>   0.0800 
 35 H       -7.9660     3.4110    -0.9420 H     1 <1>   0.0800 
 36 H       -8.1090     3.0580     1.6760 H     1 <1>   0.1500 
 37 H      -10.3070     0.7370    -1.1820 H     1 <1>   0.1500 
 38 H       -9.6750     2.3650     3.4190 H     1 <1>   0.1500 
 39 H      -11.8570     0.0620     0.5830 H     1 <1>   0.1500 
 40 H      -11.5460     0.8680     2.8810 H     1 <1>   0.1500 
@<TRIPOS>BOND
  1   1   2  1   
  2   1   3  1   
  3   2   4  2   
  4   2   5  1   
  5   3   6  2   
  6   3  20  1   
  7   4   6  1   
  8   4  21  1   
  9   5   7  1   
 10   5  22  1   
 11   5  23  1   
 12   6  24  1   
 13   7   8  1   
 14   7   9  1   
 15   8  10  1   
 16   8  25  1   
 17   8  26  1   
 18   9  11  1   
 19   9  27  1   
 20   9  28  1   
 21  10  12  1   
 22  10  29  1   
 23  10  30  1   
 24  11  12  1   
 25  11  31  1   
 26  11  32  1   
 27  12  13  1   
 28  12  33  1   
 29  13  14  1   
 30  13  34  1   
 31  13  35  1   
 32  14  15  ar  
 33  14  16  ar  
 34  15  17  ar  
 35  15  36  1   
 36  16  18  ar  
 37  16  37  1   
 38  17  19  ar  
 39  17  38  1   
 40  18  19  ar  
 41  18  39  1   
 42  19  40  1   
@<TRIPOS>SUBSTRUCTURE
  1 ****  12 GROUP 4 **** **** 0

# MOE 2024.06 (io_trps.svl 2023.06)
