@<TRIPOS>MOLECULE
NONAME
42 43 1 0 0 
SMALL
USER_CHARGES


@<TRIPOS>ATOM
  1 O       -4.6090     6.1540    -0.2470 O.2   1 <1>  -0.5700 
  2 C       -5.7700     5.9160    -0.0170 C.2   1 <1>   0.5690 
  3 N       -6.3170     4.6660    -0.0680 N.am  1 <1>  -0.5470 
  4 C       -6.6770     7.0810     0.3300 C.3   1 <1>  -0.0990 
  5 C       -5.7270     3.4200    -0.3380 C.ar  1 <1>   0.1170 
  6 C       -5.9760     8.1220     1.2140 C.3   1 <1>   0.3430 
  7 C       -4.3680     3.1650    -0.1740 C.ar  1 <1>  -0.1500 
  8 C       -6.5430     2.3820    -0.7750 C.ar  1 <1>  -0.1500 
  9 N       -4.8200     8.7510     0.5180 N.4   1 <1>  -0.9590 
 10 C       -3.8420     1.9150    -0.4450 C.ar  1 <1>  -0.1500 
 11 C       -6.0210     1.1300    -1.0450 C.ar  1 <1>  -0.1500 
 12 C       -3.8210     9.3660     1.4440 C.3   1 <1>   0.3430 
 13 C       -5.1740     9.6990    -0.5970 C.3   1 <1>   0.3430 
 14 C       -4.6680     0.8950    -0.8810 C.ar  1 <1>  -0.1500 
 15 C       -2.5280     9.7620     0.6820 C.3   1 <1>   0.2000 
 16 C       -3.9920    10.6030    -1.0380 C.3   1 <1>   0.2000 
 17 O       -2.7660    10.0300    -0.6770 O.3   1 <1>  -0.5600 
 18 C       -1.4970     8.6350     0.7100 C.3   1 <1>  -0.2400 
 19 C       -4.0670    12.0350    -0.4910 C.3   1 <1>  -0.2400 
 20 H       -7.3280     4.6120     0.0480 H     1 <1>   0.3700 
 21 H       -7.5300     6.7100     0.8680 H     1 <1>   0.0800 
 22 H       -7.0350     7.5350    -0.5750 H     1 <1>   0.0800 
 23 H       -5.6260     7.6260     2.1050 H     1 <1>   0.0800 
 24 H       -6.6790     8.8840     1.5110 H     1 <1>   0.0800 
 25 H       -3.7070     3.9390     0.1690 H     1 <1>   0.1500 
 26 H       -7.5960     2.5460    -0.9110 H     1 <1>   0.1500 
 27 H       -4.3010     7.9670     0.0600 H     1 <1>   0.4500 
 28 H       -2.7890     1.7360    -0.3160 H     1 <1>   0.1500 
 29 H       -6.6650     0.3370    -1.3850 H     1 <1>   0.1500 
 30 H       -3.5650     8.6790     2.2340 H     1 <1>   0.0800 
 31 H       -4.2420    10.2470     1.8990 H     1 <1>   0.0800 
 32 H       -5.9930    10.3320    -0.2980 H     1 <1>   0.0800 
 33 H       -5.5030     9.1310    -1.4510 H     1 <1>   0.0800 
 34 H       -4.2580    -0.0780    -1.0920 H     1 <1>   0.1500 
 35 H       -2.0990    10.6440     1.1270 H     1 <1>   0.0800 
 36 H       -3.9960    10.6620    -2.1130 H     1 <1>   0.0800 
 37 H       -1.8900     7.7480     0.2430 H     1 <1>   0.0800 
 38 H       -1.2230     8.3990     1.7220 H     1 <1>   0.0800 
 39 H       -0.6100     8.9410     0.1850 H     1 <1>   0.0800 
 40 H       -4.1300    12.0600     0.5800 H     1 <1>   0.0800 
 41 H       -4.9360    12.5300    -0.8880 H     1 <1>   0.0800 
 42 H       -3.2000    12.5890    -0.8080 H     1 <1>   0.0800 
@<TRIPOS>BOND
  1   1   2  2   
  2   2   3  am  
  3   2   4  1   
  4   3   5  1   
  5   3  20  1   
  6   4   6  1   
  7   4  21  1   
  8   4  22  1   
  9   5   7  ar  
 10   5   8  ar  
 11   6   9  1   
 12   6  23  1   
 13   6  24  1   
 14   7  10  ar  
 15   7  25  1   
 16   8  11  ar  
 17   8  26  1   
 18   9  12  1   
 19   9  13  1   
 20   9  27  1   
 21  10  14  ar  
 22  10  28  1   
 23  11  14  ar  
 24  11  29  1   
 25  12  15  1   
 26  12  30  1   
 27  12  31  1   
 28  13  16  1   
 29  13  32  1   
 30  13  33  1   
 31  14  34  1   
 32  15  17  1   
 33  15  18  1   
 34  15  35  1   
 35  16  17  1   
 36  16  19  1   
 37  16  36  1   
 38  18  37  1   
 39  18  38  1   
 40  18  39  1   
 41  19  40  1   
 42  19  41  1   
 43  19  42  1   
@<TRIPOS>SUBSTRUCTURE
  1 ****   1 GROUP 4 **** **** 0

# MOE 2024.06 (io_trps.svl 2023.06)
