@<TRIPOS>MOLECULE
NONAME
32 33 1 0 0 
SMALL
USER_CHARGES


@<TRIPOS>ATOM
  1 BR       0.0970    -0.7510    -2.5450 Br    1 <1>  -0.1110 
  2 C        1.3980    -1.2350    -1.2120 C.ar  1 <1>   0.1110 
  3 C        1.1180    -2.2700    -0.3240 C.ar  1 <1>   0.0860 
  4 C        2.5790    -0.5170    -1.1850 C.ar  1 <1>  -0.1500 
  5 C       -0.1280    -3.0000    -0.3600 C.2   1 <1>   0.5440 
  6 C        2.1040    -2.5720     0.6150 C.ar  1 <1>  -0.1500 
  7 C        3.5340    -0.8360    -0.2370 C.ar  1 <1>  -0.1500 
  8 O       -0.1770    -4.0370    -0.9950 O.2   1 <1>  -0.5700 
  9 N       -1.2440    -2.5650     0.3300 N.am  1 <1>  -0.6600 
 10 C        3.2950    -1.8650     0.6610 C.ar  1 <1>  -0.1500 
 11 C       -2.5120    -3.3460     0.2730 C.3   1 <1>   0.1400 
 12 C       -1.2310    -1.3350     1.1760 C.3   1 <1>   0.1400 
 13 C       -3.3790    -2.8430    -0.8850 C.3   1 <1>  -0.1600 
 14 C       -2.5560    -0.5580     1.1880 C.3   1 <1>  -0.1600 
 15 C       -4.1080    -1.5190    -0.6070 C.3   1 <1>  -0.1600 
 16 C       -3.1920    -0.3560    -0.1980 C.3   1 <1>  -0.1600 
 17 H        2.7460     0.2750    -1.8930 H     1 <1>   0.1500 
 18 H        1.9270    -3.3740     1.3110 H     1 <1>   0.1500 
 19 H        4.4620    -0.2910    -0.1980 H     1 <1>   0.1500 
 20 H        4.0400    -2.1170     1.3960 H     1 <1>   0.1500 
 21 H       -3.0400    -3.2760     1.2070 H     1 <1>   0.0800 
 22 H       -2.2830    -4.3860     0.1120 H     1 <1>   0.0800 
 23 H       -0.4680    -0.6670     0.8200 H     1 <1>   0.0800 
 24 H       -0.9750    -1.6130     2.1840 H     1 <1>   0.0800 
 25 H       -4.1200    -3.5930    -1.0960 H     1 <1>   0.0800 
 26 H       -2.7660    -2.7490    -1.7650 H     1 <1>   0.0800 
 27 H       -2.3500     0.4100     1.6090 H     1 <1>   0.0800 
 28 H       -3.2530    -1.0360     1.8520 H     1 <1>   0.0800 
 29 H       -4.8460    -1.6760     0.1620 H     1 <1>   0.0800 
 30 H       -4.6380    -1.2360    -1.5000 H     1 <1>   0.0800 
 31 H       -2.4300    -0.2040    -0.9430 H     1 <1>   0.0800 
 32 H       -3.7920     0.5370    -0.1660 H     1 <1>   0.0800 
@<TRIPOS>BOND
  1   1   2  1   
  2   2   3  ar  
  3   2   4  ar  
  4   3   5  1   
  5   3   6  ar  
  6   4   7  ar  
  7   4  17  1   
  8   5   8  2   
  9   5   9  am  
 10   6  10  ar  
 11   6  18  1   
 12   7  10  ar  
 13   7  19  1   
 14   9  11  1   
 15   9  12  1   
 16  10  20  1   
 17  11  13  1   
 18  11  21  1   
 19  11  22  1   
 20  12  14  1   
 21  12  23  1   
 22  12  24  1   
 23  13  15  1   
 24  13  25  1   
 25  13  26  1   
 26  14  16  1   
 27  14  27  1   
 28  14  28  1   
 29  15  16  1   
 30  15  29  1   
 31  15  30  1   
 32  16  31  1   
 33  16  32  1   
@<TRIPOS>SUBSTRUCTURE
  1 ****   5 GROUP 4 **** **** 0

# MOE 2024.06 (io_trps.svl 2023.06)
