@<TRIPOS>MOLECULE
NONAME
35 36 1 0 0 
SMALL
USER_CHARGES


@<TRIPOS>ATOM
  1 O       -0.0600     0.1380     0.8730 O.2   1 <1>  -0.5700 
  2 C        0.0890     1.2300     0.3730 C.2   1 <1>   0.5690 
  3 N        1.3010     1.6790    -0.0600 N.am  1 <1>  -0.5790 
  4 C       -1.1680     2.1060     0.2240 C.3   1 <1>   0.4040 
  5 C        2.5550     0.9160     0.0280 C.3   1 <1>   0.0490 
  6 N       -2.4550     1.3120     0.2470 N.4   1 <1>  -0.9590 
  7 C        3.8170     1.6710     0.2820 C.3   1 <1>  -0.2000 
  8 C        3.5530     1.0790    -1.0700 C.3   1 <1>  -0.2000 
  9 C       -2.5940     0.4500    -0.9630 C.3   1 <1>   0.3430 
 10 C       -3.6550     2.1580     0.4960 C.3   1 <1>   0.3430 
 11 C       -3.8100    -0.4620    -0.8060 C.3   1 <1>  -0.1600 
 12 C       -4.8850     1.2660     0.6720 C.3   1 <1>  -0.1600 
 13 C       -5.0920     0.3390    -0.5340 C.3   1 <1>  -0.0800 
 14 C       -6.2750    -0.6040    -0.2920 C.3   1 <1>  -0.2400 
 15 H        1.4260     2.6090    -0.4650 H     1 <1>   0.3700 
 16 H       -1.1000     2.6620    -0.6950 H     1 <1>   0.0800 
 17 H       -1.1690     2.8070     1.0410 H     1 <1>   0.0800 
 18 H        2.4400    -0.0580     0.4800 H     1 <1>   0.1000 
 19 H       -2.3480     0.6500     1.0360 H     1 <1>   0.4500 
 20 H        4.5790     1.2150     0.8910 H     1 <1>   0.1000 
 21 H        3.7830     2.7400     0.3980 H     1 <1>   0.1000 
 22 H        3.3360     1.7390    -1.8920 H     1 <1>   0.1000 
 23 H        4.1380     0.2270    -1.3690 H     1 <1>   0.1000 
 24 H       -1.7110    -0.1580    -1.0890 H     1 <1>   0.0800 
 25 H       -2.7160     1.0640    -1.8410 H     1 <1>   0.0800 
 26 H       -3.8130     2.8240    -0.3370 H     1 <1>   0.0800 
 27 H       -3.5140     2.7500     1.3870 H     1 <1>   0.0800 
 28 H       -3.6270    -1.1590    -0.0060 H     1 <1>   0.0800 
 29 H       -3.9310    -1.0360    -1.7090 H     1 <1>   0.0800 
 30 H       -5.7520     1.8920     0.7950 H     1 <1>   0.0800 
 31 H       -4.7760     0.6870     1.5730 H     1 <1>   0.0800 
 32 H       -5.3150     0.9410    -1.4000 H     1 <1>   0.0800 
 33 H       -6.1020    -1.2310     0.5660 H     1 <1>   0.0800 
 34 H       -6.4320    -1.2370    -1.1480 H     1 <1>   0.0800 
 35 H       -7.1770    -0.0400    -0.1250 H     1 <1>   0.0800 
@<TRIPOS>BOND
  1   1   2  2   
  2   2   3  am  
  3   2   4  1   
  4   3   5  1   
  5   3  15  1   
  6   4   6  1   
  7   4  16  1   
  8   4  17  1   
  9   5   7  1   
 10   5   8  1   
 11   5  18  1   
 12   6   9  1   
 13   6  10  1   
 14   6  19  1   
 15   7   8  1   
 16   7  20  1   
 17   7  21  1   
 18   8  22  1   
 19   8  23  1   
 20   9  11  1   
 21   9  24  1   
 22   9  25  1   
 23  10  12  1   
 24  10  26  1   
 25  10  27  1   
 26  11  13  1   
 27  11  28  1   
 28  11  29  1   
 29  12  13  1   
 30  12  30  1   
 31  12  31  1   
 32  13  14  1   
 33  13  32  1   
 34  14  33  1   
 35  14  34  1   
 36  14  35  1   
@<TRIPOS>SUBSTRUCTURE
  1 ****   4 GROUP 4 **** **** 0

# MOE 2024.06 (io_trps.svl 2023.06)
