@<TRIPOS>MOLECULE
NONAME
49 50 1 0 0 
SMALL
USER_CHARGES


@<TRIPOS>ATOM
  1 CL      -5.0140     1.0990    -2.9560 Cl    1 <1>  -0.1770 
  2 C       -4.5070     2.4010    -1.9120 C.ar  1 <1>   0.1770 
  3 C       -4.5030     3.6970    -2.3960 C.ar  1 <1>  -0.1500 
  4 C       -4.1480     2.1220    -0.6070 C.ar  1 <1>  -0.1500 
  5 C       -4.1570     4.7330    -1.5450 C.ar  1 <1>  -0.1500 
  6 C       -3.7990     3.1640     0.2340 C.ar  1 <1>  -0.1500 
  7 C       -3.8150     4.4820    -0.2190 C.ar  1 <1>   0.1990 
  8 N       -3.4720     5.5420     0.6130 N.am  1 <1>  -0.6930 
  9 S       -1.7890     5.7940     0.9360 S.o2  1 <1>   1.3330 
 10 C       -4.3520     5.9220     1.7750 C.3   1 <1>   0.3370 
 11 O       -1.2660     4.5450     1.4260 O.2   1 <1>  -0.6500 
 12 O       -1.6850     7.0020     1.7170 O.2   1 <1>  -0.6500 
 13 C       -1.1210     6.1320    -0.6790 C.3   1 <1>  -0.1350 
 14 C       -5.4380     4.8920     2.1970 C.2   1 <1>   0.5690 
 15 C       -4.8920     7.3450     1.5540 C.3   1 <1>  -0.2400 
 16 O       -5.1430     4.1390     3.0960 O.2   1 <1>  -0.5700 
 17 N       -6.6950     4.7840     1.6290 N.am  1 <1>  -0.6600 
 18 C       -7.0680     5.1820     0.2420 C.3   1 <1>   0.1400 
 19 C       -7.7350     3.9260     2.2800 C.3   1 <1>   0.1400 
 20 C       -7.3710     3.9320    -0.6130 C.3   1 <1>   0.3430 
 21 C       -7.9690     2.6590     1.4420 C.3   1 <1>   0.3430 
 22 N       -8.3610     2.9900     0.0210 N.4   1 <1>  -0.9590 
 23 C       -8.5000     1.7670    -0.8150 C.3   1 <1>   0.3430 
 24 C       -9.7420     0.9910    -0.3940 C.3   1 <1>  -0.2400 
 25 H       -4.7620     3.8840    -3.4240 H     1 <1>   0.1500 
 26 H       -4.1310     1.1040    -0.2550 H     1 <1>   0.1500 
 27 H       -4.1420     5.7470    -1.9060 H     1 <1>   0.1500 
 28 H       -3.4980     2.9600     1.2490 H     1 <1>   0.1500 
 29 H       -3.7210     5.9860     2.6470 H     1 <1>   0.0800 
 30 H       -1.2530     5.2850    -1.3230 H     1 <1>   0.0800 
 31 H       -0.0710     6.3390    -0.6020 H     1 <1>   0.0800 
 32 H       -1.6070     6.9840    -1.1120 H     1 <1>   0.0800 
 33 H       -5.3960     7.4470     0.6140 H     1 <1>   0.0800 
 34 H       -4.0820     8.0500     1.5830 H     1 <1>   0.0800 
 35 H       -5.5740     7.6000     2.3450 H     1 <1>   0.0800 
 36 H       -6.2710     5.7250    -0.2270 H     1 <1>   0.0800 
 37 H       -7.9300     5.8260     0.2720 H     1 <1>   0.0800 
 38 H       -8.6530     4.4810     2.3720 H     1 <1>   0.0800 
 39 H       -7.4350     3.6430     3.2740 H     1 <1>   0.0800 
 40 H       -6.4440     3.4080    -0.7600 H     1 <1>   0.0800 
 41 H       -7.7280     4.2430    -1.5810 H     1 <1>   0.0800 
 42 H       -8.7390     2.0680     1.9100 H     1 <1>   0.0800 
 43 H       -7.0590     2.0810     1.4450 H     1 <1>   0.0800 
 44 H       -9.2750     3.4600     0.0480 H     1 <1>   0.4500 
 45 H       -7.6220     1.1460    -0.7170 H     1 <1>   0.0800 
 46 H       -8.6000     2.0440    -1.8530 H     1 <1>   0.0800 
 47 H       -9.6470     0.6020     0.6040 H     1 <1>   0.0800 
 48 H       -9.8700     0.1530    -1.0560 H     1 <1>   0.0800 
 49 H      -10.6220     1.6050    -0.4660 H     1 <1>   0.0800 
@<TRIPOS>BOND
  1   1   2  1   
  2   2   3  ar  
  3   2   4  ar  
  4   3   5  ar  
  5   3  25  1   
  6   4   6  ar  
  7   4  26  1   
  8   5   7  ar  
  9   5  27  1   
 10   6   7  ar  
 11   6  28  1   
 12   7   8  1   
 13   8   9  am  
 14   8  10  1   
 15   9  11  2   
 16   9  12  2   
 17   9  13  1   
 18  10  14  1   
 19  10  15  1   
 20  10  29  1   
 21  13  30  1   
 22  13  31  1   
 23  13  32  1   
 24  14  16  2   
 25  14  17  am  
 26  15  33  1   
 27  15  34  1   
 28  15  35  1   
 29  17  18  1   
 30  17  19  1   
 31  18  20  1   
 32  18  36  1   
 33  18  37  1   
 34  19  21  1   
 35  19  38  1   
 36  19  39  1   
 37  20  22  1   
 38  20  40  1   
 39  20  41  1   
 40  21  22  1   
 41  21  42  1   
 42  21  43  1   
 43  22  23  1   
 44  22  44  1   
 45  23  24  1   
 46  23  45  1   
 47  23  46  1   
 48  24  47  1   
 49  24  48  1   
 50  24  49  1   
@<TRIPOS>SUBSTRUCTURE
  1 ****   7 GROUP 4 **** **** 0

# MOE 2024.06 (io_trps.svl 2023.06)
