@<TRIPOS>MOLECULE
NONAME
50 52 1 0 0 
SMALL
USER_CHARGES


@<TRIPOS>ATOM
  1 O       -7.5190    -0.7860    -0.8040 O.3   1 <1>  -0.3630 
  2 C       -6.5800     0.0200    -0.2510 C.ar  1 <1>   0.0830 
  3 C       -7.2020    -2.1640    -0.8770 C.3   1 <1>   0.0400 
  4 C       -6.8130     0.5090     1.0310 C.ar  1 <1>  -0.1440 
  5 C       -5.4260     0.3730    -0.9490 C.ar  1 <1>  -0.1440 
  6 C       -5.8560     1.2970     1.6480 C.ar  1 <1>  -0.1500 
  7 C       -8.1160     0.2010     1.7410 C.3   1 <1>   0.4870 
  8 C       -4.4660     1.1570    -0.3140 C.ar  1 <1>   0.0820 
  9 C       -5.1950    -0.0620    -2.3980 C.3   1 <1>  -0.0970 
 10 C       -4.6850     1.6120     0.9840 C.ar  1 <1>  -0.1500 
 11 N       -9.2310     0.6980     0.8980 N.4   1 <1>  -0.9590 
 12 O       -3.3320     1.4530    -1.0040 O.3   1 <1>  -0.3630 
 13 C       -9.1870     2.1930     0.7080 C.3   1 <1>   0.3430 
 14 C      -10.5810     0.2340     1.3690 C.3   1 <1>   0.3430 
 15 C       -2.2580     2.1600    -0.4240 C.3   1 <1>   0.0400 
 16 C      -10.3300     2.7030    -0.1930 C.3   1 <1>   0.2090 
 17 C      -11.7220     0.7440     0.4650 C.3   1 <1>   0.2090 
 18 N      -11.6610     2.2250     0.2890 N.pl3 1 <1>  -0.8380 
 19 C      -12.7270     2.7530    -0.4060 C.ar  1 <1>   0.4100 
 20 N      -12.8580     2.3570    -1.6650 N.ar  1 <1>  -0.6200 
 21 C      -13.5890     3.6480     0.2180 C.ar  1 <1>  -0.1500 
 22 C      -13.8850     2.8740    -2.3220 C.ar  1 <1>   0.1600 
 23 C      -14.6520     4.1760    -0.4770 C.ar  1 <1>  -0.1500 
 24 C      -14.7950     3.7690    -1.7880 C.ar  1 <1>  -0.1500 
 25 H       -6.3250    -2.3010    -1.4820 H     1 <1>   0.0800 
 26 H       -8.0330    -2.6820    -1.3220 H     1 <1>   0.0800 
 27 H       -7.0220    -2.5360     0.1160 H     1 <1>   0.0800 
 28 H       -6.0050     1.6740     2.6460 H     1 <1>   0.1500 
 29 H       -8.1370     0.6740     2.7090 H     1 <1>   0.0800 
 30 H       -8.2000    -0.8660     1.8720 H     1 <1>   0.0800 
 31 H       -6.1110    -0.3530    -2.8770 H     1 <1>   0.0800 
 32 H       -4.5050    -0.8850    -2.4260 H     1 <1>   0.0800 
 33 H       -4.7790     0.7490    -2.9690 H     1 <1>   0.0800 
 34 H       -3.9560     2.2170     1.4900 H     1 <1>   0.1500 
 35 H       -9.0430     0.2830    -0.0320 H     1 <1>   0.4500 
 36 H       -8.2450     2.4790     0.2690 H     1 <1>   0.0800 
 37 H       -9.2690     2.6820     1.6640 H     1 <1>   0.0800 
 38 H      -10.7590     0.5970     2.3670 H     1 <1>   0.0800 
 39 H      -10.6110    -0.8420     1.3950 H     1 <1>   0.0800 
 40 H       -1.4720     2.2300    -1.1540 H     1 <1>   0.0800 
 41 H       -1.9070     1.6180     0.4370 H     1 <1>   0.0800 
 42 H       -2.5920     3.1450    -0.1530 H     1 <1>   0.0800 
 43 H      -10.1700     2.3660    -1.2030 H     1 <1>   0.0800 
 44 H      -10.3230     3.7790    -0.2030 H     1 <1>   0.0800 
 45 H      -12.6700     0.4790     0.9020 H     1 <1>   0.0800 
 46 H      -11.6620     0.2640    -0.4980 H     1 <1>   0.0800 
 47 H      -13.4110     3.9150     1.2420 H     1 <1>   0.1500 
 48 H      -14.0090     2.5650    -3.3460 H     1 <1>   0.1500 
 49 H      -15.3380     4.8710    -0.0240 H     1 <1>   0.1500 
 50 H      -15.6040     4.1430    -2.3900 H     1 <1>   0.1500 
@<TRIPOS>BOND
  1   1   2  1   
  2   1   3  1   
  3   2   4  ar  
  4   2   5  ar  
  5   3  25  1   
  6   3  26  1   
  7   3  27  1   
  8   4   6  ar  
  9   4   7  1   
 10   5   8  ar  
 11   5   9  1   
 12   6  10  ar  
 13   6  28  1   
 14   7  11  1   
 15   7  29  1   
 16   7  30  1   
 17   8  10  ar  
 18   8  12  1   
 19   9  31  1   
 20   9  32  1   
 21   9  33  1   
 22  10  34  1   
 23  11  13  1   
 24  11  14  1   
 25  11  35  1   
 26  12  15  1   
 27  13  16  1   
 28  13  36  1   
 29  13  37  1   
 30  14  17  1   
 31  14  38  1   
 32  14  39  1   
 33  15  40  1   
 34  15  41  1   
 35  15  42  1   
 36  16  18  1   
 37  16  43  1   
 38  16  44  1   
 39  17  18  1   
 40  17  45  1   
 41  17  46  1   
 42  18  19  1   
 43  19  20  ar  
 44  19  21  ar  
 45  20  22  ar  
 46  21  23  ar  
 47  21  47  1   
 48  22  24  ar  
 49  22  48  1   
 50  23  24  ar  
 51  23  49  1   
 52  24  50  1   
@<TRIPOS>SUBSTRUCTURE
  1 ****  13 GROUP 4 **** **** 0

# MOE 2024.06 (io_trps.svl 2023.06)
