@<TRIPOS>MOLECULE
NONAME
34 35 1 0 0 
SMALL
USER_CHARGES


@<TRIPOS>ATOM
  1 O        0.0490     0.3620     0.6630 O.2   1 <1>  -0.5700 
  2 C       -0.0630     1.5040     0.2580 C.2   1 <1>   0.6900 
  3 N        1.0430     2.3040     0.1460 N.am  1 <1>  -0.6600 
  4 N       -1.2790     2.0290    -0.0740 N.am  1 <1>  -0.5470 
  5 C        1.1010     3.6120    -0.5410 C.3   1 <1>   0.1400 
  6 C        2.4020     1.8060     0.4540 C.3   1 <1>   0.1400 
  7 C       -2.5620     1.4630    -0.1420 C.ar  1 <1>   0.1170 
  8 C        2.5630     4.0360    -0.4550 C.3   1 <1>  -0.1600 
  9 C        3.3380     2.7290    -0.3160 C.3   1 <1>  -0.1600 
 10 C       -3.6950     2.2600     0.0650 C.ar  1 <1>  -0.1430 
 11 C       -2.7280     0.1170    -0.4480 C.ar  1 <1>  -0.1500 
 12 C       -4.9670     1.7010    -0.0560 C.ar  1 <1>  -0.1430 
 13 C       -3.5100     3.7370     0.4240 C.3   1 <1>  -0.0970 
 14 C       -3.9860    -0.4370    -0.5540 C.ar  1 <1>  -0.1500 
 15 C       -5.1010     0.3550    -0.3610 C.ar  1 <1>  -0.1500 
 16 C       -6.2430     2.5110     0.1340 C.3   1 <1>  -0.0970 
 17 H       -1.2510     3.0320    -0.1930 H     1 <1>   0.3700 
 18 H        0.4600     4.3300    -0.0600 H     1 <1>   0.0800 
 19 H        0.8070     3.4840    -1.5700 H     1 <1>   0.0800 
 20 H        2.5180     0.7790     0.1500 H     1 <1>   0.0800 
 21 H        2.5700     1.8890     1.5140 H     1 <1>   0.0800 
 22 H        2.7010     4.6360     0.4270 H     1 <1>   0.0800 
 23 H        2.8670     4.6040    -1.3170 H     1 <1>   0.0800 
 24 H        3.5210     2.3060    -1.2880 H     1 <1>   0.0800 
 25 H        4.2780     2.8590     0.1920 H     1 <1>   0.0800 
 26 H       -1.8660    -0.5050    -0.6080 H     1 <1>   0.1500 
 27 H       -2.7400     3.8460     1.1660 H     1 <1>   0.0800 
 28 H       -4.3990     4.1740     0.8360 H     1 <1>   0.0800 
 29 H       -3.2350     4.2920    -0.4550 H     1 <1>   0.0800 
 30 H       -4.0960    -1.4810    -0.7880 H     1 <1>   0.1500 
 31 H       -6.0760    -0.0900    -0.4510 H     1 <1>   0.1500 
 32 H       -6.2270     3.3810    -0.4980 H     1 <1>   0.0800 
 33 H       -6.3340     2.8180     1.1600 H     1 <1>   0.0800 
 34 H       -7.1120     1.9320    -0.1220 H     1 <1>   0.0800 
@<TRIPOS>BOND
  1   1   2  2   
  2   2   3  am  
  3   2   4  am  
  4   3   5  1   
  5   3   6  1   
  6   4   7  1   
  7   4  17  1   
  8   5   8  1   
  9   5  18  1   
 10   5  19  1   
 11   6   9  1   
 12   6  20  1   
 13   6  21  1   
 14   7  10  ar  
 15   7  11  ar  
 16   8   9  1   
 17   8  22  1   
 18   8  23  1   
 19   9  24  1   
 20   9  25  1   
 21  10  12  ar  
 22  10  13  1   
 23  11  14  ar  
 24  11  26  1   
 25  12  15  ar  
 26  12  16  1   
 27  13  27  1   
 28  13  28  1   
 29  13  29  1   
 30  14  15  ar  
 31  14  30  1   
 32  15  31  1   
 33  16  32  1   
 34  16  33  1   
 35  16  34  1   
@<TRIPOS>SUBSTRUCTURE
  1 ****   4 GROUP 4 **** **** 0

# MOE 2024.06 (io_trps.svl 2023.06)
