@<TRIPOS>MOLECULE
NONAME
29 29 1 0 0 
SMALL
USER_CHARGES


@<TRIPOS>ATOM
  1 O       -0.8310     2.7190     1.3930 O.2   1 <1>  -0.5700 
  2 C       -0.3760     2.0070     0.5340 C.2   1 <1>   0.5690 
  3 N       -1.1450     1.4310    -0.4210 N.am  1 <1>  -0.7300 
  4 C        1.1040     1.7300     0.5150 C.3   1 <1>  -0.1790 
  5 C       -2.6090     1.6280    -0.5470 C.3   1 <1>   0.1400 
  6 C       -3.3510     0.4970     0.1640 C.3   1 <1>  -0.0160 
  7 C       -4.8520     0.6850     0.0200 C.ar  1 <1>  -0.1440 
  8 C       -5.5570     0.0070    -0.9620 C.ar  1 <1>  -0.1500 
  9 C       -5.5270     1.5460     0.8710 C.ar  1 <1>  -0.1500 
 10 C       -6.9230     0.1900    -1.0910 C.ar  1 <1>  -0.1500 
 11 C       -6.8930     1.7310     0.7450 C.ar  1 <1>  -0.1500 
 12 C       -7.6000     1.0510    -0.2420 C.ar  1 <1>   0.0820 
 13 O       -8.9370     1.1740    -0.4360 O.3   1 <1>  -0.3630 
 14 C       -9.7170     2.0240     0.3740 C.3   1 <1>   0.0400 
 15 H       -0.7140     0.8170    -1.1130 H     1 <1>   0.3700 
 16 H        1.5840     2.2740     1.3070 H     1 <1>   0.0800 
 17 H        1.5200     2.0420    -0.4240 H     1 <1>   0.0800 
 18 H        1.2780     0.6800     0.6570 H     1 <1>   0.0800 
 19 H       -2.8810     1.6520    -1.5880 H     1 <1>   0.0800 
 20 H       -2.8850     2.5710    -0.1050 H     1 <1>   0.0800 
 21 H       -3.0890     0.5020     1.2080 H     1 <1>   0.0800 
 22 H       -3.0600    -0.4490    -0.2540 H     1 <1>   0.0800 
 23 H       -5.0500    -0.6660    -1.6320 H     1 <1>   0.1500 
 24 H       -4.9880     2.0770     1.6370 H     1 <1>   0.1500 
 25 H       -7.4730    -0.3330    -1.8500 H     1 <1>   0.1500 
 26 H       -7.3840     2.4050     1.4200 H     1 <1>   0.1500 
 27 H      -10.7370     1.9600     0.0410 H     1 <1>   0.0800 
 28 H       -9.3590     3.0330     0.2670 H     1 <1>   0.0800 
 29 H       -9.6440     1.6950     1.3960 H     1 <1>   0.0800 
@<TRIPOS>BOND
  1   1   2  2   
  2   2   3  am  
  3   2   4  1   
  4   3   5  1   
  5   3  15  1   
  6   4  16  1   
  7   4  17  1   
  8   4  18  1   
  9   5   6  1   
 10   5  19  1   
 11   5  20  1   
 12   6   7  1   
 13   6  21  1   
 14   6  22  1   
 15   7   8  ar  
 16   7   9  ar  
 17   8  10  ar  
 18   8  23  1   
 19   9  11  ar  
 20   9  24  1   
 21  10  12  ar  
 22  10  25  1   
 23  11  12  ar  
 24  11  26  1   
 25  12  13  1   
 26  13  14  1   
 27  14  27  1   
 28  14  28  1   
 29  14  29  1   
@<TRIPOS>SUBSTRUCTURE
  1 ****   7 GROUP 4 **** **** 0

# MOE 2024.06 (io_trps.svl 2023.06)
