@<TRIPOS>MOLECULE
NONAME
40 40 1 0 0 
SMALL
USER_CHARGES


@<TRIPOS>ATOM
  1 O        1.0590    -2.8660     1.6920 O.2   1 <1>  -0.5700 
  2 C        0.4520    -2.3640     0.7540 C.2   1 <1>   0.5440 
  3 N        1.1110    -1.4250     0.0130 N.am  1 <1>  -0.4300 
  4 C       -0.9200    -2.7630     0.4660 C.ar  1 <1>   0.0860 
  5 N        2.5490    -1.1430     0.0680 N.am  1 <1>  -0.4300 
  6 C       -1.7820    -2.0790    -0.4150 C.ar  1 <1>   0.0830 
  7 C       -1.4350    -3.9030     1.0960 C.ar  1 <1>  -0.1500 
  8 C        3.4810    -1.6130    -0.8070 C.2   1 <1>   0.5690 
  9 O       -1.3310    -0.9620    -1.0480 O.3   1 <1>  -0.3620 
 10 C       -3.0790    -2.5400    -0.6300 C.ar  1 <1>  -0.1500 
 11 C       -2.7210    -4.3540     0.8800 C.ar  1 <1>  -0.1500 
 12 O        3.1570    -2.1200    -1.8620 O.2   1 <1>  -0.5700 
 13 C        4.9890    -1.4820    -0.4710 C.3   1 <1>   0.0610 
 14 C       -2.0910    -0.2640    -2.0130 C.3   1 <1>   0.0400 
 15 C       -3.5560    -3.6680     0.0080 C.ar  1 <1>   0.0830 
 16 C        5.6870    -0.6080    -1.5300 C.3   1 <1>  -0.2400 
 17 C        5.6450    -2.8750    -0.4740 C.3   1 <1>  -0.2400 
 18 C        5.2470    -0.8450     0.9140 C.3   1 <1>  -0.2400 
 19 O       -4.8280    -4.0370    -0.2640 O.3   1 <1>  -0.3630 
 20 C       -5.4150    -5.1730     0.3330 C.3   1 <1>   0.0400 
 21 H        0.5740    -0.9600    -0.7320 H     1 <1>   0.3700 
 22 H        2.8730    -0.7260     0.9440 H     1 <1>   0.3700 
 23 H       -0.8040    -4.4510     1.7750 H     1 <1>   0.1500 
 24 H       -3.7570    -2.0390    -1.2930 H     1 <1>   0.1500 
 25 H       -3.0540    -5.2360     1.3950 H     1 <1>   0.1500 
 26 H       -1.4940     0.5490    -2.3860 H     1 <1>   0.0800 
 27 H       -2.9810     0.1220    -1.5470 H     1 <1>   0.0800 
 28 H       -2.3360    -0.9340    -2.8180 H     1 <1>   0.0800 
 29 H        5.5700    -1.0450    -2.5070 H     1 <1>   0.0800 
 30 H        6.7390    -0.5170    -1.3230 H     1 <1>   0.0800 
 31 H        5.2530     0.3760    -1.5490 H     1 <1>   0.0800 
 32 H        5.1770    -3.5090     0.2580 H     1 <1>   0.0800 
 33 H        6.6960    -2.8090    -0.2530 H     1 <1>   0.0800 
 34 H        5.5290    -3.3390    -1.4390 H     1 <1>   0.0800 
 35 H        4.7980    -1.4380     1.6920 H     1 <1>   0.0800 
 36 H        4.8460     0.1520     0.9570 H     1 <1>   0.0800 
 37 H        6.3030    -0.7860     1.1090 H     1 <1>   0.0800 
 38 H       -6.4210    -5.2610    -0.0340 H     1 <1>   0.0800 
 39 H       -5.4260    -5.0390     1.4010 H     1 <1>   0.0800 
 40 H       -4.8470    -6.0440     0.0590 H     1 <1>   0.0800 
@<TRIPOS>BOND
  1   1   2  2   
  2   2   3  am  
  3   2   4  1   
  4   3   5  1   
  5   3  21  1   
  6   4   6  ar  
  7   4   7  ar  
  8   5   8  am  
  9   5  22  1   
 10   6   9  1   
 11   6  10  ar  
 12   7  11  ar  
 13   7  23  1   
 14   8  12  2   
 15   8  13  1   
 16   9  14  1   
 17  10  15  ar  
 18  10  24  1   
 19  11  15  ar  
 20  11  25  1   
 21  13  16  1   
 22  13  17  1   
 23  13  18  1   
 24  14  26  1   
 25  14  27  1   
 26  14  28  1   
 27  15  19  1   
 28  16  29  1   
 29  16  30  1   
 30  16  31  1   
 31  17  32  1   
 32  17  33  1   
 33  17  34  1   
 34  18  35  1   
 35  18  36  1   
 36  18  37  1   
 37  19  20  1   
 38  20  38  1   
 39  20  39  1   
 40  20  40  1   
@<TRIPOS>SUBSTRUCTURE
  1 ****   2 GROUP 4 **** **** 0

# MOE 2024.06 (io_trps.svl 2023.06)
