@<TRIPOS>MOLECULE
NONAME
42 43 1 0 0 
SMALL
USER_CHARGES


@<TRIPOS>ATOM
  1 N       -0.0070    -0.0570     0.0480 N.3   1 <1>  -0.8100 
  2 C       -0.1870     0.7030    -1.2170 C.3   1 <1>   0.1100 
  3 C       -1.2010    -0.8910     0.3190 C.3   1 <1>   0.1100 
  4 C        1.2210    -0.8690     0.0560 C.3   1 <1>   0.1100 
  5 C       -1.5230     1.4860    -1.2590 C.3   1 <1>   0.3430 
  6 C       -2.5010    -0.0520     0.3940 C.3   1 <1>   0.3430 
  7 C        2.4600     0.0220     0.1720 C.3   1 <1>  -0.1600 
  8 N       -2.2430     1.3890     0.0520 N.4   1 <1>  -0.9590 
  9 C        3.7290    -0.8090     0.3870 C.3   1 <1>  -0.0170 
 10 C       -3.4300     2.2740     0.1320 C.3   1 <1>   0.3430 
 11 C        4.9440     0.1010     0.4580 C.ar  1 <1>  -0.1440 
 12 C       -3.8710     2.4120     1.5840 C.3   1 <1>  -0.2400 
 13 C        5.6690     0.3910    -0.6880 C.ar  1 <1>  -0.1500 
 14 C        5.3360     0.6530     1.6680 C.ar  1 <1>  -0.1500 
 15 C        6.7730     1.2250    -0.6250 C.ar  1 <1>  -0.1500 
 16 C        6.4390     1.4870     1.7320 C.ar  1 <1>  -0.1500 
 17 C        7.1580     1.7740     0.5850 C.ar  1 <1>  -0.1500 
 18 H       -0.1450     0.0320    -2.0590 H     1 <1>   0.0800 
 19 H        0.6160     1.4100    -1.3290 H     1 <1>   0.0800 
 20 H       -1.0730    -1.4080     1.2550 H     1 <1>   0.0800 
 21 H       -1.3060    -1.6380    -0.4500 H     1 <1>   0.0800 
 22 H        1.2770    -1.4780    -0.8320 H     1 <1>   0.0800 
 23 H        1.2000    -1.5260     0.9110 H     1 <1>   0.0800 
 24 H       -2.1410     1.0890    -2.0470 H     1 <1>   0.0800 
 25 H       -1.3140     2.5170    -1.4910 H     1 <1>   0.0800 
 26 H       -2.8970    -0.1240     1.3930 H     1 <1>   0.0800 
 27 H       -3.2320    -0.4680    -0.2790 H     1 <1>   0.0800 
 28 H        2.3400     0.6940     1.0040 H     1 <1>   0.0800 
 29 H        2.5860     0.6040    -0.7230 H     1 <1>   0.0800 
 30 H       -1.5320     1.6820     0.7410 H     1 <1>   0.4500 
 31 H        3.8530    -1.5100    -0.4200 H     1 <1>   0.0800 
 32 H        3.6510    -1.3720     1.3010 H     1 <1>   0.0800 
 33 H       -4.2340     1.8750    -0.4650 H     1 <1>   0.0800 
 34 H       -3.1770     3.2510    -0.2490 H     1 <1>   0.0800 
 35 H       -4.2310     1.4790     1.9770 H     1 <1>   0.0800 
 36 H       -4.6780     3.1210     1.6400 H     1 <1>   0.0800 
 37 H       -3.0660     2.7780     2.1950 H     1 <1>   0.0800 
 38 H        5.3790    -0.0290    -1.6340 H     1 <1>   0.1500 
 39 H        4.7830     0.4380     2.5650 H     1 <1>   0.1500 
 40 H        7.3310     1.4460    -1.5170 H     1 <1>   0.1500 
 41 H        6.7370     1.9120     2.6740 H     1 <1>   0.1500 
 42 H        8.0150     2.4220     0.6350 H     1 <1>   0.1500 
@<TRIPOS>BOND
  1   1   2  1   
  2   1   3  1   
  3   1   4  1   
  4   2   5  1   
  5   2  18  1   
  6   2  19  1   
  7   3   6  1   
  8   3  20  1   
  9   3  21  1   
 10   4   7  1   
 11   4  22  1   
 12   4  23  1   
 13   5   8  1   
 14   5  24  1   
 15   5  25  1   
 16   6   8  1   
 17   6  26  1   
 18   6  27  1   
 19   7   9  1   
 20   7  28  1   
 21   7  29  1   
 22   8  10  1   
 23   8  30  1   
 24   9  11  1   
 25   9  31  1   
 26   9  32  1   
 27  10  12  1   
 28  10  33  1   
 29  10  34  1   
 30  11  13  ar  
 31  11  14  ar  
 32  12  35  1   
 33  12  36  1   
 34  12  37  1   
 35  13  15  ar  
 36  13  38  1   
 37  14  16  ar  
 38  14  39  1   
 39  15  17  ar  
 40  15  40  1   
 41  16  17  ar  
 42  16  41  1   
 43  17  42  1   
@<TRIPOS>SUBSTRUCTURE
  1 ****   7 GROUP 4 **** **** 0

# MOE 2024.06 (io_trps.svl 2023.06)
