@<TRIPOS>MOLECULE
NONAME
51 53 1 0 0 
SMALL
USER_CHARGES


@<TRIPOS>ATOM
  1 O        9.0770    -2.8760     1.0660 O.2   1 <1>  -0.5700 
  2 C        9.3860    -3.7690     0.3220 C.2   1 <1>   0.6590 
  3 O       10.6430    -4.0320     0.0010 O.3   1 <1>  -0.4300 
  4 C        8.3390    -4.6690    -0.3100 C.3   1 <1>  -0.0190 
  5 C       11.7130    -3.2800     0.5250 C.3   1 <1>   0.1200 
  6 C        6.9600    -3.9830    -0.2380 C.3   1 <1>   0.3430 
  7 C        8.3190    -6.0690     0.3340 C.3   1 <1>  -0.1600 
  8 C       13.0110    -3.8480    -0.0400 C.3   1 <1>  -0.2400 
  9 N        5.8210    -4.9550    -0.0730 N.4   1 <1>  -0.9590 
 10 C        7.2410    -6.9630    -0.3120 C.3   1 <1>  -0.1600 
 11 C        6.0360    -6.1950    -0.8740 C.3   1 <1>   0.3430 
 12 C        4.5180    -4.2740    -0.3810 C.3   1 <1>   0.3430 
 13 C        3.2980    -5.0860     0.0640 C.3   1 <1>   0.1200 
 14 O        2.1590    -4.3450    -0.2900 O.3   1 <1>  -0.3630 
 15 C        0.9100    -4.8110    -0.0450 C.ar  1 <1>   0.0820 
 16 C       -0.1430    -4.0230    -0.4870 C.ar  1 <1>  -0.1500 
 17 C        0.6450    -6.0150     0.6120 C.ar  1 <1>  -0.1500 
 18 C       -1.4420    -4.4420    -0.2720 C.ar  1 <1>  -0.1430 
 19 C       -0.6630    -6.4240     0.8210 C.ar  1 <1>  -0.1500 
 20 C       -1.6980    -5.6260     0.3720 C.ar  1 <1>  -0.1430 
 21 C       -2.7190    -3.7450    -0.6680 C.3   1 <1>  -0.0170 
 22 C       -3.1810    -5.8750     0.4920 C.3   1 <1>  -0.0170 
 23 C       -3.8030    -4.5240     0.0970 C.3   1 <1>  -0.1600 
 24 H        8.6040    -4.7730    -1.3470 H     1 <1>   0.0800 
 25 H       11.6940    -3.3570     1.6000 H     1 <1>   0.0800 
 26 H       11.5840    -2.2500     0.2350 H     1 <1>   0.0800 
 27 H        6.8220    -3.4000    -1.1340 H     1 <1>   0.0800 
 28 H        6.9430    -3.2980     0.5950 H     1 <1>   0.0800 
 29 H        8.1170    -5.9660     1.3880 H     1 <1>   0.0800 
 30 H        9.2850    -6.5380     0.2390 H     1 <1>   0.0800 
 31 H       13.1250    -4.8770     0.2510 H     1 <1>   0.0800 
 32 H       13.8470    -3.2920     0.3450 H     1 <1>   0.0800 
 33 H       13.0160    -3.7720    -1.1120 H     1 <1>   0.0800 
 34 H        5.8150    -5.2330     0.9180 H     1 <1>   0.4500 
 35 H        6.9010    -7.6860     0.4100 H     1 <1>   0.0800 
 36 H        7.6800    -7.5220    -1.1210 H     1 <1>   0.0800 
 37 H        6.2270    -5.9270    -1.9010 H     1 <1>   0.0800 
 38 H        5.1650    -6.8290    -0.8480 H     1 <1>   0.0800 
 39 H        4.4470    -4.0920    -1.4410 H     1 <1>   0.0800 
 40 H        4.4850    -3.3230     0.1270 H     1 <1>   0.0800 
 41 H        3.2910    -5.2190     1.1310 H     1 <1>   0.0800 
 42 H        3.2460    -6.0310    -0.4460 H     1 <1>   0.0800 
 43 H        0.0540    -3.0960    -0.9920 H     1 <1>   0.1500 
 44 H        1.4320    -6.6490     0.9710 H     1 <1>   0.1500 
 45 H       -0.8750    -7.3500     1.3260 H     1 <1>   0.1500 
 46 H       -2.8620    -3.8370    -1.7310 H     1 <1>   0.0800 
 47 H       -2.7060    -2.7060    -0.3890 H     1 <1>   0.0800 
 48 H       -3.4560    -6.1590     1.4920 H     1 <1>   0.0800 
 49 H       -3.4710    -6.6440    -0.2020 H     1 <1>   0.0800 
 50 H       -4.6940    -4.6510    -0.4910 H     1 <1>   0.0800 
 51 H       -4.0490    -3.9820     0.9940 H     1 <1>   0.0800 
@<TRIPOS>BOND
  1   1   2  2   
  2   2   3  1   
  3   2   4  1   
  4   3   5  1   
  5   4   6  1   
  6   4   7  1   
  7   4  24  1   
  8   5   8  1   
  9   5  25  1   
 10   5  26  1   
 11   6   9  1   
 12   6  27  1   
 13   6  28  1   
 14   7  10  1   
 15   7  29  1   
 16   7  30  1   
 17   8  31  1   
 18   8  32  1   
 19   8  33  1   
 20   9  11  1   
 21   9  12  1   
 22   9  34  1   
 23  10  11  1   
 24  10  35  1   
 25  10  36  1   
 26  11  37  1   
 27  11  38  1   
 28  12  13  1   
 29  12  39  1   
 30  12  40  1   
 31  13  14  1   
 32  13  41  1   
 33  13  42  1   
 34  14  15  1   
 35  15  16  ar  
 36  15  17  ar  
 37  16  18  ar  
 38  16  43  1   
 39  17  19  ar  
 40  17  44  1   
 41  18  20  ar  
 42  18  21  1   
 43  19  20  ar  
 44  19  45  1   
 45  20  22  1   
 46  21  23  1   
 47  21  46  1   
 48  21  47  1   
 49  22  23  1   
 50  22  48  1   
 51  22  49  1   
 52  23  50  1   
 53  23  51  1   
@<TRIPOS>SUBSTRUCTURE
  1 ****  12 GROUP 4 **** **** 0

# MOE 2024.06 (io_trps.svl 2023.06)
