@<TRIPOS>MOLECULE
NONAME
36 37 1 0 0 
SMALL
USER_CHARGES


@<TRIPOS>ATOM
  1 O        0.9780    -1.3880     0.6500 O.3   1 <1>  -0.5600 
  2 C        0.8690    -2.6900     1.1230 C.3   1 <1>   0.5690 
  3 C       -0.2710    -0.8480     0.3190 C.3   1 <1>   0.2000 
  4 N        1.3140    -3.5560     0.0230 N.pl3 1 <1>  -0.8690 
  5 C       -0.6100    -2.9200     1.3900 C.3   1 <1>  -0.1600 
  6 C       -1.2610    -2.0200     0.3650 C.3   1 <1>   0.2000 
  7 C       -0.1600    -0.0960    -1.0170 C.3   1 <1>   0.1200 
  8 C        2.6600    -3.8980    -0.0190 C.ar  1 <1>   0.1000 
  9 O       -1.2780    -2.7010    -0.8450 O.3   1 <1>  -0.6800 
 10 O       -1.4280     0.1970    -1.5060 O.3   1 <1>  -0.6800 
 11 C        3.6630    -2.9370     0.0040 C.ar  1 <1>  -0.1500 
 12 C        3.0280    -5.2340    -0.0880 C.ar  1 <1>  -0.1500 
 13 C        5.0030    -3.2880    -0.0210 C.ar  1 <1>  -0.1440 
 14 C        4.3610    -5.5960    -0.1150 C.ar  1 <1>  -0.1500 
 15 C        5.3580    -4.6320    -0.0780 C.ar  1 <1>  -0.1440 
 16 C        6.0540    -2.1880     0.0100 C.3   1 <1>  -0.0970 
 17 C        6.8150    -5.0710    -0.1080 C.3   1 <1>  -0.0970 
 18 H        1.4880    -2.8130     1.9970 H     1 <1>   0.0800 
 19 H       -0.5170    -0.1470     1.0980 H     1 <1>   0.0800 
 20 H        0.7160    -4.3840    -0.0040 H     1 <1>   0.4000 
 21 H       -0.8350    -2.5630     2.3780 H     1 <1>   0.0800 
 22 H       -0.9080    -3.9490     1.3170 H     1 <1>   0.0800 
 23 H       -2.2660    -1.7210     0.6120 H     1 <1>   0.0800 
 24 H        0.3450    -0.7020    -1.7500 H     1 <1>   0.0800 
 25 H        0.3700     0.8290    -0.8840 H     1 <1>   0.0800 
 26 H       -0.3410    -2.9290    -1.0640 H     1 <1>   0.4000 
 27 H       -1.8820    -0.6470    -1.7240 H     1 <1>   0.4000 
 28 H        3.3800    -1.9020     0.0350 H     1 <1>   0.1500 
 29 H        2.2710    -5.9930    -0.1210 H     1 <1>   0.1500 
 30 H        4.6200    -6.6390    -0.1660 H     1 <1>   0.1500 
 31 H        5.5940    -1.2180     0.0520 H     1 <1>   0.0800 
 32 H        6.6620    -2.2350    -0.8750 H     1 <1>   0.0800 
 33 H        6.6810    -2.3030     0.8760 H     1 <1>   0.0800 
 34 H        7.3210    -4.7260     0.7760 H     1 <1>   0.0800 
 35 H        7.3040    -4.6640    -0.9740 H     1 <1>   0.0800 
 36 H        6.8950    -6.1420    -0.1470 H     1 <1>   0.0800 
@<TRIPOS>BOND
  1   1   2  1   
  2   1   3  1   
  3   2   4  1   
  4   2   5  1   
  5   2  18  1   
  6   3   6  1   
  7   3   7  1   
  8   3  19  1   
  9   4   8  1   
 10   4  20  1   
 11   5   6  1   
 12   5  21  1   
 13   5  22  1   
 14   6   9  1   
 15   6  23  1   
 16   7  10  1   
 17   7  24  1   
 18   7  25  1   
 19   8  11  ar  
 20   8  12  ar  
 21   9  26  1   
 22  10  27  1   
 23  11  13  ar  
 24  11  28  1   
 25  12  14  ar  
 26  12  29  1   
 27  13  15  ar  
 28  13  16  1   
 29  14  15  ar  
 30  14  30  1   
 31  15  17  1   
 32  16  31  1   
 33  16  32  1   
 34  16  33  1   
 35  17  34  1   
 36  17  35  1   
 37  17  36  1   
@<TRIPOS>SUBSTRUCTURE
  1 ****   4 GROUP 4 **** **** 0

# MOE 2024.06 (io_trps.svl 2023.06)
