@<TRIPOS>MOLECULE
NONAME
52 54 1 0 0 
SMALL
USER_CHARGES


@<TRIPOS>ATOM
  1 O      -15.0740     6.1650     1.4770 O.2   1 <1>  -0.5700 
  2 C      -14.2210     5.8610     0.6800 C.2   1 <1>   0.5690 
  3 N      -14.2130     4.6980    -0.0360 N.am  1 <1>  -0.5470 
  4 C      -13.0420     6.8030     0.4340 C.3   1 <1>   0.1710 
  5 C      -15.0670     3.5880    -0.0310 C.ar  1 <1>   0.1170 
  6 N      -11.7820     6.0770     0.0930 N.3   1 <1>  -0.8100 
  7 C      -16.4660     3.7310    -0.2190 C.ar  1 <1>   0.0000 
  8 C      -14.5530     2.3160     0.1310 C.ar  1 <1>  -0.1430 
  9 C      -10.8130     6.9660    -0.5770 C.3   1 <1>   0.1100 
 10 C      -11.1560     5.5170     1.3110 C.3   1 <1>   0.1100 
 11 C      -17.2520     2.5640    -0.1510 C.ar  1 <1>   0.3100 
 12 C      -17.1280     4.9490    -0.5020 C.ar  1 <1>  -0.1500 
 13 C      -15.4440     1.2210     0.1890 C.ar  1 <1>   0.1660 
 14 C      -13.0310     2.1260     0.2610 C.3   1 <1>  -0.0160 
 15 C       -9.4970     6.2200    -0.8670 C.3   1 <1>   0.1200 
 16 C       -9.8350     4.8050     0.9690 C.3   1 <1>   0.1200 
 17 N      -16.7310     1.3380     0.0580 N.ar  1 <1>  -0.6200 
 18 C      -18.6430     2.6600    -0.3220 C.ar  1 <1>  -0.1500 
 19 C      -18.4850     5.0150    -0.6710 C.ar  1 <1>  -0.1500 
 20 C      -14.9920    -0.2200     0.4340 C.3   1 <1>  -0.0170 
 21 C      -12.3090     2.2870    -1.0850 C.3   1 <1>  -0.2400 
 22 O       -8.9660     5.6810     0.3100 O.3   1 <1>  -0.5600 
 23 C      -19.2560     3.8560    -0.5760 C.ar  1 <1>  -0.1500 
 24 C      -14.4980    -0.9060    -0.8480 C.3   1 <1>  -0.1600 
 25 C      -14.1100    -2.3660    -0.5920 C.3   1 <1>  -0.2400 
 26 H      -13.3020     4.5600    -0.4810 H     1 <1>   0.3700 
 27 H      -12.8950     7.4220     1.3020 H     1 <1>   0.0800 
 28 H      -13.3180     7.4420    -0.3850 H     1 <1>   0.0800 
 29 H      -10.6000     7.8200     0.0430 H     1 <1>   0.0800 
 30 H      -11.2280     7.3170    -1.5050 H     1 <1>   0.0800 
 31 H      -11.8250     4.8190     1.7810 H     1 <1>   0.0800 
 32 H      -10.9490     6.3040     2.0170 H     1 <1>   0.0800 
 33 H      -16.5520     5.8500    -0.5850 H     1 <1>   0.1500 
 34 H      -12.7780     1.1650     0.6610 H     1 <1>   0.0800 
 35 H      -12.6420     2.8410     0.9630 H     1 <1>   0.0800 
 36 H       -8.7670     6.8960    -1.2760 H     1 <1>   0.0800 
 37 H       -9.6620     5.4210    -1.5680 H     1 <1>   0.0800 
 38 H      -10.0140     3.9550     0.3340 H     1 <1>   0.0800 
 39 H       -9.3460     4.4730     1.8670 H     1 <1>   0.0800 
 40 H      -19.2120     1.7530    -0.2490 H     1 <1>   0.1500 
 41 H      -18.9680     5.9540    -0.8760 H     1 <1>   0.1500 
 42 H      -15.8320    -0.7780     0.8100 H     1 <1>   0.0800 
 43 H      -14.2460    -0.2600     1.2040 H     1 <1>   0.0800 
 44 H      -11.2670     2.0500    -0.9720 H     1 <1>   0.0800 
 45 H      -12.3870     3.2920    -1.4550 H     1 <1>   0.0800 
 46 H      -12.7320     1.6260    -1.8190 H     1 <1>   0.0800 
 47 H      -20.3230     3.9170    -0.7050 H     1 <1>   0.1500 
 48 H      -13.6480    -0.3810    -1.2410 H     1 <1>   0.0800 
 49 H      -15.2810    -0.8680    -1.5870 H     1 <1>   0.0800 
 50 H      -13.3160    -2.4250     0.1320 H     1 <1>   0.0800 
 51 H      -13.7740    -2.8230    -1.5060 H     1 <1>   0.0800 
 52 H      -14.9560    -2.9210    -0.2260 H     1 <1>   0.0800 
@<TRIPOS>BOND
  1   1   2  2   
  2   2   3  am  
  3   2   4  1   
  4   3   5  1   
  5   3  26  1   
  6   4   6  1   
  7   4  27  1   
  8   4  28  1   
  9   5   7  ar  
 10   5   8  ar  
 11   6   9  1   
 12   6  10  1   
 13   7  11  ar  
 14   7  12  ar  
 15   8  13  ar  
 16   8  14  1   
 17   9  15  1   
 18   9  29  1   
 19   9  30  1   
 20  10  16  1   
 21  10  31  1   
 22  10  32  1   
 23  11  17  ar  
 24  11  18  ar  
 25  12  19  ar  
 26  12  33  1   
 27  13  17  ar  
 28  13  20  1   
 29  14  21  1   
 30  14  34  1   
 31  14  35  1   
 32  15  22  1   
 33  15  36  1   
 34  15  37  1   
 35  16  22  1   
 36  16  38  1   
 37  16  39  1   
 38  18  23  ar  
 39  18  40  1   
 40  19  23  ar  
 41  19  41  1   
 42  20  24  1   
 43  20  42  1   
 44  20  43  1   
 45  21  44  1   
 46  21  45  1   
 47  21  46  1   
 48  23  47  1   
 49  24  25  1   
 50  24  48  1   
 51  24  49  1   
 52  25  50  1   
 53  25  51  1   
 54  25  52  1   
@<TRIPOS>SUBSTRUCTURE
  1 ****   5 GROUP 4 **** **** 0

# MOE 2024.06 (io_trps.svl 2023.06)
