@<TRIPOS>MOLECULE
NONAME
36 36 1 0 0 
SMALL
USER_CHARGES


@<TRIPOS>ATOM
  1 S       -0.1950    -0.0950    -0.5870 S.o2  1 <1>   1.2120 
  2 O       -1.2850    -0.7270    -1.2920 O.2   1 <1>  -0.6500 
  3 O        0.6250     0.8370    -1.3290 O.2   1 <1>  -0.6500 
  4 C        0.9070    -1.3330     0.0560 C.2   1 <1>  -0.0340 
  5 C       -0.8260     0.8030     0.8450 C.3   1 <1>  -0.0550 
  6 S        0.0490    -2.6220     0.9260 S.o2  1 <1>   1.2120 
  7 C        2.2410    -1.3010    -0.1160 C.2   1 <1>  -0.0500 
  8 C       -1.6920     2.0230     0.4840 C.3   1 <1>  -0.2400 
  9 O       -1.2960    -2.2210     1.2600 O.2   1 <1>  -0.6500 
 10 O        0.9080    -3.0370     2.0150 O.2   1 <1>  -0.6500 
 11 C        0.0040    -4.0070    -0.2270 C.3   1 <1>  -0.0550 
 12 N        3.1460    -2.2230     0.4180 N.pl3 1 <1>  -0.6000 
 13 C       -0.7610    -3.7780    -1.5420 C.3   1 <1>  -0.2400 
 14 C        4.5120    -2.3360     0.1450 C.ar  1 <1>   0.1000 
 15 C        5.0750    -1.8560    -1.0340 C.ar  1 <1>  -0.1500 
 16 C        5.3400    -2.9580     1.0720 C.ar  1 <1>  -0.1500 
 17 C        6.4310    -1.9870    -1.2740 C.ar  1 <1>  -0.1500 
 18 C        6.6960    -3.0920     0.8340 C.ar  1 <1>  -0.1500 
 19 C        7.2450    -2.6040    -0.3390 C.ar  1 <1>  -0.1500 
 20 H       -1.4190     0.1560     1.4590 H     1 <1>   0.0800 
 21 H        0.0010     1.1440     1.4380 H     1 <1>   0.0800 
 22 H        2.6940    -0.5110    -0.6980 H     1 <1>   0.1500 
 23 H       -2.5480     1.7110    -0.0890 H     1 <1>   0.0800 
 24 H       -1.1230     2.7240    -0.1020 H     1 <1>   0.0800 
 25 H       -2.0350     2.5140     1.3780 H     1 <1>   0.0800 
 26 H        1.0110    -4.2930    -0.4680 H     1 <1>   0.0800 
 27 H       -0.4460    -4.8430     0.2740 H     1 <1>   0.0800 
 28 H        2.8180    -2.7770     1.2290 H     1 <1>   0.4000 
 29 H       -0.2760    -3.0280    -2.1430 H     1 <1>   0.0800 
 30 H       -1.7690    -3.4590    -1.3380 H     1 <1>   0.0800 
 31 H       -0.8000    -4.6910    -2.1090 H     1 <1>   0.0800 
 32 H        4.4550    -1.3830    -1.7720 H     1 <1>   0.1500 
 33 H        4.9220    -3.3370     1.9870 H     1 <1>   0.1500 
 34 H        6.8550    -1.6090    -2.1880 H     1 <1>   0.1500 
 35 H        7.3260    -3.5740     1.5620 H     1 <1>   0.1500 
 36 H        8.3000    -2.7060    -0.5250 H     1 <1>   0.1500 
@<TRIPOS>BOND
  1   1   2  2   
  2   1   3  2   
  3   1   4  1   
  4   1   5  1   
  5   4   6  1   
  6   4   7  2   
  7   5   8  1   
  8   5  20  1   
  9   5  21  1   
 10   6   9  2   
 11   6  10  2   
 12   6  11  1   
 13   7  12  1   
 14   7  22  1   
 15   8  23  1   
 16   8  24  1   
 17   8  25  1   
 18  11  13  1   
 19  11  26  1   
 20  11  27  1   
 21  12  14  1   
 22  12  28  1   
 23  13  29  1   
 24  13  30  1   
 25  13  31  1   
 26  14  15  ar  
 27  14  16  ar  
 28  15  17  ar  
 29  15  32  1   
 30  16  18  ar  
 31  16  33  1   
 32  17  19  ar  
 33  17  34  1   
 34  18  19  ar  
 35  18  35  1   
 36  19  36  1   
@<TRIPOS>SUBSTRUCTURE
  1 ****   7 GROUP 4 **** **** 0

# MOE 2024.06 (io_trps.svl 2023.06)
