@<TRIPOS>MOLECULE
NONAME
50 51 1 0 0 
SMALL
USER_CHARGES


@<TRIPOS>ATOM
  1 S       -0.2700    -1.2440     0.3380 S.o2  1 <1>   1.4470 
  2 O        0.0420    -2.6490     0.4850 O.2   1 <1>  -0.6500 
  3 O        0.5050    -0.2910     1.0970 O.2   1 <1>  -0.6500 
  4 N        0.0960    -0.8870    -1.2660 N.am  1 <1>  -0.9140 
  5 C       -2.0490    -0.9300     0.4530 C.ar  1 <1>  -0.0090 
  6 C        1.5120    -0.6080    -1.5800 C.3   1 <1>   0.1960 
  7 C       -2.9660    -1.7700    -0.1690 C.ar  1 <1>  -0.1500 
  8 C       -2.5420     0.1710     1.1460 C.ar  1 <1>  -0.1500 
  9 C        2.4120    -1.8600    -1.7460 C.3   1 <1>   0.3430 
 10 C       -4.3280    -1.5270    -0.1060 C.ar  1 <1>  -0.1500 
 11 C       -3.9010     0.4220     1.2140 C.ar  1 <1>  -0.1500 
 12 N        2.5800    -2.6830    -0.5080 N.4   1 <1>  -0.9590 
 13 C       -4.8040    -0.4210     0.5900 C.ar  1 <1>   0.0830 
 14 C        3.2690    -1.9620     0.6210 C.3   1 <1>   0.3430 
 15 C        3.2410    -4.0030    -0.7770 C.3   1 <1>   0.3430 
 16 O       -6.1150    -0.1040     0.7030 O.3   1 <1>  -0.3620 
 17 C        3.4230    -2.8780     1.8500 C.3   1 <1>   0.1200 
 18 C        3.4010    -4.8190     0.5210 C.3   1 <1>   0.1200 
 19 C       -7.1220    -0.9090     0.1330 C.3   1 <1>   0.1200 
 20 O        4.0720    -4.0640     1.4880 O.3   1 <1>  -0.5600 
 21 C       -8.4790    -0.2830     0.4590 C.3   1 <1>  -0.1600 
 22 C       -9.6280    -1.1100    -0.1320 C.3   1 <1>  -0.1600 
 23 C      -10.9840    -0.4800     0.1970 C.3   1 <1>  -0.2400 
 24 H       -0.4000    -0.0090    -1.4320 H     1 <1>   0.4200 
 25 H        1.9400     0.0650    -0.8550 H     1 <1>   0.0800 
 26 H        1.5330    -0.0890    -2.5240 H     1 <1>   0.0800 
 27 H       -2.6130    -2.6320    -0.7110 H     1 <1>   0.1500 
 28 H       -1.8620     0.8430     1.6440 H     1 <1>   0.1500 
 29 H        3.3830    -1.5410    -2.0880 H     1 <1>   0.0800 
 30 H        1.9820    -2.4720    -2.5230 H     1 <1>   0.0800 
 31 H       -5.0000    -2.2030    -0.6010 H     1 <1>   0.1500 
 32 H       -4.2740     1.2750     1.7530 H     1 <1>   0.1500 
 33 H        1.6240    -2.9110    -0.1630 H     1 <1>   0.4500 
 34 H        2.7050    -1.0890     0.9060 H     1 <1>   0.0800 
 35 H        4.2490    -1.6420     0.3100 H     1 <1>   0.0800 
 36 H        4.2170    -3.8440    -1.2030 H     1 <1>   0.0800 
 37 H        2.6550    -4.5700    -1.4810 H     1 <1>   0.0800 
 38 H        2.4630    -3.1190     2.2750 H     1 <1>   0.0800 
 39 H        4.0190    -2.3930     2.6030 H     1 <1>   0.0800 
 40 H        3.9830    -5.7040     0.3340 H     1 <1>   0.0800 
 41 H        2.4420    -5.1140     0.9130 H     1 <1>   0.0800 
 42 H       -7.0480    -1.8960     0.5570 H     1 <1>   0.0800 
 43 H       -6.9670    -0.9450    -0.9310 H     1 <1>   0.0800 
 44 H       -8.5100     0.7140     0.0560 H     1 <1>   0.0800 
 45 H       -8.5910    -0.2270     1.5280 H     1 <1>   0.0800 
 46 H       -9.5980    -2.1100     0.2660 H     1 <1>   0.0800 
 47 H       -9.5180    -1.1710    -1.2020 H     1 <1>   0.0800 
 48 H      -11.1260    -0.4270     1.2620 H     1 <1>   0.0800 
 49 H      -11.7770    -1.0710    -0.2250 H     1 <1>   0.0800 
 50 H      -11.0450     0.5150    -0.2100 H     1 <1>   0.0800 
@<TRIPOS>BOND
  1   1   2  2   
  2   1   3  2   
  3   1   4  am  
  4   1   5  1   
  5   4   6  1   
  6   4  24  1   
  7   5   7  ar  
  8   5   8  ar  
  9   6   9  1   
 10   6  25  1   
 11   6  26  1   
 12   7  10  ar  
 13   7  27  1   
 14   8  11  ar  
 15   8  28  1   
 16   9  12  1   
 17   9  29  1   
 18   9  30  1   
 19  10  13  ar  
 20  10  31  1   
 21  11  13  ar  
 22  11  32  1   
 23  12  14  1   
 24  12  15  1   
 25  12  33  1   
 26  13  16  1   
 27  14  17  1   
 28  14  34  1   
 29  14  35  1   
 30  15  18  1   
 31  15  36  1   
 32  15  37  1   
 33  16  19  1   
 34  17  20  1   
 35  17  38  1   
 36  17  39  1   
 37  18  20  1   
 38  18  40  1   
 39  18  41  1   
 40  19  21  1   
 41  19  42  1   
 42  19  43  1   
 43  21  22  1   
 44  21  44  1   
 45  21  45  1   
 46  22  23  1   
 47  22  46  1   
 48  22  47  1   
 49  23  48  1   
 50  23  49  1   
 51  23  50  1   
@<TRIPOS>SUBSTRUCTURE
  1 ****   5 GROUP 4 **** **** 0

# MOE 2024.06 (io_trps.svl 2023.06)
