@<TRIPOS>MOLECULE
NONAME
55 57 1 0 0 
SMALL
USER_CHARGES


@<TRIPOS>ATOM
  1 O       -1.0080    -0.3840     1.4030 O.2   1 <1>  -0.5700 
  2 C       -2.0360    -0.9150     1.0360 C.2   1 <1>   0.6900 
  3 N       -2.0090    -2.2170     0.5470 N.am  1 <1>  -0.4200 
  4 N       -3.2350    -0.2210     1.1050 N.am  1 <1>  -0.4360 
  5 C       -3.1710    -2.8570     0.1340 C.2   1 <1>   0.7030 
  6 C       -0.6980    -2.9400     0.4980 C.3   1 <1>   0.0600 
  7 C       -4.3800    -0.8580     0.6650 C.2   1 <1>   0.4260 
  8 C       -3.2920     1.1760     1.6280 C.3   1 <1>   0.0600 
  9 O       -3.1350    -4.0080    -0.2670 O.2   1 <1>  -0.5700 
 10 C       -4.4060    -2.1260     0.1910 C.2   1 <1>   0.2770 
 11 N       -5.6410    -0.3660     0.6200 N.pl3 1 <1>  -0.7000 
 12 N       -5.7390    -2.4010    -0.1450 N.pl3 1 <1>  -0.7640 
 13 C       -6.4400    -1.3060     0.1340 C.cat 1 <1>   0.6560 
 14 C       -6.2040    -3.7030    -0.6910 C.3   1 <1>   0.3540 
 15 C       -7.9490    -1.0670    -0.0370 C.3   1 <1>   0.2540 
 16 C       -6.4590    -4.6730     0.4660 C.3   1 <1>  -0.1600 
 17 N       -8.2800     0.3810     0.0460 N.3   1 <1>  -0.8100 
 18 C       -7.0640    -6.0120     0.0060 C.3   1 <1>  -0.0800 
 19 C       -8.0380     1.0700    -1.2370 C.3   1 <1>   0.1100 
 20 C       -9.6670     0.5930     0.4960 C.3   1 <1>   0.1100 
 21 C       -7.3970    -6.8730     1.2300 C.3   1 <1>  -0.2400 
 22 C       -6.1110    -6.7870    -0.9150 C.3   1 <1>  -0.2400 
 23 C       -8.2180     2.5790    -1.0570 C.3   1 <1>  -0.1600 
 24 C       -9.9110     2.0860     0.7340 C.3   1 <1>  -0.1600 
 25 C       -9.6170     2.9100    -0.5260 C.3   1 <1>  -0.1600 
 26 H        0.0830    -2.2690     0.1830 H     1 <1>   0.0800 
 27 H       -0.7320    -3.7620    -0.1950 H     1 <1>   0.0800 
 28 H       -0.4580    -3.3160     1.4770 H     1 <1>   0.0800 
 29 H       -2.4130     1.4040     2.2070 H     1 <1>   0.0800 
 30 H       -4.1510     1.3020     2.2630 H     1 <1>   0.0800 
 31 H       -3.3500     1.8690     0.8060 H     1 <1>   0.0800 
 32 H       -6.0090     0.5550     0.8810 H     1 <1>   0.4500 
 33 H       -5.4580    -4.1020    -1.3580 H     1 <1>   0.0800 
 34 H       -7.1110    -3.5630    -1.2540 H     1 <1>   0.0800 
 35 H       -8.4470    -1.5960     0.7560 H     1 <1>   0.0800 
 36 H       -8.2870    -1.4710    -0.9750 H     1 <1>   0.0800 
 37 H       -7.1380    -4.2130     1.1610 H     1 <1>   0.0800 
 38 H       -5.5320    -4.8660     0.9780 H     1 <1>   0.0800 
 39 H       -7.9820    -5.8250    -0.5270 H     1 <1>   0.0800 
 40 H       -8.7290     0.7120    -1.9840 H     1 <1>   0.0800 
 41 H       -7.0360     0.8780    -1.5830 H     1 <1>   0.0800 
 42 H       -9.8400     0.0650     1.4190 H     1 <1>   0.0800 
 43 H      -10.3590     0.2240    -0.2440 H     1 <1>   0.0800 
 44 H       -6.5080    -7.0970     1.7930 H     1 <1>   0.0800 
 45 H       -7.8470    -7.8010     0.9230 H     1 <1>   0.0800 
 46 H       -8.0920    -6.3640     1.8750 H     1 <1>   0.0800 
 47 H       -5.1610    -6.9450    -0.4340 H     1 <1>   0.0800 
 48 H       -5.9470    -6.2660    -1.8410 H     1 <1>   0.0800 
 49 H       -6.5300    -7.7500    -1.1550 H     1 <1>   0.0800 
 50 H       -8.0670     3.0740    -2.0010 H     1 <1>   0.0800 
 51 H       -7.4740     2.9460    -0.3720 H     1 <1>   0.0800 
 52 H       -9.2820     2.4190     1.5410 H     1 <1>   0.0800 
 53 H      -10.9330     2.2390     1.0330 H     1 <1>   0.0800 
 54 H      -10.3500     2.6800    -1.2810 H     1 <1>   0.0800 
 55 H       -9.6890     3.9610    -0.3030 H     1 <1>   0.0800 
@<TRIPOS>BOND
  1   1   2  2   
  2   2   3  am  
  3   2   4  am  
  4   3   5  am  
  5   3   6  1   
  6   4   7  1   
  7   4   8  1   
  8   5   9  2   
  9   5  10  1   
 10   6  26  1   
 11   6  27  1   
 12   6  28  1   
 13   7  10  2   
 14   7  11  1   
 15   8  29  1   
 16   8  30  1   
 17   8  31  1   
 18  10  12  1   
 19  11  13  ar  
 20  11  32  1   
 21  12  13  ar  
 22  12  14  1   
 23  13  15  1   
 24  14  16  1   
 25  14  33  1   
 26  14  34  1   
 27  15  17  1   
 28  15  35  1   
 29  15  36  1   
 30  16  18  1   
 31  16  37  1   
 32  16  38  1   
 33  17  19  1   
 34  17  20  1   
 35  18  21  1   
 36  18  22  1   
 37  18  39  1   
 38  19  23  1   
 39  19  40  1   
 40  19  41  1   
 41  20  24  1   
 42  20  42  1   
 43  20  43  1   
 44  21  44  1   
 45  21  45  1   
 46  21  46  1   
 47  22  47  1   
 48  22  48  1   
 49  22  49  1   
 50  23  25  1   
 51  23  50  1   
 52  23  51  1   
 53  24  25  1   
 54  24  52  1   
 55  24  53  1   
 56  25  54  1   
 57  25  55  1   
@<TRIPOS>SUBSTRUCTURE
  1 ****  13 GROUP 4 **** **** 0

# MOE 2024.06 (io_trps.svl 2023.06)
