@<TRIPOS>MOLECULE
NONAME
40 42 1 0 0 
SMALL
USER_CHARGES


@<TRIPOS>ATOM
  1 CL      -0.0030    -0.1930     0.0990 Cl    1 <1>  -0.1770 
  2 C        1.5410    -1.0070     0.0090 C.ar  1 <1>   0.1770 
  3 C        1.9880    -1.4820    -1.2110 C.ar  1 <1>  -0.1500 
  4 C        2.2920    -1.1650     1.1590 C.ar  1 <1>  -0.1500 
  5 C        3.2110    -2.1260    -1.2760 C.ar  1 <1>  -0.1500 
  6 C        3.5140    -1.8110     1.0840 C.ar  1 <1>  -0.1500 
  7 C        3.9850    -2.2970    -0.1330 C.ar  1 <1>   0.1000 
  8 N        5.2080    -2.9490    -0.2300 N.pl3 1 <1>  -0.8380 
  9 C        5.2920    -4.3010     0.3940 C.3   1 <1>   0.2090 
 10 C        6.4260    -2.1070    -0.0480 C.3   1 <1>   0.2090 
 11 C        6.5580    -5.0430    -0.0840 C.3   1 <1>   0.3430 
 12 C        7.6850    -2.8620    -0.5220 C.3   1 <1>   0.3430 
 13 N        7.8180    -4.2320     0.1080 N.4   1 <1>  -0.9590 
 14 C        9.0170    -4.9550    -0.3970 C.3   1 <1>   0.4860 
 15 C       10.2580    -4.1780     0.0020 C.ar  1 <1>  -0.1430 
 16 C       10.9500    -3.4340    -0.9480 C.ar  1 <1>  -0.1500 
 17 C       10.7100    -4.2060     1.3170 C.ar  1 <1>  -0.1500 
 18 C       12.0750    -2.7130    -0.5850 C.ar  1 <1>  -0.1500 
 19 C       11.8350    -3.4860     1.6820 C.ar  1 <1>  -0.1500 
 20 C       12.5050    -2.7450     0.7280 C.ar  1 <1>   0.1770 
 21 CL      13.9190    -1.8340     1.1870 Cl    1 <1>  -0.1770 
 22 H        1.3850    -1.3460    -2.0900 H     1 <1>   0.1500 
 23 H        1.9190    -0.7860     2.0930 H     1 <1>   0.1500 
 24 H        3.5740    -2.5010    -2.2150 H     1 <1>   0.1500 
 25 H        4.1030    -1.9370     1.9730 H     1 <1>   0.1500 
 26 H        4.4180    -4.8700     0.1210 H     1 <1>   0.0800 
 27 H        5.3020    -4.2060     1.4660 H     1 <1>   0.0800 
 28 H        6.5280    -1.8340     0.9880 H     1 <1>   0.0800 
 29 H        6.3170    -1.2000    -0.6190 H     1 <1>   0.0800 
 30 H        6.4310    -5.2670    -1.1300 H     1 <1>   0.0800 
 31 H        6.6360    -5.9780     0.4470 H     1 <1>   0.0800 
 32 H        8.5540    -2.2660    -0.2940 H     1 <1>   0.0800 
 33 H        7.6270    -2.9630    -1.5930 H     1 <1>   0.0800 
 34 H        7.9590    -4.0820     1.1140 H     1 <1>   0.4500 
 35 H        8.9710    -5.0510    -1.4700 H     1 <1>   0.0800 
 36 H        9.0640    -5.9430     0.0320 H     1 <1>   0.0800 
 37 H       10.6290    -3.4070    -1.9770 H     1 <1>   0.1500 
 38 H       10.2030    -4.7870     2.0690 H     1 <1>   0.1500 
 39 H       12.6230    -2.1330    -1.3070 H     1 <1>   0.1500 
 40 H       12.1990    -3.4960     2.6950 H     1 <1>   0.1500 
@<TRIPOS>BOND
  1   1   2  1   
  2   2   3  ar  
  3   2   4  ar  
  4   3   5  ar  
  5   3  22  1   
  6   4   6  ar  
  7   4  23  1   
  8   5   7  ar  
  9   5  24  1   
 10   6   7  ar  
 11   6  25  1   
 12   7   8  1   
 13   8   9  1   
 14   8  10  1   
 15   9  11  1   
 16   9  26  1   
 17   9  27  1   
 18  10  12  1   
 19  10  28  1   
 20  10  29  1   
 21  11  13  1   
 22  11  30  1   
 23  11  31  1   
 24  12  13  1   
 25  12  32  1   
 26  12  33  1   
 27  13  14  1   
 28  13  34  1   
 29  14  15  1   
 30  14  35  1   
 31  14  36  1   
 32  15  16  ar  
 33  15  17  ar  
 34  16  18  ar  
 35  16  37  1   
 36  17  19  ar  
 37  17  38  1   
 38  18  20  ar  
 39  18  39  1   
 40  19  20  ar  
 41  19  40  1   
 42  20  21  1   
@<TRIPOS>SUBSTRUCTURE
  1 ****  10 GROUP 4 **** **** 0

# MOE 2024.06 (io_trps.svl 2023.06)
