@<TRIPOS>MOLECULE
NONAME
38 38 1 0 0 
SMALL
USER_CHARGES


@<TRIPOS>ATOM
  1 O       -0.3290    -0.1500    -0.3170 O.3   1 <1>  -0.5320 
  2 C       -1.4490    -0.8110     0.0030 C.ar  1 <1>   0.0830 
  3 C       -1.4170    -2.2170     0.1190 C.ar  1 <1>  -0.1430 
  4 C       -2.5980    -0.0240     0.2040 C.ar  1 <1>  -0.1430 
  5 C       -2.6410    -2.8180     0.4570 C.ar  1 <1>   0.0830 
  6 C       -0.0780    -3.0160    -0.1250 C.3   1 <1>   0.1440 
  7 C       -3.7650    -0.6990     0.5350 C.ar  1 <1>  -0.1500 
  8 C       -2.6150     1.5340     0.0720 C.3   1 <1>   0.1440 
  9 O       -2.8260    -4.1390     0.6150 O.3   1 <1>  -0.5320 
 10 C       -3.7830    -2.0680     0.6590 C.ar  1 <1>  -0.1500 
 11 C        0.4290    -2.8000    -1.5660 C.3   1 <1>  -0.2400 
 12 C       -0.1500    -4.5500     0.0260 C.3   1 <1>  -0.2400 
 13 C        1.0030    -2.5850     0.8880 C.3   1 <1>  -0.2400 
 14 C       -2.2420     1.9730    -1.3580 C.3   1 <1>  -0.2400 
 15 C       -4.0020     2.1530     0.3430 C.3   1 <1>  -0.2400 
 16 C       -1.6670     2.1870     1.0970 C.3   1 <1>  -0.2400 
 17 H       -0.4980     0.8060    -0.3610 H     1 <1>   0.4500 
 18 H       -4.6960    -0.1970     0.7090 H     1 <1>   0.1500 
 19 H       -3.7400    -4.3690     0.8490 H     1 <1>   0.4500 
 20 H       -4.7090    -2.5490     0.9170 H     1 <1>   0.1500 
 21 H       -0.3500    -3.0480    -2.2640 H     1 <1>   0.0800 
 22 H        1.2820    -3.4200    -1.7720 H     1 <1>   0.0800 
 23 H        0.7290    -1.7870    -1.7460 H     1 <1>   0.0800 
 24 H        0.8070    -5.0060    -0.1580 H     1 <1>   0.0800 
 25 H       -0.8460    -4.9670    -0.6790 H     1 <1>   0.0800 
 26 H       -0.4480    -4.8180     1.0240 H     1 <1>   0.0800 
 27 H        1.8830    -3.1960     0.7960 H     1 <1>   0.0800 
 28 H        0.6210    -2.6840     1.8880 H     1 <1>   0.0800 
 29 H        1.3120    -1.5690     0.7480 H     1 <1>   0.0800 
 30 H       -2.8870     1.4810    -2.0650 H     1 <1>   0.0800 
 31 H       -1.2290     1.7420    -1.6210 H     1 <1>   0.0800 
 32 H       -2.3660     3.0350    -1.4730 H     1 <1>   0.0800 
 33 H       -4.3300     1.9300     1.3430 H     1 <1>   0.0800 
 34 H       -4.7280     1.7820    -0.3590 H     1 <1>   0.0800 
 35 H       -3.9720     3.2230     0.2430 H     1 <1>   0.0800 
 36 H       -1.9140     1.8420     2.0860 H     1 <1>   0.0800 
 37 H       -1.7680     3.2580     1.0800 H     1 <1>   0.0800 
 38 H       -0.6340     1.9640     0.9210 H     1 <1>   0.0800 
@<TRIPOS>BOND
  1   1   2  1   
  2   1  17  1   
  3   2   3  ar  
  4   2   4  ar  
  5   3   5  ar  
  6   3   6  1   
  7   4   7  ar  
  8   4   8  1   
  9   5   9  1   
 10   5  10  ar  
 11   6  11  1   
 12   6  12  1   
 13   6  13  1   
 14   7  10  ar  
 15   7  18  1   
 16   8  14  1   
 17   8  15  1   
 18   8  16  1   
 19   9  19  1   
 20  10  20  1   
 21  11  21  1   
 22  11  22  1   
 23  11  23  1   
 24  12  24  1   
 25  12  25  1   
 26  12  26  1   
 27  13  27  1   
 28  13  28  1   
 29  13  29  1   
 30  14  30  1   
 31  14  31  1   
 32  14  32  1   
 33  15  33  1   
 34  15  34  1   
 35  15  35  1   
 36  16  36  1   
 37  16  37  1   
 38  16  38  1   
@<TRIPOS>SUBSTRUCTURE
  1 ****   2 GROUP 4 **** **** 0

# MOE 2024.06 (io_trps.svl 2023.06)
