@<TRIPOS>MOLECULE
NONAME
34 34 1 0 0 
SMALL
USER_CHARGES


@<TRIPOS>ATOM
  1 BR       2.0280     0.4470     0.1050 Br    1 <1>  -0.1110 
  2 C        1.0990     2.1400     0.0370 C.ar  1 <1>   0.1110 
  3 C        1.7230     3.2620    -0.4980 C.ar  1 <1>   0.0820 
  4 C       -0.1900     2.1820     0.5300 C.ar  1 <1>  -0.1500 
  5 O        2.9930     3.2050    -0.9690 O.3   1 <1>  -0.3630 
  6 C        1.0170     4.4580    -0.5600 C.ar  1 <1>  -0.1440 
  7 C       -0.8850     3.3800     0.4840 C.ar  1 <1>  -0.1430 
  8 C        4.0240     3.1210    -0.0160 C.3   1 <1>   0.1200 
  9 C       -0.2790     4.5030    -0.0620 C.ar  1 <1>  -0.1500 
 10 C        1.6400     5.7090    -1.1630 C.3   1 <1>  -0.0960 
 11 C       -2.3040     3.4660     1.0160 C.3   1 <1>  -0.0970 
 12 C        5.0650     2.1430    -0.5630 C.3   1 <1>   0.3430 
 13 N        6.0980     1.8010     0.4610 N.4   1 <1>  -0.9060 
 14 C        7.0850     0.8290    -0.0540 C.3   1 <1>   0.3430 
 15 C        8.0820     0.5350     1.0560 C.3   1 <1>  -0.2400 
 16 H       -0.6400     1.2950     0.9370 H     1 <1>   0.1500 
 17 H        3.6130     2.7700     0.9150 H     1 <1>   0.0800 
 18 H        4.4330     4.1080     0.1110 H     1 <1>   0.0800 
 19 H       -0.8310     5.4270    -0.1030 H     1 <1>   0.1500 
 20 H        2.4320     6.0670    -0.5310 H     1 <1>   0.0800 
 21 H        0.9090     6.4890    -1.2720 H     1 <1>   0.0800 
 22 H        2.0420     5.4860    -2.1350 H     1 <1>   0.0800 
 23 H       -2.5020     2.6650     1.7060 H     1 <1>   0.0800 
 24 H       -3.0030     3.4010     0.2010 H     1 <1>   0.0800 
 25 H       -2.4550     4.3990     1.5280 H     1 <1>   0.0800 
 26 H        5.5350     2.5810    -1.4290 H     1 <1>   0.0800 
 27 H        4.5560     1.2430    -0.8700 H     1 <1>   0.0800 
 28 H        5.6420     1.3970     1.2900 H     1 <1>   0.4500 
 29 H        6.5900     2.6490     0.7690 H     1 <1>   0.4500 
 30 H        7.6010     1.2370    -0.9100 H     1 <1>   0.0800 
 31 H        6.5910    -0.0830    -0.3530 H     1 <1>   0.0800 
 32 H        8.6070     1.4270     1.3520 H     1 <1>   0.0800 
 33 H        8.8100    -0.1720     0.6990 H     1 <1>   0.0800 
 34 H        7.5920     0.1010     1.9100 H     1 <1>   0.0800 
@<TRIPOS>BOND
  1   1   2  1   
  2   2   3  ar  
  3   2   4  ar  
  4   3   5  1   
  5   3   6  ar  
  6   4   7  ar  
  7   4  16  1   
  8   5   8  1   
  9   6   9  ar  
 10   6  10  1   
 11   7   9  ar  
 12   7  11  1   
 13   8  12  1   
 14   8  17  1   
 15   8  18  1   
 16   9  19  1   
 17  10  20  1   
 18  10  21  1   
 19  10  22  1   
 20  11  23  1   
 21  11  24  1   
 22  11  25  1   
 23  12  13  1   
 24  12  26  1   
 25  12  27  1   
 26  13  14  1   
 27  13  28  1   
 28  13  29  1   
 29  14  15  1   
 30  14  30  1   
 31  14  31  1   
 32  15  32  1   
 33  15  33  1   
 34  15  34  1   
@<TRIPOS>SUBSTRUCTURE
  1 ****   3 GROUP 4 **** **** 0

# MOE 2024.06 (io_trps.svl 2023.06)
