@<TRIPOS>MOLECULE
NONAME
39 40 1 0 0 
SMALL
USER_CHARGES


@<TRIPOS>ATOM
  1 CL      -0.3750    -0.0770     0.5960 Cl    1 <1>  -0.1770 
  2 C       -1.1940     1.4690     0.5640 C.ar  1 <1>   0.1770 
  3 C       -2.5430     1.5640     0.2370 C.ar  1 <1>  -0.1440 
  4 C       -0.4360     2.5830     0.8710 C.ar  1 <1>  -0.1500 
  5 C       -3.1340     2.8310     0.2050 C.ar  1 <1>   0.1170 
  6 C       -3.3640     0.3120    -0.0800 C.3   1 <1>  -0.0960 
  7 C       -1.0260     3.8320     0.8490 C.ar  1 <1>  -0.1500 
  8 N       -4.4830     2.9660    -0.1650 N.am  1 <1>  -0.5470 
  9 C       -2.3620     3.9480     0.5150 C.ar  1 <1>  -0.1500 
 10 C       -5.4230     3.8900     0.2020 C.2   1 <1>   0.5690 
 11 O       -5.2000     4.7900     0.9730 O.2   1 <1>  -0.5700 
 12 C       -6.8220     3.7370    -0.4020 C.3   1 <1>  -0.0190 
 13 C       -7.6340     5.0490    -0.3770 C.3   1 <1>  -0.1600 
 14 C       -7.6100     2.6200     0.3100 C.3   1 <1>  -0.1600 
 15 C       -9.0370     4.8590    -0.9590 C.3   1 <1>   0.1400 
 16 C       -9.0150     2.4550    -0.2770 C.3   1 <1>   0.1400 
 17 N       -9.7290     3.7590    -0.2320 N.am  1 <1>  -0.6600 
 18 C      -10.9070     3.8910     0.4600 C.2   1 <1>   0.5690 
 19 O      -11.4380     2.9570     1.0120 O.2   1 <1>  -0.5700 
 20 C      -11.5990     5.2300     0.5610 C.3   1 <1>  -0.1790 
 21 H        0.6030     2.4700     1.1240 H     1 <1>   0.1500 
 22 H       -2.9090    -0.5760     0.3200 H     1 <1>   0.0800 
 23 H       -3.4560     0.1940    -1.1450 H     1 <1>   0.0800 
 24 H       -4.3440     0.3800     0.3560 H     1 <1>   0.0800 
 25 H       -0.4500     4.7100     1.0880 H     1 <1>   0.1500 
 26 H       -4.8260     2.2100    -0.7500 H     1 <1>   0.3700 
 27 H       -2.8060     4.9270     0.4930 H     1 <1>   0.1500 
 28 H       -6.6970     3.4560    -1.4320 H     1 <1>   0.0800 
 29 H       -7.1140     5.8060    -0.9360 H     1 <1>   0.0800 
 30 H       -7.7280     5.4020     0.6370 H     1 <1>   0.0800 
 31 H       -7.7010     2.8530     1.3580 H     1 <1>   0.0800 
 32 H       -7.0860     1.6850     0.2300 H     1 <1>   0.0800 
 33 H       -8.9690     4.5990    -2.0010 H     1 <1>   0.0800 
 34 H       -9.5810     5.7840    -0.8850 H     1 <1>   0.0800 
 35 H       -9.5510     1.7060     0.2820 H     1 <1>   0.0800 
 36 H       -8.9560     2.1240    -1.3000 H     1 <1>   0.0800 
 37 H      -11.8810     5.5700    -0.4170 H     1 <1>   0.0800 
 38 H      -10.9460     5.9430     1.0260 H     1 <1>   0.0800 
 39 H      -12.4850     5.1350     1.1610 H     1 <1>   0.0800 
@<TRIPOS>BOND
  1   1   2  1   
  2   2   3  ar  
  3   2   4  ar  
  4   3   5  ar  
  5   3   6  1   
  6   4   7  ar  
  7   4  21  1   
  8   5   8  1   
  9   5   9  ar  
 10   6  22  1   
 11   6  23  1   
 12   6  24  1   
 13   7   9  ar  
 14   7  25  1   
 15   8  10  am  
 16   8  26  1   
 17   9  27  1   
 18  10  11  2   
 19  10  12  1   
 20  12  13  1   
 21  12  14  1   
 22  12  28  1   
 23  13  15  1   
 24  13  29  1   
 25  13  30  1   
 26  14  16  1   
 27  14  31  1   
 28  14  32  1   
 29  15  17  1   
 30  15  33  1   
 31  15  34  1   
 32  16  17  1   
 33  16  35  1   
 34  16  36  1   
 35  17  18  am  
 36  18  19  2   
 37  18  20  1   
 38  20  37  1   
 39  20  38  1   
 40  20  39  1   
@<TRIPOS>SUBSTRUCTURE
  1 ****  10 GROUP 4 **** **** 0

# MOE 2024.06 (io_trps.svl 2023.06)
