@<TRIPOS>MOLECULE
NONAME
58 60 1 0 0 
SMALL
USER_CHARGES


@<TRIPOS>ATOM
  1 S       -0.0020     2.5510    -2.2150 S.3   1 <1>  -0.3610 
  2 C        1.2390     2.3830    -0.9840 C.cat 1 <1>   0.8400 
  3 C       -1.4290     3.5340    -1.5260 C.3   1 <1>   0.2110 
  4 N        2.4100     2.0460    -1.4820 N.pl3 1 <1>  -0.6530 
  5 N        0.9230     2.5870     0.2750 N.pl3 1 <1>  -0.7940 
  6 C       -2.2510     2.7110    -0.5520 C.2   1 <1>   0.5690 
  7 C       -2.4070     3.8360    -2.6650 C.3   1 <1>  -0.0990 
  8 C        3.6090     1.7410    -0.8350 C.ar  1 <1>   0.3490 
  9 C        1.7690     2.6170     1.4840 C.3   1 <1>   0.3290 
 10 O       -1.8070     2.3850     0.5220 O.2   1 <1>  -0.5700 
 11 N       -3.4950     2.4450    -1.0520 N.am  1 <1>  -0.2370 
 12 C       -3.6400     3.0590    -2.2700 C.2   1 <1>   0.5690 
 13 C        3.7480     0.5490    -0.1410 C.ar  1 <1>  -0.1500 
 14 C        4.6660     2.6350    -0.8670 C.ar  1 <1>  -0.1500 
 15 C        1.0670     3.4750     2.5270 C.3   1 <1>  -0.2400 
 16 C       -4.4920     1.6860    -0.3940 C.ar  1 <1>   0.1170 
 17 O       -4.6110     3.0290    -2.9770 O.2   1 <1>  -0.5700 
 18 C        4.9200     0.2510     0.5360 C.ar  1 <1>  -0.1430 
 19 C        5.8400     2.3460    -0.1970 C.ar  1 <1>  -0.1500 
 20 C       -5.7980     2.1570    -0.2960 C.ar  1 <1>  -0.1500 
 21 C       -4.1900     0.4510     0.1720 C.ar  1 <1>  -0.1500 
 22 C        5.9740     1.1590     0.5090 C.ar  1 <1>  -0.1430 
 23 C        5.0290    -1.0690     1.2880 C.3   1 <1>  -0.0970 
 24 C       -6.7760     1.4210     0.3490 C.ar  1 <1>  -0.1500 
 25 C       -5.1640    -0.2870     0.8190 C.ar  1 <1>  -0.1500 
 26 C        7.2840     0.8780     1.2330 C.3   1 <1>  -0.0970 
 27 C       -6.4620     0.1880     0.9140 C.ar  1 <1>   0.0830 
 28 O       -7.3560    -0.6000     1.5640 O.3   1 <1>  -0.3630 
 29 C       -8.7070    -0.2220     1.6830 C.3   1 <1>   0.1200 
 30 C       -9.4390    -1.3240     2.4430 C.3   1 <1>  -0.2400 
 31 H       -1.0390     4.4270    -1.0710 H     1 <1>   0.0800 
 32 H        2.4490     1.9560    -2.4980 H     1 <1>   0.4500 
 33 H       -0.0740     2.6560     0.5330 H     1 <1>   0.4500 
 34 H       -2.0510     3.5050    -3.6240 H     1 <1>   0.0800 
 35 H       -2.6470     4.8830    -2.7050 H     1 <1>   0.0800 
 36 H        2.7360     3.0380     1.2640 H     1 <1>   0.0800 
 37 H        1.9000     1.6160     1.8640 H     1 <1>   0.0800 
 38 H        2.9320    -0.1500    -0.1320 H     1 <1>   0.1500 
 39 H        4.5770     3.5590    -1.4090 H     1 <1>   0.1500 
 40 H        0.9390     4.4810     2.1670 H     1 <1>   0.0800 
 41 H        1.6650     3.5130     3.4210 H     1 <1>   0.0800 
 42 H        0.1090     3.0570     2.7830 H     1 <1>   0.0800 
 43 H        6.6540     3.0500    -0.2280 H     1 <1>   0.1500 
 44 H       -6.0590     3.1050    -0.7330 H     1 <1>   0.1500 
 45 H       -3.1910     0.0590     0.1120 H     1 <1>   0.1500 
 46 H        4.1210    -1.6380     1.2140 H     1 <1>   0.0800 
 47 H        5.2300    -0.8890     2.3290 H     1 <1>   0.0800 
 48 H        5.8290    -1.6610     0.8780 H     1 <1>   0.0800 
 49 H       -7.7710     1.8210     0.4000 H     1 <1>   0.1500 
 50 H       -4.9280    -1.2410     1.2560 H     1 <1>   0.1500 
 51 H        7.7330    -0.0200     0.8490 H     1 <1>   0.0800 
 52 H        7.1070     0.7570     2.2870 H     1 <1>   0.0800 
 53 H        7.9830     1.6840     1.1000 H     1 <1>   0.0800 
 54 H       -9.1170    -0.1040     0.6950 H     1 <1>   0.0800 
 55 H       -8.7550     0.7080     2.2230 H     1 <1>   0.0800 
 56 H       -9.3710    -2.2520     1.9030 H     1 <1>   0.0800 
 57 H      -10.4760    -1.0650     2.5510 H     1 <1>   0.0800 
 58 H       -9.0100    -1.4450     3.4210 H     1 <1>   0.0800 
@<TRIPOS>BOND
  1   1   2  1   
  2   1   3  1   
  3   2   4  ar  
  4   2   5  ar  
  5   3   6  1   
  6   3   7  1   
  7   3  31  1   
  8   4   8  1   
  9   4  32  1   
 10   5   9  1   
 11   5  33  1   
 12   6  10  2   
 13   6  11  am  
 14   7  12  1   
 15   7  34  1   
 16   7  35  1   
 17   8  13  ar  
 18   8  14  ar  
 19   9  15  1   
 20   9  36  1   
 21   9  37  1   
 22  11  12  am  
 23  11  16  1   
 24  12  17  2   
 25  13  18  ar  
 26  13  38  1   
 27  14  19  ar  
 28  14  39  1   
 29  15  40  1   
 30  15  41  1   
 31  15  42  1   
 32  16  20  ar  
 33  16  21  ar  
 34  18  22  ar  
 35  18  23  1   
 36  19  22  ar  
 37  19  43  1   
 38  20  24  ar  
 39  20  44  1   
 40  21  25  ar  
 41  21  45  1   
 42  22  26  1   
 43  23  46  1   
 44  23  47  1   
 45  23  48  1   
 46  24  27  ar  
 47  24  49  1   
 48  25  27  ar  
 49  25  50  1   
 50  26  51  1   
 51  26  52  1   
 52  26  53  1   
 53  27  28  1   
 54  28  29  1   
 55  29  30  1   
 56  29  54  1   
 57  29  55  1   
 58  30  56  1   
 59  30  57  1   
 60  30  58  1   
@<TRIPOS>SUBSTRUCTURE
  1 ****  10 GROUP 4 **** **** 0

# MOE 2024.06 (io_trps.svl 2023.06)
