@<TRIPOS>MOLECULE
NONAME
51 52 1 0 0 
SMALL
USER_CHARGES


@<TRIPOS>ATOM
  1 S       -0.6670    -0.2690     3.0940 S.o2  1 <1>   1.4470 
  2 O       -1.2820    -1.5770     3.1330 O.2   1 <1>  -0.6500 
  3 O       -0.3640     0.4520     4.3040 O.2   1 <1>  -0.6500 
  4 N       -1.7900     0.7630     2.3010 N.am  1 <1>  -0.7570 
  5 C        0.7480    -0.2450     1.9620 C.ar  1 <1>  -0.0090 
  6 C       -2.6710     0.4400     1.2800 C.ar  1 <1>   0.1990 
  7 C        1.4270     0.9330     1.6840 C.ar  1 <1>  -0.1500 
  8 C        1.1830    -1.3990     1.3260 C.ar  1 <1>  -0.1500 
  9 C       -2.4700    -0.6530     0.4510 C.ar  1 <1>  -0.1500 
 10 C       -3.7900     1.2300     1.0740 C.ar  1 <1>  -0.1500 
 11 C        2.4910     0.9610     0.8000 C.ar  1 <1>  -0.1500 
 12 C        2.2450    -1.3740     0.4400 C.ar  1 <1>  -0.1500 
 13 C       -3.3800    -1.0000    -0.5400 C.ar  1 <1>   0.0860 
 14 C       -4.7200     0.9510     0.0740 C.ar  1 <1>   0.0860 
 15 C        2.9210    -0.1940     0.1550 C.ar  1 <1>  -0.1430 
 16 C       -3.1850    -2.1720    -1.3730 C.2   1 <1>   0.6340 
 17 C       -4.4870    -0.1750    -0.7170 C.ar  1 <1>  -0.1500 
 18 C       -5.8790     1.8060    -0.1200 C.2   1 <1>   0.6340 
 19 C        4.0990    -0.2150    -0.8440 C.3   1 <1>   0.1440 
 20 O       -3.3440    -2.1400    -2.5700 O.2   1 <1>  -0.5700 
 21 O       -2.8430    -3.3460    -0.8330 O.3   1 <1>  -0.4300 
 22 O       -6.0860     2.7970     0.5470 O.2   1 <1>  -0.5700 
 23 O       -6.7510     1.4760    -1.0770 O.3   1 <1>  -0.4300 
 24 C        4.7380     1.1680    -1.0560 C.3   1 <1>  -0.2400 
 25 C        3.6050    -0.7110    -2.2110 C.3   1 <1>  -0.2400 
 26 C        5.1950    -1.1570    -0.3240 C.3   1 <1>  -0.2400 
 27 C       -3.1520    -3.7280     0.4940 C.3   1 <1>   0.0400 
 28 C       -7.9030     2.2540    -1.3390 C.3   1 <1>   0.0400 
 29 H       -2.0000     1.5510     2.9080 H     1 <1>   0.4200 
 30 H        1.1200     1.8450     2.1670 H     1 <1>   0.1500 
 31 H        0.6860    -2.3350     1.5220 H     1 <1>   0.1500 
 32 H       -1.5910    -1.2570     0.5640 H     1 <1>   0.1500 
 33 H       -3.9500     2.0860     1.7050 H     1 <1>   0.1500 
 34 H        2.9700     1.9080     0.6310 H     1 <1>   0.1500 
 35 H        2.5410    -2.2950    -0.0290 H     1 <1>   0.1500 
 36 H       -5.1830    -0.4240    -1.5010 H     1 <1>   0.1500 
 37 H        5.5490     1.1060    -1.7590 H     1 <1>   0.0800 
 38 H        5.1290     1.5500    -0.1300 H     1 <1>   0.0800 
 39 H        4.0140     1.8620    -1.4460 H     1 <1>   0.0800 
 40 H        2.8130    -0.0780    -2.5680 H     1 <1>   0.0800 
 41 H        3.2290    -1.7160    -2.1480 H     1 <1>   0.0800 
 42 H        4.4030    -0.6990    -2.9310 H     1 <1>   0.0800 
 43 H        5.5240    -0.8380     0.6490 H     1 <1>   0.0800 
 44 H        6.0410    -1.1580    -0.9880 H     1 <1>   0.0800 
 45 H        4.8340    -2.1660    -0.2440 H     1 <1>   0.0800 
 46 H       -3.0660    -4.7980     0.5610 H     1 <1>   0.0800 
 47 H       -4.1610    -3.4310     0.7240 H     1 <1>   0.0800 
 48 H       -2.4560    -3.2700     1.1740 H     1 <1>   0.0800 
 49 H       -8.5110     2.2860    -0.4520 H     1 <1>   0.0800 
 50 H       -8.4470     1.7970    -2.1460 H     1 <1>   0.0800 
 51 H       -7.5960     3.2480    -1.6140 H     1 <1>   0.0800 
@<TRIPOS>BOND
  1   1   2  2   
  2   1   3  2   
  3   1   4  am  
  4   1   5  1   
  5   4   6  1   
  6   4  29  1   
  7   5   7  ar  
  8   5   8  ar  
  9   6   9  ar  
 10   6  10  ar  
 11   7  11  ar  
 12   7  30  1   
 13   8  12  ar  
 14   8  31  1   
 15   9  13  ar  
 16   9  32  1   
 17  10  14  ar  
 18  10  33  1   
 19  11  15  ar  
 20  11  34  1   
 21  12  15  ar  
 22  12  35  1   
 23  13  16  1   
 24  13  17  ar  
 25  14  17  ar  
 26  14  18  1   
 27  15  19  1   
 28  16  20  2   
 29  16  21  1   
 30  17  36  1   
 31  18  22  2   
 32  18  23  1   
 33  19  24  1   
 34  19  25  1   
 35  19  26  1   
 36  21  27  1   
 37  23  28  1   
 38  24  37  1   
 39  24  38  1   
 40  24  39  1   
 41  25  40  1   
 42  25  41  1   
 43  25  42  1   
 44  26  43  1   
 45  26  44  1   
 46  26  45  1   
 47  27  46  1   
 48  27  47  1   
 49  27  48  1   
 50  28  49  1   
 51  28  50  1   
 52  28  51  1   
@<TRIPOS>SUBSTRUCTURE
  1 ****   9 GROUP 4 **** **** 0

# MOE 2024.06 (io_trps.svl 2023.06)
