@<TRIPOS>MOLECULE
NONAME
39 39 1 0 0 
SMALL
USER_CHARGES


@<TRIPOS>ATOM
  1 S       -0.0710     0.3230     0.7520 S.o2  1 <1>   1.4470 
  2 O       -0.7240     1.3450    -0.0310 O.2   1 <1>  -0.6500 
  3 O        0.3590     0.6020     2.1040 O.2   1 <1>  -0.6500 
  4 N        1.2960    -0.0510    -0.1420 N.am  1 <1>  -0.9140 
  5 C       -1.0330    -1.2150     0.7080 C.ar  1 <1>  -0.0090 
  6 C        2.4030     0.8450     0.1280 C.3   1 <1>   0.1960 
  7 C       -2.1290    -1.3560    -0.1320 C.ar  1 <1>  -0.1500 
  8 C       -0.6820    -2.2990     1.4980 C.ar  1 <1>  -0.1500 
  9 C        3.5430     0.5180    -0.8350 C.3   1 <1>  -0.1600 
 10 C       -2.8810    -2.5280    -0.2020 C.ar  1 <1>   0.0860 
 11 C       -1.4050    -3.4770     1.4520 C.ar  1 <1>  -0.1500 
 12 C        4.7540     1.4270    -0.5920 C.3   1 <1>  -0.1600 
 13 C       -2.4980    -3.5990     0.6130 C.ar  1 <1>  -0.1430 
 14 C       -4.0190    -2.5820    -1.1030 C.2   1 <1>   0.5440 
 15 C        5.8940     1.0970    -1.5590 C.3   1 <1>  -0.2400 
 16 C       -3.2700    -4.9140     0.5940 C.3   1 <1>  -0.0970 
 17 O       -4.1110    -3.4460    -1.9510 O.2   1 <1>  -0.5700 
 18 N       -5.0040    -1.6370    -1.0060 N.am  1 <1>  -0.7300 
 19 C       -6.2080    -1.5500    -1.8710 C.3   1 <1>   0.0600 
 20 H        1.0070     0.1200    -1.1020 H     1 <1>   0.4200 
 21 H        2.7370     0.7130     1.1460 H     1 <1>   0.0800 
 22 H        2.0910     1.8690    -0.0020 H     1 <1>   0.0800 
 23 H       -2.4110    -0.5300    -0.7630 H     1 <1>   0.1500 
 24 H        0.1680    -2.2200     2.1560 H     1 <1>   0.1500 
 25 H        3.2030     0.6440    -1.8480 H     1 <1>   0.0800 
 26 H        3.8360    -0.5090    -0.6950 H     1 <1>   0.0800 
 27 H       -1.1050    -4.3000     2.0780 H     1 <1>   0.1500 
 28 H        5.1030     1.3040     0.4200 H     1 <1>   0.0800 
 29 H        4.4680     2.4580    -0.7230 H     1 <1>   0.0800 
 30 H        6.2130     0.0770    -1.4310 H     1 <1>   0.0800 
 31 H        6.7340     1.7420    -1.3720 H     1 <1>   0.0800 
 32 H        5.5770     1.2350    -2.5780 H     1 <1>   0.0800 
 33 H       -4.3220    -4.7310     0.7230 H     1 <1>   0.0800 
 34 H       -2.9420    -5.5710     1.3800 H     1 <1>   0.0800 
 35 H       -3.1220    -5.4100    -0.3490 H     1 <1>   0.0800 
 36 H       -4.9460    -0.9490    -0.2530 H     1 <1>   0.3700 
 37 H       -6.1750    -2.3040    -2.6400 H     1 <1>   0.0800 
 38 H       -6.2520    -0.5820    -2.3380 H     1 <1>   0.0800 
 39 H       -7.0930    -1.7000    -1.2780 H     1 <1>   0.0800 
@<TRIPOS>BOND
  1   1   2  2   
  2   1   3  2   
  3   1   4  am  
  4   1   5  1   
  5   4   6  1   
  6   4  20  1   
  7   5   7  ar  
  8   5   8  ar  
  9   6   9  1   
 10   6  21  1   
 11   6  22  1   
 12   7  10  ar  
 13   7  23  1   
 14   8  11  ar  
 15   8  24  1   
 16   9  12  1   
 17   9  25  1   
 18   9  26  1   
 19  10  13  ar  
 20  10  14  1   
 21  11  13  ar  
 22  11  27  1   
 23  12  15  1   
 24  12  28  1   
 25  12  29  1   
 26  13  16  1   
 27  14  17  2   
 28  14  18  am  
 29  15  30  1   
 30  15  31  1   
 31  15  32  1   
 32  16  33  1   
 33  16  34  1   
 34  16  35  1   
 35  18  19  1   
 36  18  36  1   
 37  19  37  1   
 38  19  38  1   
 39  19  39  1   
@<TRIPOS>SUBSTRUCTURE
  1 ****   5 GROUP 4 **** **** 0

# MOE 2024.06 (io_trps.svl 2023.06)
