@<TRIPOS>MOLECULE
NONAME
47 49 1 0 0 
SMALL
USER_CHARGES


@<TRIPOS>ATOM
  1 O       -5.4860     9.8440    -0.4650 O.3   1 <1>  -0.5600 
  2 C       -6.4420     8.8290    -0.3370 C.3   1 <1>   0.1200 
  3 C       -4.3830     9.4650    -1.2380 C.3   1 <1>   0.1200 
  4 C       -5.8190     7.5770     0.3020 C.3   1 <1>   0.1100 
  5 C       -3.6900     8.2350    -0.6230 C.3   1 <1>   0.1100 
  6 N       -4.6370     7.1170    -0.4640 N.3   1 <1>  -0.8100 
  7 C       -3.9860     5.9500     0.1510 C.3   1 <1>   0.3100 
  8 C       -4.9040     4.7740     0.1230 C.1   1 <1>  -0.2000 
  9 C       -5.7150     3.9080     0.0830 C.1   1 <1>  -0.2000 
 10 C       -6.8550     2.9390     0.0080 C.3   1 <1>   0.0400 
 11 C       -8.1740     3.5020     0.5810 C.3   1 <1>   0.5670 
 12 O       -7.9080     3.8370     1.9010 O.3   1 <1>  -0.6800 
 13 C       -9.2450     2.3950     0.5480 C.ar  1 <1>  -0.1440 
 14 C       -8.6880     4.8010    -0.0850 C.ar  1 <1>  -0.1440 
 15 C      -10.0880     2.2650    -0.5530 C.ar  1 <1>  -0.1500 
 16 C       -9.3860     1.4860     1.5920 C.ar  1 <1>  -0.1500 
 17 C       -8.2140     5.2800    -1.3050 C.ar  1 <1>  -0.1500 
 18 C       -9.6900     5.5300     0.5510 C.ar  1 <1>  -0.1500 
 19 C      -11.0410     1.2640    -0.6060 C.ar  1 <1>  -0.1500 
 20 C      -10.3380     0.4830     1.5420 C.ar  1 <1>  -0.1500 
 21 C       -8.7110     6.4470    -1.8570 C.ar  1 <1>  -0.1500 
 22 C      -10.1890     6.6980     0.0030 C.ar  1 <1>  -0.1500 
 23 C      -11.1680     0.3700     0.4410 C.ar  1 <1>  -0.1500 
 24 C       -9.6980     7.1600    -1.2030 C.ar  1 <1>  -0.1500 
 25 H       -6.8320     8.5960    -1.3130 H     1 <1>   0.0800 
 26 H       -7.2420     9.2020     0.2760 H     1 <1>   0.0800 
 27 H       -3.7050    10.2980    -1.2720 H     1 <1>   0.0800 
 28 H       -4.7200     9.2470    -2.2360 H     1 <1>   0.0800 
 29 H       -6.5660     6.8050     0.3270 H     1 <1>   0.0800 
 30 H       -5.5380     7.8060     1.3160 H     1 <1>   0.0800 
 31 H       -3.2770     8.5100     0.3330 H     1 <1>   0.0800 
 32 H       -2.8820     7.9320    -1.2670 H     1 <1>   0.0800 
 33 H       -3.7070     6.1730     1.1670 H     1 <1>   0.0800 
 34 H       -3.0970     5.7030    -0.4030 H     1 <1>   0.0800 
 35 H       -6.5950     2.0480     0.5490 H     1 <1>   0.0800 
 36 H       -7.0100     2.6520    -1.0150 H     1 <1>   0.0800 
 37 H       -7.2340     4.5410     1.8760 H     1 <1>   0.4000 
 38 H      -10.0120     2.9470    -1.3820 H     1 <1>   0.1500 
 39 H       -8.7520     1.5540     2.4600 H     1 <1>   0.1500 
 40 H       -7.4460     4.7610    -1.8500 H     1 <1>   0.1500 
 41 H      -10.0910     5.1790     1.4880 H     1 <1>   0.1500 
 42 H      -11.6860     1.1810    -1.4630 H     1 <1>   0.1500 
 43 H      -10.4330    -0.2080     2.3600 H     1 <1>   0.1500 
 44 H       -8.3250     6.8010    -2.7970 H     1 <1>   0.1500 
 45 H      -10.9610     7.2440     0.5160 H     1 <1>   0.1500 
 46 H      -11.9090    -0.4080     0.4010 H     1 <1>   0.1500 
 47 H      -10.0840     8.0680    -1.6320 H     1 <1>   0.1500 
@<TRIPOS>BOND
  1   1   2  1   
  2   1   3  1   
  3   2   4  1   
  4   2  25  1   
  5   2  26  1   
  6   3   5  1   
  7   3  27  1   
  8   3  28  1   
  9   4   6  1   
 10   4  29  1   
 11   4  30  1   
 12   5   6  1   
 13   5  31  1   
 14   5  32  1   
 15   6   7  1   
 16   7   8  1   
 17   7  33  1   
 18   7  34  1   
 19   8   9  3   
 20   9  10  1   
 21  10  11  1   
 22  10  35  1   
 23  10  36  1   
 24  11  12  1   
 25  11  13  1   
 26  11  14  1   
 27  12  37  1   
 28  13  15  ar  
 29  13  16  ar  
 30  14  17  ar  
 31  14  18  ar  
 32  15  19  ar  
 33  15  38  1   
 34  16  20  ar  
 35  16  39  1   
 36  17  21  ar  
 37  17  40  1   
 38  18  22  ar  
 39  18  41  1   
 40  19  23  ar  
 41  19  42  1   
 42  20  23  ar  
 43  20  43  1   
 44  21  24  ar  
 45  21  44  1   
 46  22  24  ar  
 47  22  45  1   
 48  23  46  1   
 49  24  47  1   
@<TRIPOS>SUBSTRUCTURE
  1 ****  14 GROUP 4 **** **** 0

# MOE 2024.06 (io_trps.svl 2023.06)
