@<TRIPOS>MOLECULE
NONAME
33 33 1 0 0 
SMALL
USER_CHARGES


@<TRIPOS>ATOM
  1 O       -3.4280    -3.3620    -1.3090 O.3   1 <1>  -0.3370 
  2 N       -4.1080    -2.4290    -0.6650 N.2   1 <1>  -0.5130 
  3 C       -3.5400    -1.5600     0.0570 C.2   1 <1>   0.3280 
  4 C       -4.3680    -0.5150     0.7920 C.3   1 <1>  -0.0990 
  5 C       -2.0380    -1.4530     0.3010 C.3   1 <1>  -0.1790 
  6 C       -4.8950     0.6220    -0.1020 C.3   1 <1>   0.3690 
  7 N       -5.7690     0.0560    -1.1460 N.pl3 1 <1>  -0.8690 
  8 C       -5.6420     1.6490     0.7580 C.3   1 <1>  -0.2400 
  9 C       -3.7670     1.3390    -0.8450 C.3   1 <1>  -0.2400 
 10 C       -7.1280    -0.1460    -0.9330 C.ar  1 <1>   0.1000 
 11 C       -7.5910    -1.3820    -0.5020 C.ar  1 <1>  -0.1500 
 12 C       -8.0480     0.8670    -1.1690 C.ar  1 <1>  -0.1500 
 13 C       -8.9410    -1.5940    -0.2850 C.ar  1 <1>  -0.1500 
 14 C       -9.3990     0.6610    -0.9530 C.ar  1 <1>  -0.1500 
 15 C       -9.8470    -0.5710    -0.5070 C.ar  1 <1>  -0.1500 
 16 H       -2.4640    -3.3860    -1.1520 H     1 <1>   0.4000 
 17 H       -5.2090    -1.0060     1.2460 H     1 <1>   0.0800 
 18 H       -3.7850    -0.0960     1.5920 H     1 <1>   0.0800 
 19 H       -1.7020    -0.4530     0.0980 H     1 <1>   0.0800 
 20 H       -1.4740    -2.1200    -0.3210 H     1 <1>   0.0800 
 21 H       -1.8250    -1.6850     1.3280 H     1 <1>   0.0800 
 22 H       -5.3260    -0.8240    -1.4580 H     1 <1>   0.4000 
 23 H       -4.9740     2.0920     1.4730 H     1 <1>   0.0800 
 24 H       -6.4460     1.1830     1.2970 H     1 <1>   0.0800 
 25 H       -6.0390     2.4340     0.1410 H     1 <1>   0.0800 
 26 H       -3.2610     0.6680    -1.5140 H     1 <1>   0.0800 
 27 H       -3.0550     1.7440    -0.1500 H     1 <1>   0.0800 
 28 H       -4.1710     2.1490    -1.4260 H     1 <1>   0.0800 
 29 H       -6.8880    -2.1790    -0.3390 H     1 <1>   0.1500 
 30 H       -7.6920     1.8140    -1.5270 H     1 <1>   0.1500 
 31 H       -9.2850    -2.5560     0.0540 H     1 <1>   0.1500 
 32 H      -10.1000     1.4560    -1.1350 H     1 <1>   0.1500 
 33 H      -10.8970    -0.7350    -0.3380 H     1 <1>   0.1500 
@<TRIPOS>BOND
  1   1   2  1   
  2   1  16  1   
  3   2   3  2   
  4   3   4  1   
  5   3   5  1   
  6   4   6  1   
  7   4  17  1   
  8   4  18  1   
  9   5  19  1   
 10   5  20  1   
 11   5  21  1   
 12   6   7  1   
 13   6   8  1   
 14   6   9  1   
 15   7  10  1   
 16   7  22  1   
 17   8  23  1   
 18   8  24  1   
 19   8  25  1   
 20   9  26  1   
 21   9  27  1   
 22   9  28  1   
 23  10  11  ar  
 24  10  12  ar  
 25  11  13  ar  
 26  11  29  1   
 27  12  14  ar  
 28  12  30  1   
 29  13  15  ar  
 30  13  31  1   
 31  14  15  ar  
 32  14  32  1   
 33  15  33  1   
@<TRIPOS>SUBSTRUCTURE
  1 ****   7 GROUP 4 **** **** 0

# MOE 2024.06 (io_trps.svl 2023.06)
