@<TRIPOS>MOLECULE
NONAME
54 56 1 0 0 
SMALL
USER_CHARGES


@<TRIPOS>ATOM
  1 O        1.1470    -0.4760     1.1180 O.2   1 <1>  -0.5700 
  2 C        2.0800    -1.1460     0.7270 C.2   1 <1>   0.5440 
  3 N        3.2930    -0.5160     0.7130 N.am  1 <1>  -0.5470 
  4 C        1.8810    -2.5250     0.3120 C.ar  1 <1>   0.0860 
  5 C        4.5870    -1.0080     0.5070 C.ar  1 <1>   0.1170 
  6 C        0.9870    -3.3470     0.9980 C.ar  1 <1>  -0.1500 
  7 C        2.5550    -3.0890    -0.7730 C.ar  1 <1>  -0.1500 
  8 C        5.4890    -0.2660    -0.2430 C.ar  1 <1>  -0.1500 
  9 C        4.9960    -2.2240     1.0370 C.ar  1 <1>  -0.1500 
 10 C        0.7920    -4.6690     0.6380 C.ar  1 <1>  -0.1500 
 11 C        2.3690    -4.4100    -1.1360 C.ar  1 <1>  -0.1500 
 12 C        6.7650    -0.7370    -0.4960 C.ar  1 <1>  -0.1430 
 13 C        6.2630    -2.7210     0.7950 C.ar  1 <1>  -0.1430 
 14 C        1.4880    -5.2100    -0.4300 C.ar  1 <1>  -0.1430 
 15 C        7.1400    -1.9830     0.0040 C.ar  1 <1>   0.0830 
 16 C        7.7260     0.1180    -1.3120 C.3   1 <1>  -0.0970 
 17 C        6.6470    -4.0640     1.3970 C.3   1 <1>  -0.0970 
 18 C        1.2840    -6.6610    -0.8280 C.3   1 <1>  -0.0970 
 19 O        8.3710    -2.4740    -0.2790 O.3   1 <1>  -0.3630 
 20 C        8.5020    -3.1270    -1.5360 C.3   1 <1>   0.1810 
 21 C        8.2870    -4.6340    -1.4260 C.2   1 <1>   0.5690 
 22 O        7.3250    -5.1000    -1.9950 O.2   1 <1>  -0.5700 
 23 N        9.1650    -5.4370    -0.7350 N.am  1 <1>  -0.6600 
 24 C        8.9530    -6.9110    -0.6240 C.3   1 <1>   0.1400 
 25 C       10.3930    -4.9670    -0.0220 C.3   1 <1>   0.1400 
 26 C        9.0940    -7.3720     0.8350 C.3   1 <1>   0.1200 
 27 C       10.4670    -5.5540     1.3980 C.3   1 <1>   0.1200 
 28 O       10.3150    -6.9450     1.3710 O.3   1 <1>  -0.5600 
 29 H        3.2120     0.4780     0.9260 H     1 <1>   0.3700 
 30 H        0.4380    -2.9360     1.8280 H     1 <1>   0.1500 
 31 H        3.2400    -2.4850    -1.3410 H     1 <1>   0.1500 
 32 H        5.1780     0.6850    -0.6350 H     1 <1>   0.1500 
 33 H        4.3100    -2.7880     1.6430 H     1 <1>   0.1500 
 34 H        0.0950    -5.2730     1.1920 H     1 <1>   0.1500 
 35 H        2.9160    -4.8120    -1.9710 H     1 <1>   0.1500 
 36 H        7.4130     1.1470    -1.3150 H     1 <1>   0.0800 
 37 H        7.7600    -0.2330    -2.3270 H     1 <1>   0.0800 
 38 H        8.7140     0.0710    -0.8910 H     1 <1>   0.0800 
 39 H        6.0940    -4.2460     2.3010 H     1 <1>   0.0800 
 40 H        7.6930    -4.0830     1.6360 H     1 <1>   0.0800 
 41 H        6.4300    -4.8520     0.6990 H     1 <1>   0.0800 
 42 H        0.5110    -6.7280    -1.5720 H     1 <1>   0.0800 
 43 H        1.0000    -7.2500     0.0250 H     1 <1>   0.0800 
 44 H        2.1930    -7.0690    -1.2330 H     1 <1>   0.0800 
 45 H        9.4890    -2.9320    -1.9060 H     1 <1>   0.0800 
 46 H        7.7870    -2.7110    -2.2230 H     1 <1>   0.0800 
 47 H        9.6830    -7.4200    -1.2290 H     1 <1>   0.0800 
 48 H        7.9760    -7.1830    -0.9860 H     1 <1>   0.0800 
 49 H       10.4200    -3.8950     0.0460 H     1 <1>   0.0800 
 50 H       11.2610    -5.2850    -0.5740 H     1 <1>   0.0800 
 51 H        9.0700    -8.4460     0.8880 H     1 <1>   0.0800 
 52 H        8.2940    -6.9770     1.4360 H     1 <1>   0.0800 
 53 H        9.7000    -5.1360     2.0250 H     1 <1>   0.0800 
 54 H       11.4240    -5.3390     1.8380 H     1 <1>   0.0800 
@<TRIPOS>BOND
  1   1   2  2   
  2   2   3  am  
  3   2   4  1   
  4   3   5  1   
  5   3  29  1   
  6   4   6  ar  
  7   4   7  ar  
  8   5   8  ar  
  9   5   9  ar  
 10   6  10  ar  
 11   6  30  1   
 12   7  11  ar  
 13   7  31  1   
 14   8  12  ar  
 15   8  32  1   
 16   9  13  ar  
 17   9  33  1   
 18  10  14  ar  
 19  10  34  1   
 20  11  14  ar  
 21  11  35  1   
 22  12  15  ar  
 23  12  16  1   
 24  13  15  ar  
 25  13  17  1   
 26  14  18  1   
 27  15  19  1   
 28  16  36  1   
 29  16  37  1   
 30  16  38  1   
 31  17  39  1   
 32  17  40  1   
 33  17  41  1   
 34  18  42  1   
 35  18  43  1   
 36  18  44  1   
 37  19  20  1   
 38  20  21  1   
 39  20  45  1   
 40  20  46  1   
 41  21  22  2   
 42  21  23  am  
 43  23  24  1   
 44  23  25  1   
 45  24  26  1   
 46  24  47  1   
 47  24  48  1   
 48  25  27  1   
 49  25  49  1   
 50  25  50  1   
 51  26  28  1   
 52  26  51  1   
 53  26  52  1   
 54  27  28  1   
 55  27  53  1   
 56  27  54  1   
@<TRIPOS>SUBSTRUCTURE
  1 ****  13 GROUP 4 **** **** 0

# MOE 2024.06 (io_trps.svl 2023.06)
