@<TRIPOS>MOLECULE
NONAME
39 39 1 0 0 
SMALL
USER_CHARGES


@<TRIPOS>ATOM
  1 BR       0.8490     0.7290     2.1120 Br    1 <1>  -0.1110 
  2 C        2.0990     1.4940     0.8570 C.ar  1 <1>   0.1110 
  3 C        1.8840     2.7710     0.3560 C.ar  1 <1>   0.0820 
  4 C        3.1860     0.7220     0.4930 C.ar  1 <1>  -0.1500 
  5 O        0.7800     3.4570     0.7410 O.3   1 <1>  -0.3630 
  6 C        2.8280     3.2950    -0.5370 C.ar  1 <1>   0.0830 
  7 C        4.1070     1.2400    -0.4070 C.ar  1 <1>  -0.1440 
  8 C       -0.3510     3.3000    -0.0840 C.3   1 <1>   0.1200 
  9 O        2.7820     4.5380    -1.0890 O.3   1 <1>  -0.3630 
 10 C        3.9130     2.5190    -0.9160 C.ar  1 <1>  -0.1500 
 11 C        5.3180     0.4340    -0.8190 C.3   1 <1>   0.4860 
 12 C       -1.4840     4.1340     0.5060 C.3   1 <1>  -0.2400 
 13 C        2.2820     5.6350    -0.3510 C.3   1 <1>   0.0400 
 14 N        6.4100     0.8210     0.0970 N.4   1 <1>  -0.9060 
 15 C        7.6830     0.0940    -0.1800 C.3   1 <1>   0.3430 
 16 C        8.7960     0.5050     0.7880 C.3   1 <1>   0.1200 
 17 O        9.9120    -0.2460     0.4540 O.3   1 <1>  -0.5600 
 18 C       11.0350     0.0040     1.2420 C.3   1 <1>   0.0400 
 19 H        3.2870    -0.2630     0.9140 H     1 <1>   0.1500 
 20 H       -0.6170     2.2580    -0.1080 H     1 <1>   0.0800 
 21 H       -0.1000     3.6360    -1.0760 H     1 <1>   0.0800 
 22 H        4.6040     2.9470    -1.6230 H     1 <1>   0.1500 
 23 H        5.5810     0.6590    -1.8410 H     1 <1>   0.0800 
 24 H        5.1060    -0.6200    -0.7360 H     1 <1>   0.0800 
 25 H       -1.7140     3.7920     1.4990 H     1 <1>   0.0800 
 26 H       -2.3640     4.0320    -0.1030 H     1 <1>   0.0800 
 27 H       -1.2060     5.1720     0.5370 H     1 <1>   0.0800 
 28 H        2.6800     6.5370    -0.7790 H     1 <1>   0.0800 
 29 H        2.5920     5.5450     0.6750 H     1 <1>   0.0800 
 30 H        1.2100     5.6470    -0.4230 H     1 <1>   0.0800 
 31 H        6.0910     0.6480     1.0580 H     1 <1>   0.4500 
 32 H        6.5420     1.8360     0.0150 H     1 <1>   0.4500 
 33 H        8.0120     0.3000    -1.1860 H     1 <1>   0.0800 
 34 H        7.5250    -0.9690    -0.0840 H     1 <1>   0.0800 
 35 H        8.5290     0.2800     1.8060 H     1 <1>   0.0800 
 36 H        9.0420     1.5470     0.6770 H     1 <1>   0.0800 
 37 H       11.8340    -0.6290     0.8960 H     1 <1>   0.0800 
 38 H       10.8130    -0.2290     2.2690 H     1 <1>   0.0800 
 39 H       11.3250     1.0350     1.1400 H     1 <1>   0.0800 
@<TRIPOS>BOND
  1   1   2  1   
  2   2   3  ar  
  3   2   4  ar  
  4   3   5  1   
  5   3   6  ar  
  6   4   7  ar  
  7   4  19  1   
  8   5   8  1   
  9   6   9  1   
 10   6  10  ar  
 11   7  10  ar  
 12   7  11  1   
 13   8  12  1   
 14   8  20  1   
 15   8  21  1   
 16   9  13  1   
 17  10  22  1   
 18  11  14  1   
 19  11  23  1   
 20  11  24  1   
 21  12  25  1   
 22  12  26  1   
 23  12  27  1   
 24  13  28  1   
 25  13  29  1   
 26  13  30  1   
 27  14  15  1   
 28  14  31  1   
 29  14  32  1   
 30  15  16  1   
 31  15  33  1   
 32  15  34  1   
 33  16  17  1   
 34  16  35  1   
 35  16  36  1   
 36  17  18  1   
 37  18  37  1   
 38  18  38  1   
 39  18  39  1   
@<TRIPOS>SUBSTRUCTURE
  1 ****   7 GROUP 4 **** **** 0

# MOE 2024.06 (io_trps.svl 2023.06)
