@<TRIPOS>MOLECULE
NONAME
42 42 1 0 0 
SMALL
USER_CHARGES


@<TRIPOS>ATOM
  1 S        0.0420     0.3690    -0.3970 S.o2  1 <1>   1.3330 
  2 O        1.2650     1.1230    -0.5210 O.2   1 <1>  -0.6500 
  3 O       -1.1910     0.8500    -0.9720 O.2   1 <1>  -0.6500 
  4 N        0.3080    -1.2280    -1.0270 N.am  1 <1>  -0.6930 
  5 C       -0.2510     0.0240     1.3240 C.3   1 <1>  -0.1350 
  6 C        1.4430    -1.9700    -0.7390 C.ar  1 <1>   0.1990 
  7 C       -0.7800    -1.8250    -1.8400 C.3   1 <1>   0.1160 
  8 C        2.7140    -1.5080    -1.0620 C.ar  1 <1>  -0.1500 
  9 C        1.3420    -3.2100    -0.1190 C.ar  1 <1>  -0.1500 
 10 C        3.8400    -2.2490    -0.7640 C.ar  1 <1>  -0.1500 
 11 C        2.4690    -3.9500     0.1790 C.ar  1 <1>  -0.1500 
 12 C        3.7530    -3.4890    -0.1250 C.ar  1 <1>   0.0860 
 13 C        4.9260    -4.2730     0.2100 C.2   1 <1>   0.5440 
 14 O        4.8470    -5.4780     0.3540 O.2   1 <1>  -0.5700 
 15 N        6.1430    -3.6730     0.3910 N.am  1 <1>  -0.7300 
 16 C        7.4050    -4.3760     0.7030 C.3   1 <1>   0.1400 
 17 C        8.5410    -3.7430    -0.1040 C.3   1 <1>  -0.1600 
 18 C        9.9220    -4.3360     0.2320 C.3   1 <1>  -0.0800 
 19 C       11.0150    -3.5550    -0.5070 C.3   1 <1>  -0.2400 
 20 C       10.0170    -5.8220    -0.1390 C.3   1 <1>  -0.2400 
 21 H       -0.4500     0.9360     1.8510 H     1 <1>   0.0800 
 22 H        0.6100    -0.4440     1.7580 H     1 <1>   0.0800 
 23 H       -1.0940    -0.6290     1.4320 H     1 <1>   0.0800 
 24 H       -1.0030    -1.1790    -2.6720 H     1 <1>   0.0800 
 25 H       -1.6660    -1.9380    -1.2400 H     1 <1>   0.0800 
 26 H       -0.4810    -2.7860    -2.2210 H     1 <1>   0.0800 
 27 H        2.8130    -0.5590    -1.5600 H     1 <1>   0.1500 
 28 H        0.3700    -3.5940     0.1340 H     1 <1>   0.1500 
 29 H        4.8030    -1.8600    -1.0420 H     1 <1>   0.1500 
 30 H        2.3670    -4.9090     0.6600 H     1 <1>   0.1500 
 31 H        6.1950    -2.6540     0.4050 H     1 <1>   0.3700 
 32 H        7.3070    -5.4200     0.4570 H     1 <1>   0.0800 
 33 H        7.6040    -4.2910     1.7580 H     1 <1>   0.0800 
 34 H        8.5620    -2.6880     0.1060 H     1 <1>   0.0800 
 35 H        8.3400    -3.8760    -1.1530 H     1 <1>   0.0800 
 36 H       10.0970    -4.2350     1.2910 H     1 <1>   0.0800 
 37 H       10.8810    -3.6320    -1.5720 H     1 <1>   0.0800 
 38 H       11.9860    -3.9430    -0.2550 H     1 <1>   0.0800 
 39 H       10.9870    -2.5160    -0.2310 H     1 <1>   0.0800 
 40 H        9.7940    -5.9670    -1.1820 H     1 <1>   0.0800 
 41 H        9.3330    -6.4110     0.4440 H     1 <1>   0.0800 
 42 H       11.0100    -6.1900     0.0510 H     1 <1>   0.0800 
@<TRIPOS>BOND
  1   1   2  2   
  2   1   3  2   
  3   1   4  am  
  4   1   5  1   
  5   4   6  1   
  6   4   7  1   
  7   5  21  1   
  8   5  22  1   
  9   5  23  1   
 10   6   8  ar  
 11   6   9  ar  
 12   7  24  1   
 13   7  25  1   
 14   7  26  1   
 15   8  10  ar  
 16   8  27  1   
 17   9  11  ar  
 18   9  28  1   
 19  10  12  ar  
 20  10  29  1   
 21  11  12  ar  
 22  11  30  1   
 23  12  13  1   
 24  13  14  2   
 25  13  15  am  
 26  15  16  1   
 27  15  31  1   
 28  16  17  1   
 29  16  32  1   
 30  16  33  1   
 31  17  18  1   
 32  17  34  1   
 33  17  35  1   
 34  18  19  1   
 35  18  20  1   
 36  18  36  1   
 37  19  37  1   
 38  19  38  1   
 39  19  39  1   
 40  20  40  1   
 41  20  41  1   
 42  20  42  1   
@<TRIPOS>SUBSTRUCTURE
  1 ****  10 GROUP 4 **** **** 0

# MOE 2024.06 (io_trps.svl 2023.06)
