@<TRIPOS>MOLECULE
NONAME
38 39 1 0 0 
SMALL
USER_CHARGES


@<TRIPOS>ATOM
  1 O        0.5020     0.5500     1.0380 O.2   1 <1>  -0.5700 
  2 C        1.4940     0.9700     0.4770 C.2   1 <1>   0.5090 
  3 C        2.7660     0.2630     0.3980 C.2   1 <1>   0.5000 
  4 C        1.2960     2.3050    -0.2240 C.3   1 <1>  -0.1790 
  5 N        3.9410     0.8190     0.3800 N.2   1 <1>  -0.4920 
  6 N        2.7520    -1.1630     0.3230 N.pl3 1 <1>  -0.7880 
  7 N        4.1130     2.1460     0.7030 N.pl3 1 <1>  -0.4580 
  8 C        4.0690    -1.8830     0.3440 C.3   1 <1>   0.2090 
  9 C        1.8070    -1.7790    -0.6610 C.3   1 <1>   0.2090 
 10 C        5.2600     2.9010     0.4370 C.ar  1 <1>   0.1000 
 11 C        3.8740    -3.4050     0.4590 C.3   1 <1>   0.1200 
 12 C        1.7350    -3.3050    -0.4820 C.3   1 <1>   0.1200 
 13 C        5.3700     4.1920     0.9410 C.ar  1 <1>  -0.1500 
 14 C        6.3050     2.4000    -0.3310 C.ar  1 <1>  -0.1500 
 15 O        3.0120    -3.8770    -0.5380 O.3   1 <1>  -0.5600 
 16 C        6.4920     4.9600     0.6840 C.ar  1 <1>  -0.1500 
 17 C        7.4280     3.1660    -0.5890 C.ar  1 <1>  -0.1500 
 18 C        7.5270     4.4520    -0.0850 C.ar  1 <1>  -0.1430 
 19 C        8.7590     5.2930    -0.3660 C.3   1 <1>  -0.0970 
 20 H        0.3230     2.3290    -0.6800 H     1 <1>   0.0800 
 21 H        1.3610     3.1050     0.4890 H     1 <1>   0.0800 
 22 H        2.0350     2.4450    -0.9920 H     1 <1>   0.0800 
 23 H        3.4200     2.6010     1.3090 H     1 <1>   0.4000 
 24 H        4.6160    -1.6620    -0.5560 H     1 <1>   0.0800 
 25 H        4.6520    -1.5420     1.1820 H     1 <1>   0.0800 
 26 H        0.8180    -1.3770    -0.5330 H     1 <1>   0.0800 
 27 H        2.1350    -1.5560    -1.6620 H     1 <1>   0.0800 
 28 H        3.4610    -3.6580     1.4200 H     1 <1>   0.0800 
 29 H        4.8170    -3.9080     0.3440 H     1 <1>   0.0800 
 30 H        1.1440    -3.7430    -1.2660 H     1 <1>   0.0800 
 31 H        1.2880    -3.5500     0.4660 H     1 <1>   0.0800 
 32 H        4.5770     4.6000     1.5390 H     1 <1>   0.1500 
 33 H        6.2330     1.4030    -0.7250 H     1 <1>   0.1500 
 34 H        6.5580     5.9560     1.0850 H     1 <1>   0.1500 
 35 H        8.2230     2.7540    -1.1850 H     1 <1>   0.1500 
 36 H        8.5070     6.3380    -0.3820 H     1 <1>   0.0800 
 37 H        9.1820     5.0320    -1.3200 H     1 <1>   0.0800 
 38 H        9.4960     5.1250     0.3980 H     1 <1>   0.0800 
@<TRIPOS>BOND
  1   1   2  2   
  2   2   3  1   
  3   2   4  1   
  4   3   5  2   
  5   3   6  1   
  6   4  20  1   
  7   4  21  1   
  8   4  22  1   
  9   5   7  1   
 10   6   8  1   
 11   6   9  1   
 12   7  10  1   
 13   7  23  1   
 14   8  11  1   
 15   8  24  1   
 16   8  25  1   
 17   9  12  1   
 18   9  26  1   
 19   9  27  1   
 20  10  13  ar  
 21  10  14  ar  
 22  11  15  1   
 23  11  28  1   
 24  11  29  1   
 25  12  15  1   
 26  12  30  1   
 27  12  31  1   
 28  13  16  ar  
 29  13  32  1   
 30  14  17  ar  
 31  14  33  1   
 32  16  18  ar  
 33  16  34  1   
 34  17  18  ar  
 35  17  35  1   
 36  18  19  1   
 37  19  36  1   
 38  19  37  1   
 39  19  38  1   
@<TRIPOS>SUBSTRUCTURE
  1 ****   5 GROUP 4 **** **** 0

# MOE 2024.06 (io_trps.svl 2023.06)
