@<TRIPOS>MOLECULE
NONAME
50 53 1 0 0 
SMALL
USER_CHARGES


@<TRIPOS>ATOM
  1 O       -7.4310    -1.0810     2.6580 O.2   1 <1>  -0.5700 
  2 C       -7.8270    -0.1880     1.9490 C.2   1 <1>   0.5690 
  3 N       -6.9320     0.5950     1.2510 N.am  1 <1>  -0.6600 
  4 C       -9.3380     0.0210     1.8740 C.3   1 <1>   0.0440 
  5 C       -7.3110     1.7750     0.4090 C.3   1 <1>   0.1400 
  6 C       -5.4930     0.1860     1.1610 C.3   1 <1>   0.1400 
  7 C       -9.8830     0.0830     0.4490 C.ar  1 <1>  -0.1440 
  8 C       -6.3060     2.9360     0.5470 C.3   1 <1>   0.3430 
  9 C       -4.5480     1.3880     1.3230 C.3   1 <1>   0.3430 
 10 C       -9.5030    -0.8660    -0.4880 C.ar  1 <1>  -0.1500 
 11 C      -10.7600     1.0920     0.0760 C.ar  1 <1>  -0.1500 
 12 N       -4.8770     2.4990     0.3610 N.4   1 <1>  -0.9590 
 13 C       -9.9770    -0.7980    -1.7870 C.ar  1 <1>  -0.1500 
 14 C      -11.2340     1.1610    -1.2230 C.ar  1 <1>  -0.1500 
 15 C       -3.8890     3.6130     0.5110 C.3   1 <1>   0.3430 
 16 C      -10.8410     0.2180    -2.1550 C.ar  1 <1>  -0.1500 
 17 C       -3.9620     4.6310    -0.6430 C.3   1 <1>  -0.0800 
 18 C       -2.5380     5.4580    -0.7430 C.3   1 <1>   0.0580 
 19 C       -5.1870     5.7910    -0.4810 C.3   1 <1>  -0.1600 
 20 C       -1.9680     6.9710    -0.6230 C.2   1 <1>  -0.2880 
 21 C       -3.5310     6.3370    -0.6520 C.3   1 <1>  -0.1600 
 22 C       -4.4670     7.2720    -0.5200 C.3   1 <1>   0.0580 
 23 C       -2.9820     7.9240    -0.5050 C.2   1 <1>  -0.2880 
 24 H       -9.5810     0.9180     2.4110 H     1 <1>   0.0800 
 25 H       -9.8200    -0.7940     2.3830 H     1 <1>   0.0800 
 26 H       -8.2780     2.1440     0.6980 H     1 <1>   0.0800 
 27 H       -7.3740     1.4670    -0.6200 H     1 <1>   0.0800 
 28 H       -5.3220    -0.2860     0.2090 H     1 <1>   0.0800 
 29 H       -5.2560    -0.5360     1.9230 H     1 <1>   0.0800 
 30 H       -6.4230     3.3730     1.5260 H     1 <1>   0.0800 
 31 H       -6.5560     3.6890    -0.1810 H     1 <1>   0.0800 
 32 H       -3.5350     1.0560     1.1680 H     1 <1>   0.0800 
 33 H       -4.6260     1.7480     2.3360 H     1 <1>   0.0800 
 34 H       -8.8380    -1.6680    -0.2130 H     1 <1>   0.1500 
 35 H      -11.0850     1.8270     0.7910 H     1 <1>   0.1500 
 36 H       -4.7900     2.1150    -0.5900 H     1 <1>   0.4500 
 37 H       -9.6790    -1.5380    -2.5090 H     1 <1>   0.1500 
 38 H      -11.9160     1.9440    -1.5080 H     1 <1>   0.1500 
 39 H       -2.8950     3.1950     0.5180 H     1 <1>   0.0800 
 40 H       -4.0340     4.1210     1.4510 H     1 <1>   0.0800 
 41 H      -11.2120     0.2700    -3.1640 H     1 <1>   0.1500 
 42 H       -4.0970     4.0860    -1.5660 H     1 <1>   0.0800 
 43 H       -2.1500     5.1560    -1.7070 H     1 <1>   0.0800 
 44 H       -5.7150     5.6860     0.4540 H     1 <1>   0.0800 
 45 H       -5.9070     5.7040    -1.2810 H     1 <1>   0.0800 
 46 H       -0.9010     7.1280    -0.6440 H     1 <1>   0.1500 
 47 H       -3.6280     6.3810    -1.8190 H     1 <1>   0.0800 
 48 H       -3.4730     6.2480     0.5600 H     1 <1>   0.0800 
 49 H       -4.9110     7.7410    -1.3880 H     1 <1>   0.0800 
 50 H       -2.8900     8.9950    -0.4120 H     1 <1>   0.1500 
@<TRIPOS>BOND
  1   1   2  2   
  2   2   3  am  
  3   2   4  1   
  4   3   5  1   
  5   3   6  1   
  6   4   7  1   
  7   4  24  1   
  8   4  25  1   
  9   5   8  1   
 10   5  26  1   
 11   5  27  1   
 12   6   9  1   
 13   6  28  1   
 14   6  29  1   
 15   7  10  ar  
 16   7  11  ar  
 17   8  12  1   
 18   8  30  1   
 19   8  31  1   
 20   9  12  1   
 21   9  32  1   
 22   9  33  1   
 23  10  13  ar  
 24  10  34  1   
 25  11  14  ar  
 26  11  35  1   
 27  12  15  1   
 28  12  36  1   
 29  13  16  ar  
 30  13  37  1   
 31  14  16  ar  
 32  14  38  1   
 33  15  17  1   
 34  15  39  1   
 35  15  40  1   
 36  16  41  1   
 37  17  18  1   
 38  17  19  1   
 39  17  42  1   
 40  18  20  1   
 41  18  21  1   
 42  18  43  1   
 43  19  22  1   
 44  19  44  1   
 45  19  45  1   
 46  20  23  2   
 47  20  46  1   
 48  21  22  1   
 49  21  47  1   
 50  21  48  1   
 51  22  23  1   
 52  22  49  1   
 53  23  50  1   
@<TRIPOS>SUBSTRUCTURE
  1 ****   8 GROUP 4 **** **** 0

# MOE 2024.06 (io_trps.svl 2023.06)
