@<TRIPOS>MOLECULE
NONAME
45 46 1 0 0 
SMALL
USER_CHARGES


@<TRIPOS>ATOM
  1 O        1.5040    -2.3230     0.7040 O.2   1 <1>  -0.5700 
  2 C        0.6050    -1.5900     1.0430 C.2   1 <1>   0.5690 
  3 N        0.7960    -0.2500     1.1580 N.am  1 <1>  -0.7300 
  4 C       -0.7700    -2.1610     1.3370 C.3   1 <1>   0.0440 
  5 C        2.0450     0.5050     0.8950 C.3   1 <1>   0.1400 
  6 C       -1.8480    -1.4920     0.4850 C.ar  1 <1>  -0.1430 
  7 C        2.6000     0.2070    -0.5150 C.3   1 <1>   0.3430 
  8 C       -2.3970    -0.2620     0.8420 C.ar  1 <1>   0.0830 
  9 C       -2.2840    -2.1260    -0.6690 C.ar  1 <1>  -0.1500 
 10 N        4.0400    -0.2180    -0.5150 N.4   1 <1>  -0.9590 
 11 O       -1.9390     0.3400     1.9730 O.3   1 <1>  -0.3630 
 12 C       -3.3780     0.3150     0.0390 C.ar  1 <1>  -0.1500 
 13 C       -3.2590    -1.5480    -1.4630 C.ar  1 <1>  -0.1500 
 14 C        4.5710    -0.2360    -1.9080 C.3   1 <1>   0.3430 
 15 C        4.2030    -1.5600     0.1280 C.3   1 <1>   0.3430 
 16 C       -2.7000     1.3380     2.6200 C.3   1 <1>   0.0400 
 17 C       -3.8050    -0.3280    -1.1080 C.ar  1 <1>  -0.1500 
 18 C        6.0660    -0.5590    -1.8860 C.3   1 <1>  -0.1600 
 19 C        5.6880    -1.9220     0.2020 C.3   1 <1>  -0.1600 
 20 C        6.3470    -1.8940    -1.1830 C.3   1 <1>  -0.1600 
 21 H       -0.0350     0.2980     1.4360 H     1 <1>   0.3700 
 22 H       -0.9870    -2.0280     2.3810 H     1 <1>   0.0800 
 23 H       -0.7560    -3.2180     1.1470 H     1 <1>   0.0800 
 24 H        2.7650     0.2520     1.6540 H     1 <1>   0.0800 
 25 H        1.8300     1.5570     0.9730 H     1 <1>   0.0800 
 26 H        2.4900     1.0950    -1.1140 H     1 <1>   0.0800 
 27 H        2.0020    -0.5700    -0.9640 H     1 <1>   0.0800 
 28 H       -1.8690    -3.0760    -0.9590 H     1 <1>   0.1500 
 29 H        4.5980     0.4540     0.0240 H     1 <1>   0.4500 
 30 H       -3.8180     1.2620     0.2860 H     1 <1>   0.1500 
 31 H       -3.5930    -2.0480    -2.3560 H     1 <1>   0.1500 
 32 H        4.4180     0.7230    -2.3760 H     1 <1>   0.0800 
 33 H        4.0500    -0.9840    -2.4850 H     1 <1>   0.0800 
 34 H        3.6750    -2.3060    -0.4440 H     1 <1>   0.0800 
 35 H        3.7830    -1.5540     1.1220 H     1 <1>   0.0800 
 36 H       -2.2410     1.5490     3.5700 H     1 <1>   0.0800 
 37 H       -3.7000     0.9710     2.7740 H     1 <1>   0.0800 
 38 H       -2.7070     2.2260     2.0140 H     1 <1>   0.0800 
 39 H       -4.5640     0.1200    -1.7280 H     1 <1>   0.1500 
 40 H        6.5980     0.2360    -1.3920 H     1 <1>   0.0800 
 41 H        6.4300    -0.6090    -2.8980 H     1 <1>   0.0800 
 42 H        5.7850    -2.9080     0.6230 H     1 <1>   0.0800 
 43 H        6.1900    -1.2390     0.8650 H     1 <1>   0.0800 
 44 H        7.4100    -2.0430    -1.0860 H     1 <1>   0.0800 
 45 H        5.9560    -2.7020    -1.7790 H     1 <1>   0.0800 
@<TRIPOS>BOND
  1   1   2  2   
  2   2   3  am  
  3   2   4  1   
  4   3   5  1   
  5   3  21  1   
  6   4   6  1   
  7   4  22  1   
  8   4  23  1   
  9   5   7  1   
 10   5  24  1   
 11   5  25  1   
 12   6   8  ar  
 13   6   9  ar  
 14   7  10  1   
 15   7  26  1   
 16   7  27  1   
 17   8  11  1   
 18   8  12  ar  
 19   9  13  ar  
 20   9  28  1   
 21  10  14  1   
 22  10  15  1   
 23  10  29  1   
 24  11  16  1   
 25  12  17  ar  
 26  12  30  1   
 27  13  17  ar  
 28  13  31  1   
 29  14  18  1   
 30  14  32  1   
 31  14  33  1   
 32  15  19  1   
 33  15  34  1   
 34  15  35  1   
 35  16  36  1   
 36  16  37  1   
 37  16  38  1   
 38  17  39  1   
 39  18  20  1   
 40  18  40  1   
 41  18  41  1   
 42  19  20  1   
 43  19  42  1   
 44  19  43  1   
 45  20  44  1   
 46  20  45  1   
@<TRIPOS>SUBSTRUCTURE
  1 ****   3 GROUP 4 **** **** 0

# MOE 2024.06 (io_trps.svl 2023.06)
