@<TRIPOS>MOLECULE
NONAME
37 37 1 0 0 
SMALL
USER_CHARGES


@<TRIPOS>ATOM
  1 O       -9.2340     4.0150    -0.2640 O.3   1 <1>  -0.3630 
  2 C       -9.3100     2.6920     0.0440 C.ar  1 <1>   0.0830 
  3 C      -10.1960     4.6310    -1.0950 C.3   1 <1>   0.1200 
  4 C       -8.4390     2.2110     1.0180 C.ar  1 <1>  -0.1440 
  5 C      -10.2010     1.8190    -0.5740 C.ar  1 <1>  -0.1500 
  6 C       -9.8720     6.1200    -1.1660 C.3   1 <1>  -0.2400 
  7 C       -8.4610     0.8680     1.3620 C.ar  1 <1>  -0.1500 
  8 C       -7.4750     3.1520     1.7050 C.3   1 <1>   0.4860 
  9 C      -10.2160     0.4820    -0.2250 C.ar  1 <1>  -0.1500 
 10 C       -9.3470     0.0060     0.7410 C.ar  1 <1>  -0.1500 
 11 N       -6.5980     3.7120     0.6600 N.4   1 <1>  -0.9060 
 12 C       -5.6910     4.7760     1.1320 C.3   1 <1>   0.3430 
 13 C       -4.9190     5.3280    -0.0630 C.3   1 <1>  -0.1600 
 14 C       -3.9660     6.4490     0.3720 C.3   1 <1>  -0.1600 
 15 C       -3.1930     7.0050    -0.8260 C.3   1 <1>  -0.2400 
 16 H      -11.1720     4.4730    -0.6670 H     1 <1>   0.0800 
 17 H      -10.1440     4.1860    -2.0750 H     1 <1>   0.0800 
 18 H      -10.8880     2.1530    -1.3290 H     1 <1>   0.1500 
 19 H       -9.9140     6.5590    -0.1850 H     1 <1>   0.0800 
 20 H      -10.5970     6.6160    -1.7870 H     1 <1>   0.0800 
 21 H       -8.8980     6.2750    -1.5940 H     1 <1>   0.0800 
 22 H       -7.7990     0.4730     2.1150 H     1 <1>   0.1500 
 23 H       -6.8950     2.6250     2.4450 H     1 <1>   0.0800 
 24 H       -8.0310     3.9400     2.1870 H     1 <1>   0.0800 
 25 H      -10.9050    -0.1930    -0.7040 H     1 <1>   0.1500 
 26 H       -9.3660    -1.0380     1.0090 H     1 <1>   0.1500 
 27 H       -7.2540     4.0820    -0.0490 H     1 <1>   0.4500 
 28 H       -6.0910     2.9470     0.2030 H     1 <1>   0.4500 
 29 H       -5.0000     4.3800     1.8590 H     1 <1>   0.0800 
 30 H       -6.2590     5.5690     1.5910 H     1 <1>   0.0800 
 31 H       -5.6100     5.7230    -0.7890 H     1 <1>   0.0800 
 32 H       -4.3450     4.5410    -0.5210 H     1 <1>   0.0800 
 33 H       -3.2620     6.0740     1.0970 H     1 <1>   0.0800 
 34 H       -4.5220     7.2500     0.8300 H     1 <1>   0.0800 
 35 H       -2.6030     6.2350    -1.2910 H     1 <1>   0.0800 
 36 H       -2.5290     7.7890    -0.5030 H     1 <1>   0.0800 
 37 H       -3.8670     7.4150    -1.5580 H     1 <1>   0.0800 
@<TRIPOS>BOND
  1   1   2  1   
  2   1   3  1   
  3   2   4  ar  
  4   2   5  ar  
  5   3   6  1   
  6   3  16  1   
  7   3  17  1   
  8   4   7  ar  
  9   4   8  1   
 10   5   9  ar  
 11   5  18  1   
 12   6  19  1   
 13   6  20  1   
 14   6  21  1   
 15   7  10  ar  
 16   7  22  1   
 17   8  11  1   
 18   8  23  1   
 19   8  24  1   
 20   9  10  ar  
 21   9  25  1   
 22  10  26  1   
 23  11  12  1   
 24  11  27  1   
 25  11  28  1   
 26  12  13  1   
 27  12  29  1   
 28  12  30  1   
 29  13  14  1   
 30  13  31  1   
 31  13  32  1   
 32  14  15  1   
 33  14  33  1   
 34  14  34  1   
 35  15  35  1   
 36  15  36  1   
 37  15  37  1   
@<TRIPOS>SUBSTRUCTURE
  1 ****  11 GROUP 4 **** **** 0

# MOE 2024.06 (io_trps.svl 2023.06)
