@<TRIPOS>MOLECULE
NONAME
40 42 1 0 0 
SMALL
USER_CHARGES


@<TRIPOS>ATOM
  1 BR      -1.2400    -0.6940     3.9880 Br    1 <1>  -0.0570 
  2 C       -1.6080    -1.5860     2.3170 C.2   1 <1>   0.0570 
  3 C       -0.8580    -1.4580     1.2110 C.2   1 <1>  -0.1100 
  4 C       -2.7450    -2.4430     2.2180 C.2   1 <1>  -0.1500 
  5 S       -1.5600    -2.4410    -0.0660 S.3   1 <1>  -0.0800 
  6 C       -2.8680    -2.9860     0.9910 C.2   1 <1>  -0.1400 
  7 C       -3.8880    -3.9480     0.4090 C.3   1 <1>   0.2900 
  8 N       -5.1190    -3.2340     0.0090 N.3   1 <1>  -0.8100 
  9 C       -4.8700    -2.2070    -1.0380 C.3   1 <1>   0.1100 
 10 C       -6.1750    -4.1790    -0.4260 C.3   1 <1>   0.1100 
 11 C       -6.1660    -1.5010    -1.5050 C.3   1 <1>   0.3430 
 12 C       -7.4970    -3.4590    -0.7920 C.3   1 <1>   0.3430 
 13 N       -7.3450    -1.9670    -0.7090 N.4   1 <1>  -0.9590 
 14 C       -8.5970    -1.2130    -0.9710 C.3   1 <1>   0.4860 
 15 C       -9.6720    -1.7000    -0.0190 C.ar  1 <1>  -0.1440 
 16 C       -9.6080    -1.3880     1.3320 C.ar  1 <1>  -0.1500 
 17 C      -10.7250    -2.4700    -0.4930 C.ar  1 <1>  -0.1500 
 18 C      -10.5810    -1.8510     2.2000 C.ar  1 <1>  -0.1500 
 19 C      -11.6970    -2.9310     0.3770 C.ar  1 <1>  -0.1500 
 20 C      -11.6240    -2.6240     1.7230 C.ar  1 <1>  -0.1500 
 21 H        0.0340    -0.8970     0.9970 H     1 <1>   0.1500 
 22 H       -3.3950    -2.6020     3.0600 H     1 <1>   0.1500 
 23 H       -4.1350    -4.6730     1.1670 H     1 <1>   0.0800 
 24 H       -3.4630    -4.4720    -0.4300 H     1 <1>   0.0800 
 25 H       -4.3830    -2.6560    -1.8880 H     1 <1>   0.0800 
 26 H       -4.2060    -1.4540    -0.6490 H     1 <1>   0.0800 
 27 H       -6.3760    -4.8810     0.3660 H     1 <1>   0.0800 
 28 H       -5.8330    -4.7420    -1.2780 H     1 <1>   0.0800 
 29 H       -6.3230    -1.7070    -2.5510 H     1 <1>   0.0800 
 30 H       -6.0400    -0.4370    -1.3930 H     1 <1>   0.0800 
 31 H       -8.2660    -3.7850    -0.1100 H     1 <1>   0.0800 
 32 H       -7.7970    -3.7480    -1.7850 H     1 <1>   0.0800 
 33 H       -7.0700    -1.8170     0.2730 H     1 <1>   0.4500 
 34 H       -8.9160    -1.3640    -1.9890 H     1 <1>   0.0800 
 35 H       -8.4350    -0.1590    -0.8160 H     1 <1>   0.0800 
 36 H       -8.8090    -0.7830     1.7260 H     1 <1>   0.1500 
 37 H      -10.8070    -2.7180    -1.5380 H     1 <1>   0.1500 
 38 H      -10.5320    -1.6090     3.2490 H     1 <1>   0.1500 
 39 H      -12.5160    -3.5280     0.0100 H     1 <1>   0.1500 
 40 H      -12.3820    -2.9820     2.4000 H     1 <1>   0.1500 
@<TRIPOS>BOND
  1   1   2  1   
  2   2   3  2   
  3   2   4  1   
  4   3   5  1   
  5   3  21  1   
  6   4   6  2   
  7   4  22  1   
  8   5   6  1   
  9   6   7  1   
 10   7   8  1   
 11   7  23  1   
 12   7  24  1   
 13   8   9  1   
 14   8  10  1   
 15   9  11  1   
 16   9  25  1   
 17   9  26  1   
 18  10  12  1   
 19  10  27  1   
 20  10  28  1   
 21  11  13  1   
 22  11  29  1   
 23  11  30  1   
 24  12  13  1   
 25  12  31  1   
 26  12  32  1   
 27  13  14  1   
 28  13  33  1   
 29  14  15  1   
 30  14  34  1   
 31  14  35  1   
 32  15  16  ar  
 33  15  17  ar  
 34  16  18  ar  
 35  16  36  1   
 36  17  19  ar  
 37  17  37  1   
 38  18  20  ar  
 39  18  38  1   
 40  19  20  ar  
 41  19  39  1   
 42  20  40  1   
@<TRIPOS>SUBSTRUCTURE
  1 ****   8 GROUP 4 **** **** 0

# MOE 2024.06 (io_trps.svl 2023.06)
