@<TRIPOS>MOLECULE
NONAME
43 44 1 0 0 
SMALL
USER_CHARGES


@<TRIPOS>ATOM
  1 O        5.5120     4.3060     1.5730 O.3   1 <1>  -0.5600 
  2 C        5.5450     4.0860     0.1930 C.3   1 <1>   0.1200 
  3 C        4.8660     5.4810     1.9670 C.3   1 <1>   0.1200 
  4 C        4.1120     4.0040    -0.3670 C.3   1 <1>   0.3430 
  5 C        3.4010     5.4680     1.4910 C.3   1 <1>   0.3430 
  6 N        3.2990     5.2160     0.0070 N.4   1 <1>  -0.9590 
  7 C        1.8890     5.0720    -0.4530 C.3   1 <1>   0.3430 
  8 C        1.1600     6.4110    -0.3580 C.3   1 <1>  -0.1600 
  9 C       -0.2640     6.2960    -0.8980 C.3   1 <1>   0.1200 
 10 O       -0.8680     7.5520    -0.7240 O.3   1 <1>  -0.3630 
 11 C       -2.1970     7.7390    -0.9340 C.ar  1 <1>   0.0820 
 12 C       -2.7730     8.9140    -0.4540 C.ar  1 <1>  -0.1440 
 13 C       -2.9900     6.8040    -1.5970 C.ar  1 <1>  -0.1500 
 14 C       -4.1310     9.1300    -0.6300 C.ar  1 <1>  -0.1500 
 15 C       -1.9410     9.9690     0.2680 C.3   1 <1>   0.1220 
 16 C       -4.3420     7.0340    -1.7700 C.ar  1 <1>  -0.1500 
 17 C       -4.9140     8.1960    -1.2850 C.ar  1 <1>  -0.1500 
 18 C       -1.8440     9.6450     1.7490 C.2   1 <1>  -0.2880 
 19 C       -2.2090    10.4580     2.7460 C.2   1 <1>  -0.3000 
 20 H        6.0630     3.1570     0.0240 H     1 <1>   0.0800 
 21 H        6.1050     4.8780    -0.2730 H     1 <1>   0.0800 
 22 H        5.4010     6.3250     1.5650 H     1 <1>   0.0800 
 23 H        4.9070     5.5310     3.0420 H     1 <1>   0.0800 
 24 H        3.6470     3.1170     0.0300 H     1 <1>   0.0800 
 25 H        4.1550     3.9040    -1.4390 H     1 <1>   0.0800 
 26 H        2.9430     6.4110     1.7400 H     1 <1>   0.0800 
 27 H        2.8780     4.6950     2.0300 H     1 <1>   0.0800 
 28 H        3.7140     6.0260    -0.4730 H     1 <1>   0.4500 
 29 H        1.3790     4.3330     0.1450 H     1 <1>   0.0800 
 30 H        1.8760     4.7420    -1.4790 H     1 <1>   0.0800 
 31 H        1.6830     7.1530    -0.9360 H     1 <1>   0.0800 
 32 H        1.0980     6.7300     0.6670 H     1 <1>   0.0800 
 33 H       -0.8360     5.5700    -0.3450 H     1 <1>   0.0800 
 34 H       -0.2720     6.0620    -1.9500 H     1 <1>   0.0800 
 35 H       -2.5780     5.8960    -1.9900 H     1 <1>   0.1500 
 36 H       -4.5870    10.0290    -0.2540 H     1 <1>   0.1500 
 37 H       -2.3880    10.9380     0.1340 H     1 <1>   0.0800 
 38 H       -0.9540    10.0150    -0.1560 H     1 <1>   0.0800 
 39 H       -4.9530     6.3110    -2.2820 H     1 <1>   0.1500 
 40 H       -5.9670     8.3750    -1.4160 H     1 <1>   0.1500 
 41 H       -1.4420     8.6620     1.9220 H     1 <1>   0.1500 
 42 H       -2.1330    10.2010     3.7880 H     1 <1>   0.1500 
 43 H       -2.6170    11.4450     2.6070 H     1 <1>   0.1500 
@<TRIPOS>BOND
  1   1   2  1   
  2   1   3  1   
  3   2   4  1   
  4   2  20  1   
  5   2  21  1   
  6   3   5  1   
  7   3  22  1   
  8   3  23  1   
  9   4   6  1   
 10   4  24  1   
 11   4  25  1   
 12   5   6  1   
 13   5  26  1   
 14   5  27  1   
 15   6   7  1   
 16   6  28  1   
 17   7   8  1   
 18   7  29  1   
 19   7  30  1   
 20   8   9  1   
 21   8  31  1   
 22   8  32  1   
 23   9  10  1   
 24   9  33  1   
 25   9  34  1   
 26  10  11  1   
 27  11  12  ar  
 28  11  13  ar  
 29  12  14  ar  
 30  12  15  1   
 31  13  16  ar  
 32  13  35  1   
 33  14  17  ar  
 34  14  36  1   
 35  15  18  1   
 36  15  37  1   
 37  15  38  1   
 38  16  17  ar  
 39  16  39  1   
 40  17  40  1   
 41  18  19  2   
 42  18  41  1   
 43  19  42  1   
 44  19  43  1   
@<TRIPOS>SUBSTRUCTURE
  1 ****   9 GROUP 4 **** **** 0

# MOE 2024.06 (io_trps.svl 2023.06)
