@<TRIPOS>MOLECULE
NONAME
35 35 1 0 0 
SMALL
USER_CHARGES


@<TRIPOS>ATOM
  1 CL      -0.5430    -0.2240    -0.0440 Cl    1 <1>  -0.1770 
  2 C        0.5290    -1.6080    -0.0130 C.ar  1 <1>   0.1770 
  3 C        0.0010    -2.8940     0.0030 C.ar  1 <1>   0.0820 
  4 C        1.8930    -1.3870    -0.0050 C.ar  1 <1>  -0.1500 
  5 O       -1.3530    -3.0290    -0.0060 O.3   1 <1>  -0.3630 
  6 C        0.8800    -3.9740     0.0260 C.ar  1 <1>  -0.1500 
  7 C        2.7630    -2.4650     0.0200 C.ar  1 <1>  -0.1440 
  8 C       -1.9800    -4.2840     0.0100 C.3   1 <1>   0.1200 
  9 C        2.2480    -3.7530     0.0340 C.ar  1 <1>  -0.1500 
 10 C        4.2640    -2.2410     0.0280 C.3   1 <1>  -0.0960 
 11 C       -3.4880    -4.0190    -0.0050 C.3   1 <1>   0.3430 
 12 N       -4.2820    -5.2860     0.0110 N.4   1 <1>  -0.9060 
 13 C       -5.7490    -4.9980    -0.0040 C.3   1 <1>   0.3430 
 14 C       -6.5860    -6.2810     0.0120 C.3   1 <1>   0.1200 
 15 O       -7.9150    -5.8910    -0.0030 O.3   1 <1>  -0.5600 
 16 C       -8.8280    -6.9450     0.0080 C.3   1 <1>   0.0400 
 17 H        2.2630    -0.3770    -0.0190 H     1 <1>   0.1500 
 18 H        0.5320    -4.9880     0.0380 H     1 <1>   0.1500 
 19 H       -1.6810    -4.7940     0.9100 H     1 <1>   0.0800 
 20 H       -1.6690    -4.8240    -0.8670 H     1 <1>   0.0800 
 21 H        2.9210    -4.5940     0.0510 H     1 <1>   0.1500 
 22 H        4.5020    -1.2710     0.4250 H     1 <1>   0.0800 
 23 H        4.6480    -2.3080    -0.9750 H     1 <1>   0.0800 
 24 H        4.7510    -2.9830     0.6360 H     1 <1>   0.0800 
 25 H       -3.7270    -3.4520    -0.8900 H     1 <1>   0.0800 
 26 H       -3.7390    -3.4230     0.8580 H     1 <1>   0.0800 
 27 H       -4.0520    -5.8300     0.8540 H     1 <1>   0.4500 
 28 H       -4.0410    -5.8580    -0.8090 H     1 <1>   0.4500 
 29 H       -6.0010    -4.4370    -0.8890 H     1 <1>   0.0800 
 30 H       -6.0130    -4.4070     0.8590 H     1 <1>   0.0800 
 31 H       -6.4110    -6.8480     0.9100 H     1 <1>   0.0800 
 32 H       -6.3980    -6.8790    -0.8630 H     1 <1>   0.0800 
 33 H       -9.8210    -6.5280    -0.0050 H     1 <1>   0.0800 
 34 H       -8.6960    -7.5260     0.9050 H     1 <1>   0.0800 
 35 H       -8.6840    -7.5560    -0.8660 H     1 <1>   0.0800 
@<TRIPOS>BOND
  1   1   2  1   
  2   2   3  ar  
  3   2   4  ar  
  4   3   5  1   
  5   3   6  ar  
  6   4   7  ar  
  7   4  17  1   
  8   5   8  1   
  9   6   9  ar  
 10   6  18  1   
 11   7   9  ar  
 12   7  10  1   
 13   8  11  1   
 14   8  19  1   
 15   8  20  1   
 16   9  21  1   
 17  10  22  1   
 18  10  23  1   
 19  10  24  1   
 20  11  12  1   
 21  11  25  1   
 22  11  26  1   
 23  12  13  1   
 24  12  27  1   
 25  12  28  1   
 26  13  14  1   
 27  13  29  1   
 28  13  30  1   
 29  14  15  1   
 30  14  31  1   
 31  14  32  1   
 32  15  16  1   
 33  16  33  1   
 34  16  34  1   
 35  16  35  1   
@<TRIPOS>SUBSTRUCTURE
  1 ****   8 GROUP 4 **** **** 0

# MOE 2024.06 (io_trps.svl 2023.06)
