@<TRIPOS>MOLECULE
NONAME
39 40 1 0 0 
SMALL
USER_CHARGES


@<TRIPOS>ATOM
  1 O       -0.1950    -1.0100    -0.4910 O.3   1 <1>  -0.3630 
  2 C       -1.4040    -1.3750     0.0090 C.ar  1 <1>   0.0830 
  3 C        0.5980    -0.0150     0.1190 C.3   1 <1>   0.0400 
  4 C       -2.0680    -2.4280    -0.6130 C.ar  1 <1>  -0.1440 
  5 C       -1.9900    -0.7450     1.1040 C.ar  1 <1>  -0.1500 
  6 C       -3.3060    -2.8330    -0.1440 C.ar  1 <1>  -0.1500 
  7 C       -1.4350    -3.1390    -1.8030 C.3   1 <1>  -0.0960 
  8 C       -3.2270    -1.1550     1.5650 C.ar  1 <1>  -0.1500 
  9 C       -3.8960    -2.1950     0.9380 C.ar  1 <1>  -0.1440 
 10 C       -5.2670    -2.6250     1.4190 C.3   1 <1>   0.4860 
 11 N       -6.2760    -2.1640     0.4250 N.4   1 <1>  -0.9590 
 12 C       -6.3100    -0.6710     0.3340 C.3   1 <1>   0.3430 
 13 C       -7.6170    -2.7610     0.6920 C.3   1 <1>   0.3430 
 14 C       -7.2690    -0.2390    -0.7710 C.3   1 <1>  -0.1600 
 15 C       -8.5920    -2.3580    -0.4110 C.3   1 <1>  -0.1600 
 16 C       -8.6510    -0.8380    -0.5320 C.3   1 <1>   0.2000 
 17 O       -9.4610    -0.5120    -1.5910 O.3   1 <1>  -0.6800 
 18 H        1.5140     0.0670    -0.4370 H     1 <1>   0.0800 
 19 H        0.8110    -0.3090     1.1310 H     1 <1>   0.0800 
 20 H        0.0690     0.9210     0.0890 H     1 <1>   0.0800 
 21 H       -1.4940     0.0640     1.6070 H     1 <1>   0.1500 
 22 H       -3.8010    -3.6550    -0.6310 H     1 <1>   0.1500 
 23 H       -1.2720    -2.4370    -2.6010 H     1 <1>   0.0800 
 24 H       -2.0580    -3.9350    -2.1660 H     1 <1>   0.0800 
 25 H       -0.4850    -3.5520    -1.5140 H     1 <1>   0.0800 
 26 H       -3.6550    -0.6520     2.4160 H     1 <1>   0.1500 
 27 H       -5.4710    -2.1980     2.3880 H     1 <1>   0.0800 
 28 H       -5.2900    -3.6990     1.5050 H     1 <1>   0.0800 
 29 H       -5.9400    -2.5020    -0.4870 H     1 <1>   0.4500 
 30 H       -5.3240    -0.2890     0.1170 H     1 <1>   0.0800 
 31 H       -6.6340    -0.2540     1.2750 H     1 <1>   0.0800 
 32 H       -7.9890    -2.4120     1.6420 H     1 <1>   0.0800 
 33 H       -7.5450    -3.8360     0.7300 H     1 <1>   0.0800 
 34 H       -6.8760    -0.5500    -1.7230 H     1 <1>   0.0800 
 35 H       -7.3410     0.8350    -0.7700 H     1 <1>   0.0800 
 36 H       -9.5710    -2.7320    -0.1660 H     1 <1>   0.0800 
 37 H       -8.2830    -2.8020    -1.3410 H     1 <1>   0.0800 
 38 H       -9.0960    -0.4100     0.3530 H     1 <1>   0.0800 
 39 H       -9.1110    -0.8450    -2.4390 H     1 <1>   0.4000 
@<TRIPOS>BOND
  1   1   2  1   
  2   1   3  1   
  3   2   4  ar  
  4   2   5  ar  
  5   3  18  1   
  6   3  19  1   
  7   3  20  1   
  8   4   6  ar  
  9   4   7  1   
 10   5   8  ar  
 11   5  21  1   
 12   6   9  ar  
 13   6  22  1   
 14   7  23  1   
 15   7  24  1   
 16   7  25  1   
 17   8   9  ar  
 18   8  26  1   
 19   9  10  1   
 20  10  11  1   
 21  10  27  1   
 22  10  28  1   
 23  11  12  1   
 24  11  13  1   
 25  11  29  1   
 26  12  14  1   
 27  12  30  1   
 28  12  31  1   
 29  13  15  1   
 30  13  32  1   
 31  13  33  1   
 32  14  16  1   
 33  14  34  1   
 34  14  35  1   
 35  15  16  1   
 36  15  36  1   
 37  15  37  1   
 38  16  17  1   
 39  16  38  1   
 40  17  39  1   
@<TRIPOS>SUBSTRUCTURE
  1 ****   9 GROUP 4 **** **** 0

# MOE 2024.06 (io_trps.svl 2023.06)
