@<TRIPOS>MOLECULE
NONAME
49 51 1 0 0 
SMALL
USER_CHARGES


@<TRIPOS>ATOM
  1 S        0.2700    -1.1380    -1.8110 S.o2  1 <1>   1.4470 
  2 O        0.0490    -1.9230    -3.0070 O.2   1 <1>  -0.6500 
  3 O        0.4280     0.2950    -1.9340 O.2   1 <1>  -0.6500 
  4 N        1.6710    -1.7350    -1.0740 N.am  1 <1>  -0.8490 
  5 C       -1.0410    -1.4820    -0.6000 C.ar  1 <1>  -0.0090 
  6 C        2.8920    -1.2080    -1.7050 C.3   1 <1>   0.1960 
  7 C        1.7180    -3.2110    -1.0530 C.3   1 <1>   0.1960 
  8 C       -0.7980    -1.3960     0.7710 C.ar  1 <1>  -0.1500 
  9 C       -2.3260    -1.8170    -1.0230 C.ar  1 <1>  -0.1500 
 10 C        4.1620    -1.6790    -0.9800 C.3   1 <1>   0.1400 
 11 C        2.9650    -3.7500    -0.3350 C.3   1 <1>   0.1400 
 12 C       -1.7990    -1.6430     1.6960 C.ar  1 <1>  -0.1500 
 13 C       -3.3420    -2.0660    -0.1130 C.ar  1 <1>  -0.1500 
 14 N        4.2250    -3.1690    -0.8990 N.am  1 <1>  -0.6600 
 15 C       -3.0570    -1.9730     1.2340 C.ar  1 <1>   0.1900 
 16 C        5.4250    -3.8280    -1.0600 C.2   1 <1>   0.5690 
 17 F       -4.0080    -2.2040     2.0980 F     1 <1>  -0.1900 
 18 O        6.3770    -3.2220    -1.5070 O.2   1 <1>  -0.5700 
 19 C        5.6010    -5.3350    -0.7440 C.3   1 <1>  -0.0190 
 20 C        5.8920    -5.6300     0.7500 C.3   1 <1>  -0.1860 
 21 C        6.6860    -6.0240    -1.6240 C.3   1 <1>  -0.1600 
 22 C        4.7200    -5.2710     1.6540 C.2   1 <1>   0.9060 
 23 C        7.2490    -5.0260     1.1820 C.3   1 <1>  -0.1600 
 24 C        8.0290    -6.2820    -0.9070 C.3   1 <1>  -0.1600 
 25 O        4.7680    -4.2910     2.4040 O.co2 1 <1>  -0.9000 
 26 O        3.7050    -5.9750     1.5760 O.co2 1 <1>  -0.9000 
 27 C        8.3550    -5.1900     0.1210 C.3   1 <1>  -0.1600 
 28 H        2.8730    -0.1310    -1.6830 H     1 <1>   0.0800 
 29 H        2.9370    -1.5180    -2.7360 H     1 <1>   0.0800 
 30 H        1.7140    -3.5950    -2.0600 H     1 <1>   0.0800 
 31 H        0.8490    -3.5950    -0.5490 H     1 <1>   0.0800 
 32 H        0.1890    -1.1340     1.1170 H     1 <1>   0.1500 
 33 H       -2.5330    -1.8840    -2.0780 H     1 <1>   0.1500 
 34 H        4.1710    -1.2800     0.0190 H     1 <1>   0.0800 
 35 H        5.0210    -1.2900    -1.4970 H     1 <1>   0.0800 
 36 H        2.9560    -4.8180    -0.4230 H     1 <1>   0.0800 
 37 H        2.9020    -3.5060     0.7130 H     1 <1>   0.0800 
 38 H       -1.6090    -1.5810     2.7530 H     1 <1>   0.1500 
 39 H       -4.3330    -2.3250    -0.4390 H     1 <1>   0.1500 
 40 H        4.6790    -5.8200    -0.9980 H     1 <1>   0.0800 
 41 H        5.9750    -6.6960     0.8490 H     1 <1>   0.0800 
 42 H        6.8620    -5.4380    -2.5090 H     1 <1>   0.0800 
 43 H        6.3060    -6.9730    -1.9570 H     1 <1>   0.0800 
 44 H        7.5500    -5.4940     2.1030 H     1 <1>   0.0800 
 45 H        7.1230    -3.9750     1.3860 H     1 <1>   0.0800 
 46 H        8.8180    -6.3480    -1.6350 H     1 <1>   0.0800 
 47 H        7.9790    -7.2280    -0.3940 H     1 <1>   0.0800 
 48 H        9.2890    -5.4090     0.6070 H     1 <1>   0.0800 
 49 H        8.4770    -4.2570    -0.4010 H     1 <1>   0.0800 
@<TRIPOS>BOND
  1   1   2  2   
  2   1   3  2   
  3   1   4  am  
  4   1   5  1   
  5   4   6  1   
  6   4   7  1   
  7   5   8  ar  
  8   5   9  ar  
  9   6  10  1   
 10   6  28  1   
 11   6  29  1   
 12   7  11  1   
 13   7  30  1   
 14   7  31  1   
 15   8  12  ar  
 16   8  32  1   
 17   9  13  ar  
 18   9  33  1   
 19  10  14  1   
 20  10  34  1   
 21  10  35  1   
 22  11  14  1   
 23  11  36  1   
 24  11  37  1   
 25  12  15  ar  
 26  12  38  1   
 27  13  15  ar  
 28  13  39  1   
 29  14  16  am  
 30  15  17  1   
 31  16  18  2   
 32  16  19  1   
 33  19  20  1   
 34  19  21  1   
 35  19  40  1   
 36  20  22  1   
 37  20  23  1   
 38  20  41  1   
 39  21  24  1   
 40  21  42  1   
 41  21  43  1   
 42  22  25  ar  
 43  22  26  ar  
 44  23  27  1   
 45  23  44  1   
 46  23  45  1   
 47  24  27  1   
 48  24  46  1   
 49  24  47  1   
 50  27  48  1   
 51  27  49  1   
@<TRIPOS>SUBSTRUCTURE
  1 ****  11 GROUP 4 **** **** 0

# MOE 2024.06 (io_trps.svl 2023.06)
