@<TRIPOS>MOLECULE
NONAME
43 45 1 0 0 
SMALL
USER_CHARGES


@<TRIPOS>ATOM
  1 F       -0.9900     1.2760    -0.8870 F     1 <1>  -0.1900 
  2 C       -2.2160     0.8580    -0.7060 C.ar  1 <1>   0.1900 
  3 C       -3.2410     1.7840    -0.6910 C.ar  1 <1>  -0.1500 
  4 C       -2.4430    -0.4930    -0.5350 C.ar  1 <1>  -0.1500 
  5 C       -4.5370     1.3350    -0.4990 C.ar  1 <1>  -0.1500 
  6 C       -3.7440    -0.9270    -0.3430 C.ar  1 <1>  -0.1500 
  7 C       -4.8060    -0.0220    -0.3250 C.ar  1 <1>   0.1170 
  8 N       -6.1330    -0.4230    -0.1170 N.am  1 <1>  -0.5470 
  9 C       -6.7630    -1.6080    -0.3750 C.2   1 <1>   0.6900 
 10 O       -6.2040    -2.4860    -1.0050 O.2   1 <1>  -0.5700 
 11 N       -8.0520    -1.7870     0.0600 N.am  1 <1>  -0.6600 
 12 C       -8.7080    -1.0060     1.1540 C.3   1 <1>   0.1400 
 13 C       -8.8650    -2.9530    -0.4050 C.3   1 <1>   0.1400 
 14 C      -10.1160    -0.5550     0.7370 C.3   1 <1>   0.1400 
 15 C      -10.2870    -2.5220    -0.8020 C.3   1 <1>   0.1400 
 16 N      -10.9380    -1.7190     0.2830 N.am  1 <1>  -0.6600 
 17 C      -12.1970    -1.9540     0.7930 C.2   1 <1>   0.5690 
 18 O      -12.6410    -1.2410     1.6680 O.2   1 <1>  -0.5700 
 19 C      -13.0630    -3.1370     0.2830 C.3   1 <1>   0.2610 
 20 O      -13.3070    -3.0360    -1.0960 O.3   1 <1>  -0.5600 
 21 C      -14.4740    -3.2310     0.8680 C.3   1 <1>  -0.1600 
 22 C      -14.4250    -2.2380    -1.3200 C.3   1 <1>   0.1200 
 23 C      -15.3030    -2.3770    -0.0790 C.3   1 <1>  -0.1600 
 24 H       -3.0240     2.8280    -0.8290 H     1 <1>   0.1500 
 25 H       -1.6220    -1.1870    -0.5530 H     1 <1>   0.1500 
 26 H       -5.3440     2.0440    -0.4880 H     1 <1>   0.1500 
 27 H       -3.9330    -1.9760    -0.2050 H     1 <1>   0.1500 
 28 H       -6.7760     0.3110     0.1500 H     1 <1>   0.3700 
 29 H       -8.1240    -0.1460     1.4240 H     1 <1>   0.0800 
 30 H       -8.7890    -1.6300     2.0270 H     1 <1>   0.0800 
 31 H       -8.9200    -3.6810     0.3850 H     1 <1>   0.0800 
 32 H       -8.3980    -3.4240    -1.2530 H     1 <1>   0.0800 
 33 H      -10.0420     0.1550    -0.0670 H     1 <1>   0.0800 
 34 H      -10.5850    -0.0600     1.5700 H     1 <1>   0.0800 
 35 H      -10.8570    -3.4030    -1.0320 H     1 <1>   0.0800 
 36 H      -10.2370    -1.9260    -1.6960 H     1 <1>   0.0800 
 37 H      -12.5280    -4.0520     0.4610 H     1 <1>   0.0800 
 38 H      -14.5290    -2.8970     1.8900 H     1 <1>   0.0800 
 39 H      -14.8000    -4.2540     0.8210 H     1 <1>   0.0800 
 40 H      -14.9210    -2.5820    -2.2120 H     1 <1>   0.0800 
 41 H      -14.0930    -1.2210    -1.4490 H     1 <1>   0.0800 
 42 H      -15.4880    -1.4040     0.3430 H     1 <1>   0.0800 
 43 H      -16.2440    -2.8430    -0.3140 H     1 <1>   0.0800 
@<TRIPOS>BOND
  1   1   2  1   
  2   2   3  ar  
  3   2   4  ar  
  4   3   5  ar  
  5   3  24  1   
  6   4   6  ar  
  7   4  25  1   
  8   5   7  ar  
  9   5  26  1   
 10   6   7  ar  
 11   6  27  1   
 12   7   8  1   
 13   8   9  am  
 14   8  28  1   
 15   9  10  2   
 16   9  11  am  
 17  11  12  1   
 18  11  13  1   
 19  12  14  1   
 20  12  29  1   
 21  12  30  1   
 22  13  15  1   
 23  13  31  1   
 24  13  32  1   
 25  14  16  1   
 26  14  33  1   
 27  14  34  1   
 28  15  16  1   
 29  15  35  1   
 30  15  36  1   
 31  16  17  am  
 32  17  18  2   
 33  17  19  1   
 34  19  20  1   
 35  19  21  1   
 36  19  37  1   
 37  20  22  1   
 38  21  23  1   
 39  21  38  1   
 40  21  39  1   
 41  22  23  1   
 42  22  40  1   
 43  22  41  1   
 44  23  42  1   
 45  23  43  1   
@<TRIPOS>SUBSTRUCTURE
  1 ****  11 GROUP 4 **** **** 0

# MOE 2024.06 (io_trps.svl 2023.06)
