@<TRIPOS>MOLECULE
NONAME
27 27 1 0 0 
SMALL
USER_CHARGES


@<TRIPOS>ATOM
  1 CL      -1.1020     0.0990    -0.7890 Cl    1 <1>  -0.1770 
  2 C       -1.4810     1.6770    -0.1300 C.ar  1 <1>   0.1770 
  3 C       -0.5600     2.7160    -0.2190 C.ar  1 <1>   0.0830 
  4 C       -2.7110     1.8490     0.4720 C.ar  1 <1>  -0.1500 
  5 O        0.6350     2.4710    -0.8300 O.3   1 <1>  -0.3630 
  6 C       -0.9050     3.9540     0.3200 C.ar  1 <1>  -0.1500 
  7 C       -3.0540     3.0830     1.0030 C.ar  1 <1>   0.1990 
  8 C        1.6010     3.4880    -0.9800 C.3   1 <1>   0.0400 
  9 C       -2.1390     4.1270     0.9240 C.ar  1 <1>  -0.1500 
 10 N       -4.2900     3.2500     1.6060 N.am  1 <1>  -0.7570 
 11 S       -5.5190     4.2910     1.0200 S.o2  1 <1>   1.3330 
 12 O       -6.5010     4.2880     2.0740 O.2   1 <1>  -0.6500 
 13 O       -4.8730     5.5150     0.6140 O.2   1 <1>  -0.6500 
 14 C       -6.1460     3.3900    -0.4030 C.3   1 <1>  -0.0550 
 15 C       -7.3130     4.0830    -1.1300 C.3   1 <1>  -0.2400 
 16 H       -3.3990     1.0270     0.5290 H     1 <1>   0.1500 
 17 H       -0.2320     4.7900     0.2790 H     1 <1>   0.1500 
 18 H        2.4470     3.0700    -1.4960 H     1 <1>   0.0800 
 19 H        1.9020     3.8320    -0.0070 H     1 <1>   0.0800 
 20 H        1.1790     4.2890    -1.5610 H     1 <1>   0.0800 
 21 H       -2.4010     5.0880     1.3340 H     1 <1>   0.1500 
 22 H       -4.2920     3.3110     2.6210 H     1 <1>   0.4200 
 23 H       -6.4720     2.4190    -0.0820 H     1 <1>   0.0800 
 24 H       -5.3450     3.2480    -1.1030 H     1 <1>   0.0800 
 25 H       -8.1430     4.2130    -0.4570 H     1 <1>   0.0800 
 26 H       -7.6340     3.4900    -1.9680 H     1 <1>   0.0800 
 27 H       -7.0040     5.0500    -1.4870 H     1 <1>   0.0800 
@<TRIPOS>BOND
  1   1   2  1   
  2   2   3  ar  
  3   2   4  ar  
  4   3   5  1   
  5   3   6  ar  
  6   4   7  ar  
  7   4  16  1   
  8   5   8  1   
  9   6   9  ar  
 10   6  17  1   
 11   7   9  ar  
 12   7  10  1   
 13   8  18  1   
 14   8  19  1   
 15   8  20  1   
 16   9  21  1   
 17  10  11  am  
 18  10  22  1   
 19  11  12  2   
 20  11  13  2   
 21  11  14  1   
 22  14  15  1   
 23  14  23  1   
 24  14  24  1   
 25  15  25  1   
 26  15  26  1   
 27  15  27  1   
@<TRIPOS>SUBSTRUCTURE
  1 ****   7 GROUP 4 **** **** 0

# MOE 2024.06 (io_trps.svl 2023.06)
