@<TRIPOS>MOLECULE
NONAME
45 47 1 0 0 
SMALL
USER_CHARGES


@<TRIPOS>ATOM
  1 O       -0.3980    -0.3250    -0.3970 O.3   1 <1>  -0.5600 
  2 C       -1.7710    -0.4910    -0.6260 C.3   1 <1>   0.1200 
  3 C        0.3250    -1.5230    -0.4560 C.3   1 <1>   0.1200 
  4 C       -2.4020    -1.4280     0.4200 C.3   1 <1>   0.2090 
  5 C       -0.1680    -2.5210     0.6060 C.3   1 <1>   0.2090 
  6 N       -1.6480    -2.7200     0.5010 N.pl3 1 <1>  -0.8380 
  7 C       -2.2630    -3.9530     0.5110 C.ar  1 <1>   0.7200 
  8 N       -1.4930    -5.0100     0.4480 N.ar  1 <1>  -0.6200 
  9 N       -3.5670    -3.9760     0.5830 N.ar  1 <1>  -0.6200 
 10 C       -2.1490    -6.1400     0.4530 C.ar  1 <1>   0.7030 
 11 C       -4.1050    -5.1680     0.5800 C.ar  1 <1>   0.7200 
 12 O       -1.4520    -7.2840     0.3880 O.3   1 <1>  -0.3630 
 13 N       -3.4370    -6.2930     0.5170 N.ar  1 <1>  -0.6200 
 14 N       -5.4800    -5.2500     0.6490 N.pl3 1 <1>  -0.8380 
 15 C       -0.0460    -7.2820     0.3150 C.3   1 <1>   0.2580 
 16 C       -6.3370    -4.1250     1.1140 C.3   1 <1>   0.2090 
 17 C       -6.2360    -6.4770     0.2680 C.3   1 <1>   0.2090 
 18 C        0.4250    -8.7210     0.2370 C.2   1 <1>  -0.2880 
 19 C       -7.3360    -3.7580     0.0130 C.3   1 <1>  -0.1600 
 20 C       -7.2460    -6.1310    -0.8320 C.3   1 <1>  -0.1600 
 21 C        1.1760    -9.2400    -0.7400 C.2   1 <1>  -0.3000 
 22 C       -8.1680    -4.9730    -0.4240 C.3   1 <1>  -0.1600 
 23 H       -1.9100    -0.8910    -1.6150 H     1 <1>   0.0800 
 24 H       -2.2320     0.4790    -0.5780 H     1 <1>   0.0800 
 25 H        1.3610    -1.2890    -0.2910 H     1 <1>   0.0800 
 26 H        0.2170    -1.9430    -1.4410 H     1 <1>   0.0800 
 27 H       -3.4310    -1.5910     0.1530 H     1 <1>   0.0800 
 28 H       -2.3830    -0.9480     1.3830 H     1 <1>   0.0800 
 29 H        0.0650    -2.1370     1.5840 H     1 <1>   0.0800 
 30 H        0.3640    -3.4470     0.4830 H     1 <1>   0.0800 
 31 H        0.3400    -6.8030     1.1980 H     1 <1>   0.0800 
 32 H        0.2510    -6.7310    -0.5610 H     1 <1>   0.0800 
 33 H       -5.7510    -3.2610     1.3740 H     1 <1>   0.0800 
 34 H       -6.8690    -4.4360     1.9970 H     1 <1>   0.0800 
 35 H       -6.7500    -6.8550     1.1350 H     1 <1>   0.0800 
 36 H       -5.5800    -7.2510    -0.0920 H     1 <1>   0.0800 
 37 H        0.0790    -9.3040     1.0750 H     1 <1>   0.1500 
 38 H       -6.7890    -3.3700    -0.8290 H     1 <1>   0.0800 
 39 H       -7.9880    -2.9810     0.3690 H     1 <1>   0.0800 
 40 H       -7.8350    -7.0020    -1.0570 H     1 <1>   0.0800 
 41 H       -6.7010    -5.8640    -1.7200 H     1 <1>   0.0800 
 42 H        1.4920   -10.2680    -0.7700 H     1 <1>   0.1500 
 43 H        1.5330    -8.6860    -1.5910 H     1 <1>   0.1500 
 44 H       -8.8020    -4.7030    -1.2500 H     1 <1>   0.0800 
 45 H       -8.7960    -5.2870     0.3920 H     1 <1>   0.0800 
@<TRIPOS>BOND
  1   1   2  1   
  2   1   3  1   
  3   2   4  1   
  4   2  23  1   
  5   2  24  1   
  6   3   5  1   
  7   3  25  1   
  8   3  26  1   
  9   4   6  1   
 10   4  27  1   
 11   4  28  1   
 12   5   6  1   
 13   5  29  1   
 14   5  30  1   
 15   6   7  1   
 16   7   8  ar  
 17   7   9  ar  
 18   8  10  ar  
 19   9  11  ar  
 20  10  12  1   
 21  10  13  ar  
 22  11  13  ar  
 23  11  14  1   
 24  12  15  1   
 25  14  16  1   
 26  14  17  1   
 27  15  18  1   
 28  15  31  1   
 29  15  32  1   
 30  16  19  1   
 31  16  33  1   
 32  16  34  1   
 33  17  20  1   
 34  17  35  1   
 35  17  36  1   
 36  18  21  2   
 37  18  37  1   
 38  19  22  1   
 39  19  38  1   
 40  19  39  1   
 41  20  22  1   
 42  20  40  1   
 43  20  41  1   
 44  21  42  1   
 45  21  43  1   
 46  22  44  1   
 47  22  45  1   
@<TRIPOS>SUBSTRUCTURE
  1 ****   7 GROUP 4 **** **** 0

# MOE 2024.06 (io_trps.svl 2023.06)
