@<TRIPOS>MOLECULE
NONAME
54 56 1 0 0 
SMALL
USER_CHARGES


@<TRIPOS>ATOM
  1 O        0.0730     0.4920    -0.8310 O.2   1 <1>  -0.5700 
  2 C        0.0780     1.7090    -0.8230 C.2   1 <1>   0.5440 
  3 N        1.2180     2.3840    -1.2140 N.am  1 <1>  -0.6600 
  4 C       -1.1150     2.4200    -0.4050 C.ar  1 <1>   0.0860 
  5 C        1.3000     3.8680    -1.3140 C.3   1 <1>   0.1400 
  6 C        2.4820     1.6660    -1.5330 C.3   1 <1>   0.1400 
  7 C       -1.3490     2.7610     0.9330 C.ar  1 <1>  -0.1440 
  8 C       -2.0630     2.7970    -1.3550 C.ar  1 <1>  -0.1500 
  9 C        2.4150     4.3870    -0.4020 C.3   1 <1>  -0.1600 
 10 C        3.5970     2.1640    -0.6110 C.3   1 <1>  -0.1600 
 11 C       -2.4860     3.4700     1.2840 C.ar  1 <1>  -0.1500 
 12 C       -0.3580     2.3480     2.0140 C.3   1 <1>  -0.0970 
 13 C       -3.1970     3.5030    -1.0010 C.ar  1 <1>  -0.1500 
 14 C        3.7620     3.6930    -0.6880 C.3   1 <1>  -0.0190 
 15 C       -3.4080     3.8430     0.3220 C.ar  1 <1>  -0.1500 
 16 C        4.8620     4.1720     0.2600 C.2   1 <1>   0.5690 
 17 O        4.6360     4.2100     1.4450 O.2   1 <1>  -0.5700 
 18 N        6.0650     4.5170    -0.2910 N.am  1 <1>  -0.5470 
 19 C        7.2470     4.9980     0.2990 C.ar  1 <1>   0.1170 
 20 C        8.4410     4.8460    -0.3950 C.ar  1 <1>  -0.1500 
 21 C        7.2770     5.6310     1.5380 C.ar  1 <1>  -0.1500 
 22 C        9.6370     5.3050     0.1270 C.ar  1 <1>   0.0830 
 23 C        8.4650     6.1080     2.0650 C.ar  1 <1>  -0.1500 
 24 O       10.7600     5.0840    -0.6030 O.3   1 <1>  -0.3620 
 25 C        9.6470     5.9650     1.3600 C.ar  1 <1>   0.0830 
 26 C       11.7350     4.2470    -0.0200 C.3   1 <1>   0.0400 
 27 O       10.7750     6.4870     1.9080 O.3   1 <1>  -0.3630 
 28 C       11.3190     7.6040     1.2410 C.3   1 <1>   0.0400 
 29 H        0.3690     4.3300    -1.0360 H     1 <1>   0.0800 
 30 H        1.5090     4.1350    -2.3360 H     1 <1>   0.0800 
 31 H        2.7380     1.8500    -2.5620 H     1 <1>   0.0800 
 32 H        2.3620     0.6030    -1.4070 H     1 <1>   0.0800 
 33 H       -1.8990     2.5270    -2.3830 H     1 <1>   0.1500 
 34 H        2.1280     4.2190     0.6210 H     1 <1>   0.0800 
 35 H        2.5190     5.4490    -0.5370 H     1 <1>   0.0800 
 36 H        4.5200     1.6820    -0.8800 H     1 <1>   0.0800 
 37 H        3.3630     1.8750     0.4000 H     1 <1>   0.0800 
 38 H       -2.6650     3.7350     2.3110 H     1 <1>   0.1500 
 39 H        0.6050     2.7840     1.8230 H     1 <1>   0.0800 
 40 H       -0.2540     1.2780     2.0230 H     1 <1>   0.0800 
 41 H       -0.6890     2.6650     2.9870 H     1 <1>   0.0800 
 42 H       -3.9150     3.7850    -1.7520 H     1 <1>   0.1500 
 43 H        4.0490     3.9460    -1.6930 H     1 <1>   0.0800 
 44 H       -4.2890     4.3930     0.6040 H     1 <1>   0.1500 
 45 H        6.1400     4.3610    -1.2930 H     1 <1>   0.3700 
 46 H        8.4550     4.3570    -1.3500 H     1 <1>   0.1500 
 47 H        6.3710     5.7620     2.1010 H     1 <1>   0.1500 
 48 H        8.4780     6.5980     3.0210 H     1 <1>   0.1500 
 49 H       12.4860     4.0390    -0.7600 H     1 <1>   0.0800 
 50 H       11.2650     3.3320     0.2960 H     1 <1>   0.0800 
 51 H       12.1800     4.7470     0.8210 H     1 <1>   0.0800 
 52 H       12.1570     7.9610     1.8120 H     1 <1>   0.0800 
 53 H       10.5650     8.3690     1.1740 H     1 <1>   0.0800 
 54 H       11.6420     7.3100     0.2590 H     1 <1>   0.0800 
@<TRIPOS>BOND
  1   1   2  2   
  2   2   3  am  
  3   2   4  1   
  4   3   5  1   
  5   3   6  1   
  6   4   7  ar  
  7   4   8  ar  
  8   5   9  1   
  9   5  29  1   
 10   5  30  1   
 11   6  10  1   
 12   6  31  1   
 13   6  32  1   
 14   7  11  ar  
 15   7  12  1   
 16   8  13  ar  
 17   8  33  1   
 18   9  14  1   
 19   9  34  1   
 20   9  35  1   
 21  10  14  1   
 22  10  36  1   
 23  10  37  1   
 24  11  15  ar  
 25  11  38  1   
 26  12  39  1   
 27  12  40  1   
 28  12  41  1   
 29  13  15  ar  
 30  13  42  1   
 31  14  16  1   
 32  14  43  1   
 33  15  44  1   
 34  16  17  2   
 35  16  18  am  
 36  18  19  1   
 37  18  45  1   
 38  19  20  ar  
 39  19  21  ar  
 40  20  22  ar  
 41  20  46  1   
 42  21  23  ar  
 43  21  47  1   
 44  22  24  1   
 45  22  25  ar  
 46  23  25  ar  
 47  23  48  1   
 48  24  26  1   
 49  25  27  1   
 50  26  49  1   
 51  26  50  1   
 52  26  51  1   
 53  27  28  1   
 54  28  52  1   
 55  28  53  1   
 56  28  54  1   
@<TRIPOS>SUBSTRUCTURE
  1 ****  14 GROUP 4 **** **** 0

# MOE 2024.06 (io_trps.svl 2023.06)
