@<TRIPOS>MOLECULE
NONAME
26 27 1 0 0 
SMALL
USER_CHARGES


@<TRIPOS>ATOM
  1 O        0.9510     0.5750    -1.2670 O.co2 1 <1>  -0.9000 
  2 C        1.4200     0.8550    -0.1610 C.2   1 <1>   0.9060 
  3 O        0.9580     1.7350     0.5690 O.co2 1 <1>  -0.9000 
  4 C        2.6180     0.0740     0.3220 C.3   1 <1>  -0.2660 
  5 C        3.9430     0.6900    -0.1710 C.3   1 <1>  -0.1600 
  6 C        5.1740    -0.0830     0.3150 C.3   1 <1>   0.2000 
  7 O        6.3250     0.6490    -0.0690 O.3   1 <1>  -0.3630 
  8 C        5.2510    -1.5110    -0.2580 C.3   1 <1>   0.1200 
  9 C        7.5180     0.0060    -0.0180 C.ar  1 <1>   0.0820 
 10 O        6.4630    -2.1430     0.1210 O.3   1 <1>  -0.3630 
 11 C        7.5870    -1.3840     0.0900 C.ar  1 <1>   0.0820 
 12 C        8.6820     0.7540    -0.0710 C.ar  1 <1>  -0.1500 
 13 C        8.8190    -2.0110     0.1630 C.ar  1 <1>  -0.1500 
 14 C        9.9130     0.1220    -0.0040 C.ar  1 <1>  -0.1500 
 15 C        9.9820    -1.2580     0.1150 C.ar  1 <1>  -0.1500 
 16 H        2.5020    -0.9290    -0.0370 H     1 <1>   0.0800 
 17 H        2.5900     0.0620     1.3950 H     1 <1>   0.0800 
 18 H        3.9980     1.7020     0.1920 H     1 <1>   0.0800 
 19 H        3.9330     0.7210    -1.2480 H     1 <1>   0.0800 
 20 H        5.1660    -0.1290     1.3900 H     1 <1>   0.0800 
 21 H        5.2090    -1.4830    -1.3320 H     1 <1>   0.0800 
 22 H        4.4420    -2.1140     0.1090 H     1 <1>   0.0800 
 23 H        8.6150     1.8220    -0.1620 H     1 <1>   0.1500 
 24 H        8.8620    -3.0810     0.2520 H     1 <1>   0.1500 
 25 H       10.8170     0.7040    -0.0440 H     1 <1>   0.1500 
 26 H       10.9390    -1.7460     0.1700 H     1 <1>   0.1500 
@<TRIPOS>BOND
  1   1   2  ar  
  2   2   3  ar  
  3   2   4  1   
  4   4   5  1   
  5   4  16  1   
  6   4  17  1   
  7   5   6  1   
  8   5  18  1   
  9   5  19  1   
 10   6   7  1   
 11   6   8  1   
 12   6  20  1   
 13   7   9  1   
 14   8  10  1   
 15   8  21  1   
 16   8  22  1   
 17   9  11  ar  
 18   9  12  ar  
 19  10  11  1   
 20  11  13  ar  
 21  12  14  ar  
 22  12  23  1   
 23  13  15  ar  
 24  13  24  1   
 25  14  15  ar  
 26  14  25  1   
 27  15  26  1   
@<TRIPOS>SUBSTRUCTURE
  1 ****   6 GROUP 4 **** **** 0

# MOE 2024.06 (io_trps.svl 2023.06)
