@<TRIPOS>MOLECULE
NONAME
49 51 1 0 0 
SMALL
USER_CHARGES


@<TRIPOS>ATOM
  1 O        0.3820     0.2820    -1.5650 O.2   1 <1>  -0.5700 
  2 C        0.6870     1.1800    -0.8060 C.2   1 <1>   0.5440 
  3 N       -0.2770     2.0320    -0.3150 N.am  1 <1>  -0.5470 
  4 C        2.0740     1.3900    -0.4360 C.ar  1 <1>   0.0860 
  5 C       -1.6770     2.0050    -0.4150 C.ar  1 <1>   0.1170 
  6 C        3.1050     1.1180    -1.3350 C.ar  1 <1>  -0.1500 
  7 C        2.4380     1.8710     0.8240 C.ar  1 <1>  -0.1500 
  8 C       -2.3840     3.1900    -0.2500 C.ar  1 <1>  -0.1500 
  9 C       -2.3990     0.8390    -0.6540 C.ar  1 <1>  -0.1500 
 10 C        4.4300     1.3310    -1.0040 C.ar  1 <1>  -0.1500 
 11 C        3.7620     2.0860     1.1600 C.ar  1 <1>  -0.1500 
 12 C       -3.7650     3.2140    -0.3270 C.ar  1 <1>  -0.1500 
 13 C       -3.7790     0.8610    -0.7330 C.ar  1 <1>  -0.1500 
 14 C        4.7680     1.8180     0.2470 C.ar  1 <1>  -0.1430 
 15 C       -4.4730     2.0490    -0.5710 C.ar  1 <1>  -0.1430 
 16 C        6.2230     2.0540     0.6110 C.3   1 <1>  -0.0970 
 17 C       -5.9900     2.0720    -0.6600 C.3   1 <1>  -0.0170 
 18 C       -6.6130     1.8570     0.7230 C.3   1 <1>  -0.0990 
 19 C       -8.1260     1.7990     0.6350 C.2   1 <1>   0.5690 
 20 O       -8.7330     2.8390     0.7200 O.2   1 <1>  -0.5700 
 21 N       -8.7680     0.6050     0.4510 N.am  1 <1>  -0.6600 
 22 C      -10.2410     0.5130     0.3650 C.3   1 <1>   0.1400 
 23 C       -8.1430    -0.7290     0.3120 C.3   1 <1>   0.1400 
 24 C      -10.5430    -0.9800     0.4080 C.3   1 <1>  -0.1600 
 25 C       -9.2790    -1.6440    -0.1320 C.3   1 <1>  -0.1600 
 26 H        0.0980     2.8670     0.1270 H     1 <1>   0.3700 
 27 H        2.8540     0.7340    -2.3100 H     1 <1>   0.1500 
 28 H        1.6780     2.0700     1.5580 H     1 <1>   0.1500 
 29 H       -1.8530     4.1050    -0.0640 H     1 <1>   0.1500 
 30 H       -1.8820    -0.0940    -0.7780 H     1 <1>   0.1500 
 31 H        5.1990     1.1140    -1.7260 H     1 <1>   0.1500 
 32 H        4.0110     2.4600     2.1380 H     1 <1>   0.1500 
 33 H       -4.2900     4.1450    -0.1970 H     1 <1>   0.1500 
 34 H       -4.3090    -0.0560    -0.9240 H     1 <1>   0.1500 
 35 H        6.8570     1.3540     0.0970 H     1 <1>   0.0800 
 36 H        6.3720     1.9300     1.6690 H     1 <1>   0.0800 
 37 H        6.5110     3.0520     0.3340 H     1 <1>   0.0800 
 38 H       -6.3240     1.3040    -1.3350 H     1 <1>   0.0800 
 39 H       -6.3200     3.0170    -1.0570 H     1 <1>   0.0800 
 40 H       -6.3410     2.6750     1.3650 H     1 <1>   0.0800 
 41 H       -6.2320     0.9580     1.1680 H     1 <1>   0.0800 
 42 H      -10.5640     0.9420    -0.5680 H     1 <1>   0.0800 
 43 H      -10.7060     1.0400     1.1820 H     1 <1>   0.0800 
 44 H       -7.7650    -1.0420     1.2710 H     1 <1>   0.0800 
 45 H       -7.3460    -0.7150    -0.4110 H     1 <1>   0.0800 
 46 H      -11.4160    -1.2270    -0.1690 H     1 <1>   0.0800 
 47 H      -10.7030    -1.2740     1.4300 H     1 <1>   0.0800 
 48 H       -9.1530    -2.6470     0.2360 H     1 <1>   0.0800 
 49 H       -9.3100    -1.6660    -1.2070 H     1 <1>   0.0800 
@<TRIPOS>BOND
  1   1   2  2   
  2   2   3  am  
  3   2   4  1   
  4   3   5  1   
  5   3  26  1   
  6   4   6  ar  
  7   4   7  ar  
  8   5   8  ar  
  9   5   9  ar  
 10   6  10  ar  
 11   6  27  1   
 12   7  11  ar  
 13   7  28  1   
 14   8  12  ar  
 15   8  29  1   
 16   9  13  ar  
 17   9  30  1   
 18  10  14  ar  
 19  10  31  1   
 20  11  14  ar  
 21  11  32  1   
 22  12  15  ar  
 23  12  33  1   
 24  13  15  ar  
 25  13  34  1   
 26  14  16  1   
 27  15  17  1   
 28  16  35  1   
 29  16  36  1   
 30  16  37  1   
 31  17  18  1   
 32  17  38  1   
 33  17  39  1   
 34  18  19  1   
 35  18  40  1   
 36  18  41  1   
 37  19  20  2   
 38  19  21  am  
 39  21  22  1   
 40  21  23  1   
 41  22  24  1   
 42  22  42  1   
 43  22  43  1   
 44  23  25  1   
 45  23  44  1   
 46  23  45  1   
 47  24  25  1   
 48  24  46  1   
 49  24  47  1   
 50  25  48  1   
 51  25  49  1   
@<TRIPOS>SUBSTRUCTURE
  1 ****   9 GROUP 4 **** **** 0

# MOE 2024.06 (io_trps.svl 2023.06)
