@<TRIPOS>MOLECULE
NONAME
43 43 1 0 0 
SMALL
USER_CHARGES


@<TRIPOS>ATOM
  1 O       -0.0610    -0.5260     0.2000 O.3   1 <1>  -0.3630 
  2 C       -1.3410    -0.9380     0.0210 C.ar  1 <1>   0.0830 
  3 C        1.0230    -1.4000     0.0090 C.3   1 <1>   0.1200 
  4 C       -1.6950    -2.2280    -0.3650 C.ar  1 <1>  -0.1500 
  5 C       -2.3350     0.0010     0.2400 C.ar  1 <1>  -0.1500 
  6 C        2.3030    -0.6130     0.2940 C.3   1 <1>  -0.1600 
  7 C       -3.0300    -2.5610    -0.5240 C.ar  1 <1>  -0.1500 
  8 C       -3.6670    -0.3350     0.0800 C.ar  1 <1>  -0.1500 
  9 C        3.5590    -1.4780     0.1210 C.3   1 <1>  -0.1600 
 10 C       -4.0220    -1.6190    -0.3020 C.ar  1 <1>  -0.1430 
 11 C        4.8160    -0.6510     0.4010 C.3   1 <1>   0.3430 
 12 C       -5.4830    -1.9880    -0.4790 C.3   1 <1>  -0.0970 
 13 N        6.0420    -1.4680     0.1610 N.4   1 <1>  -0.9590 
 14 C        6.2810    -2.4260     1.2760 C.3   1 <1>   0.3430 
 15 C        7.2310    -0.5990    -0.0650 C.3   1 <1>   0.3430 
 16 C        7.1660    -3.5650     0.7860 C.3   1 <1>  -0.2400 
 17 C        7.1790    -0.0230    -1.4750 C.3   1 <1>  -0.2400 
 18 H        1.0000    -1.7480    -1.0100 H     1 <1>   0.0800 
 19 H        0.9140    -2.2260     0.6910 H     1 <1>   0.0800 
 20 H       -0.9560    -2.9830    -0.5450 H     1 <1>   0.1500 
 21 H       -2.0580     0.9970     0.5360 H     1 <1>   0.1500 
 22 H        2.2550    -0.2390     1.3030 H     1 <1>   0.0800 
 23 H        2.3430     0.2260    -0.3800 H     1 <1>   0.0800 
 24 H       -3.2950    -3.5600    -0.8230 H     1 <1>   0.1500 
 25 H       -4.4250     0.4080     0.2530 H     1 <1>   0.1500 
 26 H        3.5890    -1.8480    -0.8890 H     1 <1>   0.0800 
 27 H        3.4980    -2.3120     0.7980 H     1 <1>   0.0800 
 28 H        4.8030    -0.2890     1.4170 H     1 <1>   0.0800 
 29 H        4.8110     0.2040    -0.2550 H     1 <1>   0.0800 
 30 H       -5.6390    -3.0280    -0.2520 H     1 <1>   0.0800 
 31 H       -5.7830    -1.8060    -1.4950 H     1 <1>   0.0800 
 32 H       -6.1010    -1.4020     0.1770 H     1 <1>   0.0800 
 33 H        5.8940    -2.0160    -0.6960 H     1 <1>   0.4500 
 34 H        5.3460    -2.8400     1.6150 H     1 <1>   0.0800 
 35 H        6.7460    -1.9220     2.1100 H     1 <1>   0.0800 
 36 H        8.1350    -1.1780     0.0360 H     1 <1>   0.0800 
 37 H        7.2590     0.1960     0.6640 H     1 <1>   0.0800 
 38 H        6.7090    -4.0750    -0.0430 H     1 <1>   0.0800 
 39 H        7.2930    -4.2780     1.5810 H     1 <1>   0.0800 
 40 H        8.1430    -3.2170     0.5030 H     1 <1>   0.0800 
 41 H        7.1530    -0.8090    -2.2090 H     1 <1>   0.0800 
 42 H        8.0680     0.5590    -1.6480 H     1 <1>   0.0800 
 43 H        6.3350     0.6280    -1.6100 H     1 <1>   0.0800 
@<TRIPOS>BOND
  1   1   2  1   
  2   1   3  1   
  3   2   4  ar  
  4   2   5  ar  
  5   3   6  1   
  6   3  18  1   
  7   3  19  1   
  8   4   7  ar  
  9   4  20  1   
 10   5   8  ar  
 11   5  21  1   
 12   6   9  1   
 13   6  22  1   
 14   6  23  1   
 15   7  10  ar  
 16   7  24  1   
 17   8  10  ar  
 18   8  25  1   
 19   9  11  1   
 20   9  26  1   
 21   9  27  1   
 22  10  12  1   
 23  11  13  1   
 24  11  28  1   
 25  11  29  1   
 26  12  30  1   
 27  12  31  1   
 28  12  32  1   
 29  13  14  1   
 30  13  15  1   
 31  13  33  1   
 32  14  16  1   
 33  14  34  1   
 34  14  35  1   
 35  15  17  1   
 36  15  36  1   
 37  15  37  1   
 38  16  38  1   
 39  16  39  1   
 40  16  40  1   
 41  17  41  1   
 42  17  42  1   
 43  17  43  1   
@<TRIPOS>SUBSTRUCTURE
  1 ****   3 GROUP 4 **** **** 0

# MOE 2024.06 (io_trps.svl 2023.06)
