@<TRIPOS>MOLECULE
NONAME
38 40 1 0 0 
SMALL
USER_CHARGES


@<TRIPOS>ATOM
  1 O       -0.6620    -1.5310    -2.2810 O.2   1 <1>  -0.5700 
  2 C       -0.4070    -1.9010    -1.1620 C.2   1 <1>   0.5690 
  3 N       -1.2260    -1.7110    -0.0850 N.am  1 <1>  -0.5470 
  4 C        0.8980    -2.6370    -0.9250 C.3   1 <1>  -0.0990 
  5 C       -2.4720    -1.0650     0.0270 C.ar  1 <1>   0.1170 
  6 C        1.9380    -1.7550    -0.2110 C.3   1 <1>  -0.1600 
  7 C       -3.3150    -1.4130     1.0620 C.ar  1 <1>  -0.1500 
  8 C       -2.8770    -0.0600    -0.8750 C.ar  1 <1>  -0.1500 
  9 C        3.2410    -2.5120     0.0900 C.3   1 <1>  -0.0800 
 10 C       -4.5560    -0.7780     1.2040 C.ar  1 <1>   0.0000 
 11 C       -4.0910     0.5700    -0.7470 C.ar  1 <1>  -0.1500 
 12 C        4.2600    -1.6490     0.8290 C.3   1 <1>  -0.1600 
 13 C        4.0010    -2.9690    -1.1550 C.3   1 <1>  -0.1600 
 14 C       -4.9300     0.1970     0.3080 C.ar  1 <1>  -0.1520 
 15 C       -5.6410    -0.8630     2.0940 C.2   1 <1>   0.1390 
 16 C        5.5990    -2.3510     0.6040 C.3   1 <1>  -0.1600 
 17 C        5.4550    -3.1340    -0.7060 C.3   1 <1>  -0.1600 
 18 N       -6.1670     0.6150     0.7050 N.pl3 1 <1>   0.3000 
 19 N       -6.5970    -0.0430     1.8070 N.2   1 <1>  -0.7070 
 20 H       -0.8940    -2.1330     0.7790 H     1 <1>   0.3700 
 21 H        1.2830    -2.9500    -1.8790 H     1 <1>   0.0800 
 22 H        0.7010    -3.5200    -0.3460 H     1 <1>   0.0800 
 23 H        1.5260    -1.3960     0.7170 H     1 <1>   0.0800 
 24 H        2.1510    -0.8970    -0.8260 H     1 <1>   0.0800 
 25 H       -3.0430    -2.1730     1.7690 H     1 <1>   0.1500 
 26 H       -2.2190     0.2200    -1.6770 H     1 <1>   0.1500 
 27 H        3.0280    -3.3760     0.6980 H     1 <1>   0.0800 
 28 H       -4.3950     1.3340    -1.4400 H     1 <1>   0.1500 
 29 H        4.0270    -1.5530     1.8750 H     1 <1>   0.0800 
 30 H        4.2990    -0.6690     0.3840 H     1 <1>   0.0800 
 31 H        3.9530    -2.2030    -1.9110 H     1 <1>   0.0800 
 32 H        3.6040    -3.8840    -1.5580 H     1 <1>   0.0800 
 33 H       -5.6680    -1.5430     2.9290 H     1 <1>   0.1500 
 34 H        5.7860    -3.0380     1.4120 H     1 <1>   0.0800 
 35 H        6.4070    -1.6410     0.5570 H     1 <1>   0.0800 
 36 H        6.1280    -2.7580    -1.4580 H     1 <1>   0.0800 
 37 H        5.6750    -4.1730    -0.5330 H     1 <1>   0.0800 
 38 H       -6.7260     1.3380     0.2390 H     1 <1>   0.2700 
@<TRIPOS>BOND
  1   1   2  2   
  2   2   3  am  
  3   2   4  1   
  4   3   5  1   
  5   3  20  1   
  6   4   6  1   
  7   4  21  1   
  8   4  22  1   
  9   5   7  ar  
 10   5   8  ar  
 11   6   9  1   
 12   6  23  1   
 13   6  24  1   
 14   7  10  ar  
 15   7  25  1   
 16   8  11  ar  
 17   8  26  1   
 18   9  12  1   
 19   9  13  1   
 20   9  27  1   
 21  10  14  ar  
 22  10  15  1   
 23  11  14  ar  
 24  11  28  1   
 25  12  16  1   
 26  12  29  1   
 27  12  30  1   
 28  13  17  1   
 29  13  31  1   
 30  13  32  1   
 31  14  18  1   
 32  15  19  2   
 33  15  33  1   
 34  16  17  1   
 35  16  34  1   
 36  16  35  1   
 37  17  36  1   
 38  17  37  1   
 39  18  19  1   
 40  18  38  1   
@<TRIPOS>SUBSTRUCTURE
  1 ****   3 GROUP 4 **** **** 0

# MOE 2024.06 (io_trps.svl 2023.06)
