@<TRIPOS>MOLECULE
NONAME
44 46 1 0 0 
SMALL
USER_CHARGES


@<TRIPOS>ATOM
  1 BR      -0.3100    -0.3900    -0.0680 Br    1 <1>  -0.0570 
  2 C        1.1080     0.9340    -0.0060 C.2   1 <1>   0.0570 
  3 C        2.3240     0.7630     0.6260 C.2   1 <1>   0.1080 
  4 C        1.1000     2.1610    -0.5570 C.2   1 <1>  -0.3320 
  5 N        3.0590     1.8230     0.4860 N.2   1 <1>  -0.7070 
  6 C        2.7820    -0.4620     1.3840 C.3   1 <1>  -0.0590 
  7 N        2.3120     2.7140    -0.2330 N.pl3 1 <1>   0.6010 
  8 C       -0.0170     2.7970    -1.3790 C.3   1 <1>  -0.0600 
  9 C        2.9310     3.9230    -0.6200 C.2   1 <1>  -0.1810 
 10 C        2.3810     5.1460    -0.8430 C.2   1 <1>   0.0770 
 11 O        1.0610     5.3930    -0.7000 O.3   1 <1>  -0.1530 
 12 C        2.9880     6.3530    -1.2450 C.2   1 <1>  -0.1500 
 13 C        0.8000     6.6900    -1.0590 C.2   1 <1>   0.0770 
 14 C        2.0110     7.2830    -1.3750 C.2   1 <1>  -0.1500 
 15 C       -0.5050     7.1870    -1.0730 C.2   1 <1>  -0.0500 
 16 O       -1.5180     6.5230    -0.8340 O.3   1 <1>  -0.8500 
 17 N       -0.8370     8.4740    -1.3510 N.pl3 1 <1>  -0.8690 
 18 C       -0.6490     9.4150    -0.2450 C.3   1 <1>   0.2890 
 19 C       -2.0040     9.6780     0.4180 C.3   1 <1>  -0.1600 
 20 C       -0.0410    10.7080    -0.7940 C.3   1 <1>  -0.1600 
 21 C       -1.8950    10.7480     1.5150 C.3   1 <1>  -0.1600 
 22 C        0.0730    11.7850     0.2970 C.3   1 <1>  -0.1600 
 23 C       -1.2860    12.0450     0.9630 C.3   1 <1>  -0.1600 
 24 H        2.4590    -0.3920     2.4060 H     1 <1>   0.0800 
 25 H        3.8540    -0.5240     1.3590 H     1 <1>   0.0800 
 26 H        2.3720    -1.3510     0.9420 H     1 <1>   0.0800 
 27 H       -0.7060     2.0500    -1.7260 H     1 <1>   0.0800 
 28 H        0.3830     3.3100    -2.2350 H     1 <1>   0.0800 
 29 H       -0.5700     3.5030    -0.7830 H     1 <1>   0.0800 
 30 H        3.9910     3.8050    -0.7210 H     1 <1>   0.1500 
 31 H        4.0390     6.4810    -1.4180 H     1 <1>   0.1500 
 32 H        2.0950     8.3090    -1.6790 H     1 <1>   0.1500 
 33 H       -1.8390     8.3940    -1.5290 H     1 <1>   0.4000 
 34 H        0.0200     8.9820     0.4800 H     1 <1>   0.0800 
 35 H       -2.3590     8.7530     0.8410 H     1 <1>   0.0800 
 36 H       -2.7060    10.0010    -0.3290 H     1 <1>   0.0800 
 37 H       -0.6630    11.0720    -1.5930 H     1 <1>   0.0800 
 38 H        0.9320    10.4910    -1.1950 H     1 <1>   0.0800 
 39 H       -1.2760    10.3720     2.3110 H     1 <1>   0.0800 
 40 H       -2.8720    10.9470     1.9190 H     1 <1>   0.0800 
 41 H        0.4470    12.6960    -0.1350 H     1 <1>   0.0800 
 42 H        0.7780    11.4560     1.0430 H     1 <1>   0.0800 
 43 H       -1.1660    12.7560     1.7620 H     1 <1>   0.0800 
 44 H       -1.9590    12.4710     0.2380 H     1 <1>   0.0800 
@<TRIPOS>BOND
  1   1   2  1   
  2   2   3  1   
  3   2   4  2   
  4   3   5  2   
  5   3   6  1   
  6   4   7  1   
  7   4   8  1   
  8   5   7  1   
  9   6  24  1   
 10   6  25  1   
 11   6  26  1   
 12   7   9  1   
 13   8  27  1   
 14   8  28  1   
 15   8  29  1   
 16   9  10  2   
 17   9  30  1   
 18  10  11  1   
 19  10  12  1   
 20  11  13  1   
 21  12  14  2   
 22  12  31  1   
 23  13  14  1   
 24  13  15  2   
 25  14  32  1   
 26  15  16  1   
 27  15  17  1   
 28  17  18  1   
 29  17  33  1   
 30  18  19  1   
 31  18  20  1   
 32  18  34  1   
 33  19  21  1   
 34  19  35  1   
 35  19  36  1   
 36  20  22  1   
 37  20  37  1   
 38  20  38  1   
 39  21  23  1   
 40  21  39  1   
 41  21  40  1   
 42  22  23  1   
 43  22  41  1   
 44  22  42  1   
 45  23  43  1   
 46  23  44  1   
@<TRIPOS>SUBSTRUCTURE
  1 ****  11 GROUP 4 **** **** 0

# MOE 2024.06 (io_trps.svl 2023.06)
