@<TRIPOS>MOLECULE
NONAME
42 43 1 0 0 
SMALL
USER_CHARGES


@<TRIPOS>ATOM
  1 O        0.2320     0.2630    -1.7660 O.2   1 <1>  -0.5700 
  2 C        0.6370     1.1320    -1.0180 C.2   1 <1>   0.5440 
  3 N       -0.2720     1.9610    -0.4250 N.am  1 <1>  -0.7300 
  4 C        2.0560     1.2760    -0.7450 C.ar  1 <1>   0.0860 
  5 C       -1.7320     1.9190    -0.6180 C.3   1 <1>   0.2200 
  6 C        2.9160     0.1790    -0.8260 C.ar  1 <1>  -0.1500 
  7 C        2.6230     2.5040    -0.3930 C.ar  1 <1>  -0.1500 
  8 C       -2.2240     3.3250    -0.9380 C.3   1 <1>  -0.1600 
  9 C       -2.3940     1.6120     0.7190 C.3   1 <1>  -0.1600 
 10 C        4.2660     0.2970    -0.5570 C.ar  1 <1>  -0.1500 
 11 C        3.9740     2.6310    -0.1220 C.ar  1 <1>  -0.1500 
 12 C       -2.3400     4.0450     0.4110 C.3   1 <1>  -0.1600 
 13 C       -2.4480     2.9450     1.4750 C.3   1 <1>  -0.1600 
 14 C        4.8080     1.5200    -0.2010 C.ar  1 <1>   0.0830 
 15 O        6.1360     1.5540     0.0470 O.3   1 <1>  -0.3630 
 16 C        6.8030     2.7520     0.3810 C.3   1 <1>   0.1200 
 17 C        8.3020     2.4690     0.5640 C.3   1 <1>  -0.0800 
 18 C        9.0310     3.7420     1.0130 C.3   1 <1>  -0.2400 
 19 C        8.9420     1.9340    -0.7250 C.3   1 <1>  -0.2400 
 20 H        0.0300     2.6100     0.2990 H     1 <1>   0.3700 
 21 H       -2.0000     1.2070    -1.3820 H     1 <1>   0.0800 
 22 H        2.5100    -0.7780    -1.1050 H     1 <1>   0.1500 
 23 H        1.9980     3.3770    -0.3390 H     1 <1>   0.1500 
 24 H       -3.2030     3.2480    -1.3780 H     1 <1>   0.0800 
 25 H       -1.5760     3.8340    -1.6300 H     1 <1>   0.0800 
 26 H       -1.8740     0.8420     1.2620 H     1 <1>   0.0800 
 27 H       -3.3990     1.2770     0.5300 H     1 <1>   0.0800 
 28 H        4.9120    -0.5600    -0.6230 H     1 <1>   0.1500 
 29 H        4.3600     3.5960     0.1460 H     1 <1>   0.1500 
 30 H       -3.2010     4.6920     0.4260 H     1 <1>   0.0800 
 31 H       -1.4590     4.6370     0.5880 H     1 <1>   0.0800 
 32 H       -1.6160     3.0140     2.1550 H     1 <1>   0.0800 
 33 H       -3.3630     3.0290     2.0370 H     1 <1>   0.0800 
 34 H        6.3780     3.1260     1.2960 H     1 <1>   0.0800 
 35 H        6.6490     3.4590    -0.4150 H     1 <1>   0.0800 
 36 H        8.4100     1.7290     1.3400 H     1 <1>   0.0800 
 37 H        8.9480     4.5110     0.2660 H     1 <1>   0.0800 
 38 H       10.0740     3.5350     1.1770 H     1 <1>   0.0800 
 39 H        8.6130     4.1080     1.9340 H     1 <1>   0.0800 
 40 H        8.8380     2.6460    -1.5250 H     1 <1>   0.0800 
 41 H        8.4700     1.0140    -1.0240 H     1 <1>   0.0800 
 42 H        9.9880     1.7380    -0.5710 H     1 <1>   0.0800 
@<TRIPOS>BOND
  1   1   2  2   
  2   2   3  am  
  3   2   4  1   
  4   3   5  1   
  5   3  20  1   
  6   4   6  ar  
  7   4   7  ar  
  8   5   8  1   
  9   5   9  1   
 10   5  21  1   
 11   6  10  ar  
 12   6  22  1   
 13   7  11  ar  
 14   7  23  1   
 15   8  12  1   
 16   8  24  1   
 17   8  25  1   
 18   9  13  1   
 19   9  26  1   
 20   9  27  1   
 21  10  14  ar  
 22  10  28  1   
 23  11  14  ar  
 24  11  29  1   
 25  12  13  1   
 26  12  30  1   
 27  12  31  1   
 28  13  32  1   
 29  13  33  1   
 30  14  15  1   
 31  15  16  1   
 32  16  17  1   
 33  16  34  1   
 34  16  35  1   
 35  17  18  1   
 36  17  19  1   
 37  17  36  1   
 38  18  37  1   
 39  18  38  1   
 40  18  39  1   
 41  19  40  1   
 42  19  41  1   
 43  19  42  1   
@<TRIPOS>SUBSTRUCTURE
  1 ****   7 GROUP 4 **** **** 0

# MOE 2024.06 (io_trps.svl 2023.06)
