@<TRIPOS>MOLECULE
NONAME
38 40 1 0 0 
SMALL
USER_CHARGES


@<TRIPOS>ATOM
  1 O       -1.4280    -0.1840     0.6100 O.3   1 <1>  -0.3630 
  2 C       -2.3640    -0.9770     0.0310 C.ar  1 <1>   0.0830 
  3 C       -1.4530     0.0880     1.9930 C.3   1 <1>   0.0400 
  4 C       -3.4160    -1.5690     0.7250 C.ar  1 <1>  -0.1500 
  5 C       -2.2440    -1.1930    -1.3320 C.ar  1 <1>  -0.1500 
  6 C       -4.3270    -2.3650     0.0520 C.ar  1 <1>  -0.1500 
  7 C       -3.1560    -1.9890    -2.0020 C.ar  1 <1>  -0.1500 
  8 C       -4.2020    -2.5830    -1.3120 C.ar  1 <1>  -0.1430 
  9 C       -5.2110    -3.4590    -2.0340 C.3   1 <1>   0.3530 
 10 N       -6.4370    -2.6640    -2.2340 N.pl3 1 <1>  -0.8690 
 11 C       -7.5520    -3.0250    -1.4920 C.ar  1 <1>   0.1000 
 12 C       -8.0630    -2.1520    -0.5380 C.ar  1 <1>  -0.1500 
 13 C       -8.1710    -4.2580    -1.6830 C.ar  1 <1>  -0.1500 
 14 C       -9.1620    -2.5250     0.2110 C.ar  1 <1>  -0.1430 
 15 C       -9.2730    -4.6270    -0.9300 C.ar  1 <1>  -0.1500 
 16 C       -9.7590    -3.7470     0.0200 C.ar  1 <1>  -0.1430 
 17 C       -9.8620    -1.7360     1.2880 C.3   1 <1>  -0.0170 
 18 C      -10.9350    -3.9340     0.9450 C.3   1 <1>  -0.0170 
 19 C      -11.1630    -2.5250     1.5200 C.3   1 <1>  -0.1600 
 20 H       -0.6200     0.7270     2.2220 H     1 <1>   0.0800 
 21 H       -1.3630    -0.8380     2.5320 H     1 <1>   0.0800 
 22 H       -2.3750     0.5880     2.2340 H     1 <1>   0.0800 
 23 H       -3.5420    -1.4220     1.7800 H     1 <1>   0.1500 
 24 H       -1.4310    -0.7310    -1.8630 H     1 <1>   0.1500 
 25 H       -5.1430    -2.8160     0.5920 H     1 <1>   0.1500 
 26 H       -3.0470    -2.1420    -3.0620 H     1 <1>   0.1500 
 27 H       -5.4210    -4.3370    -1.4480 H     1 <1>   0.0800 
 28 H       -4.8290    -3.7690    -2.9910 H     1 <1>   0.0800 
 29 H       -6.1910    -1.6760    -2.1180 H     1 <1>   0.4000 
 30 H       -7.6000    -1.1950    -0.3850 H     1 <1>   0.1500 
 31 H       -7.7850    -4.9220    -2.4330 H     1 <1>   0.1500 
 32 H       -9.7460    -5.5800    -1.0820 H     1 <1>   0.1500 
 33 H      -10.0620    -0.7270     0.9730 H     1 <1>   0.0800 
 34 H       -9.2570    -1.7300     2.1780 H     1 <1>   0.0800 
 35 H      -10.6700    -4.6250     1.7250 H     1 <1>   0.0800 
 36 H      -11.8010    -4.2900     0.4160 H     1 <1>   0.0800 
 37 H      -11.9560    -2.0510     0.9670 H     1 <1>   0.0800 
 38 H      -11.4330    -2.5560     2.5610 H     1 <1>   0.0800 
@<TRIPOS>BOND
  1   1   2  1   
  2   1   3  1   
  3   2   4  ar  
  4   2   5  ar  
  5   3  20  1   
  6   3  21  1   
  7   3  22  1   
  8   4   6  ar  
  9   4  23  1   
 10   5   7  ar  
 11   5  24  1   
 12   6   8  ar  
 13   6  25  1   
 14   7   8  ar  
 15   7  26  1   
 16   8   9  1   
 17   9  10  1   
 18   9  27  1   
 19   9  28  1   
 20  10  11  1   
 21  10  29  1   
 22  11  12  ar  
 23  11  13  ar  
 24  12  14  ar  
 25  12  30  1   
 26  13  15  ar  
 27  13  31  1   
 28  14  16  ar  
 29  14  17  1   
 30  15  16  ar  
 31  15  32  1   
 32  16  18  1   
 33  17  19  1   
 34  17  33  1   
 35  17  34  1   
 36  18  19  1   
 37  18  35  1   
 38  18  36  1   
 39  19  37  1   
 40  19  38  1   
@<TRIPOS>SUBSTRUCTURE
  1 ****  12 GROUP 4 **** **** 0

# MOE 2024.06 (io_trps.svl 2023.06)
