@<TRIPOS>MOLECULE
NONAME
49 50 1 0 0 
SMALL
USER_CHARGES


@<TRIPOS>ATOM
  1 O       -1.3580    -1.3050    -2.8130 O.2   1 <1>  -0.5700 
  2 C       -0.5970    -1.1940    -1.8830 C.2   1 <1>   0.5690 
  3 N       -0.9390    -0.5890    -0.7110 N.am  1 <1>  -0.7300 
  4 C        0.8060    -1.7610    -2.0370 C.3   1 <1>   0.0440 
  5 C       -2.2320     0.0010    -0.3190 C.3   1 <1>   0.2200 
  6 C        1.7180    -1.4360    -0.8550 C.ar  1 <1>  -0.1440 
  7 C       -3.3100    -1.0930    -0.2900 C.3   1 <1>  -0.1600 
  8 C       -2.5610     1.1680    -1.2510 C.3   1 <1>  -0.2400 
  9 C        2.3970    -0.2280    -0.8100 C.ar  1 <1>  -0.1500 
 10 C        1.8520    -2.3340     0.1890 C.ar  1 <1>  -0.1500 
 11 C       -4.6480    -0.6070     0.2830 C.3   1 <1>  -0.0170 
 12 C        3.2100     0.1010     0.2740 C.ar  1 <1>   0.0820 
 13 C        2.6610    -2.0250     1.2670 C.ar  1 <1>  -0.1500 
 14 C       -5.6160    -1.7700     0.4300 C.ar  1 <1>  -0.1430 
 15 O        3.8480     1.3070     0.3410 O.3   1 <1>  -0.3630 
 16 C        3.3480    -0.8240     1.3220 C.ar  1 <1>   0.0820 
 17 C       -6.2980    -2.2510    -0.6770 C.ar  1 <1>  -0.1500 
 18 C       -5.8250    -2.3620     1.6660 C.ar  1 <1>  -0.1500 
 19 C        3.6620     2.3150    -0.6280 C.3   1 <1>   0.0400 
 20 O        4.1130    -0.6530     2.4370 O.3   1 <1>  -0.3630 
 21 C       -7.1790    -3.3110    -0.5510 C.ar  1 <1>  -0.1500 
 22 C       -6.7070    -3.4210     1.7950 C.ar  1 <1>  -0.1500 
 23 C        5.3280     0.0610     2.3850 C.3   1 <1>   0.0400 
 24 C       -7.3850    -3.8970     0.6860 C.ar  1 <1>  -0.1500 
 25 H       -0.2130    -0.5440     0.0100 H     1 <1>   0.3700 
 26 H        1.2310    -1.3670    -2.9420 H     1 <1>   0.0800 
 27 H        0.7250    -2.8250    -2.1560 H     1 <1>   0.0800 
 28 H       -2.1200     0.3900     0.6790 H     1 <1>   0.0800 
 29 H       -2.9570    -1.9070     0.3180 H     1 <1>   0.0800 
 30 H       -3.4730    -1.4680    -1.2850 H     1 <1>   0.0800 
 31 H       -2.7810     0.8120    -2.2410 H     1 <1>   0.0800 
 32 H       -1.7300     1.8480    -1.2980 H     1 <1>   0.0800 
 33 H       -3.4150     1.7090    -0.8880 H     1 <1>   0.0800 
 34 H        2.2720     0.4510    -1.6310 H     1 <1>   0.1500 
 35 H        1.3290    -3.2750     0.1740 H     1 <1>   0.1500 
 36 H       -5.0860     0.1290    -0.3690 H     1 <1>   0.0800 
 37 H       -4.4900    -0.1460     1.2420 H     1 <1>   0.0800 
 38 H        2.7680    -2.7210     2.0790 H     1 <1>   0.1500 
 39 H       -6.1410    -1.8040    -1.6430 H     1 <1>   0.1500 
 40 H       -5.3020    -2.0020     2.5350 H     1 <1>   0.1500 
 41 H        4.2360     3.1740    -0.3290 H     1 <1>   0.0800 
 42 H        2.6190     2.5710    -0.6710 H     1 <1>   0.0800 
 43 H        4.0140     1.9560    -1.5790 H     1 <1>   0.0800 
 44 H       -7.7040    -3.6790    -1.4150 H     1 <1>   0.1500 
 45 H       -6.8650    -3.8760     2.7570 H     1 <1>   0.1500 
 46 H        5.9280    -0.2350     3.2260 H     1 <1>   0.0800 
 47 H        5.1150     1.1130     2.4430 H     1 <1>   0.0800 
 48 H        5.8360    -0.1750     1.4670 H     1 <1>   0.0800 
 49 H       -8.0690    -4.7200     0.7850 H     1 <1>   0.1500 
@<TRIPOS>BOND
  1   1   2  2   
  2   2   3  am  
  3   2   4  1   
  4   3   5  1   
  5   3  25  1   
  6   4   6  1   
  7   4  26  1   
  8   4  27  1   
  9   5   7  1   
 10   5   8  1   
 11   5  28  1   
 12   6   9  ar  
 13   6  10  ar  
 14   7  11  1   
 15   7  29  1   
 16   7  30  1   
 17   8  31  1   
 18   8  32  1   
 19   8  33  1   
 20   9  12  ar  
 21   9  34  1   
 22  10  13  ar  
 23  10  35  1   
 24  11  14  1   
 25  11  36  1   
 26  11  37  1   
 27  12  15  1   
 28  12  16  ar  
 29  13  16  ar  
 30  13  38  1   
 31  14  17  ar  
 32  14  18  ar  
 33  15  19  1   
 34  16  20  1   
 35  17  21  ar  
 36  17  39  1   
 37  18  22  ar  
 38  18  40  1   
 39  19  41  1   
 40  19  42  1   
 41  19  43  1   
 42  20  23  1   
 43  21  24  ar  
 44  21  44  1   
 45  22  24  ar  
 46  22  45  1   
 47  23  46  1   
 48  23  47  1   
 49  23  48  1   
 50  24  49  1   
@<TRIPOS>SUBSTRUCTURE
  1 ****   3 GROUP 4 **** **** 0

# MOE 2024.06 (io_trps.svl 2023.06)
