@<TRIPOS>MOLECULE
NONAME
48 49 1 0 0 
SMALL
USER_CHARGES


@<TRIPOS>ATOM
  1 O        2.2930    -6.6270     0.5820 O.3   1 <1>  -0.3630 
  2 C        0.9470    -6.7680     0.4630 C.ar  1 <1>   0.0830 
  3 C        2.9720    -5.5660    -0.0400 C.3   1 <1>   0.1200 
  4 C        0.3760    -7.8420     1.1280 C.ar  1 <1>  -0.1500 
  5 C        0.1350    -5.9090    -0.2740 C.ar  1 <1>  -0.1500 
  6 C        4.4530    -5.7160     0.3130 C.3   1 <1>   0.3430 
  7 C       -0.9880    -8.0600     1.0610 C.ar  1 <1>  -0.1500 
  8 C       -1.2310    -6.1290    -0.3400 C.ar  1 <1>  -0.1500 
  9 N        5.2840    -4.6290    -0.2910 N.4   1 <1>  -0.9060 
 10 C       -1.8000    -7.2090     0.3290 C.ar  1 <1>   0.0830 
 11 C        6.7170    -4.7250     0.0670 C.3   1 <1>   0.4230 
 12 O       -3.1280    -7.4950     0.3160 O.3   1 <1>  -0.3630 
 13 C        7.3980    -3.3570    -0.1830 C.3   1 <1>  -0.0800 
 14 C        7.3880    -5.8600    -0.7140 C.3   1 <1>  -0.1600 
 15 C       -4.0410    -6.6930    -0.3990 C.3   1 <1>   0.0400 
 16 C        8.9160    -3.5130    -0.4970 C.3   1 <1>  -0.0800 
 17 C        7.0990    -2.4250     1.0110 C.3   1 <1>  -0.2400 
 18 C        8.8450    -6.0470    -0.2520 C.3   1 <1>  -0.1600 
 19 C        9.5090    -4.7380     0.2160 C.3   1 <1>  -0.1600 
 20 C        9.7630    -2.2630    -0.2120 C.3   1 <1>  -0.2400 
 21 H        2.5720    -4.6440     0.3450 H     1 <1>   0.0800 
 22 H        2.8150    -5.6460    -1.1010 H     1 <1>   0.0800 
 23 H        0.9990    -8.5070     1.6970 H     1 <1>   0.1500 
 24 H        0.5370    -5.0670    -0.8030 H     1 <1>   0.1500 
 25 H        4.7930    -6.6750    -0.0420 H     1 <1>   0.0800 
 26 H        4.5550    -5.6940     1.3860 H     1 <1>   0.0800 
 27 H       -1.4340    -8.8930     1.5750 H     1 <1>   0.1500 
 28 H       -1.8360    -5.4540    -0.9150 H     1 <1>   0.1500 
 29 H        4.9500    -3.7140     0.0330 H     1 <1>   0.4500 
 30 H        5.2090    -4.6380    -1.3150 H     1 <1>   0.4500 
 31 H        6.8090    -4.9500     1.1180 H     1 <1>   0.0800 
 32 H        6.9640    -2.9080    -1.0610 H     1 <1>   0.0800 
 33 H        7.3860    -5.6210    -1.7630 H     1 <1>   0.0800 
 34 H        6.8710    -6.7930    -0.5780 H     1 <1>   0.0800 
 35 H       -5.0240    -7.1070    -0.2660 H     1 <1>   0.0800 
 36 H       -3.7780    -6.7060    -1.4410 H     1 <1>   0.0800 
 37 H       -4.0110    -5.6930    -0.0040 H     1 <1>   0.0800 
 38 H        9.0090    -3.6980    -1.5560 H     1 <1>   0.0800 
 39 H        7.6090    -2.7670     1.8960 H     1 <1>   0.0800 
 40 H        6.0470    -2.3760     1.2240 H     1 <1>   0.0800 
 41 H        7.4260    -1.4210     0.8020 H     1 <1>   0.0800 
 42 H        9.4140    -6.4620    -1.0680 H     1 <1>   0.0800 
 43 H        8.8880    -6.7590     0.5560 H     1 <1>   0.0800 
 44 H        9.3830    -4.6240     1.2800 H     1 <1>   0.0800 
 45 H       10.5690    -4.8000     0.0280 H     1 <1>   0.0800 
 46 H        9.8210    -2.0590     0.8430 H     1 <1>   0.0800 
 47 H        9.3520    -1.4050    -0.7140 H     1 <1>   0.0800 
 48 H       10.7660    -2.4070    -0.5760 H     1 <1>   0.0800 
@<TRIPOS>BOND
  1   1   2  1   
  2   1   3  1   
  3   2   4  ar  
  4   2   5  ar  
  5   3   6  1   
  6   3  21  1   
  7   3  22  1   
  8   4   7  ar  
  9   4  23  1   
 10   5   8  ar  
 11   5  24  1   
 12   6   9  1   
 13   6  25  1   
 14   6  26  1   
 15   7  10  ar  
 16   7  27  1   
 17   8  10  ar  
 18   8  28  1   
 19   9  11  1   
 20   9  29  1   
 21   9  30  1   
 22  10  12  1   
 23  11  13  1   
 24  11  14  1   
 25  11  31  1   
 26  12  15  1   
 27  13  16  1   
 28  13  17  1   
 29  13  32  1   
 30  14  18  1   
 31  14  33  1   
 32  14  34  1   
 33  15  35  1   
 34  15  36  1   
 35  15  37  1   
 36  16  19  1   
 37  16  20  1   
 38  16  38  1   
 39  17  39  1   
 40  17  40  1   
 41  17  41  1   
 42  18  19  1   
 43  18  42  1   
 44  18  43  1   
 45  19  44  1   
 46  19  45  1   
 47  20  46  1   
 48  20  47  1   
 49  20  48  1   
@<TRIPOS>SUBSTRUCTURE
  1 ****   3 GROUP 4 **** **** 0

# MOE 2024.06 (io_trps.svl 2023.06)
