@<TRIPOS>MOLECULE
NONAME
39 40 1 0 0 
SMALL
USER_CHARGES


@<TRIPOS>ATOM
  1 F       -3.0610    -0.1940    -2.9850 F     1 <1>  -0.1900 
  2 C       -3.1560     0.1330    -1.7240 C.ar  1 <1>   0.1900 
  3 C       -4.3970     0.1030    -1.1180 C.ar  1 <1>  -0.1500 
  4 C       -2.0100     0.4960    -1.0430 C.ar  1 <1>  -0.1500 
  5 C       -4.5000     0.4490     0.2210 C.ar  1 <1>  -0.1440 
  6 C       -2.1170     0.8420     0.2930 C.ar  1 <1>  -0.1500 
  7 C       -3.3560     0.8170     0.9190 C.ar  1 <1>  -0.1500 
  8 C       -5.8580     0.4180     0.9120 C.3   1 <1>   0.2540 
  9 N       -6.8570     1.2130     0.1670 N.3   1 <1>  -0.8100 
 10 C       -8.2400     1.0090     0.7080 C.3   1 <1>   0.2510 
 11 C       -6.4840     2.6390     0.1480 C.3   1 <1>   0.1100 
 12 C       -8.6780    -0.4660     0.8370 C.2   1 <1>   0.6590 
 13 C       -9.2490     1.7880    -0.1570 C.3   1 <1>  -0.1600 
 14 C       -7.4530     3.4330    -0.7310 C.3   1 <1>  -0.1600 
 15 O       -8.8570    -0.9680     1.9200 O.2   1 <1>  -0.5700 
 16 O       -8.8190    -1.1600    -0.2910 O.3   1 <1>  -0.4300 
 17 C       -8.8980     3.2760    -0.2520 C.3   1 <1>  -0.1600 
 18 C       -9.1170    -2.5370    -0.3150 C.3   1 <1>   0.1200 
 19 C       -7.8120    -3.3210    -0.1860 C.3   1 <1>  -0.2400 
 20 H       -5.2690    -0.1790    -1.6810 H     1 <1>   0.1500 
 21 H       -1.0630     0.5080    -1.5500 H     1 <1>   0.1500 
 22 H       -1.2400     1.1290     0.8470 H     1 <1>   0.1500 
 23 H       -3.4230     1.0880     1.9580 H     1 <1>   0.1500 
 24 H       -5.7760     0.7880     1.9200 H     1 <1>   0.0800 
 25 H       -6.1640    -0.6120     0.9600 H     1 <1>   0.0800 
 26 H       -8.2700     1.4220     1.7010 H     1 <1>   0.0800 
 27 H       -5.4920     2.7550    -0.2530 H     1 <1>   0.0800 
 28 H       -6.4910     3.0330     1.1510 H     1 <1>   0.0800 
 29 H      -10.2350     1.6800     0.2600 H     1 <1>   0.0800 
 30 H       -9.2620     1.3600    -1.1450 H     1 <1>   0.0800 
 31 H       -7.3630     3.0820    -1.7450 H     1 <1>   0.0800 
 32 H       -7.1760     4.4720    -0.7170 H     1 <1>   0.0800 
 33 H       -9.0080     3.7360     0.7160 H     1 <1>   0.0800 
 34 H       -9.5670     3.7690    -0.9360 H     1 <1>   0.0800 
 35 H       -9.5920    -2.7510    -1.2560 H     1 <1>   0.0800 
 36 H       -9.7990    -2.7690     0.4860 H     1 <1>   0.0800 
 37 H       -7.1360    -3.0500    -0.9770 H     1 <1>   0.0800 
 38 H       -8.0140    -4.3740    -0.2520 H     1 <1>   0.0800 
 39 H       -7.3510    -3.1250     0.7660 H     1 <1>   0.0800 
@<TRIPOS>BOND
  1   1   2  1   
  2   2   3  ar  
  3   2   4  ar  
  4   3   5  ar  
  5   3  20  1   
  6   4   6  ar  
  7   4  21  1   
  8   5   7  ar  
  9   5   8  1   
 10   6   7  ar  
 11   6  22  1   
 12   7  23  1   
 13   8   9  1   
 14   8  24  1   
 15   8  25  1   
 16   9  10  1   
 17   9  11  1   
 18  10  12  1   
 19  10  13  1   
 20  10  26  1   
 21  11  14  1   
 22  11  27  1   
 23  11  28  1   
 24  12  15  2   
 25  12  16  1   
 26  13  17  1   
 27  13  29  1   
 28  13  30  1   
 29  14  17  1   
 30  14  31  1   
 31  14  32  1   
 32  16  18  1   
 33  17  33  1   
 34  17  34  1   
 35  18  19  1   
 36  18  35  1   
 37  18  36  1   
 38  19  37  1   
 39  19  38  1   
 40  19  39  1   
@<TRIPOS>SUBSTRUCTURE
  1 ****   9 GROUP 4 **** **** 0

# MOE 2024.06 (io_trps.svl 2023.06)
