@<TRIPOS>MOLECULE
NONAME
41 43 1 0 0 
SMALL
USER_CHARGES


@<TRIPOS>ATOM
  1 O        0.6690     1.2740    -2.7450 O.2   1 <1>  -0.5700 
  2 C       -0.0440     1.4350    -1.7830 C.2   1 <1>   0.5690 
  3 N        0.3720     1.3700    -0.4840 N.am  1 <1>  -0.5470 
  4 C       -1.5300     1.7350    -1.9980 C.3   1 <1>   0.1710 
  5 C        1.6120     1.1310     0.1260 C.ar  1 <1>   0.1170 
  6 N       -2.3850     1.4150    -0.8140 N.3   1 <1>  -0.8100 
  7 C        2.8030     1.0060    -0.5840 C.ar  1 <1>  -0.1500 
  8 C        1.6570     1.0170     1.5110 C.ar  1 <1>  -0.1500 
  9 C       -3.6990     2.0880    -0.9200 C.3   1 <1>   0.1100 
 10 C       -2.6030    -0.0500    -0.7020 C.3   1 <1>   0.1100 
 11 C        3.9990     0.7720     0.0700 C.ar  1 <1>  -0.1500 
 12 C        2.8500     0.7830     2.1700 C.ar  1 <1>  -0.1500 
 13 C       -4.6070     1.7940     0.2880 C.3   1 <1>   0.2090 
 14 C       -3.4770    -0.4260     0.5100 C.3   1 <1>   0.2090 
 15 C        4.0250     0.6590     1.4490 C.ar  1 <1>  -0.1500 
 16 N       -4.7750     0.3210     0.4970 N.pl3 1 <1>  -0.8380 
 17 C       -5.9740    -0.2530     0.8670 C.ar  1 <1>   0.7200 
 18 N       -5.9570    -1.5460     1.1930 N.ar  1 <1>  -0.6200 
 19 N       -7.0510     0.5330     0.8710 N.ar  1 <1>  -0.6200 
 20 C       -7.1030    -2.0770     1.5440 C.ar  1 <1>   0.1600 
 21 C       -8.1830    -0.0240     1.2260 C.ar  1 <1>   0.1600 
 22 C       -8.2650    -1.3480     1.5780 C.ar  1 <1>  -0.1500 
 23 H       -0.4250     1.4860     0.1510 H     1 <1>   0.3700 
 24 H       -1.8750     1.1940    -2.8620 H     1 <1>   0.0800 
 25 H       -1.6040     2.7850    -2.2170 H     1 <1>   0.0800 
 26 H        2.8060     1.0920    -1.6550 H     1 <1>   0.1500 
 27 H        0.7510     1.1120     2.0800 H     1 <1>   0.1500 
 28 H       -4.2050     1.7670    -1.8150 H     1 <1>   0.0800 
 29 H       -3.5510     3.1520    -0.9840 H     1 <1>   0.0800 
 30 H       -1.6570    -0.5540    -0.6080 H     1 <1>   0.0800 
 31 H       -3.0850    -0.4180    -1.5920 H     1 <1>   0.0800 
 32 H        4.9100     0.6770    -0.4950 H     1 <1>   0.1500 
 33 H        2.8680     0.6960     3.2420 H     1 <1>   0.1500 
 34 H       -5.5550     2.2740     0.1230 H     1 <1>   0.0800 
 35 H       -4.1700     2.2250     1.1720 H     1 <1>   0.0800 
 36 H       -2.9480    -0.1920     1.4170 H     1 <1>   0.0800 
 37 H       -3.6420    -1.4880     0.4890 H     1 <1>   0.0800 
 38 H        4.9560     0.4770     1.9580 H     1 <1>   0.1500 
 39 H       -7.1140    -3.1200     1.8110 H     1 <1>   0.1500 
 40 H       -9.0660     0.5910     1.2370 H     1 <1>   0.1500 
 41 H       -9.1970    -1.7940     1.8670 H     1 <1>   0.1500 
@<TRIPOS>BOND
  1   1   2  2   
  2   2   3  am  
  3   2   4  1   
  4   3   5  1   
  5   3  23  1   
  6   4   6  1   
  7   4  24  1   
  8   4  25  1   
  9   5   7  ar  
 10   5   8  ar  
 11   6   9  1   
 12   6  10  1   
 13   7  11  ar  
 14   7  26  1   
 15   8  12  ar  
 16   8  27  1   
 17   9  13  1   
 18   9  28  1   
 19   9  29  1   
 20  10  14  1   
 21  10  30  1   
 22  10  31  1   
 23  11  15  ar  
 24  11  32  1   
 25  12  15  ar  
 26  12  33  1   
 27  13  16  1   
 28  13  34  1   
 29  13  35  1   
 30  14  16  1   
 31  14  36  1   
 32  14  37  1   
 33  15  38  1   
 34  16  17  1   
 35  17  18  ar  
 36  17  19  ar  
 37  18  20  ar  
 38  19  21  ar  
 39  20  22  ar  
 40  20  39  1   
 41  21  22  ar  
 42  21  40  1   
 43  22  41  1   
@<TRIPOS>SUBSTRUCTURE
  1 ****  10 GROUP 4 **** **** 0

# MOE 2024.06 (io_trps.svl 2023.06)
