@<TRIPOS>MOLECULE
Structure1693
40 40 1 0 0 
SMALL
USER_CHARGES


@<TRIPOS>ATOM
  1 O        0.4470     0.3890    -1.3480 O.2   1 <1>  -0.5700 
  2 C        1.1510     0.1960    -0.3760 C.2   1 <1>   0.7800 
  3 O        1.6720     1.2060     0.3190 O.3   1 <1>  -0.4300 
  4 N        1.4750    -1.0320     0.0660 N.am  1 <1>  -0.7300 
  5 C        1.5430     2.5840     0.0530 C.3   1 <1>   0.2800 
  6 C        1.2320    -2.2700    -0.6800 C.3   1 <1>   0.3640 
  7 C        0.0740     3.0110     0.1630 C.3   1 <1>  -0.2400 
  8 C        2.3540     3.2780     1.1480 C.3   1 <1>  -0.2400 
  9 C        2.1510     2.9180    -1.3150 C.3   1 <1>  -0.2400 
 10 C       -0.2560    -2.6640    -0.6640 C.ar  1 <1>  -0.1440 
 11 C        2.1280    -3.3800    -0.1460 C.3   1 <1>  -0.2660 
 12 C       -1.0140    -2.9450     0.4790 C.ar  1 <1>  -0.1440 
 13 C       -0.8770    -2.7430    -1.9060 C.ar  1 <1>  -0.1500 
 14 C        3.5570    -2.9560    -0.2460 C.2   1 <1>   0.9060 
 15 C       -2.3480    -3.3070     0.3440 C.ar  1 <1>  -0.1500 
 16 C       -0.4660    -2.8830     1.9000 C.3   1 <1>  -0.0960 
 17 C       -2.2060    -3.1010    -2.0290 C.ar  1 <1>  -0.1500 
 18 O        3.9830    -2.1670     0.6050 O.co2 1 <1>  -0.9000 
 19 O        4.2400    -3.3830    -1.1770 O.co2 1 <1>  -0.9000 
 20 C       -2.9450    -3.3870    -0.9000 C.ar  1 <1>  -0.1500 
 21 H        2.3630    -1.0940     0.5920 H     1 <1>   0.3700 
 22 H        1.5330    -2.0880    -1.6990 H     1 <1>   0.0800 
 23 H       -0.5100     2.5920    -0.6350 H     1 <1>   0.0800 
 24 H       -0.0040     4.0800     0.0980 H     1 <1>   0.0800 
 25 H       -0.3360     2.6920     1.1040 H     1 <1>   0.0800 
 26 H        1.9560     3.0320     2.1160 H     1 <1>   0.0800 
 27 H        2.3180     4.3450     1.0240 H     1 <1>   0.0800 
 28 H        3.3810     2.9630     1.1020 H     1 <1>   0.0800 
 29 H        1.5620     2.5030    -2.1110 H     1 <1>   0.0800 
 30 H        3.1520     2.5300    -1.3790 H     1 <1>   0.0800 
 31 H        2.1850     3.9820    -1.4530 H     1 <1>   0.0800 
 32 H        1.9910    -4.2670    -0.7320 H     1 <1>   0.0800 
 33 H        1.9150    -3.6060     0.8760 H     1 <1>   0.0800 
 34 H       -0.3180    -2.5170    -2.7970 H     1 <1>   0.1500 
 35 H       -2.9350    -3.5290     1.2160 H     1 <1>   0.1500 
 36 H        0.2510    -2.0940     2.0150 H     1 <1>   0.0800 
 37 H        0.0000    -3.8180     2.1510 H     1 <1>   0.0800 
 38 H       -1.2570    -2.6990     2.6020 H     1 <1>   0.0800 
 39 H       -2.6610    -3.1530    -3.0020 H     1 <1>   0.1500 
 40 H       -3.9790    -3.6670    -0.9860 H     1 <1>   0.1500 
@<TRIPOS>BOND
  1   1   2  2   
  2   2   3  1   
  3   2   4  am  
  4   3   5  1   
  5   4   6  1   
  6   4  21  1   
  7   5   7  1   
  8   5   8  1   
  9   5   9  1   
 10   6  10  1   
 11   6  11  1   
 12   6  22  1   
 13   7  23  1   
 14   7  24  1   
 15   7  25  1   
 16   8  26  1   
 17   8  27  1   
 18   8  28  1   
 19   9  29  1   
 20   9  30  1   
 21   9  31  1   
 22  10  12  ar  
 23  10  13  ar  
 24  11  14  1   
 25  11  32  1   
 26  11  33  1   
 27  12  15  ar  
 28  12  16  1   
 29  13  17  ar  
 30  13  34  1   
 31  14  18  ar  
 32  14  19  ar  
 33  15  20  ar  
 34  15  35  1   
 35  16  36  1   
 36  16  37  1   
 37  16  38  1   
 38  17  20  ar  
 39  17  39  1   
 40  20  40  1   
@<TRIPOS>SUBSTRUCTURE
  1 ****   4 GROUP 4 **** **** 0

# MOE 2024.06 (io_trps.svl 2023.06)
