@<TRIPOS>MOLECULE
NONAME
53 56 1 0 0 
SMALL
USER_CHARGES


@<TRIPOS>ATOM
  1 S        0.4230    -0.8290    -2.3370 S.3   1 <1>  -0.2860 
  2 C       -1.1010    -0.0190    -1.8350 C.2   1 <1>   0.2420 
  3 C        1.6330     0.5550    -2.6280 C.3   1 <1>   0.1310 
  4 N       -1.2780     1.2530    -1.8400 N.2   1 <1>  -0.3380 
  5 N       -2.1620    -0.7010    -1.4120 N.pl3 1 <1>   0.0480 
  6 C        2.7590     0.4880    -1.6030 C.2   1 <1>   0.5690 
  7 N       -2.5190     1.4500    -1.3920 N.2   1 <1>  -0.3380 
  8 C       -3.0400     0.2820    -1.1330 C.2   1 <1>   0.1870 
  9 C       -2.3540    -2.1680    -1.3380 C.3   1 <1>   0.0960 
 10 O        3.8210     0.0580    -1.9910 O.2   1 <1>  -0.5700 
 11 N        2.5870     0.8920    -0.3000 N.am  1 <1>  -0.6600 
 12 C       -4.3660     0.0470    -0.6280 C.2   1 <1>  -0.0010 
 13 C       -2.9820    -2.6940    -2.6320 C.3   1 <1>  -0.2400 
 14 C        1.3450     1.5170     0.2550 C.3   1 <1>   0.1400 
 15 C        3.6360     0.6290     0.7330 C.3   1 <1>   0.1400 
 16 C       -4.6770    -0.5420     0.6240 C.ar  1 <1>   0.0000 
 17 C       -5.5580     0.3170    -1.2290 C.2   1 <1>  -0.3020 
 18 C        1.6710     2.6530     1.2400 C.3   1 <1>   0.1200 
 19 C        3.8240     1.8400     1.6590 C.3   1 <1>   0.1200 
 20 C       -6.0630    -0.6260     0.7040 C.ar  1 <1>  -0.1520 
 21 C       -3.8940    -0.9960     1.6920 C.ar  1 <1>  -0.1500 
 22 N       -6.5950    -0.0840    -0.4430 N.pl3 1 <1>   0.0480 
 23 O        2.5980     2.2370     2.2010 O.3   1 <1>  -0.5600 
 24 C       -6.6810    -1.1820     1.8280 C.ar  1 <1>  -0.1500 
 25 C       -4.5040    -1.5420     2.7970 C.ar  1 <1>  -0.1500 
 26 C       -8.0290     0.0640    -0.7630 C.3   1 <1>   0.0960 
 27 C       -5.8980    -1.6390     2.8640 C.ar  1 <1>  -0.1500 
 28 C       -8.5930     1.3370    -0.1260 C.3   1 <1>  -0.2400 
 29 H        1.1170     1.4930    -2.5930 H     1 <1>   0.0800 
 30 H        2.0300     0.4080    -3.6140 H     1 <1>   0.0800 
 31 H       -2.9920    -2.4010    -0.5050 H     1 <1>   0.0800 
 32 H       -1.4020    -2.6410    -1.1730 H     1 <1>   0.0800 
 33 H       -3.9470    -2.2420    -2.7910 H     1 <1>   0.0800 
 34 H       -3.1130    -3.7590    -2.5660 H     1 <1>   0.0800 
 35 H       -2.3450    -2.4800    -3.4730 H     1 <1>   0.0800 
 36 H        0.7630     0.7660     0.7600 H     1 <1>   0.0800 
 37 H        0.7470     1.9330    -0.5300 H     1 <1>   0.0800 
 38 H        4.5770     0.3970     0.2650 H     1 <1>   0.0800 
 39 H        3.3430    -0.2220     1.3220 H     1 <1>   0.0800 
 40 H       -5.7110     0.7820    -2.1860 H     1 <1>   0.1500 
 41 H        0.7790     2.9620     1.7550 H     1 <1>   0.0800 
 42 H        2.0760     3.5010     0.7160 H     1 <1>   0.0800 
 43 H        4.2520     2.6670     1.1190 H     1 <1>   0.0800 
 44 H        4.4770     1.5840     2.4740 H     1 <1>   0.0800 
 45 H       -2.8250    -0.9040     1.6380 H     1 <1>   0.1500 
 46 H       -7.7520    -1.2470     1.8790 H     1 <1>   0.1500 
 47 H       -3.9150    -1.8970     3.6250 H     1 <1>   0.1500 
 48 H       -8.5560    -0.8000    -0.3990 H     1 <1>   0.0800 
 49 H       -8.1410     0.1060    -1.8310 H     1 <1>   0.0800 
 50 H       -6.3530    -2.0700     3.7380 H     1 <1>   0.1500 
 51 H       -8.4900     1.2970     0.9440 H     1 <1>   0.0800 
 52 H       -9.6360     1.4360    -0.3660 H     1 <1>   0.0800 
 53 H       -8.0710     2.2010    -0.4990 H     1 <1>   0.0800 
@<TRIPOS>BOND
  1   1   2  1   
  2   1   3  1   
  3   2   4  2   
  4   2   5  1   
  5   3   6  1   
  6   3  29  1   
  7   3  30  1   
  8   4   7  1   
  9   5   8  1   
 10   5   9  1   
 11   6  10  2   
 12   6  11  am  
 13   7   8  2   
 14   8  12  1   
 15   9  13  1   
 16   9  31  1   
 17   9  32  1   
 18  11  14  1   
 19  11  15  1   
 20  12  16  1   
 21  12  17  2   
 22  13  33  1   
 23  13  34  1   
 24  13  35  1   
 25  14  18  1   
 26  14  36  1   
 27  14  37  1   
 28  15  19  1   
 29  15  38  1   
 30  15  39  1   
 31  16  20  ar  
 32  16  21  ar  
 33  17  22  1   
 34  17  40  1   
 35  18  23  1   
 36  18  41  1   
 37  18  42  1   
 38  19  23  1   
 39  19  43  1   
 40  19  44  1   
 41  20  22  1   
 42  20  24  ar  
 43  21  25  ar  
 44  21  45  1   
 45  22  26  1   
 46  24  27  ar  
 47  24  46  1   
 48  25  27  ar  
 49  25  47  1   
 50  26  28  1   
 51  26  48  1   
 52  26  49  1   
 53  27  50  1   
 54  28  51  1   
 55  28  52  1   
 56  28  53  1   
@<TRIPOS>SUBSTRUCTURE
  1 ****   8 GROUP 4 **** **** 0

# MOE 2024.06 (io_trps.svl 2023.06)
