@<TRIPOS>MOLECULE
NONAME
32 33 1 0 0 
SMALL
USER_CHARGES


@<TRIPOS>ATOM
  1 CL      -1.3720     1.1960     1.8280 Cl    1 <1>  -0.1770 
  2 C       -0.6040     2.1690     0.5970 C.ar  1 <1>   0.1770 
  3 C       -1.2810     2.4910    -0.5840 C.ar  1 <1>   0.0860 
  4 C        0.6880     2.5930     0.8440 C.ar  1 <1>  -0.1500 
  5 C       -2.6340     2.0550    -0.8470 C.2   1 <1>   0.5440 
  6 C       -0.5910     3.2490    -1.5360 C.ar  1 <1>  -0.1500 
  7 C        1.3200     3.3500    -0.1210 C.ar  1 <1>   0.1900 
  8 O       -2.8370     1.4150    -1.8630 O.2   1 <1>  -0.5700 
  9 N       -3.7020     2.3040    -0.0070 N.am  1 <1>  -0.6600 
 10 C        0.7040     3.6850    -1.3120 C.ar  1 <1>  -0.1500 
 11 F        2.5370     3.7610     0.0970 F     1 <1>  -0.1900 
 12 C       -4.0280     3.5670     0.7320 C.3   1 <1>   0.2200 
 13 C       -4.7420     1.2470     0.1480 C.3   1 <1>   0.1400 
 14 C       -5.3860     4.0950     0.2370 C.3   1 <1>  -0.1600 
 15 C       -2.9850     4.6800     0.5920 C.3   1 <1>  -0.2400 
 16 C       -6.0910     1.7570    -0.3620 C.3   1 <1>  -0.1600 
 17 C       -6.5000     3.0470     0.3560 C.3   1 <1>  -0.1600 
 18 H        1.1900     2.3380     1.7590 H     1 <1>   0.1500 
 19 H       -1.0870     3.4900    -2.4620 H     1 <1>   0.1500 
 20 H        1.2310     4.2710    -2.0450 H     1 <1>   0.1500 
 21 H       -4.1180     3.3240     1.7780 H     1 <1>   0.0800 
 22 H       -4.8200     0.9840     1.1890 H     1 <1>   0.0800 
 23 H       -4.4620     0.3600    -0.3950 H     1 <1>   0.0800 
 24 H       -5.2890     4.3940    -0.7920 H     1 <1>   0.0800 
 25 H       -5.6640     4.9640     0.8060 H     1 <1>   0.0800 
 26 H       -2.8000     4.9060    -0.4420 H     1 <1>   0.0800 
 27 H       -2.0720     4.4110     1.0880 H     1 <1>   0.0800 
 28 H       -3.3450     5.5740     1.0680 H     1 <1>   0.0800 
 29 H       -6.8400     1.0010    -0.2090 H     1 <1>   0.0800 
 30 H       -6.0130     1.9330    -1.4220 H     1 <1>   0.0800 
 31 H       -7.4090     3.4300    -0.0740 H     1 <1>   0.0800 
 32 H       -6.6850     2.8350     1.3950 H     1 <1>   0.0800 
@<TRIPOS>BOND
  1   1   2  1   
  2   2   3  ar  
  3   2   4  ar  
  4   3   5  1   
  5   3   6  ar  
  6   4   7  ar  
  7   4  18  1   
  8   5   8  2   
  9   5   9  am  
 10   6  10  ar  
 11   6  19  1   
 12   7  10  ar  
 13   7  11  1   
 14   9  12  1   
 15   9  13  1   
 16  10  20  1   
 17  12  14  1   
 18  12  15  1   
 19  12  21  1   
 20  13  16  1   
 21  13  22  1   
 22  13  23  1   
 23  14  17  1   
 24  14  24  1   
 25  14  25  1   
 26  15  26  1   
 27  15  27  1   
 28  15  28  1   
 29  16  17  1   
 30  16  29  1   
 31  16  30  1   
 32  17  31  1   
 33  17  32  1   
@<TRIPOS>SUBSTRUCTURE
  1 ****   3 GROUP 4 **** **** 0

# MOE 2024.06 (io_trps.svl 2023.06)
