@<TRIPOS>MOLECULE
NONAME
42 43 1 0 0 
SMALL
USER_CHARGES


@<TRIPOS>ATOM
  1 CL       3.0030    -4.0590    -2.7970 Cl    1 <1>  -0.1770 
  2 C        3.5200    -3.1300    -1.4130 C.ar  1 <1>   0.1770 
  3 C        4.1560    -3.7690    -0.3670 C.ar  1 <1>  -0.1500 
  4 C        3.2850    -1.7690    -1.3850 C.ar  1 <1>  -0.1500 
  5 C        4.5620    -3.0300     0.7320 C.ar  1 <1>  -0.1500 
  6 C        3.6950    -1.0340    -0.2850 C.ar  1 <1>  -0.1500 
  7 C        4.3330    -1.6610     0.7770 C.ar  1 <1>  -0.1430 
  8 C        4.7920    -0.8470     1.9860 C.3   1 <1>   0.0450 
  9 C        6.2520    -0.4280     1.9240 C.2   1 <1>   0.5690 
 10 O        6.6600     0.3740     2.7280 O.2   1 <1>  -0.5700 
 11 N        7.0700    -0.9660     0.9880 N.am  1 <1>  -0.7300 
 12 C        8.5460    -0.7710     0.9070 C.3   1 <1>   0.2010 
 13 C        9.2990    -2.0330     0.4580 C.2   1 <1>   0.5690 
 14 O        8.6570    -2.8980    -0.1000 O.2   1 <1>  -0.5700 
 15 N       10.6520    -2.1690     0.6790 N.am  1 <1>  -0.6600 
 16 C       11.4910    -1.1130     1.3220 C.3   1 <1>   0.1400 
 17 C       11.3340    -3.4390     0.3030 C.3   1 <1>   0.1400 
 18 C       12.9180    -1.0120     0.7630 C.3   1 <1>  -0.1600 
 19 C       11.8520    -3.3490    -1.1360 C.3   1 <1>  -0.1600 
 20 C       13.0080    -1.0650    -0.7720 C.3   1 <1>  -0.1600 
 21 C       13.1210    -2.5000    -1.3080 C.3   1 <1>  -0.1600 
 22 H        4.3320    -4.8290    -0.4140 H     1 <1>   0.1500 
 23 H        2.7900    -1.2950    -2.2130 H     1 <1>   0.1500 
 24 H        5.0610    -3.5270     1.5470 H     1 <1>   0.1500 
 25 H        3.5160     0.0280    -0.2620 H     1 <1>   0.1500 
 26 H        4.6490    -1.4220     2.8820 H     1 <1>   0.0800 
 27 H        4.1930     0.0400     2.0770 H     1 <1>   0.0800 
 28 H        6.7140    -1.6930     0.3540 H     1 <1>   0.3700 
 29 H        8.9060    -0.4690     1.8740 H     1 <1>   0.0800 
 30 H        8.7520     0.0150     0.2040 H     1 <1>   0.0800 
 31 H       11.5390    -1.3040     2.3810 H     1 <1>   0.0800 
 32 H       11.0260    -0.1530     1.1830 H     1 <1>   0.0800 
 33 H       10.6300    -4.2520     0.3700 H     1 <1>   0.0800 
 34 H       12.1370    -3.6530     0.9870 H     1 <1>   0.0800 
 35 H       13.5350    -1.7770     1.1990 H     1 <1>   0.0800 
 36 H       13.3220    -0.0730     1.0940 H     1 <1>   0.0800 
 37 H       11.0670    -2.9710    -1.7680 H     1 <1>   0.0800 
 38 H       12.0730    -4.3470    -1.4720 H     1 <1>   0.0800 
 39 H       13.8940    -0.5330    -1.0750 H     1 <1>   0.0800 
 40 H       12.1650    -0.5650    -1.2180 H     1 <1>   0.0800 
 41 H       13.3520    -2.4540    -2.3580 H     1 <1>   0.0800 
 42 H       13.9470    -2.9950    -0.8250 H     1 <1>   0.0800 
@<TRIPOS>BOND
  1   1   2  1   
  2   2   3  ar  
  3   2   4  ar  
  4   3   5  ar  
  5   3  22  1   
  6   4   6  ar  
  7   4  23  1   
  8   5   7  ar  
  9   5  24  1   
 10   6   7  ar  
 11   6  25  1   
 12   7   8  1   
 13   8   9  1   
 14   8  26  1   
 15   8  27  1   
 16   9  10  2   
 17   9  11  am  
 18  11  12  1   
 19  11  28  1   
 20  12  13  1   
 21  12  29  1   
 22  12  30  1   
 23  13  14  2   
 24  13  15  am  
 25  15  16  1   
 26  15  17  1   
 27  16  18  1   
 28  16  31  1   
 29  16  32  1   
 30  17  19  1   
 31  17  33  1   
 32  17  34  1   
 33  18  20  1   
 34  18  35  1   
 35  18  36  1   
 36  19  21  1   
 37  19  37  1   
 38  19  38  1   
 39  20  21  1   
 40  20  39  1   
 41  20  40  1   
 42  21  41  1   
 43  21  42  1   
@<TRIPOS>SUBSTRUCTURE
  1 ****  14 GROUP 4 **** **** 0

# MOE 2024.06 (io_trps.svl 2023.06)
