@<TRIPOS>MOLECULE
NONAME
31 32 1 0 0 
SMALL
USER_CHARGES


@<TRIPOS>ATOM
  1 S       -0.3650    -0.0850    -0.4190 S.3   1 <1>  -0.0800 
  2 C        0.4590     1.4520    -0.2640 C.2   1 <1>   0.4420 
  3 C        1.1460    -0.9490    -0.2130 C.2   1 <1>  -0.0450 
  4 N        1.7250     1.3140    -0.0790 N.2   1 <1>  -0.5650 
  5 N       -0.3090     2.6080    -0.3560 N.am  1 <1>  -0.1040 
  6 C        2.1060     0.0000    -0.0510 C.2   1 <1>   0.0460 
  7 C        1.1040    -2.3840    -0.2500 C.2   1 <1>   0.8050 
  8 N       -1.7390     2.6240    -0.2190 N.pl3 1 <1>  -0.5200 
  9 C        0.1010     3.9110    -0.1810 C.2   1 <1>   0.6160 
 10 C        3.5940    -0.2100     0.1640 C.3   1 <1>  -0.0590 
 11 O        0.0820    -3.0200    -0.4220 O.2   1 <1>  -0.5700 
 12 O        2.2470    -3.0560    -0.0880 O.3   1 <1>  -0.4300 
 13 C       -2.1350     3.8920     0.0190 C.2   1 <1>  -0.0380 
 14 O        1.2590     4.3350    -0.2410 O.2   1 <1>  -0.5700 
 15 C       -1.0420     4.6940     0.0580 C.2   1 <1>  -0.1360 
 16 C        2.2900    -4.4650    -0.1100 C.3   1 <1>   0.1200 
 17 C       -3.5930     4.2630     0.1790 C.3   1 <1>  -0.1020 
 18 C        3.7370    -4.8960     0.1040 C.3   1 <1>  -0.2400 
 19 H       -2.3190     1.8500    -0.5740 H     1 <1>   0.4000 
 20 H        3.8660    -1.2460     0.1760 H     1 <1>   0.0800 
 21 H        3.8840     0.2310     1.1010 H     1 <1>   0.0800 
 22 H        4.1390     0.2780    -0.6230 H     1 <1>   0.0800 
 23 H       -0.9920     5.7510     0.2260 H     1 <1>   0.1500 
 24 H        1.9230    -4.8040    -1.0650 H     1 <1>   0.0800 
 25 H        1.6550    -4.8410     0.6750 H     1 <1>   0.0800 
 26 H       -4.0180     3.7270     1.0080 H     1 <1>   0.0800 
 27 H       -4.1370     4.0170    -0.7150 H     1 <1>   0.0800 
 28 H       -3.6900     5.3180     0.3640 H     1 <1>   0.0800 
 29 H        4.3610    -4.5080    -0.6820 H     1 <1>   0.0800 
 30 H        3.8010    -5.9690     0.0910 H     1 <1>   0.0800 
 31 H        4.0930    -4.5440     1.0550 H     1 <1>   0.0800 
@<TRIPOS>BOND
  1   1   2  1   
  2   1   3  1   
  3   2   4  2   
  4   2   5  1   
  5   3   6  2   
  6   3   7  1   
  7   4   6  1   
  8   5   8  1   
  9   5   9  am  
 10   6  10  1   
 11   7  11  2   
 12   7  12  1   
 13   8  13  1   
 14   8  19  1   
 15   9  14  2   
 16   9  15  1   
 17  10  20  1   
 18  10  21  1   
 19  10  22  1   
 20  12  16  1   
 21  13  15  2   
 22  13  17  1   
 23  15  23  1   
 24  16  18  1   
 25  16  24  1   
 26  16  25  1   
 27  17  26  1   
 28  17  27  1   
 29  17  28  1   
 30  18  29  1   
 31  18  30  1   
 32  18  31  1   
@<TRIPOS>SUBSTRUCTURE
  1 ****   2 GROUP 4 **** **** 0

# MOE 2024.06 (io_trps.svl 2023.06)
