@<TRIPOS>MOLECULE
NONAME
33 35 1 0 0 
SMALL
USER_CHARGES


@<TRIPOS>ATOM
  1 O       -0.0590     0.7240     1.2930 O.2   1 <1>  -0.5700 
  2 C       -0.2180    -0.3780     0.8290 C.2   1 <1>   0.6300 
  3 N        0.7210    -1.0530     0.1030 N.am  1 <1>  -0.5470 
  4 C       -1.5380    -1.0890     1.0900 C.3   1 <1>  -0.1000 
  5 C        2.0130    -0.7070    -0.3200 C.ar  1 <1>   0.1170 
  6 C       -2.0950    -2.1720     0.1990 C.3   1 <1>  -0.1950 
  7 C       -2.7110    -0.8180     0.1940 C.3   1 <1>  -0.1950 
  8 C        2.4980     0.5980    -0.3120 C.ar  1 <1>  -0.1500 
  9 C        2.8500    -1.7160    -0.7840 C.ar  1 <1>  -0.1500 
 10 C       -3.1470    -3.2280     0.5420 C.3   1 <1>  -0.0650 
 11 C       -3.8600    -0.6280    -0.7980 C.3   1 <1>  -0.0650 
 12 C        3.7790     0.8840    -0.7490 C.ar  1 <1>  -0.1500 
 13 C        4.1320    -1.4350    -1.2230 C.ar  1 <1>  -0.1500 
 14 C       -4.2910    -3.1450    -0.4880 C.3   1 <1>  -0.1600 
 15 C       -4.9130    -1.7310    -0.5630 C.3   1 <1>  -0.1600 
 16 C        4.5990    -0.1330    -1.2050 C.ar  1 <1>  -0.1500 
 17 H        0.4210    -1.9860    -0.1640 H     1 <1>   0.3700 
 18 H       -1.7010    -1.2060     2.1470 H     1 <1>   0.1000 
 19 H       -1.5620    -2.4300    -0.7000 H     1 <1>   0.1000 
 20 H       -3.2980    -0.4060     1.0000 H     1 <1>   0.1000 
 21 H        1.8760     1.4030     0.0330 H     1 <1>   0.1500 
 22 H        2.5010    -2.7320    -0.8010 H     1 <1>   0.1500 
 23 H       -3.5410    -3.0450     1.5280 H     1 <1>   0.0800 
 24 H       -2.7040    -4.2090     0.5340 H     1 <1>   0.0800 
 25 H       -3.4730    -0.7150    -1.7980 H     1 <1>   0.0800 
 26 H       -4.3060     0.3480    -0.7000 H     1 <1>   0.0800 
 27 H        4.1360     1.8990    -0.7330 H     1 <1>   0.1500 
 28 H        4.7680    -2.2280    -1.5770 H     1 <1>   0.1500 
 29 H       -5.0550    -3.8580    -0.2310 H     1 <1>   0.0800 
 30 H       -3.9080    -3.4110    -1.4580 H     1 <1>   0.0800 
 31 H       -5.6450    -1.7000    -1.3510 H     1 <1>   0.0800 
 32 H       -5.4240    -1.5300     0.3630 H     1 <1>   0.0800 
 33 H        5.5960     0.0890    -1.5440 H     1 <1>   0.1500 
@<TRIPOS>BOND
  1   1   2  2   
  2   2   3  am  
  3   2   4  1   
  4   3   5  1   
  5   3  17  1   
  6   4   6  1   
  7   4   7  1   
  8   4  18  1   
  9   5   8  ar  
 10   5   9  ar  
 11   6   7  1   
 12   6  10  1   
 13   6  19  1   
 14   7  11  1   
 15   7  20  1   
 16   8  12  ar  
 17   8  21  1   
 18   9  13  ar  
 19   9  22  1   
 20  10  14  1   
 21  10  23  1   
 22  10  24  1   
 23  11  15  1   
 24  11  25  1   
 25  11  26  1   
 26  12  16  ar  
 27  12  27  1   
 28  13  16  ar  
 29  13  28  1   
 30  14  15  1   
 31  14  29  1   
 32  14  30  1   
 33  15  31  1   
 34  15  32  1   
 35  16  33  1   
@<TRIPOS>SUBSTRUCTURE
  1 ****   3 GROUP 4 **** **** 0

# MOE 2024.06 (io_trps.svl 2023.06)
