@<TRIPOS>MOLECULE
NONAME
36 39 1 0 0 
SMALL
USER_CHARGES


@<TRIPOS>ATOM
  1 CL      -0.0340     0.1890    -0.4710 Cl    1 <1>  -0.1770 
  2 C       -1.5790     1.0060    -0.4050 C.ar  1 <1>   0.1770 
  3 C       -1.6800     2.3380    -0.0300 C.ar  1 <1>  -0.1440 
  4 C       -2.6960     0.2660    -0.7440 C.ar  1 <1>  -0.1500 
  5 C       -2.9490     2.9130    -0.0070 C.ar  1 <1>  -0.1500 
  6 C       -0.4230     3.1320     0.3400 C.3   1 <1>   1.1640 
  7 C       -3.9450     0.8550    -0.7140 C.ar  1 <1>  -0.1500 
  8 C       -4.0920     2.1890    -0.3460 C.ar  1 <1>   0.1170 
  9 F        0.2270     2.6050     1.3700 F     1 <1>  -0.3400 
 10 F       -0.6930     4.3840     0.6890 F     1 <1>  -0.3400 
 11 F        0.4440     3.2140    -0.6610 F     1 <1>  -0.3400 
 12 N       -5.3700     2.7950    -0.3200 N.am  1 <1>  -0.2370 
 13 C       -6.5550     2.1810     0.0570 C.2   1 <1>   0.5690 
 14 C       -5.6590     4.1000    -0.6960 C.2   1 <1>   0.5690 
 15 O       -6.7220     1.1350     0.6330 O.2   1 <1>  -0.5700 
 16 C       -7.6700     3.0440    -0.4310 C.3   1 <1>  -0.0190 
 17 O       -4.9530     4.8820    -1.2770 O.2   1 <1>  -0.5700 
 18 C       -7.0380     4.4080    -0.1970 C.3   1 <1>  -0.0190 
 19 C       -9.1370     3.3380    -0.0790 C.3   1 <1>   0.4180 
 20 C       -8.2690     5.3010    -0.3380 C.3   1 <1>   0.3380 
 21 O       -9.0410     4.5700     0.5710 O.3   1 <1>  -0.5600 
 22 C       -9.7150     3.8710    -1.3750 C.2   1 <1>  -0.2880 
 23 C       -9.9210     2.2930     0.7300 C.3   1 <1>   0.1200 
 24 C       -9.1330     5.0540    -1.5640 C.2   1 <1>  -0.2880 
 25 O       -9.7050     1.0080     0.2270 O.3   1 <1>  -0.6800 
 26 H       -2.5840    -0.7660    -1.0280 H     1 <1>   0.1500 
 27 H       -3.0630     3.9460     0.2770 H     1 <1>   0.1500 
 28 H       -4.8080     0.2680    -0.9780 H     1 <1>   0.1500 
 29 H       -7.6720     2.8060    -1.4830 H     1 <1>   0.0800 
 30 H       -6.8180     4.5310     0.8540 H     1 <1>   0.0800 
 31 H       -8.1770     6.3230    -0.0080 H     1 <1>   0.0800 
 32 H      -10.4130     3.2900    -1.9540 H     1 <1>   0.1500 
 33 H      -10.9750     2.5000     0.6730 H     1 <1>   0.0800 
 34 H       -9.6050     2.3010     1.7580 H     1 <1>   0.0800 
 35 H       -9.1930     5.7760    -2.3600 H     1 <1>   0.1500 
 36 H       -8.8130     0.6780     0.4870 H     1 <1>   0.4000 
@<TRIPOS>BOND
  1   1   2  1   
  2   2   3  ar  
  3   2   4  ar  
  4   3   5  ar  
  5   3   6  1   
  6   4   7  ar  
  7   4  26  1   
  8   5   8  ar  
  9   5  27  1   
 10   6   9  1   
 11   6  10  1   
 12   6  11  1   
 13   7   8  ar  
 14   7  28  1   
 15   8  12  1   
 16  12  13  am  
 17  12  14  am  
 18  13  15  2   
 19  13  16  1   
 20  14  17  2   
 21  14  18  1   
 22  16  18  1   
 23  16  19  1   
 24  16  29  1   
 25  18  20  1   
 26  18  30  1   
 27  19  21  1   
 28  19  22  1   
 29  19  23  1   
 30  20  21  1   
 31  20  24  1   
 32  20  31  1   
 33  22  24  2   
 34  22  32  1   
 35  23  25  1   
 36  23  33  1   
 37  23  34  1   
 38  24  35  1   
 39  25  36  1   
@<TRIPOS>SUBSTRUCTURE
  1 ****  12 GROUP 4 **** **** 0

# MOE 2024.06 (io_trps.svl 2023.06)
