@<TRIPOS>MOLECULE
NONAME
38 38 1 0 0 
SMALL
USER_CHARGES


@<TRIPOS>ATOM
  1 BR       1.1350    -0.9290    -2.2560 Br    1 <1>  -0.1110 
  2 C        0.6010    -2.0880    -0.8080 C.ar  1 <1>   0.1110 
  3 C        1.3930    -2.1790     0.3270 C.ar  1 <1>   0.0820 
  4 C       -0.5720    -2.8080    -0.9490 C.ar  1 <1>  -0.1500 
  5 O        2.5300    -1.4520     0.4400 O.3   1 <1>  -0.3630 
  6 C        0.9640    -3.0220     1.3450 C.ar  1 <1>   0.1770 
  7 C       -0.9810    -3.6510     0.0760 C.ar  1 <1>  -0.1440 
  8 C        3.7240    -2.1100     0.0800 C.3   1 <1>   0.1200 
  9 CL       1.9020    -3.1820     2.8150 Cl    1 <1>  -0.1770 
 10 C       -0.2070    -3.7520     1.2250 C.ar  1 <1>  -0.1500 
 11 C       -2.2650    -4.4500    -0.0550 C.3   1 <1>  -0.0960 
 12 C        4.8800    -1.1380     0.2920 C.3   1 <1>   0.1200 
 13 O        6.0720    -1.7720    -0.0660 O.3   1 <1>  -0.5600 
 14 C        7.2060    -0.9880     0.0980 C.3   1 <1>   0.1200 
 15 C        8.4090    -1.8280    -0.3500 C.3   1 <1>   0.3430 
 16 N        9.7110    -1.0810    -0.2680 N.4   1 <1>  -0.9590 
 17 C       10.7910    -1.8660    -0.9440 C.3   1 <1>   0.2630 
 18 C       10.1010    -0.7800     1.1470 C.3   1 <1>   0.2630 
 19 H       -1.1540    -2.7060    -1.8480 H     1 <1>   0.1500 
 20 H        3.6530    -2.3970    -0.9540 H     1 <1>   0.0800 
 21 H        3.8390    -2.9770     0.7060 H     1 <1>   0.0800 
 22 H       -0.5060    -4.3950     2.0330 H     1 <1>   0.1500 
 23 H       -3.0870    -3.8910     0.3560 H     1 <1>   0.0800 
 24 H       -2.1840    -5.3840     0.4730 H     1 <1>   0.0800 
 25 H       -2.4750    -4.6640    -1.0880 H     1 <1>   0.0800 
 26 H        4.9330    -0.8540     1.3290 H     1 <1>   0.0800 
 27 H        4.7460    -0.2690    -0.3300 H     1 <1>   0.0800 
 28 H        7.2820    -0.7210     1.1370 H     1 <1>   0.0800 
 29 H        7.1020    -0.1100    -0.5160 H     1 <1>   0.0800 
 30 H        8.2370    -2.1320    -1.3700 H     1 <1>   0.0800 
 31 H        8.4590    -2.7140     0.2610 H     1 <1>   0.0800 
 32 H        9.6020    -0.1910    -0.7790 H     1 <1>   0.4500 
 33 H       10.9350    -2.8120    -0.4470 H     1 <1>   0.0800 
 34 H       11.7210    -1.3200    -0.9230 H     1 <1>   0.0800 
 35 H       10.5290    -2.0550    -1.9730 H     1 <1>   0.0800 
 36 H       10.2030    -1.6940     1.7100 H     1 <1>   0.0800 
 37 H        9.3550    -0.1640     1.6220 H     1 <1>   0.0800 
 38 H       11.0420    -0.2540     1.1720 H     1 <1>   0.0800 
@<TRIPOS>BOND
  1   1   2  1   
  2   2   3  ar  
  3   2   4  ar  
  4   3   5  1   
  5   3   6  ar  
  6   4   7  ar  
  7   4  19  1   
  8   5   8  1   
  9   6   9  1   
 10   6  10  ar  
 11   7  10  ar  
 12   7  11  1   
 13   8  12  1   
 14   8  20  1   
 15   8  21  1   
 16  10  22  1   
 17  11  23  1   
 18  11  24  1   
 19  11  25  1   
 20  12  13  1   
 21  12  26  1   
 22  12  27  1   
 23  13  14  1   
 24  14  15  1   
 25  14  28  1   
 26  14  29  1   
 27  15  16  1   
 28  15  30  1   
 29  15  31  1   
 30  16  17  1   
 31  16  18  1   
 32  16  32  1   
 33  17  33  1   
 34  17  34  1   
 35  17  35  1   
 36  18  36  1   
 37  18  37  1   
 38  18  38  1   
@<TRIPOS>SUBSTRUCTURE
  1 ****   8 GROUP 4 **** **** 0

# MOE 2024.06 (io_trps.svl 2023.06)
