@<TRIPOS>MOLECULE
NONAME
41 42 1 0 0 
SMALL
USER_CHARGES


@<TRIPOS>ATOM
  1 O       -2.3500     1.3500     0.4550 O.co2 1 <1>  -0.9000 
  2 C       -1.8180     2.2660     1.0850 C.2   1 <1>   0.9060 
  3 O       -2.2970     2.6890     2.1450 O.co2 1 <1>  -0.9000 
  4 C       -0.5720     2.9690     0.5590 C.3   1 <1>  -0.1860 
  5 C       -0.7560     4.5110     0.3910 C.3   1 <1>  -0.0190 
  6 C        0.0370     2.3500    -0.7150 C.3   1 <1>  -0.1600 
  7 C       -2.1400     4.9620    -0.1330 C.2   1 <1>   0.5690 
  8 C        0.4160     5.1400    -0.4190 C.3   1 <1>  -0.1600 
  9 C        1.4480     2.9060    -0.9950 C.3   1 <1>  -0.1600 
 10 O       -2.2390     5.4870    -1.2200 O.2   1 <1>  -0.5700 
 11 N       -3.2210     4.7950     0.6820 N.am  1 <1>  -0.5470 
 12 C        1.6950     4.2940    -0.3730 C.3   1 <1>  -0.1600 
 13 C       -4.5770     4.8920     0.3510 C.ar  1 <1>   0.1170 
 14 C       -5.2150     6.0960     0.0480 C.ar  1 <1>  -0.1440 
 15 C       -5.3130     3.7150     0.3480 C.ar  1 <1>  -0.1500 
 16 C       -6.5670     6.0930    -0.2580 C.ar  1 <1>  -0.1500 
 17 C       -4.4580     7.4170     0.0500 C.3   1 <1>  -0.0970 
 18 C       -6.6610     3.7170     0.0440 C.ar  1 <1>  -0.1500 
 19 C       -7.2980     4.9160    -0.2640 C.ar  1 <1>   0.0820 
 20 O       -8.6190     5.0130    -0.5770 O.3   1 <1>  -0.3620 
 21 C       -9.4220     3.8570    -0.6570 C.3   1 <1>   0.0400 
 22 H        0.1470     2.8170     1.3420 H     1 <1>   0.0800 
 23 H       -0.6920     4.9140     1.3860 H     1 <1>   0.0800 
 24 H       -0.6170     2.5690    -1.5430 H     1 <1>   0.0800 
 25 H        0.0820     1.2780    -0.6180 H     1 <1>   0.0800 
 26 H        0.6110     6.1320    -0.0530 H     1 <1>   0.0800 
 27 H        0.1440     5.2300    -1.4570 H     1 <1>   0.0800 
 28 H        1.5860     2.9590    -2.0610 H     1 <1>   0.0800 
 29 H        2.1830     2.2220    -0.6070 H     1 <1>   0.0800 
 30 H       -3.0340     4.1140     1.4460 H     1 <1>   0.3700 
 31 H        2.0050     4.1830     0.6520 H     1 <1>   0.0800 
 32 H        2.4870     4.7920    -0.9040 H     1 <1>   0.0800 
 33 H       -4.8090     2.7900     0.5830 H     1 <1>   0.1500 
 34 H       -7.0730     7.0090    -0.4990 H     1 <1>   0.1500 
 35 H       -3.8940     7.5090    -0.8600 H     1 <1>   0.0800 
 36 H       -3.7790     7.4540     0.8820 H     1 <1>   0.0800 
 37 H       -5.1340     8.2480     0.1260 H     1 <1>   0.0800 
 38 H       -7.1840     2.7810     0.0530 H     1 <1>   0.1500 
 39 H      -10.4150     4.1600    -0.9360 H     1 <1>   0.0800 
 40 H       -9.4420     3.3790     0.3070 H     1 <1>   0.0800 
 41 H       -9.0150     3.2010    -1.4050 H     1 <1>   0.0800 
@<TRIPOS>BOND
  1   1   2  ar  
  2   2   3  ar  
  3   2   4  1   
  4   4   5  1   
  5   4   6  1   
  6   4  22  1   
  7   5   7  1   
  8   5   8  1   
  9   5  23  1   
 10   6   9  1   
 11   6  24  1   
 12   6  25  1   
 13   7  10  2   
 14   7  11  am  
 15   8  12  1   
 16   8  26  1   
 17   8  27  1   
 18   9  12  1   
 19   9  28  1   
 20   9  29  1   
 21  11  13  1   
 22  11  30  1   
 23  12  31  1   
 24  12  32  1   
 25  13  14  ar  
 26  13  15  ar  
 27  14  16  ar  
 28  14  17  1   
 29  15  18  ar  
 30  15  33  1   
 31  16  19  ar  
 32  16  34  1   
 33  17  35  1   
 34  17  36  1   
 35  17  37  1   
 36  18  19  ar  
 37  18  38  1   
 38  19  20  1   
 39  20  21  1   
 40  21  39  1   
 41  21  40  1   
 42  21  41  1   
@<TRIPOS>SUBSTRUCTURE
  1 ****  11 GROUP 4 **** **** 0

# MOE 2024.06 (io_trps.svl 2023.06)
