@<TRIPOS>MOLECULE
NONAME
51 53 1 0 0 
SMALL
USER_CHARGES


@<TRIPOS>ATOM
  1 O       -1.7320     3.5310    -1.1360 O.2   1 <1>  -0.5700 
  2 C       -1.1270     2.9780    -0.2540 C.2   1 <1>   0.5690 
  3 N       -1.6250     1.9330     0.4710 N.am  1 <1>  -0.5470 
  4 C        0.2570     3.4670     0.0920 C.3   1 <1>  -0.1790 
  5 C       -2.8510     1.2640     0.3460 C.ar  1 <1>   0.1170 
  6 C       -3.4350     0.6940     1.4700 C.ar  1 <1>  -0.1500 
  7 C       -3.5050     1.1310    -0.8740 C.ar  1 <1>  -0.1500 
  8 C       -4.6440     0.0270     1.3840 C.ar  1 <1>  -0.1500 
  9 C       -4.7120     0.4640    -0.9680 C.ar  1 <1>  -0.1500 
 10 C       -5.2960    -0.0860     0.1640 C.ar  1 <1>  -0.1430 
 11 C       -6.6320    -0.7970     0.0680 C.3   1 <1>   0.4860 
 12 N       -7.6950     0.2140    -0.1710 N.4   1 <1>  -0.9590 
 13 C       -7.8000     1.2010     0.9690 C.3   1 <1>   0.3430 
 14 C       -9.0300    -0.4290    -0.4540 C.3   1 <1>   0.3430 
 15 C       -8.9180     2.2410     0.7500 C.3   1 <1>   0.2090 
 16 C      -10.1470     0.6080    -0.6840 C.3   1 <1>   0.2090 
 17 N      -10.2200     1.5720     0.4510 N.pl3 1 <1>  -0.8380 
 18 C      -11.3210     2.4400     0.4060 C.ar  1 <1>   0.1000 
 19 C      -11.5020     3.4310    -0.5770 C.ar  1 <1>   0.0820 
 20 C      -12.2810     2.3000     1.3980 C.ar  1 <1>  -0.1500 
 21 O      -10.5470     3.5630    -1.5520 O.3   1 <1>  -0.3620 
 22 C      -12.6330     4.2410    -0.5350 C.ar  1 <1>  -0.1500 
 23 C      -13.4010     3.1100     1.4320 C.ar  1 <1>  -0.1500 
 24 C      -10.6310     4.5860    -2.5230 C.3   1 <1>   0.0400 
 25 C      -13.5770     4.0810     0.4650 C.ar  1 <1>  -0.1500 
 26 H       -1.0330     1.6190     1.2370 H     1 <1>   0.3700 
 27 H        0.2680     3.8530     1.0940 H     1 <1>   0.0800 
 28 H        0.5420     4.2530    -0.5840 H     1 <1>   0.0800 
 29 H        0.9630     2.6630     0.0050 H     1 <1>   0.0800 
 30 H       -2.9400     0.7780     2.4210 H     1 <1>   0.1500 
 31 H       -3.0620     1.5520    -1.7610 H     1 <1>   0.1500 
 32 H       -5.0650    -0.4010     2.2790 H     1 <1>   0.1500 
 33 H       -5.1780     0.3820    -1.9350 H     1 <1>   0.1500 
 34 H       -6.8290    -1.3360     0.9800 H     1 <1>   0.0800 
 35 H       -6.6000    -1.5020    -0.7470 H     1 <1>   0.0800 
 36 H       -7.4180     0.7600    -0.9960 H     1 <1>   0.4500 
 37 H       -6.8640     1.7190     1.0940 H     1 <1>   0.0800 
 38 H       -8.0120     0.6740     1.8850 H     1 <1>   0.0800 
 39 H       -9.3180    -1.0440     0.3820 H     1 <1>   0.0800 
 40 H       -8.9570    -1.0610    -1.3230 H     1 <1>   0.0800 
 41 H       -8.6460     2.8970    -0.0570 H     1 <1>   0.0800 
 42 H       -9.0270     2.8410     1.6380 H     1 <1>   0.0800 
 43 H      -11.0940     0.1020    -0.7750 H     1 <1>   0.0800 
 44 H       -9.9670     1.1350    -1.6050 H     1 <1>   0.0800 
 45 H      -12.1440     1.5450     2.1490 H     1 <1>   0.1500 
 46 H      -12.8080     5.0060    -1.2680 H     1 <1>   0.1500 
 47 H      -14.1330     2.9840     2.2110 H     1 <1>   0.1500 
 48 H       -9.7650     4.5200    -3.1560 H     1 <1>   0.0800 
 49 H      -10.6470     5.5400    -2.0260 H     1 <1>   0.0800 
 50 H      -11.5220     4.4410    -3.1080 H     1 <1>   0.0800 
 51 H      -14.4480     4.7120     0.4910 H     1 <1>   0.1500 
@<TRIPOS>BOND
  1   1   2  2   
  2   2   3  am  
  3   2   4  1   
  4   3   5  1   
  5   3  26  1   
  6   4  27  1   
  7   4  28  1   
  8   4  29  1   
  9   5   6  ar  
 10   5   7  ar  
 11   6   8  ar  
 12   6  30  1   
 13   7   9  ar  
 14   7  31  1   
 15   8  10  ar  
 16   8  32  1   
 17   9  10  ar  
 18   9  33  1   
 19  10  11  1   
 20  11  12  1   
 21  11  34  1   
 22  11  35  1   
 23  12  13  1   
 24  12  14  1   
 25  12  36  1   
 26  13  15  1   
 27  13  37  1   
 28  13  38  1   
 29  14  16  1   
 30  14  39  1   
 31  14  40  1   
 32  15  17  1   
 33  15  41  1   
 34  15  42  1   
 35  16  17  1   
 36  16  43  1   
 37  16  44  1   
 38  17  18  1   
 39  18  19  ar  
 40  18  20  ar  
 41  19  21  1   
 42  19  22  ar  
 43  20  23  ar  
 44  20  45  1   
 45  21  24  1   
 46  22  25  ar  
 47  22  46  1   
 48  23  25  ar  
 49  23  47  1   
 50  24  48  1   
 51  24  49  1   
 52  24  50  1   
 53  25  51  1   
@<TRIPOS>SUBSTRUCTURE
  1 ****  13 GROUP 4 **** **** 0

# MOE 2024.06 (io_trps.svl 2023.06)
