@<TRIPOS>MOLECULE
NONAME
45 46 1 0 0 
SMALL
USER_CHARGES


@<TRIPOS>ATOM
  1 S        0.6070     0.3610    -0.7150 S.3   1 <1>  -0.3320 
  2 C       -0.9660     1.1800    -0.3960 C.ar  1 <1>   0.1020 
  3 C        1.5120     0.3090     0.9090 C.3   1 <1>   0.1310 
  4 C       -1.3750     1.5260     0.8820 C.ar  1 <1>  -0.1500 
  5 C       -1.7620     1.4550    -1.4920 C.ar  1 <1>  -0.1500 
  6 C        2.9300    -0.2190     0.7340 C.2   1 <1>   0.5690 
  7 C       -2.5930     2.1620     1.0540 C.ar  1 <1>  -0.1500 
  8 C       -2.9790     2.0900    -1.3110 C.ar  1 <1>  -0.1500 
  9 O        3.1690    -1.3010     1.2190 O.2   1 <1>  -0.5700 
 10 N        3.9020     0.5140     0.0890 N.am  1 <1>  -0.6600 
 11 C       -3.3980     2.4480    -0.0390 C.ar  1 <1>  -0.1430 
 12 C        3.6850     1.8380    -0.5590 C.3   1 <1>   0.1400 
 13 C        5.2870    -0.0150    -0.0600 C.3   1 <1>   0.1400 
 14 C       -4.7330     3.1430     0.1560 C.3   1 <1>  -0.0970 
 15 C        4.6670     2.8600     0.0190 C.3   1 <1>  -0.1600 
 16 C        6.2840     0.9880     0.5250 C.3   1 <1>  -0.1600 
 17 C        6.1270     2.3860    -0.1090 C.3   1 <1>  -0.0190 
 18 C        7.0890     3.4170     0.4770 C.2   1 <1>   0.6590 
 19 O        7.6550     3.2590     1.5290 O.2   1 <1>  -0.5700 
 20 O        7.2570     4.5130    -0.2510 O.3   1 <1>  -0.4300 
 21 C        8.1090     5.5520     0.1720 C.3   1 <1>   0.1200 
 22 C        8.0640     6.6580    -0.8780 C.3   1 <1>  -0.2400 
 23 H        0.9550    -0.3420     1.5570 H     1 <1>   0.0800 
 24 H        1.5280     1.3040     1.3100 H     1 <1>   0.0800 
 25 H       -0.7740     1.3100     1.7430 H     1 <1>   0.1500 
 26 H       -1.4320     1.1740    -2.4760 H     1 <1>   0.1500 
 27 H       -2.9160     2.4310     2.0450 H     1 <1>   0.1500 
 28 H       -3.5970     2.3030    -2.1660 H     1 <1>   0.1500 
 29 H        2.6820     2.1910    -0.4100 H     1 <1>   0.0800 
 30 H        3.8430     1.7360    -1.6190 H     1 <1>   0.0800 
 31 H        5.4910    -0.1730    -1.1050 H     1 <1>   0.0800 
 32 H        5.3940    -0.9600     0.4440 H     1 <1>   0.0800 
 33 H       -4.7060     3.7780     1.0240 H     1 <1>   0.0800 
 34 H       -5.5090     2.4100     0.2850 H     1 <1>   0.0800 
 35 H       -4.9690     3.7510    -0.6990 H     1 <1>   0.0800 
 36 H        4.4290     3.0260     1.0560 H     1 <1>   0.0800 
 37 H        4.5440     3.7950    -0.4980 H     1 <1>   0.0800 
 38 H        7.2850     0.6280     0.3650 H     1 <1>   0.0800 
 39 H        6.1270     1.0470     1.5890 H     1 <1>   0.0800 
 40 H        6.3620     2.3010    -1.1550 H     1 <1>   0.0800 
 41 H        9.1050     5.1560     0.2760 H     1 <1>   0.0800 
 42 H        7.7620     5.9100     1.1270 H     1 <1>   0.0800 
 43 H        8.4030     6.2830    -1.8260 H     1 <1>   0.0800 
 44 H        8.7070     7.4660    -0.5790 H     1 <1>   0.0800 
 45 H        7.0620     7.0360    -0.9760 H     1 <1>   0.0800 
@<TRIPOS>BOND
  1   1   2  1   
  2   1   3  1   
  3   2   4  ar  
  4   2   5  ar  
  5   3   6  1   
  6   3  23  1   
  7   3  24  1   
  8   4   7  ar  
  9   4  25  1   
 10   5   8  ar  
 11   5  26  1   
 12   6   9  2   
 13   6  10  am  
 14   7  11  ar  
 15   7  27  1   
 16   8  11  ar  
 17   8  28  1   
 18  10  12  1   
 19  10  13  1   
 20  11  14  1   
 21  12  15  1   
 22  12  29  1   
 23  12  30  1   
 24  13  16  1   
 25  13  31  1   
 26  13  32  1   
 27  14  33  1   
 28  14  34  1   
 29  14  35  1   
 30  15  17  1   
 31  15  36  1   
 32  15  37  1   
 33  16  17  1   
 34  16  38  1   
 35  16  39  1   
 36  17  18  1   
 37  17  40  1   
 38  18  19  2   
 39  18  20  1   
 40  20  21  1   
 41  21  22  1   
 42  21  41  1   
 43  21  42  1   
 44  22  43  1   
 45  22  44  1   
 46  22  45  1   
@<TRIPOS>SUBSTRUCTURE
  1 ****  12 GROUP 4 **** **** 0

# MOE 2024.06 (io_trps.svl 2023.06)
