@<TRIPOS>MOLECULE
NONAME
56 58 1 0 0 
SMALL
USER_CHARGES


@<TRIPOS>ATOM
  1 O        0.9720     0.5470     1.6610 O.2   1 <1>  -0.5700 
  2 C        1.9400     1.0980     1.1780 C.2   1 <1>   0.6900 
  3 N        1.8140     2.3730     0.6360 N.am  1 <1>  -0.4200 
  4 N        3.1660     0.4500     1.1600 N.am  1 <1>  -0.4360 
  5 C        2.8880     3.0010     0.0180 C.2   1 <1>   0.7030 
  6 C        0.4810     3.0510     0.6900 C.3   1 <1>   0.0600 
  7 C        4.2270     1.0850     0.5450 C.2   1 <1>   0.4260 
  8 C        3.3280    -0.9080     1.7590 C.3   1 <1>   0.0600 
  9 O        2.7600     4.1080    -0.4780 O.2   1 <1>  -0.5700 
 10 C        4.1470     2.3130    -0.0220 C.2   1 <1>   0.2770 
 11 N        5.4940     0.6340     0.3890 N.pl3 1 <1>  -0.7000 
 12 N        5.4180     2.6020    -0.5370 N.pl3 1 <1>  -0.7640 
 13 C        6.1930     1.5560    -0.2590 C.cat 1 <1>   0.6560 
 14 C        5.7570     3.8700    -1.2370 C.3   1 <1>   0.3540 
 15 C        7.6800     1.3480    -0.5860 C.3   1 <1>   0.2540 
 16 C        6.0670     4.9500    -0.2030 C.3   1 <1>  -0.1600 
 17 N        8.0580    -0.0940    -0.4630 N.3   1 <1>  -0.8100 
 18 C        6.4000     6.2740    -0.8890 C.3   1 <1>   0.1200 
 19 C        9.4900    -0.3610    -0.1400 C.3   1 <1>   0.1900 
 20 C        7.6470    -0.7980    -1.6990 C.3   1 <1>   0.1100 
 21 O        6.8220     7.1560     0.0810 O.3   1 <1>  -0.6800 
 22 C        9.6970    -1.8850     0.0050 C.3   1 <1>  -0.1600 
 23 C        9.9170     0.3580     1.1640 C.3   1 <1>  -0.1600 
 24 C        7.7680    -2.3080    -1.5250 C.3   1 <1>  -0.1600 
 25 C        9.2130    -2.6830    -1.2080 C.3   1 <1>  -0.1600 
 26 C       11.3090    -0.0220     1.6940 C.3   1 <1>  -0.2400 
 27 H       -0.0010     2.8470     1.6320 H     1 <1>   0.0800 
 28 H       -0.1440     2.6820    -0.1040 H     1 <1>   0.0800 
 29 H        0.5820     4.1180     0.5900 H     1 <1>   0.0800 
 30 H        2.5520    -1.1010     2.4810 H     1 <1>   0.0800 
 31 H        4.2770    -0.9850     2.2600 H     1 <1>   0.0800 
 32 H        3.2710    -1.6550     0.9850 H     1 <1>   0.0800 
 33 H        5.9280    -0.2530     0.6700 H     1 <1>   0.4500 
 34 H        4.9300     4.1760    -1.8560 H     1 <1>   0.0800 
 35 H        6.6110     3.7200    -1.8760 H     1 <1>   0.0800 
 36 H        8.2210     1.9590     0.1060 H     1 <1>   0.0800 
 37 H        7.8980     1.7040    -1.5770 H     1 <1>   0.0800 
 38 H        6.9110     4.6420     0.3880 H     1 <1>   0.0800 
 39 H        5.2140     5.0950     0.4360 H     1 <1>   0.0800 
 40 H        5.5440     6.6970    -1.3900 H     1 <1>   0.0800 
 41 H        7.2080     6.1570    -1.5920 H     1 <1>   0.0800 
 42 H       10.1090    -0.0090    -0.9500 H     1 <1>   0.0800 
 43 H        8.2660    -0.4820    -2.5240 H     1 <1>   0.0800 
 44 H        6.6230    -0.5680    -1.9410 H     1 <1>   0.0800 
 45 H        6.0770     7.4630     0.6350 H     1 <1>   0.4000 
 46 H        9.1800    -2.2260     0.8850 H     1 <1>   0.0800 
 47 H       10.7410    -2.1030     0.1360 H     1 <1>   0.0800 
 48 H        9.1930     0.1580     1.9340 H     1 <1>   0.0800 
 49 H        9.9570     1.4170     0.9970 H     1 <1>   0.0800 
 50 H        7.4610    -2.8010    -2.4310 H     1 <1>   0.0800 
 51 H        7.1180    -2.6340    -0.7330 H     1 <1>   0.0800 
 52 H        9.2850    -3.7380    -1.0070 H     1 <1>   0.0800 
 53 H        9.8380    -2.4610    -2.0560 H     1 <1>   0.0800 
 54 H       11.3210    -1.0280     2.0730 H     1 <1>   0.0800 
 55 H       11.5820     0.6340     2.5020 H     1 <1>   0.0800 
 56 H       12.0490     0.0720     0.9180 H     1 <1>   0.0800 
@<TRIPOS>BOND
  1   1   2  2   
  2   2   3  am  
  3   2   4  am  
  4   3   5  am  
  5   3   6  1   
  6   4   7  1   
  7   4   8  1   
  8   5   9  2   
  9   5  10  1   
 10   6  27  1   
 11   6  28  1   
 12   6  29  1   
 13   7  10  2   
 14   7  11  1   
 15   8  30  1   
 16   8  31  1   
 17   8  32  1   
 18  10  12  1   
 19  11  13  ar  
 20  11  33  1   
 21  12  13  ar  
 22  12  14  1   
 23  13  15  1   
 24  14  16  1   
 25  14  34  1   
 26  14  35  1   
 27  15  17  1   
 28  15  36  1   
 29  15  37  1   
 30  16  18  1   
 31  16  38  1   
 32  16  39  1   
 33  17  19  1   
 34  17  20  1   
 35  18  21  1   
 36  18  40  1   
 37  18  41  1   
 38  19  22  1   
 39  19  23  1   
 40  19  42  1   
 41  20  24  1   
 42  20  43  1   
 43  20  44  1   
 44  21  45  1   
 45  22  25  1   
 46  22  46  1   
 47  22  47  1   
 48  23  26  1   
 49  23  48  1   
 50  23  49  1   
 51  24  25  1   
 52  24  50  1   
 53  24  51  1   
 54  25  52  1   
 55  25  53  1   
 56  26  54  1   
 57  26  55  1   
 58  26  56  1   
@<TRIPOS>SUBSTRUCTURE
  1 ****  13 GROUP 4 **** **** 0

# MOE 2024.06 (io_trps.svl 2023.06)
