@<TRIPOS>MOLECULE
NONAME
40 41 1 0 0 
SMALL
USER_CHARGES


@<TRIPOS>ATOM
  1 O       -0.1570    -0.1670    -1.5490 O.2   1 <1>  -0.5700 
  2 C       -0.1910    -1.1310    -0.8230 C.2   1 <1>   0.5690 
  3 N        0.9370    -1.6120    -0.2480 N.am  1 <1>  -0.7300 
  4 C       -1.5250    -1.8230    -0.5500 C.3   1 <1>  -0.0190 
  5 C        2.3020    -1.0590    -0.4630 C.3   1 <1>   0.2010 
  6 C       -1.9050    -1.7600     0.9430 C.3   1 <1>  -0.1600 
  7 C       -1.5240    -3.2810    -1.0520 C.3   1 <1>  -0.1600 
  8 C        3.4120    -1.9410     0.1230 C.2   1 <1>   0.5690 
  9 C       -3.2490    -2.4510     1.2110 C.3   1 <1>  -0.1600 
 10 C       -2.8690    -3.9700    -0.7800 C.3   1 <1>  -0.1600 
 11 O        3.0860    -2.8930     0.8000 O.2   1 <1>  -0.5700 
 12 N        4.7340    -1.6530    -0.1140 N.am  1 <1>  -0.6600 
 13 C       -3.2380    -3.9000     0.7070 C.3   1 <1>  -0.1600 
 14 C        5.2430    -0.4820    -0.8930 C.3   1 <1>   0.1400 
 15 C        5.8320    -2.5170     0.4200 C.3   1 <1>   0.1400 
 16 C        6.3470     0.2520    -0.1100 C.3   1 <1>   0.1200 
 17 C        6.9010    -1.6660     1.1240 C.3   1 <1>   0.1200 
 18 O        7.3490    -0.6410     0.2820 O.3   1 <1>  -0.5600 
 19 H        0.9200    -2.4450     0.3500 H     1 <1>   0.3700 
 20 H       -2.2760    -1.2860    -1.1030 H     1 <1>   0.0800 
 21 H        2.3530    -0.0880    -0.0060 H     1 <1>   0.0800 
 22 H        2.4630    -0.9480    -1.5200 H     1 <1>   0.0800 
 23 H       -1.9640    -0.7300     1.2520 H     1 <1>   0.0800 
 24 H       -1.1410    -2.2370     1.5330 H     1 <1>   0.0800 
 25 H       -0.7420    -3.8340    -0.5610 H     1 <1>   0.0800 
 26 H       -1.3230    -3.2940    -2.1090 H     1 <1>   0.0800 
 27 H       -4.0350    -1.9080     0.7140 H     1 <1>   0.0800 
 28 H       -3.4560    -2.4380     2.2670 H     1 <1>   0.0800 
 29 H       -2.8160    -4.9990    -1.0910 H     1 <1>   0.0800 
 30 H       -3.6390    -3.4900    -1.3610 H     1 <1>   0.0800 
 31 H       -4.2080    -4.3420     0.8590 H     1 <1>   0.0800 
 32 H       -2.5240    -4.4700     1.2780 H     1 <1>   0.0800 
 33 H        4.4540     0.2130    -1.1130 H     1 <1>   0.0800 
 34 H        5.6510    -0.8300    -1.8260 H     1 <1>   0.0800 
 35 H        6.2860    -3.0550    -0.3930 H     1 <1>   0.0800 
 36 H        5.4430    -3.2400     1.1170 H     1 <1>   0.0800 
 37 H        5.9420     0.7230     0.7690 H     1 <1>   0.0800 
 38 H        6.8030     1.0050    -0.7270 H     1 <1>   0.0800 
 39 H        7.7500    -2.2750     1.3800 H     1 <1>   0.0800 
 40 H        6.5050    -1.2280     2.0230 H     1 <1>   0.0800 
@<TRIPOS>BOND
  1   1   2  2   
  2   2   3  am  
  3   2   4  1   
  4   3   5  1   
  5   3  19  1   
  6   4   6  1   
  7   4   7  1   
  8   4  20  1   
  9   5   8  1   
 10   5  21  1   
 11   5  22  1   
 12   6   9  1   
 13   6  23  1   
 14   6  24  1   
 15   7  10  1   
 16   7  25  1   
 17   7  26  1   
 18   8  11  2   
 19   8  12  am  
 20   9  13  1   
 21   9  27  1   
 22   9  28  1   
 23  10  13  1   
 24  10  29  1   
 25  10  30  1   
 26  12  14  1   
 27  12  15  1   
 28  13  31  1   
 29  13  32  1   
 30  14  16  1   
 31  14  33  1   
 32  14  34  1   
 33  15  17  1   
 34  15  35  1   
 35  15  36  1   
 36  16  18  1   
 37  16  37  1   
 38  16  38  1   
 39  17  18  1   
 40  17  39  1   
 41  17  40  1   
@<TRIPOS>SUBSTRUCTURE
  1 ****   3 GROUP 4 **** **** 0

# MOE 2024.06 (io_trps.svl 2023.06)
