@<TRIPOS>MOLECULE
NONAME
28 28 1 0 0 
SMALL
USER_CHARGES


@<TRIPOS>ATOM
  1 S       -0.1630    -0.1790    -0.0370 S.o2  1 <1>   1.3830 
  2 O       -0.2570    -0.6510    -1.4020 O.2   1 <1>  -0.6500 
  3 O       -0.1560    -1.1350     1.0490 O.2   1 <1>  -0.6500 
  4 N       -1.4000     0.9080     0.2240 N.2   1 <1>  -0.6380 
  5 C        1.2930     0.8650     0.1090 C.3   1 <1>  -0.0550 
  6 C       -2.5730     0.4100     0.1970 C.2   1 <1>   0.4860 
  7 C        2.6200     0.1130    -0.0930 C.3   1 <1>  -0.1600 
  8 N       -3.6780     1.1820     0.3710 N.pl3 1 <1>  -0.4710 
  9 C       -3.0970    -0.8920    -0.0330 C.2   1 <1>  -0.1360 
 10 C        3.8210     1.0570     0.0430 C.3   1 <1>  -0.1600 
 11 O       -4.8260     0.4370     0.2090 O.3   1 <1>  -0.0560 
 12 C       -4.4380    -0.8060    -0.0240 C.2   1 <1>  -0.0620 
 13 C        5.1370     0.3010    -0.1600 C.3   1 <1>  -0.2400 
 14 C       -5.5000    -1.8670    -0.2240 C.3   1 <1>  -0.1020 
 15 H        1.2970     1.3170     1.0820 H     1 <1>   0.0800 
 16 H        1.2270     1.6520    -0.6160 H     1 <1>   0.0800 
 17 H        2.6240    -0.3390    -1.0710 H     1 <1>   0.0800 
 18 H        2.6940    -0.6760     0.6370 H     1 <1>   0.0800 
 19 H       -3.7020     2.1690     0.1180 H     1 <1>   0.4000 
 20 H       -2.4940    -1.7680    -0.1900 H     1 <1>   0.1500 
 21 H        3.8210     1.5070     1.0220 H     1 <1>   0.0800 
 22 H        3.7510     1.8440    -0.6880 H     1 <1>   0.0800 
 23 H        5.2410    -0.4790     0.5750 H     1 <1>   0.0800 
 24 H        5.9690     0.9760    -0.0610 H     1 <1>   0.0800 
 25 H        5.1700    -0.1400    -1.1400 H     1 <1>   0.0800 
 26 H       -6.1150    -1.6140    -1.0690 H     1 <1>   0.0800 
 27 H       -6.1190    -1.9330     0.6520 H     1 <1>   0.0800 
 28 H       -5.0410    -2.8230    -0.4000 H     1 <1>   0.0800 
@<TRIPOS>BOND
  1   1   2  2   
  2   1   3  2   
  3   1   4  1   
  4   1   5  1   
  5   4   6  2   
  6   5   7  1   
  7   5  15  1   
  8   5  16  1   
  9   6   8  1   
 10   6   9  1   
 11   7  10  1   
 12   7  17  1   
 13   7  18  1   
 14   8  11  1   
 15   8  19  1   
 16   9  12  2   
 17   9  20  1   
 18  10  13  1   
 19  10  21  1   
 20  10  22  1   
 21  11  12  1   
 22  12  14  1   
 23  13  23  1   
 24  13  24  1   
 25  13  25  1   
 26  14  26  1   
 27  14  27  1   
 28  14  28  1   
@<TRIPOS>SUBSTRUCTURE
  1 ****   1 GROUP 4 **** **** 0

# MOE 2024.06 (io_trps.svl 2023.06)
