@<TRIPOS>MOLECULE
NONAME
36 37 1 0 0 
SMALL
USER_CHARGES


@<TRIPOS>ATOM
  1 O        2.8190     3.4500    -2.5930 O.2   1 <1>  -0.5700 
  2 C        2.5800     2.7240    -1.6410 C.2   1 <1>   0.6300 
  3 N        3.5890     1.8490    -1.3400 N.am  1 <1>  -0.7300 
  4 C        1.3490     2.7730    -0.8720 C.2   1 <1>   0.3890 
  5 C        3.5720     0.8680    -0.2420 C.3   1 <1>   0.1400 
  6 N        0.3930     3.6190    -1.0860 N.2   1 <1>  -0.4920 
  7 C        1.2420     1.7480     0.2750 C.3   1 <1>  -0.0990 
  8 C        2.1200     0.5010     0.0670 C.3   1 <1>  -0.1600 
  9 N       -0.7270     3.6600    -0.3040 N.pl3 1 <1>  -0.4580 
 10 C       -1.8210     4.5270    -0.4550 C.ar  1 <1>   0.1000 
 11 C       -2.8910     4.4430     0.4420 C.ar  1 <1>   0.0830 
 12 C       -1.8640     5.4650    -1.4770 C.ar  1 <1>  -0.1500 
 13 O       -2.8000     3.5010     1.4310 O.3   1 <1>  -0.3630 
 14 C       -3.9830     5.2960     0.3040 C.ar  1 <1>  -0.1500 
 15 C       -2.9500     6.3110    -1.6100 C.ar  1 <1>  -0.1500 
 16 C       -3.8240     3.3400     2.3880 C.3   1 <1>   0.0400 
 17 C       -4.0120     6.2330    -0.7250 C.ar  1 <1>   0.0830 
 18 O       -5.0380     7.1020    -0.9320 O.3   1 <1>  -0.3630 
 19 C       -6.1700     7.1130    -0.0910 C.3   1 <1>   0.0400 
 20 H        4.4320     1.9340    -1.9120 H     1 <1>   0.3700 
 21 H        4.1200    -0.0130    -0.5350 H     1 <1>   0.0800 
 22 H        4.0440     1.2980     0.6250 H     1 <1>   0.0800 
 23 H        1.5290     2.2410     1.1870 H     1 <1>   0.0800 
 24 H        0.2270     1.4110     0.3810 H     1 <1>   0.0800 
 25 H        1.7280    -0.0790    -0.7520 H     1 <1>   0.0800 
 26 H        2.0870    -0.1180     0.9460 H     1 <1>   0.0800 
 27 H       -0.8380     3.0290     0.5000 H     1 <1>   0.4000 
 28 H       -1.0410     5.5280    -2.1660 H     1 <1>   0.1500 
 29 H       -4.8020     5.2350     0.9880 H     1 <1>   0.1500 
 30 H       -2.9770     7.0350    -2.4040 H     1 <1>   0.1500 
 31 H       -3.5340     2.5510     3.0580 H     1 <1>   0.0800 
 32 H       -4.7350     3.0730     1.8830 H     1 <1>   0.0800 
 33 H       -3.9390     4.2590     2.9350 H     1 <1>   0.0800 
 34 H       -6.8390     7.8760    -0.4440 H     1 <1>   0.0800 
 35 H       -5.8570     7.3380     0.9130 H     1 <1>   0.0800 
 36 H       -6.6510     6.1520    -0.1420 H     1 <1>   0.0800 
@<TRIPOS>BOND
  1   1   2  2   
  2   2   3  am  
  3   2   4  1   
  4   3   5  1   
  5   3  20  1   
  6   4   6  2   
  7   4   7  1   
  8   5   8  1   
  9   5  21  1   
 10   5  22  1   
 11   6   9  1   
 12   7   8  1   
 13   7  23  1   
 14   7  24  1   
 15   8  25  1   
 16   8  26  1   
 17   9  10  1   
 18   9  27  1   
 19  10  11  ar  
 20  10  12  ar  
 21  11  13  1   
 22  11  14  ar  
 23  12  15  ar  
 24  12  28  1   
 25  13  16  1   
 26  14  17  ar  
 27  14  29  1   
 28  15  17  ar  
 29  15  30  1   
 30  16  31  1   
 31  16  32  1   
 32  16  33  1   
 33  17  18  1   
 34  18  19  1   
 35  19  34  1   
 36  19  35  1   
 37  19  36  1   
@<TRIPOS>SUBSTRUCTURE
  1 ****   9 GROUP 4 **** **** 0

# MOE 2024.06 (io_trps.svl 2023.06)
