@<TRIPOS>MOLECULE
NONAME
50 53 1 0 0 
SMALL
USER_CHARGES


@<TRIPOS>ATOM
  1 O        0.2890     0.8520     0.9180 O.2   1 <1>  -0.5700 
  2 C        0.8400     1.5000     0.0610 C.2   1 <1>   0.5690 
  3 N        1.9790     1.0840    -0.5790 N.am  1 <1>  -0.5470 
  4 C        0.1930     2.8500    -0.2850 C.3   1 <1>   0.4040 
  5 C        2.7070    -0.0860    -0.3350 C.ar  1 <1>   0.1170 
  6 N       -1.2160     2.9420     0.2450 N.4   1 <1>  -0.9060 
  7 C        2.1660    -1.3940    -0.4690 C.ar  1 <1>   0.0000 
  8 C        4.0240    -0.0050     0.0340 C.ar  1 <1>  -0.1430 
  9 C       -1.7550     4.3020     0.4100 C.3   1 <1>   0.4230 
 10 C        3.0120    -2.4950    -0.1810 C.ar  1 <1>   0.3100 
 11 C        0.8460    -1.6710    -0.8940 C.ar  1 <1>  -0.1500 
 12 C        4.7550    -1.1530     0.2830 C.ar  1 <1>   0.1670 
 13 C        4.8820     1.2260     0.2440 C.3   1 <1>  -0.0170 
 14 C       -3.0710     4.2030     1.1880 C.3   1 <1>  -0.1600 
 15 C       -1.9710     4.9520    -0.9640 C.3   1 <1>  -0.1600 
 16 N        4.3090    -2.3640     0.1940 N.ar  1 <1>  -0.6200 
 17 C        2.4970    -3.7960    -0.2980 C.ar  1 <1>  -0.1500 
 18 C        0.3770    -2.9520    -1.0040 C.ar  1 <1>  -0.1500 
 19 C        6.1680    -0.8250     0.6890 C.3   1 <1>  -0.0170 
 20 C        6.1320     0.6880     0.9590 C.3   1 <1>  -0.1600 
 21 C       -3.7320     5.5810     1.3350 C.3   1 <1>  -0.1600 
 22 C       -2.6320     6.3310    -0.8240 C.3   1 <1>  -0.1600 
 23 C        1.2100    -4.0300    -0.6990 C.ar  1 <1>  -0.1500 
 24 C       -3.9440     6.2420    -0.0330 C.3   1 <1>  -0.1600 
 25 H        2.4600     1.7370    -1.1990 H     1 <1>   0.3700 
 26 H        0.1940     2.9850    -1.3530 H     1 <1>   0.0800 
 27 H        0.7940     3.6250     0.1590 H     1 <1>   0.0800 
 28 H       -1.2020     2.4540     1.1570 H     1 <1>   0.4500 
 29 H       -1.8500     2.3800    -0.3330 H     1 <1>   0.4500 
 30 H       -1.0650     4.9050     0.9810 H     1 <1>   0.0800 
 31 H        0.1930    -0.8570    -1.1360 H     1 <1>   0.1500 
 32 H        4.3820     1.9660     0.8440 H     1 <1>   0.0800 
 33 H        5.1530     1.6440    -0.7100 H     1 <1>   0.0800 
 34 H       -2.8880     3.8040     2.1710 H     1 <1>   0.0800 
 35 H       -3.7550     3.5500     0.6740 H     1 <1>   0.0800 
 36 H       -2.6080     4.3300    -1.5680 H     1 <1>   0.0800 
 37 H       -1.0320     5.0810    -1.4720 H     1 <1>   0.0800 
 38 H        3.1570    -4.6100    -0.0620 H     1 <1>   0.1500 
 39 H       -0.6320    -3.1480    -1.3230 H     1 <1>   0.1500 
 40 H        6.8310    -1.0580    -0.1250 H     1 <1>   0.0800 
 41 H        6.4560    -1.3800     1.5640 H     1 <1>   0.0800 
 42 H        6.0230     0.8460     2.0190 H     1 <1>   0.0800 
 43 H        7.0300     1.1750     0.6240 H     1 <1>   0.0800 
 44 H       -3.1160     6.2190     1.9470 H     1 <1>   0.0800 
 45 H       -4.6830     5.4760     1.8310 H     1 <1>   0.0800 
 46 H       -2.8330     6.7390    -1.8010 H     1 <1>   0.0800 
 47 H       -1.9620     7.0090    -0.3220 H     1 <1>   0.0800 
 48 H        0.8310    -5.0330    -0.7840 H     1 <1>   0.1500 
 49 H       -4.3480     7.2310     0.1050 H     1 <1>   0.0800 
 50 H       -4.6670     5.6760    -0.5980 H     1 <1>   0.0800 
@<TRIPOS>BOND
  1   1   2  2   
  2   2   3  am  
  3   2   4  1   
  4   3   5  1   
  5   3  25  1   
  6   4   6  1   
  7   4  26  1   
  8   4  27  1   
  9   5   7  ar  
 10   5   8  ar  
 11   6   9  1   
 12   6  28  1   
 13   6  29  1   
 14   7  10  ar  
 15   7  11  ar  
 16   8  12  ar  
 17   8  13  1   
 18   9  14  1   
 19   9  15  1   
 20   9  30  1   
 21  10  16  ar  
 22  10  17  ar  
 23  11  18  ar  
 24  11  31  1   
 25  12  16  ar  
 26  12  19  1   
 27  13  20  1   
 28  13  32  1   
 29  13  33  1   
 30  14  21  1   
 31  14  34  1   
 32  14  35  1   
 33  15  22  1   
 34  15  36  1   
 35  15  37  1   
 36  17  23  ar  
 37  17  38  1   
 38  18  23  ar  
 39  18  39  1   
 40  19  20  1   
 41  19  40  1   
 42  19  41  1   
 43  20  42  1   
 44  20  43  1   
 45  21  24  1   
 46  21  44  1   
 47  21  45  1   
 48  22  24  1   
 49  22  46  1   
 50  22  47  1   
 51  23  48  1   
 52  24  49  1   
 53  24  50  1   
@<TRIPOS>SUBSTRUCTURE
  1 ****   2 GROUP 4 **** **** 0

# MOE 2024.06 (io_trps.svl 2023.06)
