@<TRIPOS>MOLECULE
NONAME
33 35 1 0 0 
SMALL
USER_CHARGES


@<TRIPOS>ATOM
  1 O        0.0170    -0.1610    -0.3200 O.2   1 <1>  -0.5700 
  2 C        0.0670    -1.2900     0.1290 C.2   1 <1>   0.7800 
  3 O        1.2500    -1.8640     0.3920 O.3   1 <1>  -0.2330 
  4 N       -1.0670    -2.0250     0.3820 N.am  1 <1>  -0.6600 
  5 C        2.4720    -1.2720     0.3120 C.ar  1 <1>   0.0830 
  6 C       -1.0500    -3.4020     0.9480 C.3   1 <1>   0.1400 
  7 C       -2.4240    -1.4990     0.0710 C.3   1 <1>   0.1400 
  8 C        3.5150    -2.0320    -0.2050 C.ar  1 <1>  -0.1500 
  9 C        2.6990     0.0350     0.7550 C.ar  1 <1>  -0.1500 
 10 C       -1.7470    -4.3640    -0.0200 C.3   1 <1>  -0.1600 
 11 C       -3.1330    -2.4480    -0.9010 C.3   1 <1>  -0.1600 
 12 C        4.7650    -1.4510    -0.2750 C.ar  1 <1>   0.0830 
 13 C        3.9660     0.6000     0.6740 C.ar  1 <1>  -0.1500 
 14 C       -3.1640    -3.8880    -0.3690 C.3   1 <1>  -0.1600 
 15 O        5.9020    -1.9840    -0.7340 O.3   1 <1>  -0.3630 
 16 C        4.9840    -0.1720     0.1510 C.ar  1 <1>   0.0830 
 17 C        6.9070    -0.9820    -0.5980 C.3   1 <1>   0.4000 
 18 O        6.2700     0.1570    -0.0220 O.3   1 <1>  -0.3630 
 19 H       -1.5700    -3.3960     1.8910 H     1 <1>   0.0800 
 20 H       -0.0440    -3.7380     1.1260 H     1 <1>   0.0800 
 21 H       -2.3620    -0.5160    -0.3660 H     1 <1>   0.0800 
 22 H       -2.9870    -1.4220     0.9850 H     1 <1>   0.0800 
 23 H        3.3590    -3.0390    -0.5430 H     1 <1>   0.1500 
 24 H        1.8900     0.6150     1.1620 H     1 <1>   0.1500 
 25 H       -1.7930    -5.3430     0.4230 H     1 <1>   0.0800 
 26 H       -1.1580    -4.4390    -0.9180 H     1 <1>   0.0800 
 27 H       -2.6180    -2.4200    -1.8460 H     1 <1>   0.0800 
 28 H       -4.1370    -2.1010    -1.0660 H     1 <1>   0.0800 
 29 H        4.1580     1.6040     1.0040 H     1 <1>   0.1500 
 30 H       -3.7820    -3.9300     0.5110 H     1 <1>   0.0800 
 31 H       -3.5960    -4.5400    -1.1100 H     1 <1>   0.0800 
 32 H        7.2940    -0.7260    -1.5680 H     1 <1>   0.0800 
 33 H        7.6810    -1.3340     0.0600 H     1 <1>   0.0800 
@<TRIPOS>BOND
  1   1   2  2   
  2   2   3  1   
  3   2   4  am  
  4   3   5  1   
  5   4   6  1   
  6   4   7  1   
  7   5   8  ar  
  8   5   9  ar  
  9   6  10  1   
 10   6  19  1   
 11   6  20  1   
 12   7  11  1   
 13   7  21  1   
 14   7  22  1   
 15   8  12  ar  
 16   8  23  1   
 17   9  13  ar  
 18   9  24  1   
 19  10  14  1   
 20  10  25  1   
 21  10  26  1   
 22  11  14  1   
 23  11  27  1   
 24  11  28  1   
 25  12  15  1   
 26  12  16  ar  
 27  13  16  ar  
 28  13  29  1   
 29  14  30  1   
 30  14  31  1   
 31  15  17  1   
 32  16  18  1   
 33  17  18  1   
 34  17  32  1   
 35  17  33  1   
@<TRIPOS>SUBSTRUCTURE
  1 ****   3 GROUP 4 **** **** 0

# MOE 2024.06 (io_trps.svl 2023.06)
