@<TRIPOS>MOLECULE
NONAME
51 53 1 0 0 
SMALL
USER_CHARGES


@<TRIPOS>ATOM
  1 O       -0.5640    -1.3950     1.3680 O.2   1 <1>  -0.5700 
  2 C       -0.0720    -2.1980     0.6030 C.2   1 <1>   0.5440 
  3 N        1.2670    -2.4860     0.5500 N.am  1 <1>  -0.4200 
  4 C       -0.7570    -2.9970    -0.3730 C.ar  1 <1>   0.0860 
  5 C        1.4670    -3.4380    -0.4160 C.2   1 <1>   0.5440 
  6 C        2.3200    -1.8310     1.3630 C.3   1 <1>   0.1400 
  7 C        0.2030    -3.7690    -1.0100 C.ar  1 <1>   0.0860 
  8 C       -2.0940    -3.1010    -0.7360 C.ar  1 <1>  -0.1500 
  9 O        2.5510    -3.9140    -0.6840 O.2   1 <1>  -0.5700 
 10 C        2.8530    -2.7830     2.4420 C.3   1 <1>  -0.0990 
 11 C       -0.1620    -4.6550    -2.0160 C.ar  1 <1>  -0.1500 
 12 C       -2.4580    -3.9840    -1.7390 C.ar  1 <1>  -0.1500 
 13 C        4.3310    -3.0380     2.2640 C.2   1 <1>   0.5690 
 14 C       -1.4960    -4.7580    -2.3770 C.ar  1 <1>  -0.1500 
 15 O        5.0950    -2.6600     3.1170 O.2   1 <1>  -0.5700 
 16 N        4.7480    -3.6690     1.1460 N.am  1 <1>  -0.7300 
 17 C        6.1450    -3.9220     0.7790 C.3   1 <1>   0.3640 
 18 C        6.5390    -2.9110    -0.3040 C.ar  1 <1>  -0.1430 
 19 C        6.3600    -5.4110     0.4300 C.3   1 <1>  -0.1600 
 20 C        6.7150    -3.2290    -1.6460 C.ar  1 <1>  -0.1500 
 21 C        6.7350    -1.5940     0.0930 C.ar  1 <1>  -0.1500 
 22 C        5.2940    -6.0990    -0.4600 C.3   1 <1>  -0.0800 
 23 C        7.0770    -2.2570    -2.5630 C.ar  1 <1>  -0.1500 
 24 C        7.0970    -0.6200    -0.8210 C.ar  1 <1>  -0.1500 
 25 C        4.1880    -6.7600     0.3770 C.3   1 <1>  -0.2400 
 26 C        5.9500    -7.1750    -1.3360 C.3   1 <1>  -0.2400 
 27 C        7.2690    -0.9510    -2.1520 C.ar  1 <1>  -0.1500 
 28 H        1.9110    -0.9520     1.8320 H     1 <1>   0.0800 
 29 H        3.1160    -1.5120     0.7100 H     1 <1>   0.0800 
 30 H       -2.8300    -2.4960    -0.2330 H     1 <1>   0.1500 
 31 H        2.3350    -3.7240     2.4300 H     1 <1>   0.0800 
 32 H        2.7020    -2.3350     3.4070 H     1 <1>   0.0800 
 33 H        0.5930    -5.2490    -2.5030 H     1 <1>   0.1500 
 34 H       -3.4920    -4.0730    -2.0280 H     1 <1>   0.1500 
 35 H       -1.7910    -5.4410    -3.1570 H     1 <1>   0.1500 
 36 H        4.0770    -3.8910     0.3960 H     1 <1>   0.3700 
 37 H        6.7660    -3.7140     1.6350 H     1 <1>   0.0800 
 38 H        6.4460    -5.9560     1.3530 H     1 <1>   0.0800 
 39 H        7.3250    -5.4810    -0.0390 H     1 <1>   0.0800 
 40 H        6.5760    -4.2310    -2.0030 H     1 <1>   0.1500 
 41 H        6.6030    -1.3240     1.1270 H     1 <1>   0.1500 
 42 H        4.8380    -5.3720    -1.1120 H     1 <1>   0.0800 
 43 H        7.2090    -2.5180    -3.5980 H     1 <1>   0.1500 
 44 H        7.2450     0.3950    -0.4930 H     1 <1>   0.1500 
 45 H        4.5980    -7.5270     1.0110 H     1 <1>   0.0800 
 46 H        3.4540    -7.2080    -0.2690 H     1 <1>   0.0800 
 47 H        3.6850    -6.0420     0.9970 H     1 <1>   0.0800 
 48 H        6.6970    -6.7390    -1.9750 H     1 <1>   0.0800 
 49 H        5.2120    -7.6490    -1.9590 H     1 <1>   0.0800 
 50 H        6.4170    -7.9270    -0.7250 H     1 <1>   0.0800 
 51 H        7.5510    -0.1960    -2.8640 H     1 <1>   0.1500 
@<TRIPOS>BOND
  1   1   2  2   
  2   2   3  am  
  3   2   4  1   
  4   3   5  am  
  5   3   6  1   
  6   4   7  ar  
  7   4   8  ar  
  8   5   7  1   
  9   5   9  2   
 10   6  10  1   
 11   6  28  1   
 12   6  29  1   
 13   7  11  ar  
 14   8  12  ar  
 15   8  30  1   
 16  10  13  1   
 17  10  31  1   
 18  10  32  1   
 19  11  14  ar  
 20  11  33  1   
 21  12  14  ar  
 22  12  34  1   
 23  13  15  2   
 24  13  16  am  
 25  14  35  1   
 26  16  17  1   
 27  16  36  1   
 28  17  18  1   
 29  17  19  1   
 30  17  37  1   
 31  18  20  ar  
 32  18  21  ar  
 33  19  22  1   
 34  19  38  1   
 35  19  39  1   
 36  20  23  ar  
 37  20  40  1   
 38  21  24  ar  
 39  21  41  1   
 40  22  25  1   
 41  22  26  1   
 42  22  42  1   
 43  23  27  ar  
 44  23  43  1   
 45  24  27  ar  
 46  24  44  1   
 47  25  45  1   
 48  25  46  1   
 49  25  47  1   
 50  26  48  1   
 51  26  49  1   
 52  26  50  1   
 53  27  51  1   
@<TRIPOS>SUBSTRUCTURE
  1 ****   9 GROUP 4 **** **** 0

# MOE 2024.06 (io_trps.svl 2023.06)
