@<TRIPOS>MOLECULE
NONAME
22 21 1 0 0 
SMALL
USER_CHARGES


@<TRIPOS>ATOM
  1 O        0.2970    -0.2630    -0.3590 O.2   1 <1>  -0.5700 
  2 C        1.3940    -0.7780    -0.3200 C.2   1 <1>   0.6900 
  3 N        1.5190    -2.1330    -0.2010 N.am  1 <1>  -0.3680 
  4 N        2.4960    -0.0180    -0.3930 N.am  1 <1>  -0.8000 
  5 N        2.6990    -2.8730    -0.1430 N.2   1 <1>  -0.5120 
  6 C        2.7210    -4.1380    -0.0280 C.2   1 <1>   0.3280 
  7 C        4.0190    -4.9360     0.0350 C.3   1 <1>  -0.0990 
  8 C        1.4930    -5.0350     0.0640 C.3   1 <1>  -0.1790 
  9 C        5.3130    -4.1090    -0.0800 C.3   1 <1>  -0.2660 
 10 C        6.5240    -5.0050    -0.0110 C.2   1 <1>   0.9060 
 11 O        6.8820    -5.5860    -1.0390 O.co2 1 <1>  -0.9000 
 12 O        7.0880    -5.1510     1.0760 O.co2 1 <1>  -0.9000 
 13 H        0.6200    -2.6120    -0.1550 H     1 <1>   0.3700 
 14 H        2.4410     0.9920    -0.4770 H     1 <1>   0.3700 
 15 H        3.4060    -0.4790    -0.3550 H     1 <1>   0.3700 
 16 H        4.0500    -5.4750     0.9650 H     1 <1>   0.0800 
 17 H        4.0190    -5.6610    -0.7610 H     1 <1>   0.0800 
 18 H        1.5000    -5.7320    -0.7540 H     1 <1>   0.0800 
 19 H        0.5730    -4.4870     0.0300 H     1 <1>   0.0800 
 20 H        1.5230    -5.5860     0.9860 H     1 <1>   0.0800 
 21 H        5.3740    -3.3970     0.7200 H     1 <1>   0.0800 
 22 H        5.3390    -3.5840    -1.0150 H     1 <1>   0.0800 
@<TRIPOS>BOND
  1   1   2  2   
  2   2   3  am  
  3   2   4  am  
  4   3   5  1   
  5   3  13  1   
  6   4  14  1   
  7   4  15  1   
  8   5   6  2   
  9   6   7  1   
 10   6   8  1   
 11   7   9  1   
 12   7  16  1   
 13   7  17  1   
 14   8  18  1   
 15   8  19  1   
 16   8  20  1   
 17   9  10  1   
 18   9  21  1   
 19   9  22  1   
 20  10  11  ar  
 21  10  12  ar  
@<TRIPOS>SUBSTRUCTURE
  1 ****   5 GROUP 4 **** **** 0

# MOE 2024.06 (io_trps.svl 2023.06)
