@<TRIPOS>MOLECULE
NONAME
51 54 1 0 0 
SMALL
USER_CHARGES


@<TRIPOS>ATOM
  1 N       -0.4350     0.1540    -0.2500 N.4   1 <1>  -0.9590 
  2 C       -0.0270    -1.0460     0.5390 C.3   1 <1>   0.3430 
  3 C        0.5810     1.2430    -0.2490 C.3   1 <1>   0.3430 
  4 C       -1.7670     0.6620     0.2060 C.3   1 <1>   0.4860 
  5 C        1.2980    -1.5930     0.0050 C.3   1 <1>  -0.1600 
  6 C        1.9150     0.7140    -0.7830 C.3   1 <1>  -0.1600 
  7 C       -2.7970    -0.4130    -0.0730 C.ar  1 <1>  -0.1430 
  8 C        2.3830    -0.5150     0.0050 C.3   1 <1>   0.4230 
  9 C       -3.3180    -1.1680     0.9690 C.ar  1 <1>  -0.1500 
 10 C       -3.2190    -0.6580    -1.3730 C.ar  1 <1>  -0.1500 
 11 N        3.6160    -1.0830    -0.5930 N.4   1 <1>  -0.9060 
 12 C       -4.2360    -2.1700     0.7100 C.ar  1 <1>  -0.1500 
 13 C       -4.1360    -1.6620    -1.6280 C.ar  1 <1>  -0.1500 
 14 C        4.8460    -0.2600    -0.4190 C.3   1 <1>   0.4230 
 15 C       -4.6430    -2.4190    -0.5880 C.ar  1 <1>  -0.1500 
 16 C        6.1220    -0.9160    -1.2040 C.3   1 <1>  -0.0800 
 17 C        5.2590    -0.1330     1.1970 C.3   1 <1>  -0.1600 
 18 C        6.4850    -0.6880     0.0640 C.3   1 <1>  -0.1600 
 19 C        7.7160    -1.2600    -1.0740 C.3   1 <1>  -0.1600 
 20 C        6.8470    -0.5050     1.3370 C.3   1 <1>  -0.0800 
 21 C        8.1380    -1.1130     0.5370 C.3   1 <1>  -0.1600 
 22 H       -0.6100    -0.1570    -1.2160 H     1 <1>   0.4500 
 23 H       -0.7840    -1.8130     0.4630 H     1 <1>   0.0800 
 24 H        0.0760    -0.7830     1.5800 H     1 <1>   0.0800 
 25 H        0.7120     1.6170     0.7550 H     1 <1>   0.0800 
 26 H        0.2440     2.0620    -0.8680 H     1 <1>   0.0800 
 27 H       -2.0360     1.5550    -0.3350 H     1 <1>   0.0800 
 28 H       -1.7480     0.8920     1.2590 H     1 <1>   0.0800 
 29 H        1.1380    -1.9750    -0.9880 H     1 <1>   0.0800 
 30 H        1.5990    -2.4120     0.6360 H     1 <1>   0.0800 
 31 H        2.6390     1.5050    -0.6970 H     1 <1>   0.0800 
 32 H        1.8000     0.4760    -1.8260 H     1 <1>   0.0800 
 33 H        2.5820    -0.2260     1.0260 H     1 <1>   0.0800 
 34 H       -3.0270    -0.9900     1.9910 H     1 <1>   0.1500 
 35 H       -2.8530    -0.0760    -2.2020 H     1 <1>   0.1500 
 36 H        3.4890    -1.2550    -1.5970 H     1 <1>   0.4500 
 37 H        3.8200    -1.9980    -0.1700 H     1 <1>   0.4500 
 38 H       -4.6420    -2.7580     1.5170 H     1 <1>   0.1500 
 39 H       -4.4660    -1.8540    -2.6360 H     1 <1>   0.1500 
 40 H        4.6860     0.7310    -0.8160 H     1 <1>   0.0800 
 41 H       -5.3590    -3.1990    -0.7880 H     1 <1>   0.1500 
 42 H        5.7410    -1.8780    -1.5200 H     1 <1>   0.0800 
 43 H        4.6830    -0.8050     1.8130 H     1 <1>   0.0800 
 44 H        5.0840     0.8730     1.5470 H     1 <1>   0.0800 
 45 H        6.8190     0.4140    -0.1920 H     1 <1>   0.0800 
 46 H        6.1810    -1.7970     0.3300 H     1 <1>   0.0800 
 47 H        8.2980    -0.5730    -1.6720 H     1 <1>   0.0800 
 48 H        7.9350    -2.2550    -1.4300 H     1 <1>   0.0800 
 49 H        7.2520     0.4370     1.6860 H     1 <1>   0.0800 
 50 H        9.0000    -0.4710     0.6430 H     1 <1>   0.0800 
 51 H        8.4080    -2.0780     0.9420 H     1 <1>   0.0800 
@<TRIPOS>BOND
  1   1   2  1   
  2   1   3  1   
  3   1   4  1   
  4   1  22  1   
  5   2   5  1   
  6   2  23  1   
  7   2  24  1   
  8   3   6  1   
  9   3  25  1   
 10   3  26  1   
 11   4   7  1   
 12   4  27  1   
 13   4  28  1   
 14   5   8  1   
 15   5  29  1   
 16   5  30  1   
 17   6   8  1   
 18   6  31  1   
 19   6  32  1   
 20   7   9  ar  
 21   7  10  ar  
 22   8  11  1   
 23   8  33  1   
 24   9  12  ar  
 25   9  34  1   
 26  10  13  ar  
 27  10  35  1   
 28  11  14  1   
 29  11  36  1   
 30  11  37  1   
 31  12  15  ar  
 32  12  38  1   
 33  13  15  ar  
 34  13  39  1   
 35  14  16  1   
 36  14  17  1   
 37  14  40  1   
 38  15  41  1   
 39  16  18  1   
 40  16  19  1   
 41  16  42  1   
 42  17  20  1   
 43  17  43  1   
 44  17  44  1   
 45  18  20  1   
 46  18  45  1   
 47  18  46  1   
 48  19  21  1   
 49  19  47  1   
 50  19  48  1   
 51  20  21  1   
 52  20  49  1   
 53  21  50  1   
 54  21  51  1   
@<TRIPOS>SUBSTRUCTURE
  1 ****   5 GROUP 4 **** **** 0

# MOE 2024.06 (io_trps.svl 2023.06)
