@<TRIPOS>MOLECULE
NONAME
49 51 1 0 0 
SMALL
USER_CHARGES


@<TRIPOS>ATOM
  1 CL       3.2140    -0.0700    -3.3040 Cl    1 <1>  -0.1770 
  2 C        3.0470     0.2490    -1.5910 C.ar  1 <1>   0.1770 
  3 C        2.5980    -0.7460    -0.7300 C.ar  1 <1>   0.0830 
  4 C        3.3790     1.5070    -1.1290 C.ar  1 <1>  -0.1500 
  5 O        2.2900    -1.9630    -1.2490 O.3   1 <1>  -0.3630 
  6 C        2.4870    -0.4420     0.6240 C.ar  1 <1>  -0.1500 
  7 C        3.2770     1.8160     0.2220 C.ar  1 <1>  -0.0090 
  8 C        1.8210    -3.0200    -0.4420 C.3   1 <1>   0.0400 
  9 C        2.8240     0.8210     1.0830 C.ar  1 <1>  -0.1500 
 10 S        3.7310     3.4640     0.8300 S.o2  1 <1>   1.4470 
 11 O        3.8600     3.4470     2.2700 O.2   1 <1>  -0.6500 
 12 O        2.8750     4.4470     0.2030 O.2   1 <1>  -0.6500 
 13 N        5.2890     3.6820     0.1980 N.am  1 <1>  -0.8490 
 14 C        6.2730     2.7910     0.8360 C.3   1 <1>   0.1960 
 15 C        5.7150     5.0800     0.3160 C.3   1 <1>   0.1960 
 16 C        7.6220     2.8800     0.1080 C.3   1 <1>  -0.0190 
 17 C        7.0590     5.2860    -0.3930 C.3   1 <1>  -0.1600 
 18 C        8.6330     1.9110     0.7190 C.2   1 <1>   0.5690 
 19 C        8.1370     4.3320     0.1400 C.3   1 <1>  -0.1600 
 20 O        8.5200     1.6510     1.8940 O.2   1 <1>  -0.5700 
 21 N        9.6350     1.3540    -0.0380 N.am  1 <1>  -0.6600 
 22 C        9.9470     1.6670    -1.4680 C.3   1 <1>   0.1400 
 23 C       10.5720     0.3430     0.5440 C.3   1 <1>   0.1400 
 24 C       11.4460     1.9650    -1.6470 C.3   1 <1>   0.1200 
 25 C       12.0340     0.7170     0.2490 C.3   1 <1>   0.1200 
 26 O       12.2220     0.9270    -1.1220 O.3   1 <1>  -0.5600 
 27 H        3.7210     2.2530    -1.8260 H     1 <1>   0.1500 
 28 H        2.1440    -1.1720     1.3330 H     1 <1>   0.1500 
 29 H        1.6460    -3.8700    -1.0760 H     1 <1>   0.0800 
 30 H        0.9010    -2.7200     0.0280 H     1 <1>   0.0800 
 31 H        2.5700    -3.2600     0.2920 H     1 <1>   0.0800 
 32 H        2.7350     1.0410     2.1350 H     1 <1>   0.1500 
 33 H        5.9270     1.7710     0.7950 H     1 <1>   0.0800 
 34 H        6.3940     3.0580     1.8740 H     1 <1>   0.0800 
 35 H        5.7970     5.3500     1.3570 H     1 <1>   0.0800 
 36 H        4.9810     5.7250    -0.1410 H     1 <1>   0.0800 
 37 H        7.4360     2.5840    -0.9070 H     1 <1>   0.0800 
 38 H        7.3780     6.3050    -0.2560 H     1 <1>   0.0800 
 39 H        6.9180     5.1260    -1.4480 H     1 <1>   0.0800 
 40 H        9.0340     4.4260    -0.4460 H     1 <1>   0.0800 
 41 H        8.3760     4.5980     1.1570 H     1 <1>   0.0800 
 42 H        9.3890     2.5150    -1.8160 H     1 <1>   0.0800 
 43 H        9.6840     0.8210    -2.0790 H     1 <1>   0.0800 
 44 H       10.3620    -0.6210     0.1150 H     1 <1>   0.0800 
 45 H       10.4390     0.2640     1.6080 H     1 <1>   0.0800 
 46 H       11.7140     2.8810    -1.1490 H     1 <1>   0.0800 
 47 H       11.6860     2.0550    -2.6910 H     1 <1>   0.0800 
 48 H       12.6880    -0.0800     0.5530 H     1 <1>   0.0800 
 49 H       12.3090     1.6120     0.7800 H     1 <1>   0.0800 
@<TRIPOS>BOND
  1   1   2  1   
  2   2   3  ar  
  3   2   4  ar  
  4   3   5  1   
  5   3   6  ar  
  6   4   7  ar  
  7   4  27  1   
  8   5   8  1   
  9   6   9  ar  
 10   6  28  1   
 11   7   9  ar  
 12   7  10  1   
 13   8  29  1   
 14   8  30  1   
 15   8  31  1   
 16   9  32  1   
 17  10  11  2   
 18  10  12  2   
 19  10  13  am  
 20  13  14  1   
 21  13  15  1   
 22  14  16  1   
 23  14  33  1   
 24  14  34  1   
 25  15  17  1   
 26  15  35  1   
 27  15  36  1   
 28  16  18  1   
 29  16  19  1   
 30  16  37  1   
 31  17  19  1   
 32  17  38  1   
 33  17  39  1   
 34  18  20  2   
 35  18  21  am  
 36  19  40  1   
 37  19  41  1   
 38  21  22  1   
 39  21  23  1   
 40  22  24  1   
 41  22  42  1   
 42  22  43  1   
 43  23  25  1   
 44  23  44  1   
 45  23  45  1   
 46  24  26  1   
 47  24  46  1   
 48  24  47  1   
 49  25  26  1   
 50  25  48  1   
 51  25  49  1   
@<TRIPOS>SUBSTRUCTURE
  1 ****  14 GROUP 4 **** **** 0

# MOE 2024.06 (io_trps.svl 2023.06)
