@<TRIPOS>MOLECULE
NONAME
36 38 1 0 0 
SMALL
USER_CHARGES


@<TRIPOS>ATOM
  1 O        1.1460     1.1530     0.7020 O.2   1 <1>  -0.5700 
  2 C        1.6200     0.0570     0.3520 C.2   1 <1>   0.7060 
  3 O        2.9460    -0.0690     0.5940 O.3   1 <1>  -0.2330 
  4 C        0.9350    -0.9900    -0.2930 C.2   1 <1>   0.1230 
  5 C        3.6460    -1.1510     0.1770 C.ar  1 <1>   0.0820 
  6 N       -0.4470    -1.0640    -0.5830 N.am  1 <1>  -0.5390 
  7 C        1.6060    -2.1100    -0.7680 C.2   1 <1>  -0.1780 
  8 C        3.0180    -2.1940    -0.5130 C.ar  1 <1>   0.0280 
  9 C        5.0070    -1.2000     0.4480 C.ar  1 <1>  -0.1500 
 10 C       -1.4920    -0.9470     0.2610 C.2   1 <1>   0.6900 
 11 O        1.0040    -3.0090    -1.4040 O.3   1 <1>  -0.8500 
 12 C        3.7970    -3.2740    -0.9200 C.ar  1 <1>  -0.1500 
 13 C        5.7610    -2.2830     0.0350 C.ar  1 <1>  -0.1500 
 14 O       -1.4130    -0.3820     1.3380 O.2   1 <1>  -0.5700 
 15 N       -2.6550    -1.5290    -0.1210 N.am  1 <1>  -0.7300 
 16 C        5.1520    -3.3230    -0.6520 C.ar  1 <1>  -0.1500 
 17 C       -3.8330    -1.6980     0.7400 C.3   1 <1>   0.2200 
 18 C       -3.8990    -3.1480     1.2010 C.3   1 <1>  -0.1600 
 19 C       -5.0880    -1.5410    -0.1080 C.3   1 <1>  -0.1600 
 20 C       -4.5300    -3.9260     0.0400 C.3   1 <1>  -0.1600 
 21 C       -5.2990    -2.8950    -0.7960 C.3   1 <1>  -0.1600 
 22 H       -0.4920    -1.8830    -1.2050 H     1 <1>   0.3700 
 23 H        5.4630    -0.3860     0.9800 H     1 <1>   0.1500 
 24 H        3.3020    -4.0690    -1.4510 H     1 <1>   0.1500 
 25 H        6.8150    -2.3210     0.2440 H     1 <1>   0.1500 
 26 H       -2.6090    -2.1600    -0.9170 H     1 <1>   0.3700 
 27 H        5.7290    -4.1690    -0.9770 H     1 <1>   0.1500 
 28 H       -3.8030    -1.0030     1.5650 H     1 <1>   0.0800 
 29 H       -4.5480    -3.2040     2.0570 H     1 <1>   0.0800 
 30 H       -2.9300    -3.5270     1.4790 H     1 <1>   0.0800 
 31 H       -5.0030    -0.7260    -0.8070 H     1 <1>   0.0800 
 32 H       -5.9180    -1.3470     0.5470 H     1 <1>   0.0800 
 33 H       -5.1770    -4.7040     0.4050 H     1 <1>   0.0800 
 34 H       -3.7540    -4.3720    -0.5590 H     1 <1>   0.0800 
 35 H       -4.8930    -2.8650    -1.7930 H     1 <1>   0.0800 
 36 H       -6.3460    -3.1370    -0.8550 H     1 <1>   0.0800 
@<TRIPOS>BOND
  1   1   2  2   
  2   2   3  1   
  3   2   4  1   
  4   3   5  1   
  5   4   6  1   
  6   4   7  2   
  7   5   8  ar  
  8   5   9  ar  
  9   6  10  am  
 10   6  22  1   
 11   7   8  1   
 12   7  11  1   
 13   8  12  ar  
 14   9  13  ar  
 15   9  23  1   
 16  10  14  2   
 17  10  15  am  
 18  12  16  ar  
 19  12  24  1   
 20  13  16  ar  
 21  13  25  1   
 22  15  17  1   
 23  15  26  1   
 24  16  27  1   
 25  17  18  1   
 26  17  19  1   
 27  17  28  1   
 28  18  20  1   
 29  18  29  1   
 30  18  30  1   
 31  19  21  1   
 32  19  31  1   
 33  19  32  1   
 34  20  21  1   
 35  20  33  1   
 36  20  34  1   
 37  21  35  1   
 38  21  36  1   
@<TRIPOS>SUBSTRUCTURE
  1 ****   4 GROUP 4 **** **** 0

# MOE 2024.06 (io_trps.svl 2023.06)
