@<TRIPOS>MOLECULE
NONAME
41 42 1 0 0 
SMALL
USER_CHARGES


@<TRIPOS>ATOM
  1 O       -0.1380    -0.4900    -1.1180 O.2   1 <1>  -0.5700 
  2 C        0.0170    -1.4490    -0.3990 C.2   1 <1>   0.5690 
  3 N        1.2290    -1.8370     0.1130 N.am  1 <1>  -0.5470 
  4 C       -1.2470    -2.2560    -0.0530 C.3   1 <1>   0.4040 
  5 C        2.5010    -1.2480    -0.0100 C.ar  1 <1>   0.1170 
  6 N       -2.5230    -1.4590    -0.2130 N.4   1 <1>  -0.9590 
  7 C        3.6400    -2.0430     0.1400 C.ar  1 <1>  -0.1430 
  8 C        2.6630     0.1130    -0.2540 C.ar  1 <1>  -0.1500 
  9 C       -2.6310    -0.3760     0.8100 C.3   1 <1>   0.3430 
 10 C       -3.7390    -2.3170    -0.2800 C.3   1 <1>   0.3430 
 11 C        4.8960    -1.4690     0.0430 C.ar  1 <1>  -0.1500 
 12 C        3.5460    -3.5410     0.4070 C.3   1 <1>  -0.0970 
 13 C        3.9190     0.6830    -0.3560 C.ar  1 <1>  -0.1430 
 14 C       -3.8340     0.5120     0.4910 C.3   1 <1>  -0.1600 
 15 C       -4.9580    -1.4550    -0.6150 C.3   1 <1>  -0.1600 
 16 C        5.0380    -0.1150    -0.2040 C.ar  1 <1>  -0.1500 
 17 C        4.0770     2.1680    -0.6270 C.3   1 <1>  -0.0970 
 18 C       -5.1310    -0.3000     0.3810 C.3   1 <1>  -0.1600 
 19 H        1.2720    -2.7210     0.6170 H     1 <1>   0.3700 
 20 H       -1.1680    -2.6150     0.9580 H     1 <1>   0.0800 
 21 H       -1.2760    -3.1060    -0.7120 H     1 <1>   0.0800 
 22 H       -2.4180    -0.9650    -1.1160 H     1 <1>   0.4500 
 23 H        1.8030     0.7460    -0.3640 H     1 <1>   0.1500 
 24 H       -1.7350     0.2270     0.8070 H     1 <1>   0.0800 
 25 H       -2.7510    -0.8070     1.7910 H     1 <1>   0.0800 
 26 H       -3.8960    -2.8050     0.6680 H     1 <1>   0.0800 
 27 H       -3.6190    -3.0740    -1.0390 H     1 <1>   0.0800 
 28 H        5.7820    -2.0690     0.1560 H     1 <1>   0.1500 
 29 H        2.9620    -4.0200    -0.3580 H     1 <1>   0.0800 
 30 H        3.1000    -3.7210     1.3680 H     1 <1>   0.0800 
 31 H        4.5230    -3.9910     0.4050 H     1 <1>   0.0800 
 32 H       -3.6510     1.0390    -0.4290 H     1 <1>   0.0800 
 33 H       -3.9410     1.2510     1.2670 H     1 <1>   0.0800 
 34 H       -5.8400    -2.0710    -0.6010 H     1 <1>   0.0800 
 35 H       -4.8560    -1.0650    -1.6130 H     1 <1>   0.0800 
 36 H        6.0220     0.3130    -0.2780 H     1 <1>   0.1500 
 37 H        3.1870     2.5690    -1.0780 H     1 <1>   0.0800 
 38 H        4.9010     2.3390    -1.2960 H     1 <1>   0.0800 
 39 H        4.2630     2.6890     0.2950 H     1 <1>   0.0800 
 40 H       -5.9370     0.3400     0.0610 H     1 <1>   0.0800 
 41 H       -5.3930    -0.6950     1.3490 H     1 <1>   0.0800 
@<TRIPOS>BOND
  1   1   2  2   
  2   2   3  am  
  3   2   4  1   
  4   3   5  1   
  5   3  19  1   
  6   4   6  1   
  7   4  20  1   
  8   4  21  1   
  9   5   7  ar  
 10   5   8  ar  
 11   6   9  1   
 12   6  10  1   
 13   6  22  1   
 14   7  11  ar  
 15   7  12  1   
 16   8  13  ar  
 17   8  23  1   
 18   9  14  1   
 19   9  24  1   
 20   9  25  1   
 21  10  15  1   
 22  10  26  1   
 23  10  27  1   
 24  11  16  ar  
 25  11  28  1   
 26  12  29  1   
 27  12  30  1   
 28  12  31  1   
 29  13  16  ar  
 30  13  17  1   
 31  14  18  1   
 32  14  32  1   
 33  14  33  1   
 34  15  18  1   
 35  15  34  1   
 36  15  35  1   
 37  16  36  1   
 38  17  37  1   
 39  17  38  1   
 40  17  39  1   
 41  18  40  1   
 42  18  41  1   
@<TRIPOS>SUBSTRUCTURE
  1 ****   2 GROUP 4 **** **** 0

# MOE 2024.06 (io_trps.svl 2023.06)
