@<TRIPOS>MOLECULE
NONAME
39 40 1 0 0 
SMALL
USER_CHARGES


@<TRIPOS>ATOM
  1 F      -15.3350     3.1690    -0.8880 F     1 <1>  -0.3400 
  2 C      -14.3600     2.4820    -0.3040 C.3   1 <1>   1.1640 
  3 F      -14.8810     1.9640     0.8010 F     1 <1>  -0.3400 
  4 F      -14.0960     1.4590    -1.1080 F     1 <1>  -0.3400 
  5 C      -13.1250     3.3480    -0.0040 C.ar  1 <1>  -0.1440 
  6 C      -11.8380     2.8320    -0.1210 C.ar  1 <1>  -0.1500 
  7 C      -13.2730     4.6710     0.4010 C.ar  1 <1>  -0.1500 
  8 C      -10.7240     3.6090     0.1510 C.ar  1 <1>   0.0830 
  9 C      -12.1650     5.4550     0.6750 C.ar  1 <1>  -0.1500 
 10 O       -9.5150     3.0120     0.0050 O.3   1 <1>  -0.3630 
 11 C      -10.8920     4.9310     0.5520 C.ar  1 <1>  -0.1500 
 12 C       -8.3170     3.7080     0.2390 C.3   1 <1>   0.1200 
 13 C       -7.1710     2.7320    -0.0320 C.3   1 <1>  -0.1600 
 14 C       -5.8160     3.3940     0.2150 C.3   1 <1>   0.3430 
 15 N       -4.7130     2.4720    -0.1700 N.4   1 <1>  -0.9590 
 16 C       -4.6020     1.2380     0.6870 C.3   1 <1>   0.3430 
 17 C       -3.3820     3.1620    -0.2580 C.3   1 <1>   0.3430 
 18 C       -3.4060     0.3550     0.2590 C.3   1 <1>   0.1200 
 19 C       -2.2630     2.1830    -0.6860 C.3   1 <1>   0.1200 
 20 O       -2.7640     0.8860    -0.8680 O.3   1 <1>  -0.5600 
 21 H      -11.6810     1.8120    -0.4270 H     1 <1>   0.1500 
 22 H      -14.2560     5.1020     0.5060 H     1 <1>   0.1500 
 23 H      -12.2980     6.4780     0.9870 H     1 <1>   0.1500 
 24 H      -10.0550     5.5650     0.7720 H     1 <1>   0.1500 
 25 H       -8.3160     4.0400     1.2630 H     1 <1>   0.0800 
 26 H       -8.2810     4.5510    -0.4310 H     1 <1>   0.0800 
 27 H       -7.2360     2.4110    -1.0570 H     1 <1>   0.0800 
 28 H       -7.2960     1.8860     0.6190 H     1 <1>   0.0800 
 29 H       -5.7240     3.6680     1.2540 H     1 <1>   0.0800 
 30 H       -5.7550     4.2920    -0.3780 H     1 <1>   0.0800 
 31 H       -4.8860     2.1130    -1.1230 H     1 <1>   0.4500 
 32 H       -5.5050     0.6540     0.6120 H     1 <1>   0.0800 
 33 H       -4.4800     1.5150     1.7210 H     1 <1>   0.0800 
 34 H       -3.1240     3.5880     0.6980 H     1 <1>   0.0800 
 35 H       -3.4300     3.9700    -0.9700 H     1 <1>   0.0800 
 36 H       -3.7470    -0.6350     0.0080 H     1 <1>   0.0800 
 37 H       -2.6890     0.2700     1.0570 H     1 <1>   0.0800 
 38 H       -1.4800     2.1510     0.0520 H     1 <1>   0.0800 
 39 H       -1.8300     2.5000    -1.6200 H     1 <1>   0.0800 
@<TRIPOS>BOND
  1   1   2  1   
  2   2   3  1   
  3   2   4  1   
  4   2   5  1   
  5   5   6  ar  
  6   5   7  ar  
  7   6   8  ar  
  8   6  21  1   
  9   7   9  ar  
 10   7  22  1   
 11   8  10  1   
 12   8  11  ar  
 13   9  11  ar  
 14   9  23  1   
 15  10  12  1   
 16  11  24  1   
 17  12  13  1   
 18  12  25  1   
 19  12  26  1   
 20  13  14  1   
 21  13  27  1   
 22  13  28  1   
 23  14  15  1   
 24  14  29  1   
 25  14  30  1   
 26  15  16  1   
 27  15  17  1   
 28  15  31  1   
 29  16  18  1   
 30  16  32  1   
 31  16  33  1   
 32  17  19  1   
 33  17  34  1   
 34  17  35  1   
 35  18  20  1   
 36  18  36  1   
 37  18  37  1   
 38  19  20  1   
 39  19  38  1   
 40  19  39  1   
@<TRIPOS>SUBSTRUCTURE
  1 ****  10 GROUP 4 **** **** 0

# MOE 2024.06 (io_trps.svl 2023.06)
