@<TRIPOS>MOLECULE
NONAME
45 46 1 0 0 
SMALL
USER_CHARGES


@<TRIPOS>ATOM
  1 O       -1.0880     4.8620    -1.0400 O.2   1 <1>  -0.5700 
  2 C       -0.8860     3.9140    -0.3240 C.2   1 <1>   0.5690 
  3 N        0.3370     3.5780     0.1830 N.am  1 <1>  -0.5470 
  4 C       -2.0650     3.0320     0.0270 C.3   1 <1>  -0.0990 
  5 C        1.5920     4.1940     0.0440 C.ar  1 <1>   0.1170 
  6 C       -3.3600     3.7080    -0.4320 C.3   1 <1>   0.3430 
  7 C        2.7270     3.4470     0.3310 C.ar  1 <1>  -0.1500 
  8 C        1.7580     5.5190    -0.3500 C.ar  1 <1>  -0.1500 
  9 N       -4.5760     2.9180    -0.0670 N.4   1 <1>  -0.9590 
 10 C        3.9940     3.9910     0.2250 C.ar  1 <1>   0.0830 
 11 C        3.0210     6.0740    -0.4610 C.ar  1 <1>  -0.1500 
 12 C       -4.7030     1.6940    -0.9110 C.3   1 <1>   0.3430 
 13 C       -5.7730     3.8050    -0.1520 C.3   1 <1>   0.3430 
 14 O        5.0330     3.1720     0.5280 O.3   1 <1>  -0.3620 
 15 C        4.1420     5.3150    -0.1750 C.ar  1 <1>  -0.1500 
 16 C       -5.8080     0.7590    -0.4150 C.3   1 <1>  -0.1600 
 17 C       -6.8280     3.3480     0.8550 C.3   1 <1>  -0.1600 
 18 C        6.3670     3.6210     0.4360 C.3   1 <1>   0.0400 
 19 C       -7.2210     1.2830    -0.7030 C.3   1 <1>  -0.1600 
 20 C       -7.7740     2.2380     0.3640 C.3   1 <1>  -0.1600 
 21 H        0.3780     2.7130     0.7190 H     1 <1>   0.3700 
 22 H       -2.0830     2.8900     1.0920 H     1 <1>   0.0800 
 23 H       -1.9310     2.0890    -0.4660 H     1 <1>   0.0800 
 24 H       -3.3250     3.8630    -1.5000 H     1 <1>   0.0800 
 25 H       -3.4090     4.6820     0.0310 H     1 <1>   0.0800 
 26 H        2.6400     2.4230     0.6380 H     1 <1>   0.1500 
 27 H        0.9060     6.1330    -0.5720 H     1 <1>   0.1500 
 28 H       -4.4990     2.6220     0.9140 H     1 <1>   0.4500 
 29 H        3.1290     7.0990    -0.7700 H     1 <1>   0.1500 
 30 H       -3.7730     1.1490    -0.8930 H     1 <1>   0.0800 
 31 H       -4.9000     1.9720    -1.9350 H     1 <1>   0.0800 
 32 H       -6.1780     3.8160    -1.1510 H     1 <1>   0.0800 
 33 H       -5.4850     4.8130     0.1030 H     1 <1>   0.0800 
 34 H        5.1110     5.7690    -0.2680 H     1 <1>   0.1500 
 35 H       -5.6830     0.5290     0.6280 H     1 <1>   0.0800 
 36 H       -5.6950    -0.1670    -0.9530 H     1 <1>   0.0800 
 37 H       -7.4380     4.1990     1.1040 H     1 <1>   0.0800 
 38 H       -6.3490     3.0420     1.7690 H     1 <1>   0.0800 
 39 H        7.0130     2.8070     0.7140 H     1 <1>   0.0800 
 40 H        6.5060     4.4450     1.1130 H     1 <1>   0.0800 
 41 H        6.5670     3.9160    -0.5790 H     1 <1>   0.0800 
 42 H       -7.8930     0.4420    -0.7620 H     1 <1>   0.0800 
 43 H       -7.2450     1.7590    -1.6700 H     1 <1>   0.0800 
 44 H       -8.6630     2.6940    -0.0390 H     1 <1>   0.0800 
 45 H       -8.0900     1.6610     1.2180 H     1 <1>   0.0800 
@<TRIPOS>BOND
  1   1   2  2   
  2   2   3  am  
  3   2   4  1   
  4   3   5  1   
  5   3  21  1   
  6   4   6  1   
  7   4  22  1   
  8   4  23  1   
  9   5   7  ar  
 10   5   8  ar  
 11   6   9  1   
 12   6  24  1   
 13   6  25  1   
 14   7  10  ar  
 15   7  26  1   
 16   8  11  ar  
 17   8  27  1   
 18   9  12  1   
 19   9  13  1   
 20   9  28  1   
 21  10  14  1   
 22  10  15  ar  
 23  11  15  ar  
 24  11  29  1   
 25  12  16  1   
 26  12  30  1   
 27  12  31  1   
 28  13  17  1   
 29  13  32  1   
 30  13  33  1   
 31  14  18  1   
 32  15  34  1   
 33  16  19  1   
 34  16  35  1   
 35  16  36  1   
 36  17  20  1   
 37  17  37  1   
 38  17  38  1   
 39  18  39  1   
 40  18  40  1   
 41  18  41  1   
 42  19  20  1   
 43  19  42  1   
 44  19  43  1   
 45  20  44  1   
 46  20  45  1   
@<TRIPOS>SUBSTRUCTURE
  1 ****   2 GROUP 4 **** **** 0

# MOE 2024.06 (io_trps.svl 2023.06)
