@<TRIPOS>MOLECULE
NONAME
38 39 1 0 0 
SMALL
USER_CHARGES


@<TRIPOS>ATOM
  1 CL       2.0950     1.5290     1.2110 Cl    1 <1>  -0.1770 
  2 C        2.9690     0.0700     0.8200 C.ar  1 <1>   0.1770 
  3 C        3.1540    -0.8920     1.7950 C.ar  1 <1>  -0.1500 
  4 C        3.4640    -0.1020    -0.4590 C.ar  1 <1>  -0.1500 
  5 C        3.8480    -2.0490     1.4830 C.ar  1 <1>  -0.1500 
  6 C        4.1580    -1.2610    -0.7650 C.ar  1 <1>  -0.1500 
  7 C        4.3510    -2.2380     0.2020 C.ar  1 <1>  -0.1430 
  8 C        5.1140    -3.5040    -0.1460 C.3   1 <1>   0.2840 
  9 N        6.5490    -3.1810    -0.1640 N.am  1 <1>  -0.7300 
 10 C        7.4660    -3.7660    -0.9740 C.2   1 <1>   0.5690 
 11 O        7.1640    -4.6740    -1.7100 O.2   1 <1>  -0.5700 
 12 C        8.9090    -3.2860    -0.9550 C.3   1 <1>   0.1310 
 13 S        9.0220    -1.5030    -0.4370 S.3   1 <1>  -0.2860 
 14 C       10.7950    -1.2210    -0.3840 C.2   1 <1>   0.2420 
 15 N       11.6660    -2.1310    -0.6390 N.2   1 <1>  -0.3380 
 16 N       11.3300    -0.0420    -0.0710 N.pl3 1 <1>   0.0480 
 17 N       12.8570    -1.5430    -0.4920 N.2   1 <1>  -0.3380 
 18 C       12.6420    -0.3140    -0.1570 C.2   1 <1>   0.0060 
 19 C       10.6460     1.2240     0.2750 C.3   1 <1>   0.0960 
 20 C       13.7450     0.6920     0.1060 C.3   1 <1>  -0.0600 
 21 C       10.3820     1.3020     1.7810 C.3   1 <1>  -0.2400 
 22 H        2.7580    -0.7330     2.7820 H     1 <1>   0.1500 
 23 H        3.3080     0.6610    -1.2000 H     1 <1>   0.1500 
 24 H        3.9940    -2.7990     2.2410 H     1 <1>   0.1500 
 25 H        4.5500    -1.4010    -1.7590 H     1 <1>   0.1500 
 26 H        4.8070    -3.8720    -1.1110 H     1 <1>   0.0800 
 27 H        4.9310    -4.2720     0.5850 H     1 <1>   0.0800 
 28 H        6.8130    -2.3610     0.3870 H     1 <1>   0.3700 
 29 H        9.3440    -3.3600    -1.9350 H     1 <1>   0.0800 
 30 H        9.4870    -3.8610    -0.2560 H     1 <1>   0.0800 
 31 H        9.7170     1.2760    -0.2650 H     1 <1>   0.0800 
 32 H       11.2600     2.0490    -0.0360 H     1 <1>   0.0800 
 33 H       13.6850     1.5010    -0.5980 H     1 <1>   0.0800 
 34 H       14.7040     0.2160    -0.0010 H     1 <1>   0.0800 
 35 H       13.6650     1.0790     1.1050 H     1 <1>   0.0800 
 36 H        9.7480     0.4900     2.0930 H     1 <1>   0.0800 
 37 H        9.8860     2.2270     2.0160 H     1 <1>   0.0800 
 38 H       11.3060     1.2610     2.3300 H     1 <1>   0.0800 
@<TRIPOS>BOND
  1   1   2  1   
  2   2   3  ar  
  3   2   4  ar  
  4   3   5  ar  
  5   3  22  1   
  6   4   6  ar  
  7   4  23  1   
  8   5   7  ar  
  9   5  24  1   
 10   6   7  ar  
 11   6  25  1   
 12   7   8  1   
 13   8   9  1   
 14   8  26  1   
 15   8  27  1   
 16   9  10  am  
 17   9  28  1   
 18  10  11  2   
 19  10  12  1   
 20  12  13  1   
 21  12  29  1   
 22  12  30  1   
 23  13  14  1   
 24  14  15  2   
 25  14  16  1   
 26  15  17  1   
 27  16  18  1   
 28  16  19  1   
 29  17  18  2   
 30  18  20  1   
 31  19  21  1   
 32  19  31  1   
 33  19  32  1   
 34  20  33  1   
 35  20  34  1   
 36  20  35  1   
 37  21  36  1   
 38  21  37  1   
 39  21  38  1   
@<TRIPOS>SUBSTRUCTURE
  1 ****  13 GROUP 4 **** **** 0

# MOE 2024.06 (io_trps.svl 2023.06)
