@<TRIPOS>MOLECULE
NONAME
42 44 1 0 0 
SMALL
USER_CHARGES


@<TRIPOS>ATOM
  1 O        1.4180     3.3720     2.2820 O.2   1 <1>  -0.5700 
  2 C        1.0560     2.9730     1.1970 C.2   1 <1>   0.5690 
  3 N        1.3940     1.7130     0.7560 N.am  1 <1>  -0.6600 
  4 C        0.2830     3.9510     0.3320 C.3   1 <1>   0.0820 
  5 C        2.1890     0.7920     1.6120 C.3   1 <1>   0.1400 
  6 C        1.0370     1.1340    -0.5670 C.3   1 <1>   0.1400 
  7 C       -1.1680     3.5550     0.1600 C.2   1 <1>   0.3350 
  8 C        3.6730     0.8230     1.2290 C.3   1 <1>  -0.1600 
  9 C        2.0530     1.5130    -1.6530 C.3   1 <1>  -0.1600 
 10 N       -1.9950     3.4530     1.1530 N.2   1 <1>  -0.7070 
 11 N       -1.6520     3.3140    -1.0600 N.2   1 <1>  -0.5650 
 12 C        3.9810     0.5030    -0.2470 C.3   1 <1>  -0.1600 
 13 C        3.5240     1.6150    -1.2060 C.3   1 <1>  -0.1600 
 14 N       -3.1210     3.1030     0.5440 N.pl3 1 <1>   0.6010 
 15 C       -2.8870     3.0240    -0.7970 C.2   1 <1>   0.3120 
 16 C       -4.3820     2.8290     1.0520 C.2   1 <1>  -0.1690 
 17 N       -3.8500     2.6800    -1.7130 N.2   1 <1>  -0.5760 
 18 C       -5.3400     2.4890     0.1480 C.2   1 <1>  -0.1360 
 19 C       -4.6030     2.9260     2.5550 C.3   1 <1>  -0.1020 
 20 C       -5.0250     2.4260    -1.2410 C.2   1 <1>   0.3750 
 21 C       -6.1270     2.0430    -2.2040 C.3   1 <1>  -0.1790 
 22 H        0.7590     4.0320    -0.6240 H     1 <1>   0.0800 
 23 H        0.3130     4.9190     0.7940 H     1 <1>   0.0800 
 24 H        1.8070    -0.2090     1.5180 H     1 <1>   0.0800 
 25 H        2.0870     1.0750     2.6470 H     1 <1>   0.0800 
 26 H        0.0530     1.4400    -0.8650 H     1 <1>   0.0800 
 27 H        1.0090     0.0610    -0.4820 H     1 <1>   0.0800 
 28 H        4.1840     0.1060     1.8460 H     1 <1>   0.0800 
 29 H        4.0700     1.7910     1.4820 H     1 <1>   0.0800 
 30 H        1.7610     2.4510    -2.0900 H     1 <1>   0.0800 
 31 H        1.9780     0.7790    -2.4350 H     1 <1>   0.0800 
 32 H        3.5500    -0.4410    -0.5290 H     1 <1>   0.0800 
 33 H        5.0500     0.4070    -0.3400 H     1 <1>   0.0800 
 34 H        3.6880     2.5720    -0.7400 H     1 <1>   0.0800 
 35 H        4.1400     1.5880    -2.0890 H     1 <1>   0.0800 
 36 H       -6.3470     2.2600     0.4470 H     1 <1>   0.1500 
 37 H       -4.3850     3.9240     2.8950 H     1 <1>   0.0800 
 38 H       -3.9480     2.2430     3.0680 H     1 <1>   0.0800 
 39 H       -5.6190     2.6880     2.8120 H     1 <1>   0.0800 
 40 H       -6.9330     2.7490    -2.1390 H     1 <1>   0.0800 
 41 H       -6.4920     1.0600    -1.9710 H     1 <1>   0.0800 
 42 H       -5.7530     2.0400    -3.2130 H     1 <1>   0.0800 
@<TRIPOS>BOND
  1   1   2  2   
  2   2   3  am  
  3   2   4  1   
  4   3   5  1   
  5   3   6  1   
  6   4   7  1   
  7   4  22  1   
  8   4  23  1   
  9   5   8  1   
 10   5  24  1   
 11   5  25  1   
 12   6   9  1   
 13   6  26  1   
 14   6  27  1   
 15   7  10  2   
 16   7  11  1   
 17   8  12  1   
 18   8  28  1   
 19   8  29  1   
 20   9  13  1   
 21   9  30  1   
 22   9  31  1   
 23  10  14  1   
 24  11  15  2   
 25  12  13  1   
 26  12  32  1   
 27  12  33  1   
 28  13  34  1   
 29  13  35  1   
 30  14  15  1   
 31  14  16  1   
 32  15  17  1   
 33  16  18  2   
 34  16  19  1   
 35  17  20  2   
 36  18  20  1   
 37  18  36  1   
 38  19  37  1   
 39  19  38  1   
 40  19  39  1   
 41  20  21  1   
 42  21  40  1   
 43  21  41  1   
 44  21  42  1   
@<TRIPOS>SUBSTRUCTURE
  1 ****   7 GROUP 4 **** **** 0

# MOE 2024.06 (io_trps.svl 2023.06)
