@<TRIPOS>MOLECULE
NONAME
45 47 1 0 0 
SMALL
USER_CHARGES


@<TRIPOS>ATOM
  1 O       -0.0510    -0.7190    -1.9060 O.2   1 <1>  -0.5700 
  2 C       -0.1260    -1.5060    -0.9890 C.2   1 <1>   0.5690 
  3 N        0.9130    -1.7600    -0.1310 N.am  1 <1>  -0.5470 
  4 C       -1.4470    -2.2830    -0.7790 C.3   1 <1>   0.3950 
  5 C        2.2340    -1.2950    -0.0730 C.ar  1 <1>   0.1170 
  6 N       -2.3840    -1.6640     0.2130 N.3   1 <1>  -0.8100 
  7 C       -1.1150    -3.7270    -0.3700 C.ar  1 <1>  -0.1430 
  8 C        3.2080    -2.0840     0.5430 C.ar  1 <1>  -0.1430 
  9 C        2.6020    -0.0600    -0.5990 C.ar  1 <1>  -0.1500 
 10 C       -3.7000    -2.3440     0.1980 C.3   1 <1>   0.1100 
 11 C       -2.5880    -0.2200    -0.0510 C.3   1 <1>   0.1100 
 12 C       -0.9070    -4.6840    -1.3520 C.ar  1 <1>  -0.1500 
 13 C       -0.9830    -4.0950     0.9650 C.ar  1 <1>  -0.1500 
 14 C        4.5150    -1.6280     0.6220 C.ar  1 <1>  -0.1500 
 15 C        2.8640    -3.4500     1.1280 C.3   1 <1>  -0.0970 
 16 C        3.9070     0.3860    -0.5180 C.ar  1 <1>  -0.1500 
 17 C       -4.6870    -1.6720     1.1680 C.3   1 <1>   0.1200 
 18 C       -3.6170     0.3890     0.9170 C.3   1 <1>   0.1200 
 19 C       -0.5740    -5.9830    -1.0100 C.ar  1 <1>  -0.1500 
 20 C       -0.6500    -5.3930     1.3090 C.ar  1 <1>  -0.1500 
 21 C        4.8660    -0.3990     0.0950 C.ar  1 <1>  -0.1500 
 22 O       -4.8240    -0.3150     0.8600 O.3   1 <1>  -0.5600 
 23 C       -0.4440    -6.3380     0.3210 C.ar  1 <1>  -0.1500 
 24 H        0.7130    -2.5180     0.5220 H     1 <1>   0.3700 
 25 H       -1.9420    -2.3050    -1.7340 H     1 <1>   0.0800 
 26 H        1.8650     0.5610    -1.0730 H     1 <1>   0.1500 
 27 H       -3.5860    -3.3750     0.4850 H     1 <1>   0.0800 
 28 H       -4.1200    -2.3180    -0.7940 H     1 <1>   0.0800 
 29 H       -2.9280    -0.0710    -1.0630 H     1 <1>   0.0800 
 30 H       -1.6590     0.3100     0.0700 H     1 <1>   0.0800 
 31 H       -0.9980    -4.4250    -2.3940 H     1 <1>   0.1500 
 32 H       -1.1460    -3.3690     1.7450 H     1 <1>   0.1500 
 33 H        5.2720    -2.2290     1.0950 H     1 <1>   0.1500 
 34 H        2.3970    -4.0670     0.3800 H     1 <1>   0.0800 
 35 H        2.1930    -3.3370     1.9600 H     1 <1>   0.0800 
 36 H        3.7480    -3.9550     1.4720 H     1 <1>   0.0800 
 37 H        4.1750     1.3430    -0.9310 H     1 <1>   0.1500 
 38 H       -4.3410    -1.7640     2.1830 H     1 <1>   0.0800 
 39 H       -5.6580    -2.1270     1.0880 H     1 <1>   0.0800 
 40 H       -3.8200     1.4100     0.6510 H     1 <1>   0.0800 
 41 H       -3.2470     0.3590     1.9270 H     1 <1>   0.0800 
 42 H       -0.4140    -6.7180    -1.7800 H     1 <1>   0.1500 
 43 H       -0.5530    -5.6690     2.3450 H     1 <1>   0.1500 
 44 H        5.8830    -0.0540     0.1600 H     1 <1>   0.1500 
 45 H       -0.1850    -7.3490     0.5860 H     1 <1>   0.1500 
@<TRIPOS>BOND
  1   1   2  2   
  2   2   3  am  
  3   2   4  1   
  4   3   5  1   
  5   3  24  1   
  6   4   6  1   
  7   4   7  1   
  8   4  25  1   
  9   5   8  ar  
 10   5   9  ar  
 11   6  10  1   
 12   6  11  1   
 13   7  12  ar  
 14   7  13  ar  
 15   8  14  ar  
 16   8  15  1   
 17   9  16  ar  
 18   9  26  1   
 19  10  17  1   
 20  10  27  1   
 21  10  28  1   
 22  11  18  1   
 23  11  29  1   
 24  11  30  1   
 25  12  19  ar  
 26  12  31  1   
 27  13  20  ar  
 28  13  32  1   
 29  14  21  ar  
 30  14  33  1   
 31  15  34  1   
 32  15  35  1   
 33  15  36  1   
 34  16  21  ar  
 35  16  37  1   
 36  17  22  1   
 37  17  38  1   
 38  17  39  1   
 39  18  22  1   
 40  18  40  1   
 41  18  41  1   
 42  19  23  ar  
 43  19  42  1   
 44  20  23  ar  
 45  20  43  1   
 46  21  44  1   
 47  23  45  1   
@<TRIPOS>SUBSTRUCTURE
  1 ****   3 GROUP 4 **** **** 0

# MOE 2024.06 (io_trps.svl 2023.06)
