@<TRIPOS>MOLECULE
NONAME
54 57 1 0 0 
SMALL
USER_CHARGES


@<TRIPOS>ATOM
  1 O        0.8540    -0.9100    -1.4450 O.2   1 <1>  -0.5700 
  2 C        1.5810    -0.9320    -0.4770 C.2   1 <1>   0.4950 
  3 C        2.6110     0.0170    -0.2100 C.2   1 <1>  -0.1240 
  4 C        1.4190    -2.1070     0.4650 C.3   1 <1>  -0.0990 
  5 C        3.6670    -0.2890     0.6070 C.2   1 <1>  -0.0380 
  6 C        2.4100     1.3480    -0.9520 C.3   1 <1>   0.5710 
  7 C        2.7830    -2.7000     0.8480 C.3   1 <1>   0.0000 
  8 N        4.8230     0.4360     0.7990 N.pl3 1 <1>  -0.6000 
  9 C        3.6710    -1.5800     1.4260 C.3   1 <1>  -0.0220 
 10 N        3.2330     2.4610    -0.4430 N.pl3 1 <1>  -0.8690 
 11 C        0.9810     1.8860    -0.8230 C.ar  1 <1>  -0.1430 
 12 C        2.5850    -3.8050     1.8980 C.3   1 <1>  -0.2400 
 13 C        3.4590    -3.3240    -0.3890 C.3   1 <1>  -0.2400 
 14 C        5.3830     1.4210    -0.0330 C.ar  1 <1>   0.1000 
 15 C        4.6040     2.4070    -0.6500 C.ar  1 <1>   0.1000 
 16 C        0.4570     2.1980     0.4240 C.ar  1 <1>  -0.1500 
 17 C        0.1880     2.0700    -1.9460 C.ar  1 <1>  -0.1500 
 18 C        6.7540     1.4250    -0.2370 C.ar  1 <1>  -0.1500 
 19 C        5.2140     3.3630    -1.4480 C.ar  1 <1>  -0.1500 
 20 C       -0.8330     2.6810     0.5770 C.ar  1 <1>   0.0830 
 21 C       -1.1020     2.5540    -1.8200 C.ar  1 <1>  -0.1500 
 22 C        7.3530     2.3810    -1.0410 C.ar  1 <1>  -0.1500 
 23 C        6.5840     3.3560    -1.6520 C.ar  1 <1>  -0.1430 
 24 O       -1.1910     2.9290     1.8710 O.3   1 <1>  -0.3630 
 25 C       -1.6220     2.8610    -0.5730 C.ar  1 <1>   0.0830 
 26 C        7.2370     4.4090    -2.5290 C.3   1 <1>  -0.0970 
 27 C       -2.4780     3.3650     2.2450 C.3   1 <1>   0.0400 
 28 O       -2.8900     3.3270    -0.5480 O.3   1 <1>  -0.5330 
 29 H        0.8070    -2.8570    -0.0040 H     1 <1>   0.0800 
 30 H        0.9030    -1.7590     1.3410 H     1 <1>   0.0800 
 31 H        2.6430     1.1930    -1.9920 H     1 <1>   0.0800 
 32 H        5.4560     0.1210     1.5360 H     1 <1>   0.4000 
 33 H        3.3350    -1.3310     2.4180 H     1 <1>   0.0800 
 34 H        4.6760    -1.9540     1.5150 H     1 <1>   0.0800 
 35 H        2.7920     3.3400    -0.7170 H     1 <1>   0.4000 
 36 H        2.1030    -3.4140     2.7770 H     1 <1>   0.0800 
 37 H        3.5320    -4.2240     2.1890 H     1 <1>   0.0800 
 38 H        1.9730    -4.5960     1.5020 H     1 <1>   0.0800 
 39 H        3.6610    -2.5820    -1.1410 H     1 <1>   0.0800 
 40 H        2.8280    -4.0790    -0.8240 H     1 <1>   0.0800 
 41 H        4.3940    -3.7820    -0.1190 H     1 <1>   0.0800 
 42 H        1.0650     2.0670     1.3030 H     1 <1>   0.1500 
 43 H        0.5690     1.8260    -2.9230 H     1 <1>   0.1500 
 44 H        7.3620     0.6730     0.2300 H     1 <1>   0.1500 
 45 H        4.6090     4.1210    -1.9080 H     1 <1>   0.1500 
 46 H       -1.6970     2.6830    -2.7050 H     1 <1>   0.1500 
 47 H        8.4190     2.3620    -1.1850 H     1 <1>   0.1500 
 48 H        7.5410     5.2460    -1.9270 H     1 <1>   0.0800 
 49 H        6.5500     4.7530    -3.2810 H     1 <1>   0.0800 
 50 H        8.1030     4.0030    -3.0220 H     1 <1>   0.0800 
 51 H       -2.5040     3.4510     3.3160 H     1 <1>   0.0800 
 52 H       -3.1990     2.6390     1.9160 H     1 <1>   0.0800 
 53 H       -2.6640     4.3240     1.7960 H     1 <1>   0.0800 
 54 H       -3.2920     3.3580    -1.4330 H     1 <1>   0.4500 
@<TRIPOS>BOND
  1   1   2  2   
  2   2   3  1   
  3   2   4  1   
  4   3   5  2   
  5   3   6  1   
  6   4   7  1   
  7   4  29  1   
  8   4  30  1   
  9   5   8  1   
 10   5   9  1   
 11   6  10  1   
 12   6  11  1   
 13   6  31  1   
 14   7   9  1   
 15   7  12  1   
 16   7  13  1   
 17   8  14  1   
 18   8  32  1   
 19   9  33  1   
 20   9  34  1   
 21  10  15  1   
 22  10  35  1   
 23  11  16  ar  
 24  11  17  ar  
 25  12  36  1   
 26  12  37  1   
 27  12  38  1   
 28  13  39  1   
 29  13  40  1   
 30  13  41  1   
 31  14  15  ar  
 32  14  18  ar  
 33  15  19  ar  
 34  16  20  ar  
 35  16  42  1   
 36  17  21  ar  
 37  17  43  1   
 38  18  22  ar  
 39  18  44  1   
 40  19  23  ar  
 41  19  45  1   
 42  20  24  1   
 43  20  25  ar  
 44  21  25  ar  
 45  21  46  1   
 46  22  23  ar  
 47  22  47  1   
 48  23  26  1   
 49  24  27  1   
 50  25  28  1   
 51  26  48  1   
 52  26  49  1   
 53  26  50  1   
 54  27  51  1   
 55  27  52  1   
 56  27  53  1   
 57  28  54  1   
@<TRIPOS>SUBSTRUCTURE
  1 ****   6 GROUP 4 **** **** 0

# MOE 2024.06 (io_trps.svl 2023.06)
