@<TRIPOS>MOLECULE
NONAME
44 46 1 0 0 
SMALL
USER_CHARGES


@<TRIPOS>ATOM
  1 CL       0.5320    -0.0240     2.7150 Cl    1 <1>  -0.1770 
  2 C        1.7410    -0.7820     1.7120 C.ar  1 <1>   0.1770 
  3 C        1.5450    -2.0230     1.1190 C.ar  1 <1>  -0.0090 
  4 C        2.9100    -0.0670     1.5240 C.ar  1 <1>  -0.1500 
  5 S        0.0310    -3.0000     1.3120 S.o2  1 <1>   1.4470 
  6 C        2.5690    -2.5030     0.3090 C.ar  1 <1>  -0.1500 
  7 C        3.9100    -0.5780     0.7200 C.ar  1 <1>  -0.1500 
  8 O        0.3750    -4.3870     1.0820 O.2   1 <1>  -0.6500 
  9 O       -0.7120    -2.6770     2.5090 O.2   1 <1>  -0.6500 
 10 N       -0.9090    -2.5130    -0.0130 N.am  1 <1>  -0.8490 
 11 C        3.7620    -1.8130     0.0900 C.ar  1 <1>   0.0860 
 12 C       -1.5800    -1.2190     0.1980 C.3   1 <1>   0.1960 
 13 C       -1.9160    -3.5280    -0.3630 C.3   1 <1>   0.1960 
 14 C        4.7930    -2.3680    -0.7700 C.2   1 <1>   0.5440 
 15 C       -2.4310    -0.8290    -1.0240 C.3   1 <1>   0.1200 
 16 C       -2.7650    -3.0810    -1.5670 C.3   1 <1>   0.1200 
 17 O        4.5040    -3.1100    -1.6870 O.2   1 <1>  -0.5700 
 18 N        6.1090    -2.0810    -0.5680 N.am  1 <1>  -0.7300 
 19 O       -3.3550    -1.8360    -1.3210 O.3   1 <1>  -0.5600 
 20 C        7.2030    -2.6330    -1.3810 C.3   1 <1>   0.2840 
 21 C        8.5140    -2.2090    -0.7510 C.ar  1 <1>  -0.1430 
 22 C        9.1650    -3.0460     0.1440 C.ar  1 <1>   0.1600 
 23 C        9.0770    -0.9840    -1.0490 C.ar  1 <1>  -0.1500 
 24 N       10.3050    -2.7620     0.7530 N.ar  1 <1>  -0.6200 
 25 C       10.2670    -0.6740    -0.4250 C.ar  1 <1>  -0.1500 
 26 C       10.8290    -1.5850     0.4530 C.ar  1 <1>   0.1600 
 27 H        3.0280     0.8890     2.0040 H     1 <1>   0.1500 
 28 H        2.4400    -3.4560    -0.1800 H     1 <1>   0.1500 
 29 H        4.8100    -0.0060     0.5720 H     1 <1>   0.1500 
 30 H       -0.8450    -0.4510     0.3620 H     1 <1>   0.0800 
 31 H       -2.2180    -1.2640     1.0660 H     1 <1>   0.0800 
 32 H       -2.5630    -3.7130     0.4790 H     1 <1>   0.0800 
 33 H       -1.4270    -4.4540    -0.6160 H     1 <1>   0.0800 
 34 H       -1.8050    -0.6700    -1.8850 H     1 <1>   0.0800 
 35 H       -2.9810     0.0730    -0.8220 H     1 <1>   0.0800 
 36 H       -3.5530    -3.7880    -1.7500 H     1 <1>   0.0800 
 37 H       -2.1540    -3.0040    -2.4500 H     1 <1>   0.0800 
 38 H        6.4150    -1.5650     0.2580 H     1 <1>   0.3700 
 39 H        7.1280    -2.2570    -2.3880 H     1 <1>   0.0800 
 40 H        7.1230    -3.7070    -1.4140 H     1 <1>   0.0800 
 41 H        8.7240    -4.0010     0.3760 H     1 <1>   0.1500 
 42 H        8.6120    -0.2980    -1.7360 H     1 <1>   0.1500 
 43 H       10.7570     0.2630    -0.6160 H     1 <1>   0.1500 
 44 H       11.7590    -1.3320     0.9340 H     1 <1>   0.1500 
@<TRIPOS>BOND
  1   1   2  1   
  2   2   3  ar  
  3   2   4  ar  
  4   3   5  1   
  5   3   6  ar  
  6   4   7  ar  
  7   4  27  1   
  8   5   8  2   
  9   5   9  2   
 10   5  10  am  
 11   6  11  ar  
 12   6  28  1   
 13   7  11  ar  
 14   7  29  1   
 15  10  12  1   
 16  10  13  1   
 17  11  14  1   
 18  12  15  1   
 19  12  30  1   
 20  12  31  1   
 21  13  16  1   
 22  13  32  1   
 23  13  33  1   
 24  14  17  2   
 25  14  18  am  
 26  15  19  1   
 27  15  34  1   
 28  15  35  1   
 29  16  19  1   
 30  16  36  1   
 31  16  37  1   
 32  18  20  1   
 33  18  38  1   
 34  20  21  1   
 35  20  39  1   
 36  20  40  1   
 37  21  22  ar  
 38  21  23  ar  
 39  22  24  ar  
 40  22  41  1   
 41  23  25  ar  
 42  23  42  1   
 43  24  26  ar  
 44  25  26  ar  
 45  25  43  1   
 46  26  44  1   
@<TRIPOS>SUBSTRUCTURE
  1 ****  11 GROUP 4 **** **** 0

# MOE 2024.06 (io_trps.svl 2023.06)
