@<TRIPOS>MOLECULE
NONAME
38 39 1 0 0 
SMALL
USER_CHARGES


@<TRIPOS>ATOM
  1 O        0.2380     3.1640     1.0680 O.2   1 <1>  -0.5700 
  2 C       -0.8840     2.9720     0.6370 C.2   1 <1>   0.7800 
  3 O       -1.0560     2.2350    -0.4600 O.3   1 <1>  -0.4300 
  4 N       -2.0140     3.4880     1.2420 N.am  1 <1>  -0.4770 
  5 C        0.0370     1.7790    -1.2270 C.3   1 <1>   0.0400 
  6 C       -3.2670     3.5940     0.6020 C.ar  1 <1>   0.1170 
  7 C       -1.9220     3.9010     2.6710 C.3   1 <1>   0.0600 
  8 C       -3.4380     4.2040    -0.6590 C.ar  1 <1>   0.0860 
  9 C       -4.3840     3.0750     1.2550 C.ar  1 <1>  -0.1500 
 10 C       -2.3550     4.7700    -1.4390 C.2   1 <1>   0.5440 
 11 C       -4.7240     4.2570    -1.1980 C.ar  1 <1>  -0.1500 
 12 C       -5.6470     3.1500     0.7030 C.ar  1 <1>  -0.1500 
 13 O       -2.1570     4.3480    -2.5650 O.2   1 <1>  -0.5700 
 14 N       -1.5560     5.7990    -0.9830 N.am  1 <1>  -0.6600 
 15 C       -5.8180     3.7450    -0.5320 C.ar  1 <1>  -0.1500 
 16 C       -1.8800     6.6770     0.1780 C.3   1 <1>   0.1400 
 17 C       -0.3040     6.1920    -1.6970 C.3   1 <1>   0.1400 
 18 C       -0.6360     6.9050     1.0550 C.3   1 <1>   0.1200 
 19 C        0.8360     6.4480    -0.6980 C.3   1 <1>   0.1200 
 20 O        0.4350     7.3630     0.2830 O.3   1 <1>  -0.5600 
 21 H       -0.3470     1.2240    -2.0640 H     1 <1>   0.0800 
 22 H        0.6570     1.1490    -0.6130 H     1 <1>   0.0800 
 23 H        0.5930     2.6320    -1.5740 H     1 <1>   0.0800 
 24 H       -2.0940     3.0480     3.3020 H     1 <1>   0.0800 
 25 H       -2.6570     4.6570     2.8850 H     1 <1>   0.0800 
 26 H       -0.9460     4.2980     2.8900 H     1 <1>   0.0800 
 27 H       -4.2650     2.5920     2.2080 H     1 <1>   0.1500 
 28 H       -4.8560     4.7090    -2.1670 H     1 <1>   0.1500 
 29 H       -6.4950     2.7420     1.2260 H     1 <1>   0.1500 
 30 H       -6.7990     3.8030    -0.9730 H     1 <1>   0.1500 
 31 H       -2.6660     6.2520     0.7740 H     1 <1>   0.0800 
 32 H       -2.2230     7.6280    -0.1900 H     1 <1>   0.0800 
 33 H       -0.4880     7.0860    -2.2660 H     1 <1>   0.0800 
 34 H       -0.0030     5.4180    -2.3800 H     1 <1>   0.0800 
 35 H       -0.3380     5.9930     1.5390 H     1 <1>   0.0800 
 36 H       -0.8400     7.6470     1.8060 H     1 <1>   0.0800 
 37 H        1.6890     6.8620    -1.2060 H     1 <1>   0.0800 
 38 H        1.1310     5.5300    -0.2180 H     1 <1>   0.0800 
@<TRIPOS>BOND
  1   1   2  2   
  2   2   3  1   
  3   2   4  am  
  4   3   5  1   
  5   4   6  1   
  6   4   7  1   
  7   5  21  1   
  8   5  22  1   
  9   5  23  1   
 10   6   8  ar  
 11   6   9  ar  
 12   7  24  1   
 13   7  25  1   
 14   7  26  1   
 15   8  10  1   
 16   8  11  ar  
 17   9  12  ar  
 18   9  27  1   
 19  10  13  2   
 20  10  14  am  
 21  11  15  ar  
 22  11  28  1   
 23  12  15  ar  
 24  12  29  1   
 25  14  16  1   
 26  14  17  1   
 27  15  30  1   
 28  16  18  1   
 29  16  31  1   
 30  16  32  1   
 31  17  19  1   
 32  17  33  1   
 33  17  34  1   
 34  18  20  1   
 35  18  35  1   
 36  18  36  1   
 37  19  20  1   
 38  19  37  1   
 39  19  38  1   
@<TRIPOS>SUBSTRUCTURE
  1 ****  10 GROUP 4 **** **** 0

# MOE 2024.06 (io_trps.svl 2023.06)
