@<TRIPOS>MOLECULE
NONAME
46 48 1 0 0 
SMALL
USER_CHARGES


@<TRIPOS>ATOM
  1 F        0.4430    -0.5390     0.7940 F     1 <1>  -0.1900 
  2 C        1.5780    -1.1180     0.4980 C.ar  1 <1>   0.1900 
  3 C        1.9180    -1.2800    -0.8310 C.ar  1 <1>  -0.1500 
  4 C        2.3960    -1.5460     1.5270 C.ar  1 <1>  -0.1500 
  5 C        3.1210    -1.8940    -1.1350 C.ar  1 <1>  -0.1500 
  6 C        3.5960    -2.1580     1.2080 C.ar  1 <1>  -0.1500 
  7 C        3.9680    -2.3370    -0.1240 C.ar  1 <1>   0.1000 
  8 N        5.1690    -2.9510    -0.4630 N.pl3 1 <1>  -0.8380 
  9 C        5.2510    -4.4190    -0.2150 C.3   1 <1>   0.2090 
 10 C        6.4140    -2.1970    -0.1340 C.3   1 <1>   0.2090 
 11 C        6.4780    -5.0260    -0.9300 C.3   1 <1>   0.3430 
 12 C        7.6330    -2.8180    -0.8470 C.3   1 <1>   0.3430 
 13 N        7.7600    -4.3050    -0.5960 N.4   1 <1>  -0.9590 
 14 C        8.9270    -4.8810    -1.3160 C.3   1 <1>   0.4860 
 15 C       10.1840    -4.2270    -0.7790 C.ar  1 <1>  -0.1430 
 16 C       10.6730    -4.5670     0.4730 C.ar  1 <1>  -0.1500 
 17 C       10.8500    -3.2720    -1.5340 C.ar  1 <1>  -0.1500 
 18 C       11.8050    -3.9470     0.9700 C.ar  1 <1>  -0.1500 
 19 C       11.9820    -2.6540    -1.0330 C.ar  1 <1>  -0.1500 
 20 C       12.4630    -2.9840     0.2230 C.ar  1 <1>  -0.1430 
 21 C       13.7080    -2.3060     0.7710 C.3   1 <1>  -0.0170 
 22 C       14.9630    -3.0880     0.3770 C.3   1 <1>  -0.2400 
 23 H        1.2550    -0.9330    -1.6030 H     1 <1>   0.1500 
 24 H        2.0940    -1.4000     2.5490 H     1 <1>   0.1500 
 25 H        3.4120    -2.0330    -2.1600 H     1 <1>   0.1500 
 26 H        4.2440    -2.4970     1.9930 H     1 <1>   0.1500 
 27 H        4.3540    -4.8890    -0.5820 H     1 <1>   0.0800 
 28 H        5.3120    -4.6060     0.8430 H     1 <1>   0.0800 
 29 H        6.5720    -2.1990     0.9300 H     1 <1>   0.0800 
 30 H        6.3010    -1.1720    -0.4490 H     1 <1>   0.0800 
 31 H        6.3010    -4.9710    -1.9920 H     1 <1>   0.0800 
 32 H        6.5590    -6.0670    -0.6620 H     1 <1>   0.0800 
 33 H        8.5250    -2.3120    -0.5150 H     1 <1>   0.0800 
 34 H        7.5270    -2.6390    -1.9040 H     1 <1>   0.0800 
 35 H        7.9500    -4.4150     0.4070 H     1 <1>   0.4500 
 36 H        8.8410    -4.7030    -2.3750 H     1 <1>   0.0800 
 37 H        8.9820    -5.9450    -1.1490 H     1 <1>   0.0800 
 38 H       10.1910    -5.3170     1.0770 H     1 <1>   0.1500 
 39 H       10.5040    -2.9970    -2.5160 H     1 <1>   0.1500 
 40 H       12.1810    -4.2170     1.9430 H     1 <1>   0.1500 
 41 H       12.4950    -1.9150    -1.6250 H     1 <1>   0.1500 
 42 H       13.6470    -2.2410     1.8430 H     1 <1>   0.0800 
 43 H       13.7750    -1.3020     0.3880 H     1 <1>   0.0800 
 44 H       14.9170    -4.0880     0.7710 H     1 <1>   0.0800 
 45 H       15.8390    -2.6020     0.7670 H     1 <1>   0.0800 
 46 H       15.0470    -3.1430    -0.6940 H     1 <1>   0.0800 
@<TRIPOS>BOND
  1   1   2  1   
  2   2   3  ar  
  3   2   4  ar  
  4   3   5  ar  
  5   3  23  1   
  6   4   6  ar  
  7   4  24  1   
  8   5   7  ar  
  9   5  25  1   
 10   6   7  ar  
 11   6  26  1   
 12   7   8  1   
 13   8   9  1   
 14   8  10  1   
 15   9  11  1   
 16   9  27  1   
 17   9  28  1   
 18  10  12  1   
 19  10  29  1   
 20  10  30  1   
 21  11  13  1   
 22  11  31  1   
 23  11  32  1   
 24  12  13  1   
 25  12  33  1   
 26  12  34  1   
 27  13  14  1   
 28  13  35  1   
 29  14  15  1   
 30  14  36  1   
 31  14  37  1   
 32  15  16  ar  
 33  15  17  ar  
 34  16  18  ar  
 35  16  38  1   
 36  17  19  ar  
 37  17  39  1   
 38  18  20  ar  
 39  18  40  1   
 40  19  20  ar  
 41  19  41  1   
 42  20  21  1   
 43  21  22  1   
 44  21  42  1   
 45  21  43  1   
 46  22  44  1   
 47  22  45  1   
 48  22  46  1   
@<TRIPOS>SUBSTRUCTURE
  1 ****  12 GROUP 4 **** **** 0

# MOE 2024.06 (io_trps.svl 2023.06)
