@<TRIPOS>MOLECULE
NONAME
37 38 1 0 0 
SMALL
USER_CHARGES


@<TRIPOS>ATOM
  1 S        0.3930     0.1530     1.8590 S.o2  1 <1>   1.2950 
  2 O        0.5680     1.5110     2.3510 O.2   1 <1>  -0.6500 
  3 O        0.4890    -0.9150     2.8400 O.2   1 <1>  -0.6500 
  4 N        1.5000    -0.1050     0.4650 N.pl3 1 <1>   0.5840 
  5 C       -1.2350     0.0570     1.0440 C.ar  1 <1>  -0.0090 
  6 N        2.2930    -1.2140     0.2740 N.2   1 <1>  -0.7070 
  7 C        1.6580     0.7270    -0.6130 C.2   1 <1>  -0.3320 
  8 C       -1.6800    -1.0300     0.2770 C.ar  1 <1>  -0.1430 
  9 C       -2.0860     1.1470     1.1760 C.ar  1 <1>  -0.1500 
 10 C        2.8960    -1.0400    -0.8550 C.2   1 <1>   0.1080 
 11 C        2.5400     0.1550    -1.4590 C.2   1 <1>  -0.1500 
 12 C        0.9520     2.0630    -0.8030 C.3   1 <1>  -0.0600 
 13 C       -2.9130    -0.9760    -0.3840 C.ar  1 <1>  -0.1430 
 14 C       -0.8270    -2.2990     0.1560 C.3   1 <1>  -0.0970 
 15 C       -3.3150     1.1900     0.5560 C.ar  1 <1>  -0.1500 
 16 C        3.8700    -2.0480    -1.4170 C.3   1 <1>  -0.0590 
 17 C       -3.7370     0.1360    -0.2290 C.ar  1 <1>  -0.1430 
 18 C       -3.3660    -2.1360    -1.2770 C.3   1 <1>  -0.0970 
 19 C       -5.1090     0.2520    -0.8840 C.3   1 <1>  -0.0970 
 20 H       -1.7900     1.9910     1.7770 H     1 <1>   0.1500 
 21 H        2.9070     0.5190    -2.4030 H     1 <1>   0.1500 
 22 H       -0.1120     1.9250    -0.8770 H     1 <1>   0.0800 
 23 H        1.2920     2.5350    -1.7080 H     1 <1>   0.0800 
 24 H        1.1650     2.7240     0.0200 H     1 <1>   0.0800 
 25 H       -0.1590    -2.4340     0.9830 H     1 <1>   0.0800 
 26 H       -0.2480    -2.2710    -0.7510 H     1 <1>   0.0800 
 27 H       -1.4440    -3.1780     0.1430 H     1 <1>   0.0800 
 28 H       -3.9400     2.0550     0.6910 H     1 <1>   0.1500 
 29 H        3.3730    -2.9910    -1.5520 H     1 <1>   0.0800 
 30 H        4.6850    -2.1800    -0.7300 H     1 <1>   0.0800 
 31 H        4.2560    -1.7140    -2.3620 H     1 <1>   0.0800 
 32 H       -3.7820    -2.9200    -0.6700 H     1 <1>   0.0800 
 33 H       -2.5410    -2.5300    -1.8420 H     1 <1>   0.0800 
 34 H       -4.1040    -1.8360    -1.9960 H     1 <1>   0.0800 
 35 H       -5.0020     0.3530    -1.9480 H     1 <1>   0.0800 
 36 H       -5.6440     1.1090    -0.5170 H     1 <1>   0.0800 
 37 H       -5.6980    -0.6210    -0.6670 H     1 <1>   0.0800 
@<TRIPOS>BOND
  1   1   2  2   
  2   1   3  2   
  3   1   4  1   
  4   1   5  1   
  5   4   6  1   
  6   4   7  1   
  7   5   8  ar  
  8   5   9  ar  
  9   6  10  2   
 10   7  11  2   
 11   7  12  1   
 12   8  13  ar  
 13   8  14  1   
 14   9  15  ar  
 15   9  20  1   
 16  10  11  1   
 17  10  16  1   
 18  11  21  1   
 19  12  22  1   
 20  12  23  1   
 21  12  24  1   
 22  13  17  ar  
 23  13  18  1   
 24  14  25  1   
 25  14  26  1   
 26  14  27  1   
 27  15  17  ar  
 28  15  28  1   
 29  16  29  1   
 30  16  30  1   
 31  16  31  1   
 32  17  19  1   
 33  18  32  1   
 34  18  33  1   
 35  18  34  1   
 36  19  35  1   
 37  19  36  1   
 38  19  37  1   
@<TRIPOS>SUBSTRUCTURE
  1 ****   5 GROUP 4 **** **** 0

# MOE 2024.06 (io_trps.svl 2023.06)
