@<TRIPOS>MOLECULE
NONAME
61 63 1 0 0 
SMALL
USER_CHARGES


@<TRIPOS>ATOM
  1 O       -0.8220     1.7280     2.7800 O.3   1 <1>  -0.8500 
  2 C       -0.6520     2.2000     1.6580 C.2   1 <1>  -0.2880 
  3 C       -1.4650     1.9580     0.5380 C.2   1 <1>  -0.1240 
  4 C        0.5200     3.1620     1.5720 C.3   1 <1>  -0.0220 
  5 C       -1.2560     2.6110    -0.6810 C.2   1 <1>   0.4950 
  6 C       -2.6980     1.0330     0.6690 C.3   1 <1>   0.3400 
  7 C        1.0770     3.3210     0.1450 C.3   1 <1>   0.0000 
  8 O       -1.9560     2.5390    -1.7010 O.2   1 <1>  -0.5700 
  9 C       -0.0900     3.5760    -0.8300 C.3   1 <1>  -0.0990 
 10 C       -2.7890    -0.2480    -0.2270 C.2   1 <1>  -0.1240 
 11 C       -3.9080     1.9960     0.6170 C.ar  1 <1>  -0.1440 
 12 C        1.8470     2.0500    -0.2560 C.3   1 <1>  -0.2400 
 13 C        2.0540     4.5070     0.0950 C.3   1 <1>  -0.2400 
 14 C       -3.9290    -1.0690    -0.1030 C.2   1 <1>  -0.2880 
 15 C       -1.7510    -0.6230    -1.0950 C.2   1 <1>   0.4950 
 16 C       -4.0720     2.9100     1.6510 C.ar  1 <1>  -0.1500 
 17 C       -4.8260     2.0160    -0.4250 C.ar  1 <1>  -0.1500 
 18 O       -4.8690    -0.8790     0.6620 O.3   1 <1>  -0.8500 
 19 C       -4.1060    -2.3280    -0.9320 C.3   1 <1>  -0.0220 
 20 O       -0.6380    -0.1100    -1.2510 O.2   1 <1>  -0.5700 
 21 C       -1.9270    -1.8280    -2.0070 C.3   1 <1>  -0.0990 
 22 C       -5.1160     3.8180     1.6430 C.ar  1 <1>  -0.1500 
 23 C       -5.8710     2.9220    -0.4340 C.ar  1 <1>  -0.1500 
 24 C       -2.7730    -2.9440    -1.3800 C.3   1 <1>   0.0000 
 25 C       -6.0310     3.8390     0.6000 C.ar  1 <1>   0.1000 
 26 C       -3.0270    -4.0500    -2.4160 C.3   1 <1>  -0.2400 
 27 C       -2.0370    -3.5620    -0.1750 C.3   1 <1>  -0.2400 
 28 N       -7.0900     4.7480     0.6150 N.pl3 1 <1>  -0.8380 
 29 C       -7.1890     5.6390    -0.5670 C.3   1 <1>   0.1290 
 30 C       -8.3790     4.1620     1.0530 C.3   1 <1>   0.1290 
 31 H        1.2950     2.8130     2.2300 H     1 <1>   0.0800 
 32 H        0.1780     4.1090     1.9470 H     1 <1>   0.0800 
 33 H       -2.6940     0.6380     1.6680 H     1 <1>   0.0800 
 34 H       -0.4860     4.5600    -0.6690 H     1 <1>   0.0800 
 35 H        0.2690     3.5250    -1.8410 H     1 <1>   0.0800 
 36 H        1.2180     1.1850    -0.1460 H     1 <1>   0.0800 
 37 H        2.7010     1.9100     0.3810 H     1 <1>   0.0800 
 38 H        2.1760     2.1020    -1.2770 H     1 <1>   0.0800 
 39 H        1.5530     5.4170     0.3720 H     1 <1>   0.0800 
 40 H        2.4550     4.6220    -0.8950 H     1 <1>   0.0800 
 41 H        2.8680     4.3470     0.7800 H     1 <1>   0.0800 
 42 H       -3.3580     2.8990     2.4610 H     1 <1>   0.1500 
 43 H       -4.7180     1.3030    -1.2220 H     1 <1>   0.1500 
 44 H       -4.7070    -2.0670    -1.7840 H     1 <1>   0.0800 
 45 H       -4.6600    -3.0450    -0.3530 H     1 <1>   0.0800 
 46 H       -0.9610    -2.2170    -2.2680 H     1 <1>   0.0800 
 47 H       -2.3960    -1.4740    -2.9060 H     1 <1>   0.0800 
 48 H       -5.2290     4.5160     2.4480 H     1 <1>   0.1500 
 49 H       -6.5710     2.9050    -1.2440 H     1 <1>   0.1500 
 50 H       -3.5370    -3.6500    -3.2740 H     1 <1>   0.0800 
 51 H       -3.6390    -4.8250    -1.9890 H     1 <1>   0.0800 
 52 H       -2.0980    -4.4840    -2.7400 H     1 <1>   0.0800 
 53 H       -1.8770    -2.8200     0.5900 H     1 <1>   0.0800 
 54 H       -1.0830    -3.9570    -0.4690 H     1 <1>   0.0800 
 55 H       -2.6250    -4.3510     0.2570 H     1 <1>   0.0800 
 56 H       -6.2010     5.8850    -0.9160 H     1 <1>   0.0800 
 57 H       -7.6980     6.5460    -0.2950 H     1 <1>   0.0800 
 58 H       -7.7260     5.1470    -1.3590 H     1 <1>   0.0800 
 59 H       -8.2030     3.4710     1.8610 H     1 <1>   0.0800 
 60 H       -8.8390     3.6310     0.2390 H     1 <1>   0.0800 
 61 H       -9.0370     4.9400     1.3970 H     1 <1>   0.0800 
@<TRIPOS>BOND
  1   1   2  1   
  2   2   3  2   
  3   2   4  1   
  4   3   5  1   
  5   3   6  1   
  6   4   7  1   
  7   4  31  1   
  8   4  32  1   
  9   5   8  2   
 10   5   9  1   
 11   6  10  1   
 12   6  11  1   
 13   6  33  1   
 14   7   9  1   
 15   7  12  1   
 16   7  13  1   
 17   9  34  1   
 18   9  35  1   
 19  10  14  2   
 20  10  15  1   
 21  11  16  ar  
 22  11  17  ar  
 23  12  36  1   
 24  12  37  1   
 25  12  38  1   
 26  13  39  1   
 27  13  40  1   
 28  13  41  1   
 29  14  18  1   
 30  14  19  1   
 31  15  20  2   
 32  15  21  1   
 33  16  22  ar  
 34  16  42  1   
 35  17  23  ar  
 36  17  43  1   
 37  19  24  1   
 38  19  44  1   
 39  19  45  1   
 40  21  24  1   
 41  21  46  1   
 42  21  47  1   
 43  22  25  ar  
 44  22  48  1   
 45  23  25  ar  
 46  23  49  1   
 47  24  26  1   
 48  24  27  1   
 49  25  28  1   
 50  26  50  1   
 51  26  51  1   
 52  26  52  1   
 53  27  53  1   
 54  27  54  1   
 55  27  55  1   
 56  28  29  1   
 57  28  30  1   
 58  29  56  1   
 59  29  57  1   
 60  29  58  1   
 61  30  59  1   
 62  30  60  1   
 63  30  61  1   
@<TRIPOS>SUBSTRUCTURE
  1 ****   6 GROUP 4 **** **** 0

# MOE 2024.06 (io_trps.svl 2023.06)
