@<TRIPOS>MOLECULE
NONAME
41 42 1 0 0 
SMALL
USER_CHARGES


@<TRIPOS>ATOM
  1 F       -1.1350     1.0620     1.8890 F     1 <1>  -0.1900 
  2 C       -2.2970     0.8360     1.3460 C.ar  1 <1>   0.1900 
  3 C       -2.7240    -0.4680     1.1950 C.ar  1 <1>  -0.1500 
  4 C       -3.0650     1.9080     0.9360 C.ar  1 <1>  -0.1500 
  5 C       -3.9620    -0.6970     0.6200 C.ar  1 <1>  -0.1500 
  6 C       -4.3000     1.6620     0.3610 C.ar  1 <1>  -0.1500 
  7 C       -4.7810     0.3560     0.1970 C.ar  1 <1>   0.0860 
  8 C       -6.0810     0.0860    -0.3900 C.2   1 <1>   0.5440 
  9 O       -6.2590    -0.9270    -1.0400 O.2   1 <1>  -0.5700 
 10 N       -7.1120     0.9690    -0.2010 N.am  1 <1>  -0.4930 
 11 C       -8.4330     0.9020    -0.7090 C.2   1 <1>   0.0630 
 12 C       -9.0660     1.8610    -1.5000 C.2   1 <1>   0.1080 
 13 C       -9.3600    -0.0640    -0.5300 C.2   1 <1>  -0.3320 
 14 N      -10.2840     1.5320    -1.7930 N.2   1 <1>  -0.7070 
 15 C       -8.4420     3.1470    -1.9930 C.3   1 <1>  -0.0590 
 16 N      -10.4710     0.3390    -1.1980 N.pl3 1 <1>   0.3140 
 17 C       -9.2420    -1.3710     0.2460 C.3   1 <1>  -0.0600 
 18 C      -11.7290    -0.3950    -1.3760 C.3   1 <1>   0.1570 
 19 C      -12.4840    -0.4420    -0.0750 C.2   1 <1>   0.6590 
 20 O      -12.6070    -1.4740     0.5360 O.2   1 <1>  -0.5700 
 21 O      -13.0230     0.6980     0.3420 O.3   1 <1>  -0.4300 
 22 C      -13.7690     0.8060     1.5340 C.3   1 <1>   0.1200 
 23 C      -15.2240     0.4480     1.2400 C.3   1 <1>  -0.2400 
 24 H       -2.0990    -1.2820     1.5200 H     1 <1>   0.1500 
 25 H       -2.6950     2.9100     1.0640 H     1 <1>   0.1500 
 26 H       -4.3090    -1.7090     0.4900 H     1 <1>   0.1500 
 27 H       -4.8900     2.4960     0.0270 H     1 <1>   0.1500 
 28 H       -6.9260     1.7770     0.3870 H     1 <1>   0.3700 
 29 H       -7.4140     2.9820    -2.2540 H     1 <1>   0.0800 
 30 H       -8.5050     3.8970    -1.2260 H     1 <1>   0.0800 
 31 H       -8.9690     3.4930    -2.8630 H     1 <1>   0.0800 
 32 H       -8.2610    -1.4700     0.6710 H     1 <1>   0.0800 
 33 H       -9.4080    -2.2080    -0.4080 H     1 <1>   0.0800 
 34 H       -9.9570    -1.4010     1.0480 H     1 <1>   0.0800 
 35 H      -11.5060    -1.3900    -1.7070 H     1 <1>   0.0800 
 36 H      -12.3210     0.1040    -2.1180 H     1 <1>   0.0800 
 37 H      -13.6930     1.8250     1.8730 H     1 <1>   0.0800 
 38 H      -13.3440     0.1550     2.2800 H     1 <1>   0.0800 
 39 H      -15.6220     1.0980     0.4810 H     1 <1>   0.0800 
 40 H      -15.8120     0.5640     2.1320 H     1 <1>   0.0800 
 41 H      -15.2990    -0.5760     0.9170 H     1 <1>   0.0800 
@<TRIPOS>BOND
  1   1   2  1   
  2   2   3  ar  
  3   2   4  ar  
  4   3   5  ar  
  5   3  24  1   
  6   4   6  ar  
  7   4  25  1   
  8   5   7  ar  
  9   5  26  1   
 10   6   7  ar  
 11   6  27  1   
 12   7   8  1   
 13   8   9  2   
 14   8  10  am  
 15  10  11  1   
 16  10  28  1   
 17  11  12  1   
 18  11  13  2   
 19  12  14  2   
 20  12  15  1   
 21  13  16  1   
 22  13  17  1   
 23  14  16  1   
 24  15  29  1   
 25  15  30  1   
 26  15  31  1   
 27  16  18  1   
 28  17  32  1   
 29  17  33  1   
 30  17  34  1   
 31  18  19  1   
 32  18  35  1   
 33  18  36  1   
 34  19  20  2   
 35  19  21  1   
 36  21  22  1   
 37  22  23  1   
 38  22  37  1   
 39  22  38  1   
 40  23  39  1   
 41  23  40  1   
 42  23  41  1   
@<TRIPOS>SUBSTRUCTURE
  1 ****  11 GROUP 4 **** **** 0

# MOE 2024.06 (io_trps.svl 2023.06)
