@<TRIPOS>MOLECULE
NONAME
49 51 1 0 0 
SMALL
USER_CHARGES


@<TRIPOS>ATOM
  1 CL       0.3280    -0.2690     0.2350 Cl    1 <1>  -0.1770 
  2 C        2.0530     0.0170     0.1740 C.ar  1 <1>   0.1770 
  3 C        2.5430     1.3000    -0.0330 C.ar  1 <1>  -0.1440 
  4 C        2.9000    -1.0630     0.3370 C.ar  1 <1>  -0.1500 
  5 C        3.9170     1.4880    -0.0750 C.ar  1 <1>  -0.1500 
  6 C        1.5980     2.4790    -0.2110 C.3   1 <1>  -0.0960 
  7 C        4.2680    -0.8640     0.2930 C.ar  1 <1>  -0.1500 
  8 C        4.7840     0.4070     0.0880 C.ar  1 <1>   0.0830 
  9 O        6.1350     0.5100     0.0590 O.3   1 <1>  -0.3630 
 10 C        6.7730     1.7500    -0.1560 C.3   1 <1>   0.2630 
 11 C        8.2780     1.5370    -0.1180 C.ar  1 <1>  -0.1430 
 12 C        9.0570     1.7750    -1.2390 C.ar  1 <1>  -0.1500 
 13 C        8.8900     1.1050     1.0470 C.ar  1 <1>  -0.1500 
 14 C       10.4250     1.5800    -1.1920 C.ar  1 <1>  -0.1500 
 15 C       10.2580     0.9120     1.0880 C.ar  1 <1>  -0.1500 
 16 C       11.0590     1.1350    -0.0330 C.ar  1 <1>   0.0860 
 17 C       12.4940     0.9050    -0.0040 C.2   1 <1>   0.5440 
 18 O       13.2420     1.5180    -0.7420 O.2   1 <1>  -0.5700 
 19 N       13.0600    -0.0580     0.8010 N.am  1 <1>  -0.6600 
 20 C       12.5940    -1.4690     0.6860 C.3   1 <1>   0.1400 
 21 C       14.5030     0.0600     1.1630 C.3   1 <1>   0.1400 
 22 C       13.4660    -2.2270    -0.3390 C.3   1 <1>   0.3430 
 23 C       15.3610    -0.6700     0.1150 C.3   1 <1>   0.3430 
 24 N       14.9440    -2.1130    -0.0460 N.4   1 <1>  -0.9590 
 25 C       15.7490    -2.7730    -1.1180 C.3   1 <1>   0.2630 
 26 H        2.4910    -2.0440     0.4960 H     1 <1>   0.1500 
 27 H        4.2950     2.4790    -0.2350 H     1 <1>   0.1500 
 28 H        0.9640     2.3160    -1.0640 H     1 <1>   0.0800 
 29 H        2.1410     3.3950    -0.3590 H     1 <1>   0.0800 
 30 H        0.9790     2.5880     0.6630 H     1 <1>   0.0800 
 31 H        4.9440    -1.6910     0.4170 H     1 <1>   0.1500 
 32 H        6.4740     2.4270     0.6250 H     1 <1>   0.0800 
 33 H        6.4610     2.1290    -1.1140 H     1 <1>   0.0800 
 34 H        8.6020     2.1150    -2.1540 H     1 <1>   0.1500 
 35 H        8.2940     0.9170     1.9250 H     1 <1>   0.1500 
 36 H       11.0170     1.7780    -2.0690 H     1 <1>   0.1500 
 37 H       10.7130     0.5870     2.0080 H     1 <1>   0.1500 
 38 H       11.5670    -1.4960     0.3630 H     1 <1>   0.0800 
 39 H       12.6490    -1.9470     1.6480 H     1 <1>   0.0800 
 40 H       14.6690    -0.3540     2.1420 H     1 <1>   0.0800 
 41 H       14.7850     1.1000     1.1950 H     1 <1>   0.0800 
 42 H       13.2640    -1.8170    -1.3160 H     1 <1>   0.0800 
 43 H       13.1740    -3.2650    -0.3530 H     1 <1>   0.0800 
 44 H       16.3980    -0.6140     0.4040 H     1 <1>   0.0800 
 45 H       15.2500    -0.1510    -0.8240 H     1 <1>   0.0800 
 46 H       15.1250    -2.5900     0.8480 H     1 <1>   0.4500 
 47 H       15.5810    -2.2850    -2.0650 H     1 <1>   0.0800 
 48 H       15.4730    -3.8110    -1.2100 H     1 <1>   0.0800 
 49 H       16.8010    -2.7170    -0.8850 H     1 <1>   0.0800 
@<TRIPOS>BOND
  1   1   2  1   
  2   2   3  ar  
  3   2   4  ar  
  4   3   5  ar  
  5   3   6  1   
  6   4   7  ar  
  7   4  26  1   
  8   5   8  ar  
  9   5  27  1   
 10   6  28  1   
 11   6  29  1   
 12   6  30  1   
 13   7   8  ar  
 14   7  31  1   
 15   8   9  1   
 16   9  10  1   
 17  10  11  1   
 18  10  32  1   
 19  10  33  1   
 20  11  12  ar  
 21  11  13  ar  
 22  12  14  ar  
 23  12  34  1   
 24  13  15  ar  
 25  13  35  1   
 26  14  16  ar  
 27  14  36  1   
 28  15  16  ar  
 29  15  37  1   
 30  16  17  1   
 31  17  18  2   
 32  17  19  am  
 33  19  20  1   
 34  19  21  1   
 35  20  22  1   
 36  20  38  1   
 37  20  39  1   
 38  21  23  1   
 39  21  40  1   
 40  21  41  1   
 41  22  24  1   
 42  22  42  1   
 43  22  43  1   
 44  23  24  1   
 45  23  44  1   
 46  23  45  1   
 47  24  25  1   
 48  24  46  1   
 49  25  47  1   
 50  25  48  1   
 51  25  49  1   
@<TRIPOS>SUBSTRUCTURE
  1 ****  13 GROUP 4 **** **** 0

# MOE 2024.06 (io_trps.svl 2023.06)
