@<TRIPOS>MOLECULE
NONAME
35 37 1 0 0 
SMALL
USER_CHARGES


@<TRIPOS>ATOM
  1 O       -0.4920     0.5090     0.5530 O.2   1 <1>  -0.7500 
  2 N       -0.4240     1.5400    -0.3560 N.4   1 <1>  -0.1220 
  3 C        0.2390     2.7190     0.2220 C.3   1 <1>   0.5900 
  4 C       -1.7560     1.9820    -0.8730 C.3   1 <1>   0.1760 
  5 N       -0.3830     3.8660    -0.4510 N.3   1 <1>  -0.6400 
  6 C        1.7490     2.6340    -0.0210 C.ar  1 <1>  -0.1440 
  7 C       -1.7880     3.5120    -0.6760 C.3   1 <1>   0.1900 
  8 C       -2.9730     1.2500    -0.2580 C.3   1 <1>  -0.1600 
  9 O       -0.2180     5.0180     0.2780 O.3   1 <1>  -0.3000 
 10 C        2.3880     3.2960    -1.0640 C.ar  1 <1>  -0.1500 
 11 C        2.5070     1.8450     0.8320 C.ar  1 <1>  -0.1500 
 12 C       -2.7380     3.9240     0.4680 C.3   1 <1>  -0.1600 
 13 C       -4.2550     2.0620    -0.4770 C.3   1 <1>  -0.1600 
 14 C        3.7560     3.1800    -1.2390 C.ar  1 <1>  -0.1500 
 15 C        3.8750     1.7270     0.6600 C.ar  1 <1>  -0.1500 
 16 C       -4.1780     3.4330     0.2190 C.3   1 <1>  -0.1600 
 17 C        4.5010     2.3970    -0.3760 C.ar  1 <1>  -0.1500 
 18 H        0.1800     1.2410    -1.1240 H     1 <1>   0.3600 
 19 H        0.0140     2.7560     1.2730 H     1 <1>   0.0800 
 20 H       -1.7680     1.8060    -1.9320 H     1 <1>   0.0800 
 21 H       -2.1290     3.9820    -1.5820 H     1 <1>   0.0800 
 22 H       -2.8400     1.1170     0.8020 H     1 <1>   0.0800 
 23 H       -3.0650     0.2760    -0.7060 H     1 <1>   0.0800 
 24 H        0.3400     5.6660    -0.2040 H     1 <1>   0.4000 
 25 H        1.8270     3.9070    -1.7500 H     1 <1>   0.1500 
 26 H        2.0240     1.3080     1.6340 H     1 <1>   0.1500 
 27 H       -2.7560     4.9940     0.5770 H     1 <1>   0.0800 
 28 H       -2.3800     3.4990     1.3910 H     1 <1>   0.0800 
 29 H       -5.1030     1.5140    -0.1030 H     1 <1>   0.0800 
 30 H       -4.4010     2.2040    -1.5350 H     1 <1>   0.0800 
 31 H        4.2420     3.6980    -2.0470 H     1 <1>   0.1500 
 32 H        4.4490     1.1120     1.3300 H     1 <1>   0.1500 
 33 H       -4.7060     4.1550    -0.3810 H     1 <1>   0.0800 
 34 H       -4.6840     3.3780     1.1690 H     1 <1>   0.0800 
 35 H        5.5650     2.3060    -0.5110 H     1 <1>   0.1500 
@<TRIPOS>BOND
  1   1   2  2   
  2   2   3  1   
  3   2   4  1   
  4   2  18  1   
  5   3   5  1   
  6   3   6  1   
  7   3  19  1   
  8   4   7  1   
  9   4   8  1   
 10   4  20  1   
 11   5   7  1   
 12   5   9  1   
 13   6  10  ar  
 14   6  11  ar  
 15   7  12  1   
 16   7  21  1   
 17   8  13  1   
 18   8  22  1   
 19   8  23  1   
 20   9  24  1   
 21  10  14  ar  
 22  10  25  1   
 23  11  15  ar  
 24  11  26  1   
 25  12  16  1   
 26  12  27  1   
 27  12  28  1   
 28  13  16  1   
 29  13  29  1   
 30  13  30  1   
 31  14  17  ar  
 32  14  31  1   
 33  15  17  ar  
 34  15  32  1   
 35  16  33  1   
 36  16  34  1   
 37  17  35  1   
@<TRIPOS>SUBSTRUCTURE
  1 ****   3 GROUP 4 **** **** 0

# MOE 2024.06 (io_trps.svl 2023.06)
