@<TRIPOS>MOLECULE
NONAME
33 33 1 0 0 
SMALL
USER_CHARGES


@<TRIPOS>ATOM
  1 BR       0.0550    -0.1820     0.4540 Br    1 <1>  -0.1110 
  2 C        1.6540     0.8610     0.2450 C.ar  1 <1>   0.1110 
  3 C        1.5440     2.1980    -0.0790 C.ar  1 <1>  -0.1500 
  4 C        2.8800     0.2510     0.4240 C.ar  1 <1>  -0.1500 
  5 C        2.7020     2.9410    -0.2270 C.ar  1 <1>  -0.1500 
  6 C        4.0270     1.0100     0.2720 C.ar  1 <1>  -0.1500 
  7 C        3.9700     2.3710    -0.0570 C.ar  1 <1>   0.0860 
  8 C        5.1680     3.1740    -0.2190 C.2   1 <1>   0.6340 
  9 O        5.1480     4.3550    -0.4970 O.2   1 <1>  -0.5700 
 10 O        6.3590     2.5850    -0.0550 O.3   1 <1>  -0.4300 
 11 C        7.5550     3.3160    -0.1990 C.3   1 <1>   0.1200 
 12 C        8.7260     2.3660     0.0440 C.3   1 <1>  -0.1600 
 13 C       10.0490     3.1150    -0.1040 C.3   1 <1>   0.3430 
 14 N       11.1990     2.2250     0.2290 N.4   1 <1>  -0.9590 
 15 C       12.4470     3.0300     0.4150 C.3   1 <1>   0.2630 
 16 C       11.4200     1.1650    -0.8070 C.3   1 <1>   0.2630 
 17 H        0.5740     2.6450    -0.2120 H     1 <1>   0.1500 
 18 H        2.9290    -0.7940     0.6770 H     1 <1>   0.1500 
 19 H        2.6270     3.9860    -0.4800 H     1 <1>   0.1500 
 20 H        4.9830     0.5360     0.4110 H     1 <1>   0.1500 
 21 H        7.5430     4.1200     0.5190 H     1 <1>   0.0800 
 22 H        7.5790     3.7240    -1.1960 H     1 <1>   0.0800 
 23 H        8.6650     1.5670    -0.6730 H     1 <1>   0.0800 
 24 H        8.6420     1.9680     1.0400 H     1 <1>   0.0800 
 25 H       10.0440     3.9600     0.5670 H     1 <1>   0.0800 
 26 H       10.1490     3.4890    -1.1110 H     1 <1>   0.0800 
 27 H       10.9850     1.7600     1.1260 H     1 <1>   0.4500 
 28 H       12.7060     3.5380    -0.5000 H     1 <1>   0.0800 
 29 H       13.2670     2.3900     0.6970 H     1 <1>   0.0800 
 30 H       12.3060     3.7660     1.1900 H     1 <1>   0.0800 
 31 H       11.6190     1.6130    -1.7670 H     1 <1>   0.0800 
 32 H       10.5490     0.5350    -0.8950 H     1 <1>   0.0800 
 33 H       12.2600     0.5450    -0.5360 H     1 <1>   0.0800 
@<TRIPOS>BOND
  1   1   2  1   
  2   2   3  ar  
  3   2   4  ar  
  4   3   5  ar  
  5   3  17  1   
  6   4   6  ar  
  7   4  18  1   
  8   5   7  ar  
  9   5  19  1   
 10   6   7  ar  
 11   6  20  1   
 12   7   8  1   
 13   8   9  2   
 14   8  10  1   
 15  10  11  1   
 16  11  12  1   
 17  11  21  1   
 18  11  22  1   
 19  12  13  1   
 20  12  23  1   
 21  12  24  1   
 22  13  14  1   
 23  13  25  1   
 24  13  26  1   
 25  14  15  1   
 26  14  16  1   
 27  14  27  1   
 28  15  28  1   
 29  15  29  1   
 30  15  30  1   
 31  16  31  1   
 32  16  32  1   
 33  16  33  1   
@<TRIPOS>SUBSTRUCTURE
  1 ****  10 GROUP 4 **** **** 0

# MOE 2024.06 (io_trps.svl 2023.06)
