@<TRIPOS>MOLECULE
NONAME
37 38 1 0 0 
SMALL
USER_CHARGES


@<TRIPOS>ATOM
  1 S        0.1790    -0.7150     1.4040 S.3   1 <1>  -0.0800 
  2 C       -1.2930    -0.7770     0.5110 C.2   1 <1>   0.4340 
  3 C        0.9340    -1.4160     0.0060 C.2   1 <1>   0.4420 
  4 S       -2.7580    -0.1640     1.3270 S.3   1 <1>  -0.2860 
  5 N       -1.1850    -1.2600    -0.6590 N.2   1 <1>  -0.3380 
  6 N        0.1010    -1.6300    -0.9510 N.2   1 <1>  -0.3380 
  7 N        2.2900    -1.6470     0.1020 N.am  1 <1>  -0.4940 
  8 C       -4.0740    -0.4050     0.0580 C.3   1 <1>   0.0700 
  9 C        3.1660    -2.1790    -0.8080 C.2   1 <1>   0.5440 
 10 C       -5.3940     0.0890     0.6460 C.3   1 <1>  -0.2400 
 11 O        2.7870    -2.5380    -1.9030 O.2   1 <1>  -0.5700 
 12 C        4.5550    -2.2990    -0.4180 C.ar  1 <1>   0.0860 
 13 C        5.4560    -1.2520    -0.6460 C.ar  1 <1>  -0.1430 
 14 C        5.0220    -3.4530     0.2230 C.ar  1 <1>  -0.1430 
 15 C        6.7690    -1.3530    -0.2200 C.ar  1 <1>  -0.1500 
 16 C        5.0100     0.0120    -1.3740 C.3   1 <1>  -0.0970 
 17 C        6.3380    -3.5360     0.6420 C.ar  1 <1>  -0.1500 
 18 C        4.0940    -4.6390     0.4620 C.3   1 <1>  -0.0970 
 19 C        7.2160    -2.4890     0.4290 C.ar  1 <1>  -0.1430 
 20 C        8.6590    -2.5910     0.8910 C.3   1 <1>  -0.0970 
 21 H        2.7160    -1.3810     0.9860 H     1 <1>   0.3700 
 22 H       -4.1080    -1.4550    -0.1760 H     1 <1>   0.0800 
 23 H       -3.7880     0.1580    -0.8130 H     1 <1>   0.0800 
 24 H       -5.6380    -0.4710     1.5320 H     1 <1>   0.0800 
 25 H       -6.1850    -0.0380    -0.0710 H     1 <1>   0.0800 
 26 H       -5.3210     1.1320     0.8990 H     1 <1>   0.0800 
 27 H        7.4560    -0.5440    -0.3970 H     1 <1>   0.1500 
 28 H        5.8430     0.6640    -1.5640 H     1 <1>   0.0800 
 29 H        4.5670    -0.2460    -2.3210 H     1 <1>   0.0800 
 30 H        4.2860     0.5470    -0.7860 H     1 <1>   0.0800 
 31 H        6.6910    -4.4250     1.1350 H     1 <1>   0.1500 
 32 H        3.3170    -4.3720     1.1550 H     1 <1>   0.0800 
 33 H        4.6330    -5.4780     0.8620 H     1 <1>   0.0800 
 34 H        3.6410    -4.9450    -0.4660 H     1 <1>   0.0800 
 35 H        9.0470    -1.6180     1.1350 H     1 <1>   0.0800 
 36 H        9.2610    -3.0190     0.1090 H     1 <1>   0.0800 
 37 H        8.7320    -3.2130     1.7650 H     1 <1>   0.0800 
@<TRIPOS>BOND
  1   1   2  1   
  2   1   3  1   
  3   2   4  1   
  4   2   5  2   
  5   3   6  2   
  6   3   7  1   
  7   4   8  1   
  8   5   6  1   
  9   7   9  am  
 10   7  21  1   
 11   8  10  1   
 12   8  22  1   
 13   8  23  1   
 14   9  11  2   
 15   9  12  1   
 16  10  24  1   
 17  10  25  1   
 18  10  26  1   
 19  12  13  ar  
 20  12  14  ar  
 21  13  15  ar  
 22  13  16  1   
 23  14  17  ar  
 24  14  18  1   
 25  15  19  ar  
 26  15  27  1   
 27  16  28  1   
 28  16  29  1   
 29  16  30  1   
 30  17  19  ar  
 31  17  31  1   
 32  18  32  1   
 33  18  33  1   
 34  18  34  1   
 35  19  20  1   
 36  20  35  1   
 37  20  36  1   
 38  20  37  1   
@<TRIPOS>SUBSTRUCTURE
  1 ****   7 GROUP 4 **** **** 0

# MOE 2024.06 (io_trps.svl 2023.06)
