@<TRIPOS>MOLECULE
NONAME
44 45 1 0 0 
SMALL
USER_CHARGES


@<TRIPOS>ATOM
  1 O       -0.3440    -1.8740    -1.8410 O.2   1 <1>  -0.5700 
  2 C       -0.3080    -2.0090    -0.6460 C.2   1 <1>   0.6590 
  3 O       -1.3420    -1.7430     0.1380 O.3   1 <1>  -0.4300 
  4 C        0.9540    -2.5000     0.0560 C.3   1 <1>  -0.0190 
  5 C       -2.5640    -1.2820    -0.3910 C.3   1 <1>   0.1200 
  6 C        2.1170    -1.5120    -0.1490 C.3   1 <1>  -0.1600 
  7 C        1.3540    -3.9010    -0.4440 C.3   1 <1>  -0.1600 
  8 C       -3.5340    -1.0770     0.7690 C.3   1 <1>  -0.2400 
  9 C        3.4270    -2.0320     0.4380 C.3   1 <1>   0.3430 
 10 C        2.6790    -4.3660     0.1560 C.3   1 <1>   0.3430 
 11 N        3.7450    -3.3690    -0.1460 N.4   1 <1>  -0.9590 
 12 C        5.0790    -3.8950     0.2800 C.3   1 <1>   0.3430 
 13 C        6.2420    -3.0330    -0.2390 C.3   1 <1>  -0.0800 
 14 C        7.3780    -3.9440    -0.7450 C.3   1 <1>  -0.0220 
 15 C        6.7830    -2.0700     0.8410 C.3   1 <1>  -0.1600 
 16 C        8.6240    -3.1370    -1.0560 C.2   1 <1>  -0.2880 
 17 C        7.8580    -1.1330     0.2670 C.3   1 <1>  -0.0220 
 18 C        8.8290    -1.8930    -0.6180 C.2   1 <1>  -0.2880 
 19 H        0.7410    -2.5620     1.1090 H     1 <1>   0.0800 
 20 H       -2.9390    -2.0190    -1.0820 H     1 <1>   0.0800 
 21 H       -2.3850    -0.3570    -0.9130 H     1 <1>   0.0800 
 22 H        1.8720    -0.5730     0.3170 H     1 <1>   0.0800 
 23 H        2.2550    -1.3180    -1.2000 H     1 <1>   0.0800 
 24 H        1.4330    -3.9020    -1.5180 H     1 <1>   0.0800 
 25 H        0.5830    -4.6050    -0.1820 H     1 <1>   0.0800 
 26 H       -3.6980    -2.0050     1.2860 H     1 <1>   0.0800 
 27 H       -4.4770    -0.7250     0.3930 H     1 <1>   0.0800 
 28 H       -3.1450    -0.3450     1.4540 H     1 <1>   0.0800 
 29 H        3.3410    -2.1120     1.5100 H     1 <1>   0.0800 
 30 H        4.2130    -1.3320     0.2100 H     1 <1>   0.0800 
 31 H        2.9410    -5.3260    -0.2610 H     1 <1>   0.0800 
 32 H        2.5740    -4.4780     1.2240 H     1 <1>   0.0800 
 33 H        3.7690    -3.2520    -1.1700 H     1 <1>   0.4500 
 34 H        5.1960    -4.8910    -0.1150 H     1 <1>   0.0800 
 35 H        5.1300    -3.9630     1.3550 H     1 <1>   0.0800 
 36 H        5.9110    -2.4520    -1.0830 H     1 <1>   0.0800 
 37 H        7.0590    -4.4530    -1.6390 H     1 <1>   0.0800 
 38 H        7.6320    -4.6870    -0.0070 H     1 <1>   0.0800 
 39 H        7.2280    -2.6470     1.6350 H     1 <1>   0.0800 
 40 H        6.0030    -1.4720     1.2730 H     1 <1>   0.0800 
 41 H        9.3390    -3.6660    -1.6660 H     1 <1>   0.1500 
 42 H        8.3960    -0.6710     1.0770 H     1 <1>   0.0800 
 43 H        7.3990    -0.3520    -0.3150 H     1 <1>   0.0800 
 44 H        9.7140    -1.3270    -0.8610 H     1 <1>   0.1500 
@<TRIPOS>BOND
  1   1   2  2   
  2   2   3  1   
  3   2   4  1   
  4   3   5  1   
  5   4   6  1   
  6   4   7  1   
  7   4  19  1   
  8   5   8  1   
  9   5  20  1   
 10   5  21  1   
 11   6   9  1   
 12   6  22  1   
 13   6  23  1   
 14   7  10  1   
 15   7  24  1   
 16   7  25  1   
 17   8  26  1   
 18   8  27  1   
 19   8  28  1   
 20   9  11  1   
 21   9  29  1   
 22   9  30  1   
 23  10  11  1   
 24  10  31  1   
 25  10  32  1   
 26  11  12  1   
 27  11  33  1   
 28  12  13  1   
 29  12  34  1   
 30  12  35  1   
 31  13  14  1   
 32  13  15  1   
 33  13  36  1   
 34  14  16  1   
 35  14  37  1   
 36  14  38  1   
 37  15  17  1   
 38  15  39  1   
 39  15  40  1   
 40  16  18  2   
 41  16  41  1   
 42  17  18  1   
 43  17  42  1   
 44  17  43  1   
 45  18  44  1   
@<TRIPOS>SUBSTRUCTURE
  1 ****   9 GROUP 4 **** **** 0

# MOE 2024.06 (io_trps.svl 2023.06)
