@<TRIPOS>MOLECULE
NONAME
44 45 1 0 0 
SMALL
USER_CHARGES


@<TRIPOS>ATOM
  1 O        0.2040    -0.5790     0.6260 O.3   1 <1>  -0.3630 
  2 C       -1.0130    -1.0900     0.3150 C.ar  1 <1>   0.0830 
  3 C        1.3770    -1.0740     0.0310 C.3   1 <1>   0.1200 
  4 C       -1.2180    -2.0970    -0.6240 C.ar  1 <1>  -0.1500 
  5 C       -2.1010    -0.5590     0.9870 C.ar  1 <1>  -0.1500 
  6 C        2.5490    -0.2850     0.6230 C.3   1 <1>   0.3430 
  7 C       -2.4980    -2.5580    -0.8760 C.ar  1 <1>  -0.1500 
  8 C       -3.3780    -1.0240     0.7310 C.ar  1 <1>  -0.1500 
  9 N        3.8760    -0.6880     0.0520 N.4   1 <1>  -0.9590 
 10 C       -3.5900    -2.0290    -0.2030 C.ar  1 <1>  -0.1430 
 11 C        4.2650    -2.0780     0.4450 C.3   1 <1>   0.3430 
 12 C        4.9230     0.2980     0.4550 C.3   1 <1>   0.3430 
 13 C       -4.9940    -2.5540    -0.4970 C.3   1 <1>   0.0630 
 14 C        5.5700    -2.4660    -0.2530 C.3   1 <1>  -0.1600 
 15 C        6.2430    -0.0360    -0.2440 C.3   1 <1>  -0.1600 
 16 C       -5.8890    -1.4420    -1.0530 C.3   1 <1>  -0.2400 
 17 C       -5.6180    -3.1790     0.7550 C.3   1 <1>  -0.2400 
 18 C        6.6960    -1.4710     0.0550 C.3   1 <1>  -0.1600 
 19 H        1.3030    -0.9160    -1.0310 H     1 <1>   0.0800 
 20 H        1.4480    -2.1210     0.2650 H     1 <1>   0.0800 
 21 H       -0.4060    -2.5360    -1.1700 H     1 <1>   0.1500 
 22 H       -1.9480     0.2190     1.7110 H     1 <1>   0.1500 
 23 H        2.5570    -0.4250     1.6920 H     1 <1>   0.0800 
 24 H        2.3780     0.7600     0.4220 H     1 <1>   0.0800 
 25 H       -2.6430    -3.3370    -1.6040 H     1 <1>   0.1500 
 26 H       -4.2090    -0.5980     1.2640 H     1 <1>   0.1500 
 27 H        3.8220    -0.6570    -0.9750 H     1 <1>   0.4500 
 28 H        3.4930    -2.7770     0.1660 H     1 <1>   0.0800 
 29 H        4.4000    -2.1310     1.5130 H     1 <1>   0.0800 
 30 H        5.0640     0.2650     1.5240 H     1 <1>   0.0800 
 31 H        4.6180     1.2960     0.1830 H     1 <1>   0.0800 
 32 H       -4.9260    -3.3240    -1.2470 H     1 <1>   0.0800 
 33 H        5.4060    -2.5180    -1.3160 H     1 <1>   0.0800 
 34 H        5.8650    -3.4480     0.0740 H     1 <1>   0.0800 
 35 H        7.0010     0.6520     0.0900 H     1 <1>   0.0800 
 36 H        6.1320     0.1020    -1.3050 H     1 <1>   0.0800 
 37 H       -6.0340    -0.6660    -0.3230 H     1 <1>   0.0800 
 38 H       -6.8490    -1.8390    -1.3280 H     1 <1>   0.0800 
 39 H       -5.4340    -1.0100    -1.9260 H     1 <1>   0.0800 
 40 H       -5.7570    -2.4410     1.5240 H     1 <1>   0.0800 
 41 H       -4.9740    -3.9530     1.1360 H     1 <1>   0.0800 
 42 H       -6.5720    -3.6140     0.5180 H     1 <1>   0.0800 
 43 H        7.5680    -1.7100    -0.5330 H     1 <1>   0.0800 
 44 H        6.9720    -1.5510     1.0930 H     1 <1>   0.0800 
@<TRIPOS>BOND
  1   1   2  1   
  2   1   3  1   
  3   2   4  ar  
  4   2   5  ar  
  5   3   6  1   
  6   3  19  1   
  7   3  20  1   
  8   4   7  ar  
  9   4  21  1   
 10   5   8  ar  
 11   5  22  1   
 12   6   9  1   
 13   6  23  1   
 14   6  24  1   
 15   7  10  ar  
 16   7  25  1   
 17   8  10  ar  
 18   8  26  1   
 19   9  11  1   
 20   9  12  1   
 21   9  27  1   
 22  10  13  1   
 23  11  14  1   
 24  11  28  1   
 25  11  29  1   
 26  12  15  1   
 27  12  30  1   
 28  12  31  1   
 29  13  16  1   
 30  13  17  1   
 31  13  32  1   
 32  14  18  1   
 33  14  33  1   
 34  14  34  1   
 35  15  18  1   
 36  15  35  1   
 37  15  36  1   
 38  16  37  1   
 39  16  38  1   
 40  16  39  1   
 41  17  40  1   
 42  17  41  1   
 43  17  42  1   
 44  18  43  1   
 45  18  44  1   
@<TRIPOS>SUBSTRUCTURE
  1 ****   1 GROUP 4 **** **** 0

# MOE 2024.06 (io_trps.svl 2023.06)
