@<TRIPOS>MOLECULE
NONAME
43 44 1 0 0 
SMALL
USER_CHARGES


@<TRIPOS>ATOM
  1 S       -0.3590    -0.1360     0.2050 S.o2  1 <1>   1.4470 
  2 O       -0.4000    -0.9360     1.4080 O.2   1 <1>  -0.6500 
  3 O       -0.3630    -0.7620    -1.0970 O.2   1 <1>  -0.6500 
  4 N       -1.7450     0.8090     0.1850 N.am  1 <1>  -0.9140 
  5 C        0.9690     1.0940     0.3170 C.ar  1 <1>  -0.0090 
  6 C       -2.9470     0.0560     0.5170 C.3   1 <1>   0.1960 
  7 C        1.1910     1.7960     1.4960 C.ar  1 <1>  -0.1500 
  8 C        1.7860     1.3790    -0.7720 C.ar  1 <1>  -0.1500 
  9 C       -4.1520     0.9930     0.4480 C.3   1 <1>  -0.0990 
 10 C        2.1910     2.7490     1.5890 C.ar  1 <1>  -0.1500 
 11 C        2.7880     2.3300    -0.6890 C.ar  1 <1>  -0.1500 
 12 C       -5.4630     0.2860     0.7490 C.2   1 <1>   0.5690 
 13 C        2.9920     3.0160     0.4940 C.ar  1 <1>  -0.1500 
 14 O       -5.4370    -0.9100     0.9230 O.2   1 <1>  -0.5700 
 15 N       -6.6360     0.9990     0.8080 N.am  1 <1>  -0.6600 
 16 C       -6.7680     2.4690     0.6000 C.3   1 <1>   0.1400 
 17 C       -7.9340     0.3180     1.0800 C.3   1 <1>   0.1400 
 18 C       -7.7220     2.7410    -0.5670 C.3   1 <1>  -0.1600 
 19 C       -8.9020     0.5700    -0.0810 C.3   1 <1>  -0.1600 
 20 C       -9.0880     2.0720    -0.3480 C.3   1 <1>  -0.0800 
 21 C      -10.0020     2.2960    -1.5580 C.3   1 <1>  -0.2400 
 22 H       -1.8240     1.0700    -0.7960 H     1 <1>   0.4200 
 23 H       -2.8660    -0.3480     1.5140 H     1 <1>   0.0800 
 24 H       -3.0720    -0.7650    -0.1720 H     1 <1>   0.0800 
 25 H        0.5700     1.5920     2.3530 H     1 <1>   0.1500 
 26 H        1.6380     0.8490    -1.6990 H     1 <1>   0.1500 
 27 H       -4.2200     1.4160    -0.5360 H     1 <1>   0.0800 
 28 H       -4.0140     1.7770     1.1680 H     1 <1>   0.0800 
 29 H        2.3470     3.2800     2.5130 H     1 <1>   0.1500 
 30 H        3.4100     2.5350    -1.5430 H     1 <1>   0.1500 
 31 H        3.7710     3.7560     0.5630 H     1 <1>   0.1500 
 32 H       -5.8180     2.9270     0.3950 H     1 <1>   0.0800 
 33 H       -7.1610     2.9130     1.4990 H     1 <1>   0.0800 
 34 H       -8.3490     0.7060     1.9940 H     1 <1>   0.0800 
 35 H       -7.7940    -0.7420     1.2050 H     1 <1>   0.0800 
 36 H       -7.2740     2.3720    -1.4740 H     1 <1>   0.0800 
 37 H       -7.8540     3.8030    -0.6740 H     1 <1>   0.0800 
 38 H       -9.8510     0.1210     0.1520 H     1 <1>   0.0800 
 39 H       -8.5150     0.0830    -0.9590 H     1 <1>   0.0800 
 40 H       -9.5530     2.5170     0.5160 H     1 <1>   0.0800 
 41 H       -9.5710     1.8630    -2.4440 H     1 <1>   0.0800 
 42 H      -10.1480     3.3480    -1.7260 H     1 <1>   0.0800 
 43 H      -10.9630     1.8440    -1.3890 H     1 <1>   0.0800 
@<TRIPOS>BOND
  1   1   2  2   
  2   1   3  2   
  3   1   4  am  
  4   1   5  1   
  5   4   6  1   
  6   4  22  1   
  7   5   7  ar  
  8   5   8  ar  
  9   6   9  1   
 10   6  23  1   
 11   6  24  1   
 12   7  10  ar  
 13   7  25  1   
 14   8  11  ar  
 15   8  26  1   
 16   9  12  1   
 17   9  27  1   
 18   9  28  1   
 19  10  13  ar  
 20  10  29  1   
 21  11  13  ar  
 22  11  30  1   
 23  12  14  2   
 24  12  15  am  
 25  13  31  1   
 26  15  16  1   
 27  15  17  1   
 28  16  18  1   
 29  16  32  1   
 30  16  33  1   
 31  17  19  1   
 32  17  34  1   
 33  17  35  1   
 34  18  20  1   
 35  18  36  1   
 36  18  37  1   
 37  19  20  1   
 38  19  38  1   
 39  19  39  1   
 40  20  21  1   
 41  20  40  1   
 42  21  41  1   
 43  21  42  1   
 44  21  43  1   
@<TRIPOS>SUBSTRUCTURE
  1 ****   9 GROUP 4 **** **** 0

# MOE 2024.06 (io_trps.svl 2023.06)
