@<TRIPOS>MOLECULE
NONAME
44 45 1 0 0 
SMALL
USER_CHARGES


@<TRIPOS>ATOM
  1 S       -0.1360     0.0080    -0.4330 S.o2  1 <1>   1.4470 
  2 O       -0.5730     0.2160    -1.7980 O.2   1 <1>  -0.6500 
  3 O       -0.5680    -1.1770     0.2750 O.2   1 <1>  -0.6500 
  4 N       -0.6730     1.3460     0.4580 N.am  1 <1>  -0.8490 
  5 C        1.6690     0.1410    -0.3230 C.ar  1 <1>  -0.0090 
  6 C       -0.3790     2.6130    -0.2240 C.3   1 <1>   0.1960 
  7 C       -2.1020     1.2400     0.7650 C.3   1 <1>   0.1960 
  8 C        2.4670     0.1750    -1.4600 C.ar  1 <1>  -0.1500 
  9 C        2.3040     0.2200     0.9110 C.ar  1 <1>  -0.1500 
 10 C       -0.7310     3.8080     0.6750 C.3   1 <1>  -0.0800 
 11 C       -2.5320     2.3810     1.6930 C.3   1 <1>  -0.1600 
 12 C        3.8430     0.2900    -1.3700 C.ar  1 <1>  -0.1500 
 13 C        3.6790     0.3350     1.0050 C.ar  1 <1>  -0.1500 
 14 C       -2.2090     3.7530     1.0880 C.3   1 <1>  -0.1600 
 15 C       -0.4220     5.1350    -0.0300 C.3   1 <1>  -0.2400 
 16 C        4.4720     0.3760    -0.1340 C.ar  1 <1>   0.1170 
 17 N        5.8590     0.4950     0.0230 N.am  1 <1>  -0.5470 
 18 C        6.8900     0.6970    -0.8520 C.2   1 <1>   0.5690 
 19 O        6.7590     0.8210    -2.0460 O.2   1 <1>  -0.5700 
 20 C        8.2940     0.7740    -0.2580 C.3   1 <1>   0.1810 
 21 O        8.2640     0.6540     1.1480 O.3   1 <1>  -0.5600 
 22 C        9.5210     0.7200     1.7420 C.3   1 <1>   0.0400 
 23 H       -0.9370     2.6730    -1.1450 H     1 <1>   0.0800 
 24 H        0.6700     2.6590    -0.4650 H     1 <1>   0.0800 
 25 H       -2.3010     0.3020     1.2590 H     1 <1>   0.0800 
 26 H       -2.6750     1.2660    -0.1480 H     1 <1>   0.0800 
 27 H        2.0060     0.1110    -2.4320 H     1 <1>   0.1500 
 28 H        1.7060     0.1920     1.8070 H     1 <1>   0.1500 
 29 H       -0.1200     3.7470     1.5600 H     1 <1>   0.0800 
 30 H       -2.0230     2.2690     2.6340 H     1 <1>   0.0800 
 31 H       -3.5890     2.3080     1.8800 H     1 <1>   0.0800 
 32 H        4.4230     0.3110    -2.2750 H     1 <1>   0.1500 
 33 H        4.1380     0.3950     1.9750 H     1 <1>   0.1500 
 34 H       -2.8330     3.9140     0.2260 H     1 <1>   0.0800 
 35 H       -2.4230     4.5260     1.8060 H     1 <1>   0.0800 
 36 H       -1.0050     5.2340    -0.9290 H     1 <1>   0.0800 
 37 H        0.6210     5.1860    -0.2890 H     1 <1>   0.0800 
 38 H       -0.6490     5.9630     0.6190 H     1 <1>   0.0800 
 39 H        6.2060     0.4410     0.9850 H     1 <1>   0.3700 
 40 H        8.7340     1.7200    -0.5160 H     1 <1>   0.0800 
 41 H        8.8910    -0.0250    -0.6610 H     1 <1>   0.0800 
 42 H        9.3950     0.6190     2.8060 H     1 <1>   0.0800 
 43 H        9.9710     1.6720     1.5200 H     1 <1>   0.0800 
 44 H       10.1340    -0.0850     1.3740 H     1 <1>   0.0800 
@<TRIPOS>BOND
  1   1   2  2   
  2   1   3  2   
  3   1   4  am  
  4   1   5  1   
  5   4   6  1   
  6   4   7  1   
  7   5   8  ar  
  8   5   9  ar  
  9   6  10  1   
 10   6  23  1   
 11   6  24  1   
 12   7  11  1   
 13   7  25  1   
 14   7  26  1   
 15   8  12  ar  
 16   8  27  1   
 17   9  13  ar  
 18   9  28  1   
 19  10  14  1   
 20  10  15  1   
 21  10  29  1   
 22  11  14  1   
 23  11  30  1   
 24  11  31  1   
 25  12  16  ar  
 26  12  32  1   
 27  13  16  ar  
 28  13  33  1   
 29  14  34  1   
 30  14  35  1   
 31  15  36  1   
 32  15  37  1   
 33  15  38  1   
 34  16  17  1   
 35  17  18  am  
 36  17  39  1   
 37  18  19  2   
 38  18  20  1   
 39  20  21  1   
 40  20  40  1   
 41  20  41  1   
 42  21  22  1   
 43  22  42  1   
 44  22  43  1   
 45  22  44  1   
@<TRIPOS>SUBSTRUCTURE
  1 ****   9 GROUP 4 **** **** 0

# MOE 2024.06 (io_trps.svl 2023.06)
