@<TRIPOS>MOLECULE
NONAME
44 45 1 0 0 
SMALL
USER_CHARGES


@<TRIPOS>ATOM
  1 O        0.2370    -1.7210    -0.5560 O.3   1 <1>  -0.3630 
  2 C       -1.0680    -1.5260    -0.2240 C.ar  1 <1>   0.0830 
  3 C        1.2640    -0.9270    -0.0170 C.3   1 <1>   0.1200 
  4 C       -2.0140    -2.3580    -0.8150 C.ar  1 <1>  -0.1440 
  5 C       -1.4820    -0.5410     0.6710 C.ar  1 <1>  -0.1500 
  6 C        2.5860    -1.4190    -0.6110 C.3   1 <1>  -0.1600 
  7 C       -3.3540    -2.1950    -0.5080 C.ar  1 <1>  -0.1500 
  8 C       -1.5910    -3.4430    -1.7960 C.3   1 <1>  -0.0970 
  9 C       -2.8230    -0.3840     0.9770 C.ar  1 <1>  -0.1430 
 10 C        3.7840    -0.6170    -0.0830 C.3   1 <1>  -0.1600 
 11 C       -3.7570    -1.2150     0.3820 C.ar  1 <1>  -0.1500 
 12 C       -3.2690     0.6920     1.9510 C.3   1 <1>  -0.0970 
 13 C        5.0850    -1.1310    -0.7030 C.3   1 <1>   0.3430 
 14 N        6.2390    -0.3070    -0.2510 N.4   1 <1>  -0.9590 
 15 C        7.4830    -0.6070    -1.0000 C.3   1 <1>   0.3430 
 16 C        6.5850    -0.4740     1.1840 C.3   1 <1>   0.3430 
 17 C        8.5960    -0.0440    -0.1260 C.3   1 <1>  -0.1600 
 18 C        8.0180     0.0300     1.2900 C.3   1 <1>  -0.1600 
 19 H        1.2530    -1.0430     1.0530 H     1 <1>   0.0800 
 20 H        1.0750     0.0980    -0.2870 H     1 <1>   0.0800 
 21 H       -0.7750     0.1140     1.1400 H     1 <1>   0.1500 
 22 H        2.5300    -1.3280    -1.6830 H     1 <1>   0.0800 
 23 H        2.7050    -2.4600    -0.3610 H     1 <1>   0.0800 
 24 H       -4.0950    -2.8310    -0.9590 H     1 <1>   0.1500 
 25 H       -0.9210    -4.1290    -1.3110 H     1 <1>   0.0800 
 26 H       -1.0850    -2.9970    -2.6330 H     1 <1>   0.0800 
 27 H       -2.4400    -3.9910    -2.1600 H     1 <1>   0.0800 
 28 H        3.8200    -0.7160     0.9880 H     1 <1>   0.0800 
 29 H        3.6480     0.4200    -0.3360 H     1 <1>   0.0800 
 30 H       -4.8030    -1.1030     0.6070 H     1 <1>   0.1500 
 31 H       -2.5230     0.8440     2.7100 H     1 <1>   0.0800 
 32 H       -4.1880     0.4070     2.4320 H     1 <1>   0.0800 
 33 H       -3.4250     1.6160     1.4240 H     1 <1>   0.0800 
 34 H        5.0030    -1.0770    -1.7780 H     1 <1>   0.0800 
 35 H        5.2380    -2.1630    -0.4310 H     1 <1>   0.0800 
 36 H        6.0230     0.6870    -0.4050 H     1 <1>   0.4500 
 37 H        7.4800    -0.1580    -1.9810 H     1 <1>   0.0800 
 38 H        7.6060    -1.6740    -1.0940 H     1 <1>   0.0800 
 39 H        6.5510    -1.5190     1.4480 H     1 <1>   0.0800 
 40 H        5.9180     0.0800     1.8250 H     1 <1>   0.0800 
 41 H        8.8700     0.9380    -0.4720 H     1 <1>   0.0800 
 42 H        9.4660    -0.6770    -0.1710 H     1 <1>   0.0800 
 43 H        8.5770    -0.5760     1.9830 H     1 <1>   0.0800 
 44 H        8.0230     1.0460     1.6460 H     1 <1>   0.0800 
@<TRIPOS>BOND
  1   1   2  1   
  2   1   3  1   
  3   2   4  ar  
  4   2   5  ar  
  5   3   6  1   
  6   3  19  1   
  7   3  20  1   
  8   4   7  ar  
  9   4   8  1   
 10   5   9  ar  
 11   5  21  1   
 12   6  10  1   
 13   6  22  1   
 14   6  23  1   
 15   7  11  ar  
 16   7  24  1   
 17   8  25  1   
 18   8  26  1   
 19   8  27  1   
 20   9  11  ar  
 21   9  12  1   
 22  10  13  1   
 23  10  28  1   
 24  10  29  1   
 25  11  30  1   
 26  12  31  1   
 27  12  32  1   
 28  12  33  1   
 29  13  14  1   
 30  13  34  1   
 31  13  35  1   
 32  14  15  1   
 33  14  16  1   
 34  14  36  1   
 35  15  17  1   
 36  15  37  1   
 37  15  38  1   
 38  16  18  1   
 39  16  39  1   
 40  16  40  1   
 41  17  18  1   
 42  17  41  1   
 43  17  42  1   
 44  18  43  1   
 45  18  44  1   
@<TRIPOS>SUBSTRUCTURE
  1 ****   3 GROUP 4 **** **** 0

# MOE 2024.06 (io_trps.svl 2023.06)
