@<TRIPOS>MOLECULE
NONAME
56 58 1 0 0 
SMALL
USER_CHARGES


@<TRIPOS>ATOM
  1 O        0.8830    -5.6250     0.1320 O.3   1 <1>  -0.3630 
  2 C       -0.4650    -5.5680    -0.0180 C.ar  1 <1>   0.0820 
  3 C        1.6280    -6.7030    -0.3820 C.3   1 <1>   0.1200 
  4 C       -1.2160    -6.5310    -0.6820 C.ar  1 <1>  -0.1500 
  5 C       -1.1100    -4.4750     0.5330 C.ar  1 <1>  -0.1500 
  6 C        3.0980    -6.4660    -0.0370 C.3   1 <1>  -0.1600 
  7 C       -2.5880    -6.3890    -0.7840 C.ar  1 <1>  -0.1500 
  8 C       -2.4840    -4.3380     0.4290 C.ar  1 <1>  -0.1500 
  9 C        3.9680    -7.6310    -0.5180 C.3   1 <1>   0.1100 
 10 C       -3.2500    -5.2970    -0.2300 C.ar  1 <1>  -0.1430 
 11 N        5.3990    -7.3150    -0.3640 N.3   1 <1>  -0.8100 
 12 C       -4.7840    -5.1950    -0.3860 C.3   1 <1>   0.2870 
 13 C        6.2310    -8.1900    -1.2130 C.3   1 <1>   0.1100 
 14 C        5.8450    -7.3380     1.0470 C.3   1 <1>   0.1100 
 15 C       -5.4430    -6.5530    -0.0560 C.ar  1 <1>  -0.1430 
 16 C       -5.0480    -4.7320    -1.8280 C.3   1 <1>  -0.2400 
 17 C       -5.4160    -4.1570     0.5570 C.3   1 <1>  -0.2400 
 18 C        7.7210    -7.8040    -1.1230 C.3   1 <1>   0.3430 
 19 C        7.3300    -6.9430     1.1690 C.3   1 <1>   0.3430 
 20 C       -5.0630    -7.2170     1.1060 C.ar  1 <1>  -0.1500 
 21 C       -6.4150    -7.1470    -0.8570 C.ar  1 <1>  -0.1500 
 22 N        8.2030    -7.7980     0.2980 N.4   1 <1>  -0.9060 
 23 C       -5.6240    -8.4330     1.4550 C.ar  1 <1>  -0.1500 
 24 C       -6.9780    -8.3630    -0.5120 C.ar  1 <1>  -0.1500 
 25 C       -6.5840    -9.0090     0.6450 C.ar  1 <1>  -0.1500 
 26 H        1.4850    -6.7350    -1.4490 H     1 <1>   0.0800 
 27 H        1.2680    -7.6090     0.0730 H     1 <1>   0.0800 
 28 H       -0.7570    -7.3930    -1.1260 H     1 <1>   0.1500 
 29 H       -0.5290    -3.7300     1.0440 H     1 <1>   0.1500 
 30 H        3.1780    -6.3570     1.0290 H     1 <1>   0.0800 
 31 H        3.4230    -5.5590    -0.5160 H     1 <1>   0.0800 
 32 H       -3.1500    -7.1470    -1.3020 H     1 <1>   0.1500 
 33 H       -2.9330    -3.4690     0.8710 H     1 <1>   0.1500 
 34 H        3.7550    -7.7950    -1.5620 H     1 <1>   0.0800 
 35 H        3.7210    -8.5320     0.0200 H     1 <1>   0.0800 
 36 H        5.9150    -8.0920    -2.2380 H     1 <1>   0.0800 
 37 H        6.1000    -9.2190    -0.9240 H     1 <1>   0.0800 
 38 H        5.6880    -8.3160     1.4690 H     1 <1>   0.0800 
 39 H        5.2680    -6.6350     1.6210 H     1 <1>   0.0800 
 40 H       -4.7250    -5.4820    -2.5270 H     1 <1>   0.0800 
 41 H       -4.5000    -3.8290    -2.0290 H     1 <1>   0.0800 
 42 H       -6.0930    -4.5330    -1.9850 H     1 <1>   0.0800 
 43 H       -5.1530    -4.3700     1.5770 H     1 <1>   0.0800 
 44 H       -6.4880    -4.1930     0.4730 H     1 <1>   0.0800 
 45 H       -5.0930    -3.1630     0.3110 H     1 <1>   0.0800 
 46 H        7.8390    -6.8210    -1.5490 H     1 <1>   0.0800 
 47 H        8.3050    -8.4930    -1.7110 H     1 <1>   0.0800 
 48 H        7.6390    -7.0260     2.1980 H     1 <1>   0.0800 
 49 H        7.4270    -5.9100     0.8750 H     1 <1>   0.0800 
 50 H       -4.3170    -6.7860     1.7510 H     1 <1>   0.1500 
 51 H       -6.7550    -6.6800    -1.7620 H     1 <1>   0.1500 
 52 H        9.1730    -7.4630     0.3380 H     1 <1>   0.4500 
 53 H        8.1890    -8.7590     0.6570 H     1 <1>   0.4500 
 54 H       -5.3120    -8.9290     2.3570 H     1 <1>   0.1500 
 55 H       -7.7260    -8.8070    -1.1440 H     1 <1>   0.1500 
 56 H       -7.0210    -9.9540     0.9130 H     1 <1>   0.1500 
@<TRIPOS>BOND
  1   1   2  1   
  2   1   3  1   
  3   2   4  ar  
  4   2   5  ar  
  5   3   6  1   
  6   3  26  1   
  7   3  27  1   
  8   4   7  ar  
  9   4  28  1   
 10   5   8  ar  
 11   5  29  1   
 12   6   9  1   
 13   6  30  1   
 14   6  31  1   
 15   7  10  ar  
 16   7  32  1   
 17   8  10  ar  
 18   8  33  1   
 19   9  11  1   
 20   9  34  1   
 21   9  35  1   
 22  10  12  1   
 23  11  13  1   
 24  11  14  1   
 25  12  15  1   
 26  12  16  1   
 27  12  17  1   
 28  13  18  1   
 29  13  36  1   
 30  13  37  1   
 31  14  19  1   
 32  14  38  1   
 33  14  39  1   
 34  15  20  ar  
 35  15  21  ar  
 36  16  40  1   
 37  16  41  1   
 38  16  42  1   
 39  17  43  1   
 40  17  44  1   
 41  17  45  1   
 42  18  22  1   
 43  18  46  1   
 44  18  47  1   
 45  19  22  1   
 46  19  48  1   
 47  19  49  1   
 48  20  23  ar  
 49  20  50  1   
 50  21  24  ar  
 51  21  51  1   
 52  22  52  1   
 53  22  53  1   
 54  23  25  ar  
 55  23  54  1   
 56  24  25  ar  
 57  24  55  1   
 58  25  56  1   
@<TRIPOS>SUBSTRUCTURE
  1 ****   4 GROUP 4 **** **** 0

# MOE 2024.06 (io_trps.svl 2023.06)
