@<TRIPOS>MOLECULE
NONAME
41 42 1 0 0 
SMALL
USER_CHARGES


@<TRIPOS>ATOM
  1 O        0.0820     3.3180    -0.8390 O.2   1 <1>  -0.5700 
  2 C        0.1380     2.9820     0.3280 C.2   1 <1>   0.6900 
  3 N       -0.9040     3.2950     1.1500 N.am  1 <1>  -0.6600 
  4 N        1.1690     2.2680     0.8540 N.am  1 <1>  -0.5470 
  5 C       -1.5390     4.6330     0.9680 C.3   1 <1>   0.1400 
  6 C       -1.8940     2.2130     1.4070 C.3   1 <1>   0.1400 
  7 C        2.3040     1.6910     0.2620 C.ar  1 <1>   0.1170 
  8 C       -2.5820     4.5860    -0.1680 C.3   1 <1>   0.3430 
  9 C       -2.9340     2.1640     0.2660 C.3   1 <1>   0.3430 
 10 C        3.3910     1.3800     1.0710 C.ar  1 <1>  -0.1500 
 11 C        2.3870     1.3970    -1.0960 C.ar  1 <1>  -0.1500 
 12 N       -3.6070     3.4980     0.0400 N.4   1 <1>  -0.9590 
 13 C        4.5310     0.7960     0.5470 C.ar  1 <1>  -0.1500 
 14 C        3.5240     0.8130    -1.6250 C.ar  1 <1>  -0.1500 
 15 C       -4.5390     3.4570    -1.1160 C.3   1 <1>   0.3430 
 16 C        4.6020     0.5080    -0.8120 C.ar  1 <1>   0.0830 
 17 C       -5.7750     2.6420    -0.7530 C.3   1 <1>  -0.2400 
 18 O        5.6790    -0.0660    -1.4130 O.3   1 <1>  -0.3630 
 19 C        6.8350    -0.3890    -0.6720 C.3   1 <1>   0.0400 
 20 H        1.1570     2.2510     1.8700 H     1 <1>   0.3700 
 21 H       -0.7800     5.3570     0.7190 H     1 <1>   0.0800 
 22 H       -2.0010     4.9450     1.8880 H     1 <1>   0.0800 
 23 H       -2.3830     2.3850     2.3500 H     1 <1>   0.0800 
 24 H       -1.3880     1.2640     1.4650 H     1 <1>   0.0800 
 25 H       -2.0570     4.4150    -1.0950 H     1 <1>   0.0800 
 26 H       -3.0700     5.5440    -0.2390 H     1 <1>   0.0800 
 27 H       -3.6710     1.4140     0.4970 H     1 <1>   0.0800 
 28 H       -2.4270     1.8620    -0.6360 H     1 <1>   0.0800 
 29 H        3.3520     1.5980     2.1220 H     1 <1>   0.1500 
 30 H        1.5670     1.6200    -1.7520 H     1 <1>   0.1500 
 31 H       -4.1500     3.7320     0.8810 H     1 <1>   0.4500 
 32 H        5.3480     0.5730     1.2070 H     1 <1>   0.1500 
 33 H        3.5820     0.5910    -2.6750 H     1 <1>   0.1500 
 34 H       -4.0480     3.0280    -1.9760 H     1 <1>   0.0800 
 35 H       -4.8460     4.4600    -1.3700 H     1 <1>   0.0800 
 36 H       -5.5330     1.6090    -0.5860 H     1 <1>   0.0800 
 37 H       -6.4730     2.6830    -1.5710 H     1 <1>   0.0800 
 38 H       -6.2630     3.0490     0.1150 H     1 <1>   0.0800 
 39 H        7.5540    -0.8180    -1.3470 H     1 <1>   0.0800 
 40 H        6.5740    -1.1050     0.0860 H     1 <1>   0.0800 
 41 H        7.2330     0.5100    -0.2370 H     1 <1>   0.0800 
@<TRIPOS>BOND
  1   1   2  2   
  2   2   3  am  
  3   2   4  am  
  4   3   5  1   
  5   3   6  1   
  6   4   7  1   
  7   4  20  1   
  8   5   8  1   
  9   5  21  1   
 10   5  22  1   
 11   6   9  1   
 12   6  23  1   
 13   6  24  1   
 14   7  10  ar  
 15   7  11  ar  
 16   8  12  1   
 17   8  25  1   
 18   8  26  1   
 19   9  12  1   
 20   9  27  1   
 21   9  28  1   
 22  10  13  ar  
 23  10  29  1   
 24  11  14  ar  
 25  11  30  1   
 26  12  15  1   
 27  12  31  1   
 28  13  16  ar  
 29  13  32  1   
 30  14  16  ar  
 31  14  33  1   
 32  15  17  1   
 33  15  34  1   
 34  15  35  1   
 35  16  18  1   
 36  17  36  1   
 37  17  37  1   
 38  17  38  1   
 39  18  19  1   
 40  19  39  1   
 41  19  40  1   
 42  19  41  1   
@<TRIPOS>SUBSTRUCTURE
  1 ****   2 GROUP 4 **** **** 0

# MOE 2024.06 (io_trps.svl 2023.06)
