@<TRIPOS>MOLECULE
NONAME
44 45 1 0 0 
SMALL
USER_CHARGES


@<TRIPOS>ATOM
  1 BR      -0.9960    -0.7090    -2.8670 Br    1 <1>  -0.1110 
  2 C       -2.1850    -0.9150    -1.3690 C.ar  1 <1>   0.1110 
  3 C       -3.5330    -0.6850    -1.5560 C.ar  1 <1>  -0.1500 
  4 C       -1.6560    -1.2890    -0.1480 C.ar  1 <1>  -0.1500 
  5 C       -4.4050    -0.8290    -0.4830 C.ar  1 <1>   0.1170 
  6 C       -2.5210    -1.4360     0.9220 C.ar  1 <1>  -0.1500 
  7 N       -5.7740    -0.6030    -0.6960 N.am  1 <1>  -0.5470 
  8 C       -3.8790    -1.2100     0.7520 C.ar  1 <1>  -0.1500 
  9 C       -6.7680    -0.2480     0.1800 C.2   1 <1>   0.5690 
 10 O       -6.5630    -0.0390     1.3510 O.2   1 <1>  -0.5700 
 11 C       -8.1770    -0.1260    -0.3730 C.3   1 <1>   0.0420 
 12 C       -8.8620     1.0380     0.3260 C.2   1 <1>   0.6590 
 13 C       -8.9100    -1.4970    -0.3850 C.3   1 <1>  -0.0800 
 14 O       -9.8340     0.9240     1.0290 O.2   1 <1>  -0.5700 
 15 O       -8.3330     2.2290     0.0650 O.3   1 <1>  -0.4300 
 16 C      -10.2460    -1.4350    -1.1660 C.3   1 <1>  -0.1600 
 17 C       -9.1210    -2.1290     1.0060 C.3   1 <1>  -0.1600 
 18 C       -8.8560     3.4030     0.6390 C.3   1 <1>   0.1200 
 19 C      -11.2200    -2.5750    -0.8130 C.3   1 <1>  -0.1600 
 20 C       -9.6350    -3.5770     0.8970 C.3   1 <1>  -0.1600 
 21 C       -9.5310     4.6430     1.2250 C.3   1 <1>  -0.2400 
 22 C      -10.4790    -3.8390    -0.3630 C.3   1 <1>  -0.1600 
 23 H       -3.8910    -0.3930    -2.5240 H     1 <1>   0.1500 
 24 H       -0.6000    -1.4580    -0.0400 H     1 <1>   0.1500 
 25 H       -2.1420    -1.7260     1.8870 H     1 <1>   0.1500 
 26 H       -6.0600    -0.6890    -1.6690 H     1 <1>   0.3700 
 27 H       -4.5320    -1.3370     1.5960 H     1 <1>   0.1500 
 28 H       -8.0840     0.1810    -1.3970 H     1 <1>   0.0800 
 29 H       -8.2710    -2.1770    -0.9230 H     1 <1>   0.0800 
 30 H      -10.0290    -1.4730    -2.2200 H     1 <1>   0.0800 
 31 H      -10.7550    -0.5060    -0.9780 H     1 <1>   0.0800 
 32 H       -9.8440    -1.5490     1.5540 H     1 <1>   0.0800 
 33 H       -8.2100    -2.1260     1.5780 H     1 <1>   0.0800 
 34 H       -8.4140     3.1830     1.5980 H     1 <1>   0.0800 
 35 H       -8.1710     4.0240     0.0880 H     1 <1>   0.0800 
 36 H      -11.8470    -2.7940    -1.6600 H     1 <1>   0.0800 
 37 H      -11.8610    -2.2530    -0.0100 H     1 <1>   0.0800 
 38 H      -10.2230    -3.7930     1.7730 H     1 <1>   0.0800 
 39 H       -8.8000    -4.2560     0.8980 H     1 <1>   0.0800 
 40 H       -8.8100     5.2830     1.7050 H     1 <1>   0.0800 
 41 H      -10.2670     4.3510     1.9540 H     1 <1>   0.0800 
 42 H      -10.0240     5.2020     0.4500 H     1 <1>   0.0800 
 43 H       -9.8370    -4.1680    -1.1630 H     1 <1>   0.0800 
 44 H      -11.1840    -4.6290    -0.1670 H     1 <1>   0.0800 
@<TRIPOS>BOND
  1   1   2  1   
  2   2   3  ar  
  3   2   4  ar  
  4   3   5  ar  
  5   3  23  1   
  6   4   6  ar  
  7   4  24  1   
  8   5   7  1   
  9   5   8  ar  
 10   6   8  ar  
 11   6  25  1   
 12   7   9  am  
 13   7  26  1   
 14   8  27  1   
 15   9  10  2   
 16   9  11  1   
 17  11  12  1   
 18  11  13  1   
 19  11  28  1   
 20  12  14  2   
 21  12  15  1   
 22  13  16  1   
 23  13  17  1   
 24  13  29  1   
 25  15  18  1   
 26  16  19  1   
 27  16  30  1   
 28  16  31  1   
 29  17  20  1   
 30  17  32  1   
 31  17  33  1   
 32  18  21  1   
 33  18  34  1   
 34  18  35  1   
 35  19  22  1   
 36  19  36  1   
 37  19  37  1   
 38  20  22  1   
 39  20  38  1   
 40  20  39  1   
 41  21  40  1   
 42  21  41  1   
 43  21  42  1   
 44  22  43  1   
 45  22  44  1   
@<TRIPOS>SUBSTRUCTURE
  1 ****   9 GROUP 4 **** **** 0

# MOE 2024.06 (io_trps.svl 2023.06)
