@<TRIPOS>MOLECULE
NONAME
31 32 1 0 0 
SMALL
USER_CHARGES


@<TRIPOS>ATOM
  1 O       -0.0750    -0.1000    -0.9170 O.2   1 <1>  -0.5700 
  2 C       -0.0270    -1.0610    -0.1740 C.2   1 <1>   0.6900 
  3 N        1.1590    -1.5770     0.2680 N.am  1 <1>  -0.5470 
  4 N       -1.1700    -1.6720     0.2380 N.am  1 <1>  -0.5790 
  5 C        2.4740    -1.1070     0.1340 C.ar  1 <1>   0.1170 
  6 C       -2.5340    -1.2810    -0.1490 C.3   1 <1>   0.0490 
  7 C        3.5230    -2.0120     0.2480 C.ar  1 <1>  -0.1500 
  8 C        2.7840     0.2290    -0.0850 C.ar  1 <1>  -0.1500 
  9 C       -3.6030    -1.3440     0.8910 C.3   1 <1>  -0.2000 
 10 C       -3.5750    -2.3480    -0.2220 C.3   1 <1>  -0.2000 
 11 C        4.8450    -1.6100     0.1450 C.ar  1 <1>  -0.1430 
 12 C        4.0980     0.6420    -0.1910 C.ar  1 <1>  -0.1500 
 13 C        5.1380    -0.2690    -0.0770 C.ar  1 <1>  -0.1430 
 14 C        5.9500    -2.6490     0.2760 C.3   1 <1>  -0.0970 
 15 C        6.5710     0.2270    -0.2010 C.3   1 <1>  -0.0970 
 16 H        1.0830    -2.4990     0.6790 H     1 <1>   0.3700 
 17 H       -1.1190    -2.3900     0.9540 H     1 <1>   0.3700 
 18 H       -2.5610    -0.4810    -0.8730 H     1 <1>   0.1000 
 19 H        3.2970    -3.0480     0.4170 H     1 <1>   0.1500 
 20 H        1.9970     0.9560    -0.1720 H     1 <1>   0.1500 
 21 H       -4.3740    -0.5930     0.8790 H     1 <1>   0.1000 
 22 H       -3.3430    -1.6540     1.8870 H     1 <1>   0.1000 
 23 H       -3.2950    -3.3640    -0.0070 H     1 <1>   0.1000 
 24 H       -4.3270    -2.2790    -0.9880 H     1 <1>   0.1000 
 25 H        4.3040     1.6830    -0.3640 H     1 <1>   0.1500 
 26 H        5.5430    -3.6300     0.4430 H     1 <1>   0.0800 
 27 H        6.5900    -2.4040     1.1030 H     1 <1>   0.0800 
 28 H        6.5360    -2.6780    -0.6250 H     1 <1>   0.0800 
 29 H        7.1140     0.0150     0.7020 H     1 <1>   0.0800 
 30 H        6.5990     1.2880    -0.3700 H     1 <1>   0.0800 
 31 H        7.0580    -0.2580    -1.0270 H     1 <1>   0.0800 
@<TRIPOS>BOND
  1   1   2  2   
  2   2   3  am  
  3   2   4  am  
  4   3   5  1   
  5   3  16  1   
  6   4   6  1   
  7   4  17  1   
  8   5   7  ar  
  9   5   8  ar  
 10   6   9  1   
 11   6  10  1   
 12   6  18  1   
 13   7  11  ar  
 14   7  19  1   
 15   8  12  ar  
 16   8  20  1   
 17   9  10  1   
 18   9  21  1   
 19   9  22  1   
 20  10  23  1   
 21  10  24  1   
 22  11  13  ar  
 23  11  14  1   
 24  12  13  ar  
 25  12  25  1   
 26  13  15  1   
 27  14  26  1   
 28  14  27  1   
 29  14  28  1   
 30  15  29  1   
 31  15  30  1   
 32  15  31  1   
@<TRIPOS>SUBSTRUCTURE
  1 ****   5 GROUP 4 **** **** 0

# MOE 2024.06 (io_trps.svl 2023.06)
