@<TRIPOS>MOLECULE
NONAME
49 52 1 0 0 
SMALL
USER_CHARGES


@<TRIPOS>ATOM
  1 O       -0.4250    -0.5600    -0.0860 O.2   1 <1>  -0.5700 
  2 C       -0.8850    -1.6590     0.1020 C.2   1 <1>   0.5690 
  3 N       -0.2080    -2.8310     0.1580 N.am  1 <1>  -0.6600 
  4 C       -2.3560    -1.8830     0.3090 C.3   1 <1>  -0.0990 
  5 C        1.2370    -3.0670    -0.0740 C.3   1 <1>   0.2200 
  6 C       -1.1030    -3.9760     0.4030 C.3   1 <1>   0.1400 
  7 C       -2.4210    -3.3240     0.8490 C.3   1 <1>  -0.0190 
  8 C        2.0810    -2.3340     0.9780 C.3   1 <1>  -0.1600 
  9 C        1.6320    -2.6550    -1.4980 C.3   1 <1>  -0.1600 
 10 C       -3.6540    -4.1080     0.4240 C.2   1 <1>   0.5690 
 11 C        3.5810    -2.5650     0.7370 C.3   1 <1>  -0.1600 
 12 C        3.1310    -2.8860    -1.7410 C.3   1 <1>  -0.1600 
 13 O       -3.5490    -5.2710     0.1230 O.2   1 <1>  -0.5700 
 14 N       -4.8580    -3.4880     0.4140 N.am  1 <1>  -0.7300 
 15 C        3.9810    -2.1590    -0.6890 C.3   1 <1>  -0.1600 
 16 C       -6.1150    -4.1360     0.0130 C.3   1 <1>   0.2840 
 17 C       -7.2110    -3.0880     0.0610 C.ar  1 <1>  -0.1440 
 18 C       -7.4280    -2.2630    -1.0380 C.ar  1 <1>  -0.1500 
 19 C       -7.9950    -2.9460     1.2070 C.ar  1 <1>  -0.1500 
 20 C       -8.4290    -1.3160    -0.9550 C.ar  1 <1>   0.0820 
 21 C       -9.0000    -1.9880     1.2700 C.ar  1 <1>  -0.1500 
 22 O       -8.8080    -0.4270    -1.8790 O.3   1 <1>  -0.3630 
 23 C       -9.1940    -1.1830     0.1660 C.ar  1 <1>   0.0820 
 24 C       -9.8870     0.3150    -1.3140 C.3   1 <1>   0.4000 
 25 O      -10.0890    -0.2030     0.0000 O.3   1 <1>  -0.3620 
 26 H       -2.8450    -1.7920    -0.6430 H     1 <1>   0.0800 
 27 H       -2.7560    -1.1690     1.0050 H     1 <1>   0.0800 
 28 H        1.4280    -4.1220     0.0280 H     1 <1>   0.0800 
 29 H       -0.7100    -4.6240     1.1670 H     1 <1>   0.0800 
 30 H       -1.2270    -4.5270    -0.5150 H     1 <1>   0.0800 
 31 H       -2.4120    -3.2880     1.9230 H     1 <1>   0.0800 
 32 H        1.8160    -2.6850     1.9590 H     1 <1>   0.0800 
 33 H        1.8810    -1.2780     0.9270 H     1 <1>   0.0800 
 34 H        1.4150    -1.6110    -1.6430 H     1 <1>   0.0800 
 35 H        1.0600    -3.2240    -2.2080 H     1 <1>   0.0800 
 36 H        3.8130    -3.6050     0.8910 H     1 <1>   0.0800 
 37 H        4.1500    -1.9910     1.4480 H     1 <1>   0.0800 
 38 H        3.3940    -2.5310    -2.7230 H     1 <1>   0.0800 
 39 H        3.3420    -3.9410    -1.7040 H     1 <1>   0.0800 
 40 H       -4.9590    -2.5050     0.6740 H     1 <1>   0.3700 
 41 H        5.0220    -2.3800    -0.8490 H     1 <1>   0.0800 
 42 H        3.8490    -1.0960    -0.8030 H     1 <1>   0.0800 
 43 H       -6.3330    -4.9490     0.6840 H     1 <1>   0.0800 
 44 H       -6.0150    -4.5340    -0.9830 H     1 <1>   0.0800 
 45 H       -6.8410    -2.3440    -1.9350 H     1 <1>   0.1500 
 46 H       -7.8250    -3.5830     2.0580 H     1 <1>   0.1500 
 47 H       -9.6140    -1.8670     2.1440 H     1 <1>   0.1500 
 48 H      -10.7750     0.1640    -1.9010 H     1 <1>   0.0800 
 49 H       -9.6190     1.3540    -1.2550 H     1 <1>   0.0800 
@<TRIPOS>BOND
  1   1   2  2   
  2   2   3  am  
  3   2   4  1   
  4   3   5  1   
  5   3   6  1   
  6   4   7  1   
  7   4  26  1   
  8   4  27  1   
  9   5   8  1   
 10   5   9  1   
 11   5  28  1   
 12   6   7  1   
 13   6  29  1   
 14   6  30  1   
 15   7  10  1   
 16   7  31  1   
 17   8  11  1   
 18   8  32  1   
 19   8  33  1   
 20   9  12  1   
 21   9  34  1   
 22   9  35  1   
 23  10  13  2   
 24  10  14  am  
 25  11  15  1   
 26  11  36  1   
 27  11  37  1   
 28  12  15  1   
 29  12  38  1   
 30  12  39  1   
 31  14  16  1   
 32  14  40  1   
 33  15  41  1   
 34  15  42  1   
 35  16  17  1   
 36  16  43  1   
 37  16  44  1   
 38  17  18  ar  
 39  17  19  ar  
 40  18  20  ar  
 41  18  45  1   
 42  19  21  ar  
 43  19  46  1   
 44  20  22  1   
 45  20  23  ar  
 46  21  23  ar  
 47  21  47  1   
 48  22  24  1   
 49  23  25  1   
 50  24  25  1   
 51  24  48  1   
 52  24  49  1   
@<TRIPOS>SUBSTRUCTURE
  1 ****   4 GROUP 4 **** **** 0

# MOE 2024.06 (io_trps.svl 2023.06)
