@<TRIPOS>MOLECULE
NONAME
39 40 1 0 0 
SMALL
USER_CHARGES


@<TRIPOS>ATOM
  1 F        0.8020     0.7070     1.7060 F     1 <1>  -0.1900 
  2 C        1.8110     1.2290     1.0560 C.ar  1 <1>   0.1900 
  3 C        2.6590     0.3920     0.3560 C.ar  1 <1>  -0.1500 
  4 C        1.9890     2.5990     1.0930 C.ar  1 <1>  -0.1500 
  5 C        3.7260     0.9520    -0.3250 C.ar  1 <1>  -0.1500 
  6 C        3.0600     3.1440     0.4060 C.ar  1 <1>  -0.1500 
  7 C        3.9420     2.3270    -0.3000 C.ar  1 <1>   0.1000 
  8 N        5.0250     2.8650    -0.9820 N.pl3 1 <1>  -0.8690 
  9 C        6.0090     3.6480    -0.2260 C.3   1 <1>   0.2890 
 10 C        6.1580     5.0060    -0.9010 C.3   1 <1>  -0.1600 
 11 C        7.3360     2.8980    -0.2100 C.3   1 <1>  -0.1600 
 12 C        7.2550     5.8220    -0.2280 C.3   1 <1>   0.3430 
 13 C        8.4160     3.7440     0.4580 C.3   1 <1>   0.3430 
 14 N        8.5390     5.0600    -0.2430 N.4   1 <1>  -0.9590 
 15 C        9.6370     5.8950     0.3210 C.3   1 <1>   0.3430 
 16 C       11.0020     5.3140    -0.0560 C.3   1 <1>  -0.1600 
 17 C       12.1340     6.2320     0.4180 C.3   1 <1>  -0.2400 
 18 H        2.4820    -0.6680     0.3480 H     1 <1>   0.1500 
 19 H        1.3020     3.2170     1.6420 H     1 <1>   0.1500 
 20 H        4.3930     0.3170    -0.8790 H     1 <1>   0.1500 
 21 H        3.2090     4.2070     0.4060 H     1 <1>   0.1500 
 22 H        5.4580     2.2070    -1.6380 H     1 <1>   0.4000 
 23 H        5.6630     3.7850     0.7870 H     1 <1>   0.0800 
 24 H        5.2260     5.5390    -0.8270 H     1 <1>   0.0800 
 25 H        6.3870     4.8820    -1.9450 H     1 <1>   0.0800 
 26 H        7.6440     2.6520    -1.2110 H     1 <1>   0.0800 
 27 H        7.2170     1.9830     0.3430 H     1 <1>   0.0800 
 28 H        6.9700     6.0370     0.7900 H     1 <1>   0.0800 
 29 H        7.3740     6.7590    -0.7500 H     1 <1>   0.0800 
 30 H        9.3530     3.2130     0.4210 H     1 <1>   0.0800 
 31 H        8.1600     3.9050     1.4930 H     1 <1>   0.0800 
 32 H        8.7730     4.8720    -1.2280 H     1 <1>   0.4500 
 33 H        9.5470     5.9560     1.3940 H     1 <1>   0.0800 
 34 H        9.5700     6.8950    -0.0770 H     1 <1>   0.0800 
 35 H       11.0720     5.2110    -1.1250 H     1 <1>   0.0800 
 36 H       11.1400     4.3490     0.3970 H     1 <1>   0.0800 
 37 H       12.0560     7.2050    -0.0340 H     1 <1>   0.0800 
 38 H       13.0870     5.8110     0.1440 H     1 <1>   0.0800 
 39 H       12.1150     6.3450     1.4890 H     1 <1>   0.0800 
@<TRIPOS>BOND
  1   1   2  1   
  2   2   3  ar  
  3   2   4  ar  
  4   3   5  ar  
  5   3  18  1   
  6   4   6  ar  
  7   4  19  1   
  8   5   7  ar  
  9   5  20  1   
 10   6   7  ar  
 11   6  21  1   
 12   7   8  1   
 13   8   9  1   
 14   8  22  1   
 15   9  10  1   
 16   9  11  1   
 17   9  23  1   
 18  10  12  1   
 19  10  24  1   
 20  10  25  1   
 21  11  13  1   
 22  11  26  1   
 23  11  27  1   
 24  12  14  1   
 25  12  28  1   
 26  12  29  1   
 27  13  14  1   
 28  13  30  1   
 29  13  31  1   
 30  14  15  1   
 31  14  32  1   
 32  15  16  1   
 33  15  33  1   
 34  15  34  1   
 35  16  17  1   
 36  16  35  1   
 37  16  36  1   
 38  17  37  1   
 39  17  38  1   
 40  17  39  1   
@<TRIPOS>SUBSTRUCTURE
  1 ****   9 GROUP 4 **** **** 0

# MOE 2024.06 (io_trps.svl 2023.06)
