@<TRIPOS>MOLECULE
NONAME
41 42 1 0 0 
SMALL
USER_CHARGES


@<TRIPOS>ATOM
  1 CL       1.3950     0.0660    -1.1270 Cl    1 <1>  -0.1770 
  2 C        0.4990    -1.3590    -0.6410 C.ar  1 <1>   0.1770 
  3 C        1.0730    -2.6350    -0.5730 C.ar  1 <1>  -0.1440 
  4 C       -0.8550    -1.1360    -0.4570 C.ar  1 <1>  -0.1500 
  5 C        0.1420    -3.6800    -0.5930 C.ar  1 <1>   0.1770 
  6 C        2.6150    -2.8730    -0.6040 C.3   1 <1>   0.3400 
  7 C       -1.7200    -2.1990    -0.3040 C.ar  1 <1>  -0.1500 
  8 CL       0.5640    -5.3270    -1.0150 Cl    1 <1>  -0.1770 
  9 C       -1.2150    -3.4780    -0.4080 C.ar  1 <1>  -0.1500 
 10 C        3.3120    -4.1820    -0.1850 C.2   1 <1>  -0.1240 
 11 C        3.6760    -1.8190    -0.2340 C.2   1 <1>  -0.1240 
 12 C        4.5040    -4.3710    -0.8310 C.2   1 <1>  -0.0380 
 13 C        2.7370    -4.9640     0.8710 C.2   1 <1>   0.7060 
 14 C        4.8660    -2.0230    -0.8800 C.2   1 <1>  -0.0380 
 15 C        3.3690    -0.8570     0.7860 C.2   1 <1>   0.7060 
 16 N        5.1190    -3.2760    -1.4310 N.pl3 1 <1>  -0.6000 
 17 C        5.3530    -5.6310    -0.8440 C.3   1 <1>  -0.1020 
 18 O        1.9220    -4.5220     1.6580 O.2   1 <1>  -0.5700 
 19 O        3.1300    -6.2330     1.0330 O.3   1 <1>  -0.4300 
 20 C        6.0540    -1.0780    -0.9390 C.3   1 <1>  -0.1020 
 21 O        2.4640    -1.0010     1.5850 O.2   1 <1>  -0.5700 
 22 O        4.1270     0.2410     0.8980 O.3   1 <1>  -0.4300 
 23 C        2.5930    -7.0530     2.0530 C.3   1 <1>   0.0400 
 24 C        3.8680     1.2240     1.8810 C.3   1 <1>   0.0400 
 25 H       -1.2280    -0.1280    -0.4550 H     1 <1>   0.1500 
 26 H        2.6950    -2.9070    -1.6780 H     1 <1>   0.0800 
 27 H       -2.7720    -2.0340    -0.1430 H     1 <1>   0.1500 
 28 H       -1.8750    -4.3270    -0.3680 H     1 <1>   0.1500 
 29 H        5.9950    -3.4210    -1.9450 H     1 <1>   0.4000 
 30 H        5.8960    -5.7040    -1.7690 H     1 <1>   0.0800 
 31 H        6.0530    -5.6070    -0.0290 H     1 <1>   0.0800 
 32 H        4.7470    -6.5130    -0.7630 H     1 <1>   0.0800 
 33 H        6.7200    -1.2780    -0.1190 H     1 <1>   0.0800 
 34 H        5.7420    -0.0520    -0.8960 H     1 <1>   0.0800 
 35 H        6.5890    -1.2090    -1.8620 H     1 <1>   0.0800 
 36 H        2.8070    -6.6040     3.0080 H     1 <1>   0.0800 
 37 H        1.5290    -7.1320     1.9090 H     1 <1>   0.0800 
 38 H        3.0500    -8.0230     1.9870 H     1 <1>   0.0800 
 39 H        3.9430     0.7710     2.8550 H     1 <1>   0.0800 
 40 H        2.8760     1.6130     1.7280 H     1 <1>   0.0800 
 41 H        4.5950     2.0090     1.7790 H     1 <1>   0.0800 
@<TRIPOS>BOND
  1   1   2  1   
  2   2   3  ar  
  3   2   4  ar  
  4   3   5  ar  
  5   3   6  1   
  6   4   7  ar  
  7   4  25  1   
  8   5   8  1   
  9   5   9  ar  
 10   6  10  1   
 11   6  11  1   
 12   6  26  1   
 13   7   9  ar  
 14   7  27  1   
 15   9  28  1   
 16  10  12  2   
 17  10  13  1   
 18  11  14  2   
 19  11  15  1   
 20  12  16  1   
 21  12  17  1   
 22  13  18  2   
 23  13  19  1   
 24  14  16  1   
 25  14  20  1   
 26  15  21  2   
 27  15  22  1   
 28  16  29  1   
 29  17  30  1   
 30  17  31  1   
 31  17  32  1   
 32  19  23  1   
 33  20  33  1   
 34  20  34  1   
 35  20  35  1   
 36  22  24  1   
 37  23  36  1   
 38  23  37  1   
 39  23  38  1   
 40  24  39  1   
 41  24  40  1   
 42  24  41  1   
@<TRIPOS>SUBSTRUCTURE
  1 ****   6 GROUP 4 **** **** 0

# MOE 2024.06 (io_trps.svl 2023.06)
