@<TRIPOS>MOLECULE
NONAME
37 39 1 0 0 
SMALL
USER_CHARGES


@<TRIPOS>ATOM
  1 O        0.7230    -3.2570    -2.5030 O.2   1 <1>  -0.5700 
  2 C        0.5020    -3.1780    -1.3170 C.2   1 <1>   0.5690 
  3 N        0.8220    -2.0440    -0.6150 N.am  1 <1>  -0.6600 
  4 C       -0.0740    -4.4000    -0.6450 C.3   1 <1>   0.1570 
  5 C        1.3980    -0.8540    -1.2800 C.3   1 <1>   0.1400 
  6 C        0.6620    -1.8050     0.8400 C.3   1 <1>   0.1400 
  7 N       -1.3860    -4.0950    -0.0770 N.pl3 1 <1>   0.5800 
  8 C        1.4400     0.2230    -0.2020 C.3   1 <1>  -0.1600 
  9 C        1.4780    -0.5490     1.1140 C.3   1 <1>  -0.1600 
 10 N       -1.5960    -4.0320     1.2270 N.2   1 <1>  -0.4180 
 11 N       -2.4740    -3.9110    -0.7890 N.2   1 <1>  -0.7070 
 12 N       -2.8330    -3.7820     1.3670 N.2   1 <1>  -0.2270 
 13 C       -3.3540    -3.7030     0.1350 C.2   1 <1>   0.4620 
 14 C       -4.7600    -3.4400    -0.1210 C.ar  1 <1>   0.0540 
 15 C       -5.4900    -2.4150     0.5010 C.ar  1 <1>  -0.1440 
 16 C       -5.4320    -4.2480    -1.0390 C.ar  1 <1>  -0.1500 
 17 C       -6.8360    -2.2440     0.2170 C.ar  1 <1>  -0.1500 
 18 C       -4.8380    -1.4560     1.4900 C.3   1 <1>  -0.0970 
 19 C       -6.7730    -4.0700    -1.3220 C.ar  1 <1>  -0.1500 
 20 C       -7.4790    -3.0670    -0.6890 C.ar  1 <1>  -0.1500 
 21 H        0.5820    -4.7310     0.1340 H     1 <1>   0.0800 
 22 H       -0.1930    -5.1840    -1.3660 H     1 <1>   0.0800 
 23 H        0.7920    -0.5550    -2.1200 H     1 <1>   0.0800 
 24 H        2.3920    -1.0900    -1.6210 H     1 <1>   0.0800 
 25 H        1.0140    -2.6390     1.4220 H     1 <1>   0.0800 
 26 H       -0.3770    -1.6180     1.0560 H     1 <1>   0.0800 
 27 H        0.5380     0.8070    -0.2580 H     1 <1>   0.0800 
 28 H        2.2870     0.8750    -0.3220 H     1 <1>   0.0800 
 29 H        2.4910    -0.8310     1.3440 H     1 <1>   0.0800 
 30 H        1.0760     0.0190     1.9350 H     1 <1>   0.0800 
 31 H       -4.8870    -5.0290    -1.5390 H     1 <1>   0.1500 
 32 H       -7.3970    -1.4630     0.6990 H     1 <1>   0.1500 
 33 H       -3.8970    -1.1050     1.1050 H     1 <1>   0.0800 
 34 H       -4.6670    -1.9550     2.4270 H     1 <1>   0.0800 
 35 H       -5.4640    -0.6010     1.6690 H     1 <1>   0.0800 
 36 H       -7.2640    -4.7110    -2.0340 H     1 <1>   0.1500 
 37 H       -8.5250    -2.9240    -0.9020 H     1 <1>   0.1500 
@<TRIPOS>BOND
  1   1   2  2   
  2   2   3  am  
  3   2   4  1   
  4   3   5  1   
  5   3   6  1   
  6   4   7  1   
  7   4  21  1   
  8   4  22  1   
  9   5   8  1   
 10   5  23  1   
 11   5  24  1   
 12   6   9  1   
 13   6  25  1   
 14   6  26  1   
 15   7  10  1   
 16   7  11  1   
 17   8   9  1   
 18   8  27  1   
 19   8  28  1   
 20   9  29  1   
 21   9  30  1   
 22  10  12  2   
 23  11  13  2   
 24  12  13  1   
 25  13  14  1   
 26  14  15  ar  
 27  14  16  ar  
 28  15  17  ar  
 29  15  18  1   
 30  16  19  ar  
 31  16  31  1   
 32  17  20  ar  
 33  17  32  1   
 34  18  33  1   
 35  18  34  1   
 36  18  35  1   
 37  19  20  ar  
 38  19  36  1   
 39  20  37  1   
@<TRIPOS>SUBSTRUCTURE
  1 ****  11 GROUP 4 **** **** 0

# MOE 2024.06 (io_trps.svl 2023.06)
