@<TRIPOS>MOLECULE
NONAME
50 51 1 0 0 
SMALL
USER_CHARGES


@<TRIPOS>ATOM
  1 O      -13.6540     0.1800    -0.8290 O.3   1 <1>  -0.3630 
  2 C      -14.8890    -0.3360    -0.6090 C.ar  1 <1>   0.0830 
  3 C      -12.5150    -0.3570    -0.1900 C.3   1 <1>   0.1200 
  4 C      -15.9440     0.2650    -1.2760 C.ar  1 <1>  -0.1500 
  5 C      -15.1420    -1.4140     0.2350 C.ar  1 <1>  -0.1500 
  6 C      -11.2940     0.4360    -0.6390 C.3   1 <1>   0.1200 
  7 C      -17.2370    -0.2000    -1.1080 C.ar  1 <1>  -0.1500 
  8 C      -16.4360    -1.8750     0.4010 C.ar  1 <1>  -0.1500 
  9 O      -10.1680    -0.0860    -0.0030 O.3   1 <1>  -0.5600 
 10 C      -17.4910    -1.2730    -0.2690 C.ar  1 <1>  -0.1430 
 11 C       -8.9810     0.5550    -0.3420 C.3   1 <1>   0.1200 
 12 C      -18.9100    -1.7840    -0.0830 C.3   1 <1>  -0.0170 
 13 C       -7.8370    -0.1600     0.3820 C.3   1 <1>   0.1100 
 14 C      -19.5890    -1.0680     1.0870 C.3   1 <1>  -0.2400 
 15 N       -6.5220     0.4410     0.0660 N.3   1 <1>  -0.8100 
 16 C       -6.3130     1.7360     0.7650 C.3   1 <1>   0.1100 
 17 C       -5.4260    -0.5010     0.4020 C.3   1 <1>   0.1100 
 18 C       -4.9080     2.3360     0.5030 C.3   1 <1>   0.3430 
 19 C       -4.0250     0.0750     0.0800 C.3   1 <1>   0.3430 
 20 N       -4.1220     1.4780    -0.4430 N.4   1 <1>  -0.9590 
 21 C       -2.8050     2.0620    -0.8260 C.3   1 <1>   0.2630 
 22 H      -12.4180    -1.3880    -0.4800 H     1 <1>   0.0800 
 23 H      -12.6490    -0.2670     0.8740 H     1 <1>   0.0800 
 24 H      -15.7470     1.0970    -1.9260 H     1 <1>   0.1500 
 25 H      -14.3500    -1.9040     0.7690 H     1 <1>   0.1500 
 26 H      -11.4010     1.4700    -0.3590 H     1 <1>   0.0800 
 27 H      -11.1650     0.3430    -1.7040 H     1 <1>   0.0800 
 28 H      -18.0440     0.2800    -1.6320 H     1 <1>   0.1500 
 29 H      -16.6220    -2.7070     1.0560 H     1 <1>   0.1500 
 30 H       -9.0540     1.5820    -0.0340 H     1 <1>   0.0800 
 31 H       -8.8440     0.4880    -1.4070 H     1 <1>   0.0800 
 32 H      -18.8940    -2.8440     0.1020 H     1 <1>   0.0800 
 33 H      -19.4760    -1.6200    -0.9840 H     1 <1>   0.0800 
 34 H       -7.8460    -1.1870     0.0580 H     1 <1>   0.0800 
 35 H       -8.0110    -0.1370     1.4450 H     1 <1>   0.0800 
 36 H      -19.0390    -1.2400     1.9950 H     1 <1>   0.0800 
 37 H      -20.5920    -1.4330     1.2130 H     1 <1>   0.0800 
 38 H      -19.6250    -0.0090     0.9020 H     1 <1>   0.0800 
 39 H       -6.4450     1.6060     1.8260 H     1 <1>   0.0800 
 40 H       -7.0510     2.4470     0.4360 H     1 <1>   0.0800 
 41 H       -5.5580    -1.4140    -0.1540 H     1 <1>   0.0800 
 42 H       -5.4710    -0.7540     1.4490 H     1 <1>   0.0800 
 43 H       -4.3830     2.4270     1.4400 H     1 <1>   0.0800 
 44 H       -5.0220     3.3260     0.0940 H     1 <1>   0.0800 
 45 H       -3.5500    -0.5560    -0.6530 H     1 <1>   0.0800 
 46 H       -3.4210     0.0540     0.9710 H     1 <1>   0.0800 
 47 H       -4.7410     1.3890    -1.2670 H     1 <1>   0.4500 
 48 H       -2.1680     2.1490     0.0390 H     1 <1>   0.0800 
 49 H       -2.9410     3.0420    -1.2550 H     1 <1>   0.0800 
 50 H       -2.3160     1.4350    -1.5540 H     1 <1>   0.0800 
@<TRIPOS>BOND
  1   1   2  1   
  2   1   3  1   
  3   2   4  ar  
  4   2   5  ar  
  5   3   6  1   
  6   3  22  1   
  7   3  23  1   
  8   4   7  ar  
  9   4  24  1   
 10   5   8  ar  
 11   5  25  1   
 12   6   9  1   
 13   6  26  1   
 14   6  27  1   
 15   7  10  ar  
 16   7  28  1   
 17   8  10  ar  
 18   8  29  1   
 19   9  11  1   
 20  10  12  1   
 21  11  13  1   
 22  11  30  1   
 23  11  31  1   
 24  12  14  1   
 25  12  32  1   
 26  12  33  1   
 27  13  15  1   
 28  13  34  1   
 29  13  35  1   
 30  14  36  1   
 31  14  37  1   
 32  14  38  1   
 33  15  16  1   
 34  15  17  1   
 35  16  18  1   
 36  16  39  1   
 37  16  40  1   
 38  17  19  1   
 39  17  41  1   
 40  17  42  1   
 41  18  20  1   
 42  18  43  1   
 43  18  44  1   
 44  19  20  1   
 45  19  45  1   
 46  19  46  1   
 47  20  21  1   
 48  20  47  1   
 49  21  48  1   
 50  21  49  1   
 51  21  50  1   
@<TRIPOS>SUBSTRUCTURE
  1 ****   6 GROUP 4 **** **** 0

# MOE 2024.06 (io_trps.svl 2023.06)
