@<TRIPOS>MOLECULE
NONAME
47 49 1 0 0 
SMALL
USER_CHARGES


@<TRIPOS>ATOM
  1 S        0.3250     1.7760     1.0110 S.3   1 <1>  -0.2860 
  2 C       -1.3620     1.1730     1.1320 C.2   1 <1>   0.2420 
  3 C        1.3230     0.2550     1.4120 C.3   1 <1>   0.1310 
  4 N       -1.6580    -0.0500     1.3910 N.2   1 <1>  -0.3380 
  5 N       -2.4260     1.9560     0.9560 N.pl3 1 <1>   0.0480 
  6 C        2.8140     0.5100     1.2620 C.2   1 <1>   0.5690 
  7 N       -2.9930    -0.1060     1.3880 N.2   1 <1>  -0.3380 
  8 C       -3.4310     1.0830     1.1260 C.2   1 <1>   0.0060 
  9 C       -2.4540     3.4020     0.6550 C.3   1 <1>   0.0160 
 10 O        3.5740    -0.2030     1.8700 O.2   1 <1>  -0.5700 
 11 N        3.2210     1.5320     0.4450 N.am  1 <1>  -0.5470 
 12 C       -4.9110     1.4290     1.0300 C.3   1 <1>   0.0200 
 13 C        4.4920     2.0020     0.0820 C.ar  1 <1>   0.1170 
 14 C       -5.3670     1.7310    -0.4120 C.3   1 <1>  -0.0800 
 15 C        4.6240     3.3440    -0.3780 C.ar  1 <1>   0.0000 
 16 C        5.6020     1.1890     0.1330 C.ar  1 <1>  -0.1500 
 17 C       -6.8440     2.1430    -0.4270 C.3   1 <1>  -0.2400 
 18 C       -5.1590     0.5230    -1.3360 C.3   1 <1>  -0.2400 
 19 C        5.8960     3.7980    -0.8000 C.ar  1 <1>   0.0000 
 20 C        3.5510     4.2660    -0.4330 C.ar  1 <1>  -0.1500 
 21 C        6.8570     1.6480    -0.2680 C.ar  1 <1>  -0.1500 
 22 C        6.9980     2.9260    -0.7280 C.ar  1 <1>  -0.1500 
 23 C        6.0360     5.1170    -1.2780 C.ar  1 <1>  -0.1500 
 24 C        3.7150     5.5420    -0.8970 C.ar  1 <1>  -0.1500 
 25 C        4.9720     5.9730    -1.3290 C.ar  1 <1>  -0.1500 
 26 H        1.0070    -0.5230     0.7420 H     1 <1>   0.0800 
 27 H        1.0880    -0.0210     2.4240 H     1 <1>   0.0800 
 28 H       -2.2940     3.5460    -0.3980 H     1 <1>   0.0800 
 29 H       -1.6770     3.8990     1.2070 H     1 <1>   0.0800 
 30 H       -3.4040     3.8170     0.9350 H     1 <1>   0.0800 
 31 H        2.4500     2.0860     0.0750 H     1 <1>   0.3700 
 32 H       -5.1130     2.2730     1.6640 H     1 <1>   0.0800 
 33 H       -5.4800     0.6000     1.4130 H     1 <1>   0.0800 
 34 H       -4.7880     2.5520    -0.7980 H     1 <1>   0.0800 
 35 H        5.5250     0.1740     0.4780 H     1 <1>   0.1500 
 36 H       -7.4640     1.3440    -0.0590 H     1 <1>   0.0800 
 37 H       -7.1550     2.3820    -1.4290 H     1 <1>   0.0800 
 38 H       -7.0010     3.0110     0.1880 H     1 <1>   0.0800 
 39 H       -5.7100    -0.3290    -0.9750 H     1 <1>   0.0800 
 40 H       -4.1180     0.2540    -1.3850 H     1 <1>   0.0800 
 41 H       -5.4930     0.7490    -2.3330 H     1 <1>   0.0800 
 42 H        2.5770     3.9660    -0.0970 H     1 <1>   0.1500 
 43 H        7.7010     0.9820    -0.2110 H     1 <1>   0.1500 
 44 H        7.9610     3.2840    -1.0430 H     1 <1>   0.1500 
 45 H        7.0070     5.4440    -1.6040 H     1 <1>   0.1500 
 46 H        2.8880     6.2300    -0.9350 H     1 <1>   0.1500 
 47 H        5.0860     6.9790    -1.6940 H     1 <1>   0.1500 
@<TRIPOS>BOND
  1   1   2  1   
  2   1   3  1   
  3   2   4  2   
  4   2   5  1   
  5   3   6  1   
  6   3  26  1   
  7   3  27  1   
  8   4   7  1   
  9   5   8  1   
 10   5   9  1   
 11   6  10  2   
 12   6  11  am  
 13   7   8  2   
 14   8  12  1   
 15   9  28  1   
 16   9  29  1   
 17   9  30  1   
 18  11  13  1   
 19  11  31  1   
 20  12  14  1   
 21  12  32  1   
 22  12  33  1   
 23  13  15  ar  
 24  13  16  ar  
 25  14  17  1   
 26  14  18  1   
 27  14  34  1   
 28  15  19  ar  
 29  15  20  ar  
 30  16  21  ar  
 31  16  35  1   
 32  17  36  1   
 33  17  37  1   
 34  17  38  1   
 35  18  39  1   
 36  18  40  1   
 37  18  41  1   
 38  19  22  ar  
 39  19  23  ar  
 40  20  24  ar  
 41  20  42  1   
 42  21  22  ar  
 43  21  43  1   
 44  22  44  1   
 45  23  25  ar  
 46  23  45  1   
 47  24  25  ar  
 48  24  46  1   
 49  25  47  1   
@<TRIPOS>SUBSTRUCTURE
  1 ****   1 GROUP 4 **** **** 0

# MOE 2024.06 (io_trps.svl 2023.06)
