@<TRIPOS>MOLECULE
NONAME
53 56 1 0 0 
SMALL
USER_CHARGES


@<TRIPOS>ATOM
  1 O        1.1250    -0.6650    -2.0430 O.2   1 <1>  -0.5700 
  2 C        0.7480    -1.5650    -1.3310 C.2   1 <1>   0.4950 
  3 C        1.5740    -2.2120    -0.3700 C.2   1 <1>  -0.1240 
  4 C       -0.6680    -2.0790    -1.5370 C.3   1 <1>  -0.0990 
  5 C        1.1980    -3.3270     0.3020 C.2   1 <1>  -0.0380 
  6 C        2.9490    -1.5960    -0.1150 C.3   1 <1>   0.3400 
  7 C       -1.2200    -2.8470    -0.3160 C.3   1 <1>   0.0000 
  8 N        2.0630    -3.9920     1.1340 N.pl3 1 <1>  -0.6000 
  9 C       -0.1980    -3.9120     0.1450 C.3   1 <1>  -0.0220 
 10 C        3.8840    -2.5000     0.7050 C.2   1 <1>  -0.1240 
 11 C        2.7730    -0.2640     0.6160 C.ar  1 <1>  -0.1440 
 12 C       -1.5090    -1.8610     0.8330 C.3   1 <1>  -0.2400 
 13 C       -2.5420    -3.5330    -0.6990 C.3   1 <1>  -0.2400 
 14 C        3.3850    -3.6260     1.2830 C.2   1 <1>  -0.0380 
 15 C        5.2230    -1.9980     0.8200 C.2   1 <1>   0.6160 
 16 C        2.8980     0.9410    -0.0630 C.ar  1 <1>   0.1600 
 17 C        2.4860    -0.2300     1.9680 C.ar  1 <1>  -0.1500 
 18 C        4.1840    -4.5990     2.1360 C.3   1 <1>  -0.1020 
 19 O        5.7920    -1.9830     1.8940 O.2   1 <1>  -0.5700 
 20 N        5.8910    -1.5420    -0.2930 N.am  1 <1>  -0.5470 
 21 N        2.7830     2.1400     0.4860 N.ar  1 <1>  -0.6200 
 22 C        2.3600     1.0090     2.5560 C.ar  1 <1>  -0.1500 
 23 C        7.0620    -0.7720    -0.3930 C.ar  1 <1>   0.1170 
 24 C        2.5190     2.1450     1.7820 C.ar  1 <1>   0.1600 
 25 C        7.5580     0.0390     0.6340 C.ar  1 <1>   0.1600 
 26 C        7.7670    -0.7900    -1.5850 C.ar  1 <1>  -0.1500 
 27 N        8.6480     0.7900     0.5650 N.ar  1 <1>  -0.6200 
 28 C        8.9030    -0.0160    -1.6750 C.ar  1 <1>  -0.1500 
 29 C        9.2960     0.7440    -0.5870 C.ar  1 <1>   0.1600 
 30 H       -0.6520    -2.7250    -2.3960 H     1 <1>   0.0800 
 31 H       -1.3080    -1.2470    -1.7690 H     1 <1>   0.0800 
 32 H        3.3990    -1.4200    -1.0760 H     1 <1>   0.0800 
 33 H        1.7330    -4.8280     1.6320 H     1 <1>   0.4000 
 34 H       -0.5230    -4.3320     1.0810 H     1 <1>   0.0800 
 35 H       -0.1480    -4.7120    -0.5730 H     1 <1>   0.0800 
 36 H       -0.6160    -1.3500     1.1500 H     1 <1>   0.0800 
 37 H       -1.9130    -2.3790     1.6850 H     1 <1>   0.0800 
 38 H       -2.2230    -1.1180     0.5240 H     1 <1>   0.0800 
 39 H       -2.9490    -4.0670     0.1420 H     1 <1>   0.0800 
 40 H       -3.2670    -2.8050    -1.0190 H     1 <1>   0.0800 
 41 H       -2.3910    -4.2330    -1.5020 H     1 <1>   0.0800 
 42 H        3.1000     0.9240    -1.1210 H     1 <1>   0.1500 
 43 H        2.3690    -1.1320     2.5450 H     1 <1>   0.1500 
 44 H        3.8690    -4.5260     3.1610 H     1 <1>   0.0800 
 45 H        5.2390    -4.4010     2.0940 H     1 <1>   0.0800 
 46 H        4.0280    -5.6050     1.7930 H     1 <1>   0.0800 
 47 H        5.5210    -1.8790    -1.1790 H     1 <1>   0.3700 
 48 H        2.1450     1.0960     3.6050 H     1 <1>   0.1500 
 49 H        2.4230     3.1080     2.2530 H     1 <1>   0.1500 
 50 H        7.0170     0.0710     1.5640 H     1 <1>   0.1500 
 51 H        7.4430    -1.3900    -2.4160 H     1 <1>   0.1500 
 52 H        9.4850     0.0010    -2.5790 H     1 <1>   0.1500 
 53 H       10.1860     1.3450    -0.6670 H     1 <1>   0.1500 
@<TRIPOS>BOND
  1   1   2  2   
  2   2   3  1   
  3   2   4  1   
  4   3   5  2   
  5   3   6  1   
  6   4   7  1   
  7   4  30  1   
  8   4  31  1   
  9   5   8  1   
 10   5   9  1   
 11   6  10  1   
 12   6  11  1   
 13   6  32  1   
 14   7   9  1   
 15   7  12  1   
 16   7  13  1   
 17   8  14  1   
 18   8  33  1   
 19   9  34  1   
 20   9  35  1   
 21  10  14  2   
 22  10  15  1   
 23  11  16  ar  
 24  11  17  ar  
 25  12  36  1   
 26  12  37  1   
 27  12  38  1   
 28  13  39  1   
 29  13  40  1   
 30  13  41  1   
 31  14  18  1   
 32  15  19  2   
 33  15  20  am  
 34  16  21  ar  
 35  16  42  1   
 36  17  22  ar  
 37  17  43  1   
 38  18  44  1   
 39  18  45  1   
 40  18  46  1   
 41  20  23  1   
 42  20  47  1   
 43  21  24  ar  
 44  22  24  ar  
 45  22  48  1   
 46  23  25  ar  
 47  23  26  ar  
 48  24  49  1   
 49  25  27  ar  
 50  25  50  1   
 51  26  28  ar  
 52  26  51  1   
 53  27  29  ar  
 54  28  29  ar  
 55  28  52  1   
 56  29  53  1   
@<TRIPOS>SUBSTRUCTURE
  1 ****   6 GROUP 4 **** **** 0

# MOE 2024.06 (io_trps.svl 2023.06)
