@<TRIPOS>MOLECULE
NONAME
47 49 1 0 0 
SMALL
USER_CHARGES


@<TRIPOS>ATOM
  1 O       -0.9210     0.0930    -0.5030 O.2   1 <1>  -0.5700 
  2 C       -1.0880    -0.7490     0.3560 C.2   1 <1>   0.6900 
  3 N       -0.1940    -1.7580     0.5470 N.am  1 <1>  -0.5470 
  4 N       -2.1750    -0.7320     1.1700 N.am  1 <1>  -0.7300 
  5 C        1.0250    -1.9810    -0.1080 C.ar  1 <1>   0.1170 
  6 C       -3.3230     0.2040     1.1410 C.3   1 <1>   0.2200 
  7 C        2.1010    -1.0840    -0.0640 C.ar  1 <1>  -0.1430 
  8 C        1.1600    -3.1680    -0.8150 C.ar  1 <1>  -0.1500 
  9 C       -4.0610     0.1490    -0.2160 C.3   1 <1>  -0.0800 
 10 C       -2.8390     1.6080     1.5050 C.3   1 <1>  -0.2400 
 11 C        3.2760    -1.3830    -0.7510 C.ar  1 <1>  -0.1430 
 12 C        1.9840     0.2170     0.7340 C.3   1 <1>  -0.0970 
 13 C        2.3290    -3.4690    -1.4810 C.ar  1 <1>  -0.1500 
 14 C       -5.3140     1.0440    -0.3630 C.3   1 <1>  -0.0800 
 15 C       -4.6060    -1.2500    -0.5810 C.3   1 <1>  -0.1600 
 16 C        3.3820    -2.5760    -1.4500 C.ar  1 <1>  -0.1500 
 17 C        4.4690    -0.4360    -0.7740 C.3   1 <1>  -0.0970 
 18 C       -5.9720     0.4100    -1.5790 C.3   1 <1>  -0.1600 
 19 C       -6.3600     0.7260     0.7220 C.3   1 <1>  -0.1600 
 20 C       -6.0700    -0.9740    -0.9600 C.3   1 <1>  -0.0800 
 21 C       -6.8520    -0.6780     0.3300 C.3   1 <1>  -0.1600 
 22 H       -0.5720    -2.5600     1.0360 H     1 <1>   0.3700 
 23 H       -2.1610    -1.3420     1.9820 H     1 <1>   0.3700 
 24 H       -4.0040    -0.1200     1.9080 H     1 <1>   0.0800 
 25 H        0.3390    -3.8590    -0.8520 H     1 <1>   0.1500 
 26 H       -3.3710     0.4560    -0.9840 H     1 <1>   0.0800 
 27 H       -2.2060     2.0020     0.7300 H     1 <1>   0.0800 
 28 H       -2.2940     1.5860     2.4300 H     1 <1>   0.0800 
 29 H       -3.6770     2.2690     1.6220 H     1 <1>   0.0800 
 30 H        1.3160     0.1020     1.5680 H     1 <1>   0.0800 
 31 H        1.6020     0.9940     0.0960 H     1 <1>   0.0800 
 32 H        2.9300     0.5260     1.1330 H     1 <1>   0.0800 
 33 H        2.4210    -4.3910    -2.0280 H     1 <1>   0.1500 
 34 H       -5.0940     2.0920    -0.4710 H     1 <1>   0.0800 
 35 H       -4.5350    -1.9500     0.2320 H     1 <1>   0.0800 
 36 H       -4.0630    -1.6400    -1.4250 H     1 <1>   0.0800 
 37 H        4.2870    -2.8170    -1.9790 H     1 <1>   0.1500 
 38 H        4.1480     0.5560    -1.0360 H     1 <1>   0.0800 
 39 H        5.1980    -0.7490    -1.4990 H     1 <1>   0.0800 
 40 H        4.9380    -0.4140     0.1920 H     1 <1>   0.0800 
 41 H       -5.3440     0.4310    -2.4540 H     1 <1>   0.0800 
 42 H       -6.9350     0.8360    -1.8050 H     1 <1>   0.0800 
 43 H       -7.1740     1.4270     0.6560 H     1 <1>   0.0800 
 44 H       -5.9640     0.7600     1.7200 H     1 <1>   0.0800 
 45 H       -6.5150    -1.7310    -1.5840 H     1 <1>   0.0800 
 46 H       -7.9090    -0.6580     0.1300 H     1 <1>   0.0800 
 47 H       -6.6520    -1.4060     1.0970 H     1 <1>   0.0800 
@<TRIPOS>BOND
  1   1   2  2   
  2   2   3  am  
  3   2   4  am  
  4   3   5  1   
  5   3  22  1   
  6   4   6  1   
  7   4  23  1   
  8   5   7  ar  
  9   5   8  ar  
 10   6   9  1   
 11   6  10  1   
 12   6  24  1   
 13   7  11  ar  
 14   7  12  1   
 15   8  13  ar  
 16   8  25  1   
 17   9  14  1   
 18   9  15  1   
 19   9  26  1   
 20  10  27  1   
 21  10  28  1   
 22  10  29  1   
 23  11  16  ar  
 24  11  17  1   
 25  12  30  1   
 26  12  31  1   
 27  12  32  1   
 28  13  16  ar  
 29  13  33  1   
 30  14  18  1   
 31  14  19  1   
 32  14  34  1   
 33  15  20  1   
 34  15  35  1   
 35  15  36  1   
 36  16  37  1   
 37  17  38  1   
 38  17  39  1   
 39  17  40  1   
 40  18  20  1   
 41  18  41  1   
 42  18  42  1   
 43  19  21  1   
 44  19  43  1   
 45  19  44  1   
 46  20  21  1   
 47  20  45  1   
 48  21  46  1   
 49  21  47  1   
@<TRIPOS>SUBSTRUCTURE
  1 ****   2 GROUP 4 **** **** 0

# MOE 2024.06 (io_trps.svl 2023.06)
