@<TRIPOS>MOLECULE
NONAME
41 43 1 0 0 
SMALL
USER_CHARGES


@<TRIPOS>ATOM
  1 O       -2.8430    -0.6650     0.1600 O.co2 1 <1>  -0.9000 
  2 C       -3.1800     0.2210     0.9480 C.2   1 <1>   0.9060 
  3 O       -4.1200     0.0590     1.7370 O.co2 1 <1>  -0.9000 
  4 C       -2.4730     1.5690     0.9890 C.3   1 <1>  -0.1860 
  5 C       -3.2760     2.8180     0.4650 C.3   1 <1>  -0.0190 
  6 C       -1.0380     1.5520     0.3980 C.3   1 <1>  -0.0800 
  7 C       -4.5950     2.6230    -0.3250 C.2   1 <1>   0.5690 
  8 C       -2.2790     3.7650    -0.2730 C.3   1 <1>  -0.0800 
  9 C       -1.1110     1.6910    -1.1360 C.3   1 <1>  -0.1600 
 10 C       -0.2850     2.7800     0.9510 C.3   1 <1>  -0.1600 
 11 O       -4.8270     3.3480    -1.2680 O.2   1 <1>  -0.5700 
 12 N       -5.5240     1.7210     0.1130 N.am  1 <1>  -0.5470 
 13 C       -1.7260     3.0510    -1.5260 C.3   1 <1>  -0.1600 
 14 C       -1.0820     4.0700     0.6540 C.3   1 <1>  -0.1600 
 15 C       -6.7870     1.3590    -0.3690 C.ar  1 <1>   0.1170 
 16 C       -7.6100     2.2160    -1.0910 C.ar  1 <1>  -0.1500 
 17 C       -7.2470     0.0790    -0.0920 C.ar  1 <1>  -0.1500 
 18 C       -8.8570     1.8010    -1.5260 C.ar  1 <1>  -0.1500 
 19 C       -8.4930    -0.3380    -0.5240 C.ar  1 <1>  -0.1500 
 20 C       -9.3070     0.5210    -1.2450 C.ar  1 <1>  -0.1440 
 21 C      -10.6750     0.0660    -1.7200 C.3   1 <1>  -0.0970 
 22 H       -2.3450     1.7250     2.0440 H     1 <1>   0.0800 
 23 H       -3.5960     3.3460     1.3450 H     1 <1>   0.0800 
 24 H       -0.5300     0.6410     0.6700 H     1 <1>   0.0800 
 25 H       -2.7660     4.6840    -0.5510 H     1 <1>   0.0800 
 26 H       -1.7140     0.8940    -1.5360 H     1 <1>   0.0800 
 27 H       -0.1280     1.5970    -1.5610 H     1 <1>   0.0800 
 28 H        0.6860     2.8370     0.4920 H     1 <1>   0.0800 
 29 H       -0.1410     2.6750     2.0120 H     1 <1>   0.0800 
 30 H       -5.1590     1.0640     0.8290 H     1 <1>   0.3700 
 31 H       -0.9770     3.6680    -1.9890 H     1 <1>   0.0800 
 32 H       -2.5070     2.8950    -2.2500 H     1 <1>   0.0800 
 33 H       -1.4410     4.4960     1.5750 H     1 <1>   0.0800 
 34 H       -0.4360     4.7940     0.1880 H     1 <1>   0.0800 
 35 H       -7.2720     3.2110    -1.3120 H     1 <1>   0.1500 
 36 H       -6.6100    -0.5900     0.4640 H     1 <1>   0.1500 
 37 H       -9.4730     2.4830    -2.0830 H     1 <1>   0.1500 
 38 H       -8.8210    -1.3360    -0.2940 H     1 <1>   0.1500 
 39 H      -10.9340     0.5570    -2.6410 H     1 <1>   0.0800 
 40 H      -11.4140     0.3030    -0.9770 H     1 <1>   0.0800 
 41 H      -10.6780    -0.9960    -1.8900 H     1 <1>   0.0800 
@<TRIPOS>BOND
  1   1   2  ar  
  2   2   3  ar  
  3   2   4  1   
  4   4   5  1   
  5   4   6  1   
  6   4  22  1   
  7   5   7  1   
  8   5   8  1   
  9   5  23  1   
 10   6   9  1   
 11   6  10  1   
 12   6  24  1   
 13   7  11  2   
 14   7  12  am  
 15   8  13  1   
 16   8  14  1   
 17   8  25  1   
 18   9  13  1   
 19   9  26  1   
 20   9  27  1   
 21  10  14  1   
 22  10  28  1   
 23  10  29  1   
 24  12  15  1   
 25  12  30  1   
 26  13  31  1   
 27  13  32  1   
 28  14  33  1   
 29  14  34  1   
 30  15  16  ar  
 31  15  17  ar  
 32  16  18  ar  
 33  16  35  1   
 34  17  19  ar  
 35  17  36  1   
 36  18  20  ar  
 37  18  37  1   
 38  19  20  ar  
 39  19  38  1   
 40  20  21  1   
 41  21  39  1   
 42  21  40  1   
 43  21  41  1   
@<TRIPOS>SUBSTRUCTURE
  1 ****  12 GROUP 4 **** **** 0

# MOE 2024.06 (io_trps.svl 2023.06)
