@<TRIPOS>MOLECULE
NONAME
40 41 1 0 0 
SMALL
USER_CHARGES


@<TRIPOS>ATOM
  1 CL      -0.8750     0.5560     1.1320 Cl    1 <1>  -0.1770 
  2 C       -2.3700    -0.3040     0.8660 C.ar  1 <1>   0.1770 
  3 C       -3.3480    -0.2800     1.8430 C.ar  1 <1>  -0.1500 
  4 C       -2.5530    -0.9940    -0.3180 C.ar  1 <1>  -0.1500 
  5 C       -4.5330    -0.9630     1.6260 C.ar  1 <1>  -0.1500 
  6 C       -3.7390    -1.6770    -0.5320 C.ar  1 <1>  -0.1500 
  7 C       -4.7360    -1.6620     0.4440 C.ar  1 <1>   0.0830 
  8 O       -5.9250    -2.3000     0.3140 O.3   1 <1>  -0.3630 
  9 C       -6.2570    -3.0020    -0.8780 C.3   1 <1>   0.1810 
 10 C       -7.6610    -3.5830    -0.8020 C.2   1 <1>   0.5690 
 11 O       -7.9940    -4.3960    -1.6390 O.2   1 <1>  -0.5700 
 12 N       -8.4930    -3.1850     0.1980 N.am  1 <1>  -0.4300 
 13 N       -9.9360    -3.4440     0.2550 N.am  1 <1>  -0.4300 
 14 C      -10.8910    -2.5960    -0.2120 C.2   1 <1>   0.5690 
 15 O      -10.6300    -1.4590    -0.5480 O.2   1 <1>  -0.5700 
 16 C      -12.3340    -3.0950    -0.3020 C.3   1 <1>  -0.0190 
 17 C      -12.8110    -3.1550    -1.7660 C.3   1 <1>  -0.1600 
 18 C      -13.2880    -2.2280     0.5430 C.3   1 <1>  -0.1600 
 19 C      -14.2610    -3.6500    -1.8670 C.3   1 <1>  -0.1600 
 20 C      -14.7380    -2.7240     0.4430 C.3   1 <1>  -0.1600 
 21 C      -15.2020    -2.7860    -1.0180 C.3   1 <1>  -0.1600 
 22 H       -3.1810     0.2640     2.7550 H     1 <1>   0.1500 
 23 H       -1.7740    -0.9940    -1.0590 H     1 <1>   0.1500 
 24 H       -5.3050    -0.9560     2.3750 H     1 <1>   0.1500 
 25 H       -3.8620    -2.2080    -1.4570 H     1 <1>   0.1500 
 26 H       -5.5490    -3.7990    -1.0130 H     1 <1>   0.0800 
 27 H       -6.2060    -2.3170    -1.7040 H     1 <1>   0.0800 
 28 H       -8.1270    -2.4970     0.8690 H     1 <1>   0.3700 
 29 H      -10.2020    -4.3960     0.5200 H     1 <1>   0.3700 
 30 H      -12.3660    -4.0950     0.0920 H     1 <1>   0.0800 
 31 H      -12.1670    -3.8080    -2.3300 H     1 <1>   0.0800 
 32 H      -12.7410    -2.1720    -2.2010 H     1 <1>   0.0800 
 33 H      -13.2400    -1.2090     0.1980 H     1 <1>   0.0800 
 34 H      -12.9740    -2.2400     1.5720 H     1 <1>   0.0800 
 35 H      -14.3160    -4.6720    -1.5330 H     1 <1>   0.0800 
 36 H      -14.5790    -3.6230    -2.8960 H     1 <1>   0.0800 
 37 H      -15.3830    -2.0640     0.9970 H     1 <1>   0.0800 
 38 H      -14.8140    -3.7040     0.8830 H     1 <1>   0.0800 
 39 H      -16.2000    -3.1870    -1.0630 H     1 <1>   0.0800 
 40 H      -15.2300    -1.7880    -1.4230 H     1 <1>   0.0800 
@<TRIPOS>BOND
  1   1   2  1   
  2   2   3  ar  
  3   2   4  ar  
  4   3   5  ar  
  5   3  22  1   
  6   4   6  ar  
  7   4  23  1   
  8   5   7  ar  
  9   5  24  1   
 10   6   7  ar  
 11   6  25  1   
 12   7   8  1   
 13   8   9  1   
 14   9  10  1   
 15   9  26  1   
 16   9  27  1   
 17  10  11  2   
 18  10  12  am  
 19  12  13  1   
 20  12  28  1   
 21  13  14  am  
 22  13  29  1   
 23  14  15  2   
 24  14  16  1   
 25  16  17  1   
 26  16  18  1   
 27  16  30  1   
 28  17  19  1   
 29  17  31  1   
 30  17  32  1   
 31  18  20  1   
 32  18  33  1   
 33  18  34  1   
 34  19  21  1   
 35  19  35  1   
 36  19  36  1   
 37  20  21  1   
 38  20  37  1   
 39  20  38  1   
 40  21  39  1   
 41  21  40  1   
@<TRIPOS>SUBSTRUCTURE
  1 ****  12 GROUP 4 **** **** 0

# MOE 2024.06 (io_trps.svl 2023.06)
