@<TRIPOS>MOLECULE
NONAME
38 39 1 0 0 
SMALL
USER_CHARGES


@<TRIPOS>ATOM
  1 F       -0.7480     0.2510    -0.1680 F     1 <1>  -0.3400 
  2 C       -1.8850    -0.4320    -0.1910 C.3   1 <1>   1.1640 
  3 F       -2.5170    -0.0600    -1.3020 F     1 <1>  -0.3400 
  4 F       -2.6210     0.0320     0.8110 F     1 <1>  -0.3400 
  5 C       -1.7060    -1.9520    -0.1200 C.ar  1 <1>  -0.1440 
  6 C       -2.8090    -2.7990    -0.2780 C.ar  1 <1>   0.1170 
  7 C       -0.4500    -2.5040     0.1180 C.ar  1 <1>  -0.1500 
  8 N       -4.0940    -2.2870    -0.5410 N.am  1 <1>  -0.5470 
  9 C       -2.6180    -4.1750    -0.1900 C.ar  1 <1>  -0.1500 
 10 C       -0.2800    -3.8740     0.1990 C.ar  1 <1>  -0.1500 
 11 C       -5.2890    -2.6690     0.0140 C.2   1 <1>   0.5690 
 12 C       -1.3680    -4.7110     0.0460 C.ar  1 <1>  -0.1500 
 13 O       -5.3900    -3.5810     0.8000 O.2   1 <1>  -0.5700 
 14 C       -6.5800    -1.9120    -0.3530 C.3   1 <1>   0.4040 
 15 N       -7.8420    -2.6440     0.0460 N.4   1 <1>  -0.9590 
 16 C       -8.0620    -3.8630    -0.7880 C.3   1 <1>   0.3430 
 17 C       -9.0350    -1.7530     0.0950 C.3   1 <1>   0.3430 
 18 C       -9.2420    -4.6600    -0.2300 C.3   1 <1>  -0.1600 
 19 C      -10.2280    -2.5210     0.6650 C.3   1 <1>  -0.1600 
 20 C      -10.5110    -3.8050    -0.1250 C.3   1 <1>  -0.1600 
 21 H        0.4170    -1.8760     0.2470 H     1 <1>   0.1500 
 22 H       -4.1000    -1.4830    -1.1760 H     1 <1>   0.3700 
 23 H       -3.4530    -4.8420    -0.3060 H     1 <1>   0.1500 
 24 H        0.6960    -4.2890     0.3840 H     1 <1>   0.1500 
 25 H       -1.2400    -5.7780     0.1130 H     1 <1>   0.1500 
 26 H       -6.5890    -1.7270    -1.4130 H     1 <1>   0.0800 
 27 H       -6.5490    -0.9620     0.1530 H     1 <1>   0.0800 
 28 H       -7.6610    -3.0020     1.0000 H     1 <1>   0.4500 
 29 H       -7.1790    -4.4840    -0.7770 H     1 <1>   0.0800 
 30 H       -8.2690    -3.5800    -1.8070 H     1 <1>   0.0800 
 31 H       -9.2740    -1.4080    -0.8990 H     1 <1>   0.0800 
 32 H       -8.8330    -0.8940     0.7160 H     1 <1>   0.0800 
 33 H       -8.9800    -5.0510     0.7380 H     1 <1>   0.0800 
 34 H       -9.4310    -5.5030    -0.8730 H     1 <1>   0.0800 
 35 H      -11.0990    -1.8890     0.6400 H     1 <1>   0.0800 
 36 H      -10.0370    -2.7610     1.6970 H     1 <1>   0.0800 
 37 H      -11.2920    -4.3690     0.3590 H     1 <1>   0.0800 
 38 H      -10.8570    -3.5510    -1.1140 H     1 <1>   0.0800 
@<TRIPOS>BOND
  1   1   2  1   
  2   2   3  1   
  3   2   4  1   
  4   2   5  1   
  5   5   6  ar  
  6   5   7  ar  
  7   6   8  1   
  8   6   9  ar  
  9   7  10  ar  
 10   7  21  1   
 11   8  11  am  
 12   8  22  1   
 13   9  12  ar  
 14   9  23  1   
 15  10  12  ar  
 16  10  24  1   
 17  11  13  2   
 18  11  14  1   
 19  12  25  1   
 20  14  15  1   
 21  14  26  1   
 22  14  27  1   
 23  15  16  1   
 24  15  17  1   
 25  15  28  1   
 26  16  18  1   
 27  16  29  1   
 28  16  30  1   
 29  17  19  1   
 30  17  31  1   
 31  17  32  1   
 32  18  20  1   
 33  18  33  1   
 34  18  34  1   
 35  19  20  1   
 36  19  35  1   
 37  19  36  1   
 38  20  37  1   
 39  20  38  1   
@<TRIPOS>SUBSTRUCTURE
  1 ****  11 GROUP 4 **** **** 0

# MOE 2024.06 (io_trps.svl 2023.06)
