@<TRIPOS>MOLECULE
NONAME
41 41 1 0 0 
SMALL
USER_CHARGES


@<TRIPOS>ATOM
  1 CL       1.2790    -1.6030    -2.3420 Cl    1 <1>  -0.1770 
  2 C        0.6340    -2.3770    -0.9110 C.ar  1 <1>   0.1770 
  3 C        1.3260    -2.3120     0.2920 C.ar  1 <1>   0.0820 
  4 C       -0.5700    -3.0520    -1.0100 C.ar  1 <1>  -0.1500 
  5 O        2.4960    -1.6360     0.3870 O.3   1 <1>  -0.3630 
  6 C        0.7730    -2.9420     1.4000 C.ar  1 <1>   0.1770 
  7 C       -1.1100    -3.6790     0.1050 C.ar  1 <1>  -0.1440 
  8 C        3.6640    -2.3810     0.1250 C.3   1 <1>   0.1200 
  9 CL       1.6000    -2.8960     2.9430 Cl    1 <1>  -0.1770 
 10 C       -0.4300    -3.6210     1.3140 C.ar  1 <1>  -0.1500 
 11 C       -2.4300    -4.4220     0.0030 C.3   1 <1>  -0.0960 
 12 C        4.8600    -1.4470     0.2770 C.3   1 <1>   0.1200 
 13 O        6.0290    -2.1690     0.0190 O.3   1 <1>  -0.5600 
 14 C        7.1940    -1.4230     0.1250 C.3   1 <1>   0.1200 
 15 C        8.3610    -2.3630    -0.1920 C.3   1 <1>   0.3430 
 16 N        9.6790    -1.6640    -0.0990 N.4   1 <1>  -0.9060 
 17 C       10.8240    -2.5430    -0.3720 C.3   1 <1>   0.4230 
 18 C       12.0770    -1.8160     0.0960 C.3   1 <1>  -0.2400 
 19 C       10.8940    -2.8330    -1.8680 C.3   1 <1>  -0.2400 
 20 H       -1.0770    -3.0840    -1.9580 H     1 <1>   0.1500 
 21 H        3.6050    -2.7630    -0.8790 H     1 <1>   0.0800 
 22 H        3.7180    -3.1870     0.8350 H     1 <1>   0.0800 
 23 H       -0.8250    -4.0990     2.1920 H     1 <1>   0.1500 
 24 H       -3.0580    -3.9760    -0.7470 H     1 <1>   0.0800 
 25 H       -2.9540    -4.3930     0.9420 H     1 <1>   0.0800 
 26 H       -2.2520    -5.4490    -0.2610 H     1 <1>   0.0800 
 27 H        4.9010    -1.0660     1.2830 H     1 <1>   0.0800 
 28 H        4.7850    -0.6390    -0.4310 H     1 <1>   0.0800 
 29 H        7.2630    -1.0460     1.1310 H     1 <1>   0.0800 
 30 H        7.1450    -0.6150    -0.5840 H     1 <1>   0.0800 
 31 H        8.2230    -2.7520    -1.1880 H     1 <1>   0.0800 
 32 H        8.3360    -3.1870     0.5020 H     1 <1>   0.0800 
 33 H        9.7950    -1.2740     0.8430 H     1 <1>   0.4500 
 34 H        9.7140    -0.8800    -0.7600 H     1 <1>   0.4500 
 35 H       10.7230    -3.4680     0.1770 H     1 <1>   0.0800 
 36 H       12.2140    -0.8880    -0.4320 H     1 <1>   0.0800 
 37 H       12.9400    -2.4320    -0.0900 H     1 <1>   0.0800 
 38 H       12.0380    -1.6270     1.1540 H     1 <1>   0.0800 
 39 H       10.9760    -1.9260    -2.4410 H     1 <1>   0.0800 
 40 H       10.0360    -3.3910    -2.1990 H     1 <1>   0.0800 
 41 H       11.7630    -3.4330    -2.0760 H     1 <1>   0.0800 
@<TRIPOS>BOND
  1   1   2  1   
  2   2   3  ar  
  3   2   4  ar  
  4   3   5  1   
  5   3   6  ar  
  6   4   7  ar  
  7   4  20  1   
  8   5   8  1   
  9   6   9  1   
 10   6  10  ar  
 11   7  10  ar  
 12   7  11  1   
 13   8  12  1   
 14   8  21  1   
 15   8  22  1   
 16  10  23  1   
 17  11  24  1   
 18  11  25  1   
 19  11  26  1   
 20  12  13  1   
 21  12  27  1   
 22  12  28  1   
 23  13  14  1   
 24  14  15  1   
 25  14  29  1   
 26  14  30  1   
 27  15  16  1   
 28  15  31  1   
 29  15  32  1   
 30  16  17  1   
 31  16  33  1   
 32  16  34  1   
 33  17  18  1   
 34  17  19  1   
 35  17  35  1   
 36  18  36  1   
 37  18  37  1   
 38  18  38  1   
 39  19  39  1   
 40  19  40  1   
 41  19  41  1   
@<TRIPOS>SUBSTRUCTURE
  1 ****   8 GROUP 4 **** **** 0

# MOE 2024.06 (io_trps.svl 2023.06)
