@<TRIPOS>MOLECULE
NONAME
46 48 1 0 0 
SMALL
USER_CHARGES


@<TRIPOS>ATOM
  1 CL       1.0820     2.0780     3.1850 Cl    1 <1>  -0.1770 
  2 C        2.2760     2.2470     1.9260 C.ar  1 <1>   0.1770 
  3 C        1.9260     2.8480     0.7320 C.ar  1 <1>  -0.1500 
  4 C        3.5580     1.7790     2.1370 C.ar  1 <1>  -0.1500 
  5 C        2.8800     2.9810    -0.2630 C.ar  1 <1>  -0.1500 
  6 C        4.5020     1.9180     1.1330 C.ar  1 <1>  -0.1500 
  7 C        4.1830     2.5230    -0.0800 C.ar  1 <1>  -0.0090 
  8 S        5.4320     2.6980    -1.3870 S.o2  1 <1>   1.4470 
  9 O        5.0170     3.7010    -2.3440 O.2   1 <1>  -0.6500 
 10 O        5.8080     1.3830    -1.8580 O.2   1 <1>  -0.6500 
 11 N        6.7680     3.3410    -0.5630 N.am  1 <1>  -0.8490 
 12 C        6.5540     4.7390    -0.1760 C.3   1 <1>   0.1960 
 13 C        7.9990     3.1830    -1.3410 C.3   1 <1>   0.1960 
 14 C        7.7080     5.2240     0.7020 C.3   1 <1>  -0.1600 
 15 C        9.2100     3.6250    -0.5140 C.3   1 <1>  -0.1600 
 16 C        9.0590     5.0730    -0.0210 C.3   1 <1>  -0.0190 
 17 C       10.2480     5.4780     0.8490 C.2   1 <1>   0.5690 
 18 O       10.2120     5.3110     2.0440 O.2   1 <1>  -0.5700 
 19 N       11.3410     6.0000     0.2390 N.am  1 <1>  -0.7300 
 20 C       12.6140     6.3030     0.9190 C.3   1 <1>   0.2840 
 21 C       13.7020     5.4820     0.2560 C.ar  1 <1>  -0.1430 
 22 C       13.7700     4.1140     0.4310 C.ar  1 <1>  -0.1500 
 23 C       14.6700     6.0430    -0.5530 C.ar  1 <1>  -0.1500 
 24 C       14.7730     3.3930    -0.1950 C.ar  1 <1>   0.1600 
 25 C       15.6310     5.2310    -1.1320 C.ar  1 <1>   0.1600 
 26 N       15.7040     3.9190    -0.9740 N.ar  1 <1>  -0.6200 
 27 H        0.9210     3.2030     0.5880 H     1 <1>   0.1500 
 28 H        3.8110     1.3120     3.0730 H     1 <1>   0.1500 
 29 H        2.6100     3.4470    -1.1970 H     1 <1>   0.1500 
 30 H        5.5050     1.5540     1.2900 H     1 <1>   0.1500 
 31 H        5.6350     4.8280     0.3790 H     1 <1>   0.0800 
 32 H        6.4760     5.3590    -1.0560 H     1 <1>   0.0800 
 33 H        7.9340     3.7590    -2.2500 H     1 <1>   0.0800 
 34 H        8.1310     2.1470    -1.6100 H     1 <1>   0.0800 
 35 H        7.7110     4.6510     1.6140 H     1 <1>   0.0800 
 36 H        7.5520     6.2550     0.9650 H     1 <1>   0.0800 
 37 H       10.0990     3.5320    -1.1100 H     1 <1>   0.0800 
 38 H        9.3110     2.9640     0.3300 H     1 <1>   0.0800 
 39 H        9.0450     5.7220    -0.8780 H     1 <1>   0.0800 
 40 H       11.3860     6.0490    -0.7780 H     1 <1>   0.3700 
 41 H       12.5530     6.0550     1.9660 H     1 <1>   0.0800 
 42 H       12.8250     7.3550     0.8330 H     1 <1>   0.0800 
 43 H       13.0490     3.6080     1.0480 H     1 <1>   0.1500 
 44 H       14.6880     7.1020    -0.7390 H     1 <1>   0.1500 
 45 H       14.8100     2.3270    -0.0460 H     1 <1>   0.1500 
 46 H       16.3800     5.6840    -1.7590 H     1 <1>   0.1500 
@<TRIPOS>BOND
  1   1   2  1   
  2   2   3  ar  
  3   2   4  ar  
  4   3   5  ar  
  5   3  27  1   
  6   4   6  ar  
  7   4  28  1   
  8   5   7  ar  
  9   5  29  1   
 10   6   7  ar  
 11   6  30  1   
 12   7   8  1   
 13   8   9  2   
 14   8  10  2   
 15   8  11  am  
 16  11  12  1   
 17  11  13  1   
 18  12  14  1   
 19  12  31  1   
 20  12  32  1   
 21  13  15  1   
 22  13  33  1   
 23  13  34  1   
 24  14  16  1   
 25  14  35  1   
 26  14  36  1   
 27  15  16  1   
 28  15  37  1   
 29  15  38  1   
 30  16  17  1   
 31  16  39  1   
 32  17  18  2   
 33  17  19  am  
 34  19  20  1   
 35  19  40  1   
 36  20  21  1   
 37  20  41  1   
 38  20  42  1   
 39  21  22  ar  
 40  21  23  ar  
 41  22  24  ar  
 42  22  43  1   
 43  23  25  ar  
 44  23  44  1   
 45  24  26  ar  
 46  24  45  1   
 47  25  26  ar  
 48  25  46  1   
@<TRIPOS>SUBSTRUCTURE
  1 ****  15 GROUP 4 **** **** 0

# MOE 2024.06 (io_trps.svl 2023.06)
