@<TRIPOS>MOLECULE
NONAME
50 51 1 0 0 
SMALL
USER_CHARGES


@<TRIPOS>ATOM
  1 O       -6.1770     6.1170    -0.1670 O.3   1 <1>  -0.3630 
  2 C       -4.8280     6.2290    -0.3570 C.ar  1 <1>   0.0830 
  3 C       -6.8470     4.8820    -0.0970 C.3   1 <1>   0.1200 
  4 C       -3.8800     5.1880    -0.3340 C.ar  1 <1>   0.0830 
  5 C       -4.4030     7.5270    -0.5930 C.ar  1 <1>  -0.1500 
  6 C       -8.3480     5.1580    -0.0380 C.3   1 <1>  -0.1600 
  7 O       -4.2720     3.9020    -0.0890 O.3   1 <1>  -0.3630 
  8 C       -2.5380     5.4950    -0.5590 C.ar  1 <1>  -0.1500 
  9 C       -3.0680     7.8170    -0.8120 C.ar  1 <1>  -0.1500 
 10 C       -9.1300     3.8490     0.0850 C.3   1 <1>   0.1100 
 11 C       -3.3590     2.8310    -0.0150 C.3   1 <1>   0.1200 
 12 C       -2.1360     6.7980    -0.7950 C.ar  1 <1>  -0.1500 
 13 N      -10.5770     4.0930    -0.0330 N.3   1 <1>  -0.8100 
 14 C       -4.1450     1.5570     0.2960 C.3   1 <1>  -0.1600 
 15 C      -11.3110     2.8370    -0.3180 C.3   1 <1>   0.1100 
 16 C      -11.1480     4.7620     1.1670 C.3   1 <1>   0.1100 
 17 C       -3.2200     0.3390     0.3890 C.3   1 <1>  -0.2400 
 18 C      -12.8290     3.0740    -0.5160 C.3   1 <1>   0.3430 
 19 C      -12.6820     4.9530     1.0690 C.3   1 <1>   0.3430 
 20 N      -13.1910     4.5090    -0.2690 N.4   1 <1>  -0.9590 
 21 C      -14.6340     4.8100    -0.4930 C.3   1 <1>   0.2630 
 22 H       -6.5180     4.3710     0.7910 H     1 <1>   0.0800 
 23 H       -6.5950     4.3100    -0.9740 H     1 <1>   0.0800 
 24 H       -5.1310     8.3170    -0.6060 H     1 <1>   0.1500 
 25 H       -8.6410     5.6660    -0.9390 H     1 <1>   0.0800 
 26 H       -8.5390     5.7880     0.8110 H     1 <1>   0.0800 
 27 H       -1.7800     4.7370    -0.5540 H     1 <1>   0.1500 
 28 H       -2.7600     8.8320    -0.9940 H     1 <1>   0.1500 
 29 H       -8.9050     3.3620     1.0200 H     1 <1>   0.0800 
 30 H       -8.8180     3.1970    -0.7150 H     1 <1>   0.0800 
 31 H       -2.6500     3.0410     0.7670 H     1 <1>   0.0800 
 32 H       -2.8580     2.7450    -0.9640 H     1 <1>   0.0800 
 33 H       -1.0970     7.0200    -0.9660 H     1 <1>   0.1500 
 34 H       -4.8710     1.3910    -0.4810 H     1 <1>   0.0800 
 35 H       -4.6620     1.6820     1.2320 H     1 <1>   0.0800 
 36 H      -11.1640     2.1380     0.4890 H     1 <1>   0.0800 
 37 H      -10.9140     2.3850    -1.2120 H     1 <1>   0.0800 
 38 H      -10.6980     5.7320     1.2860 H     1 <1>   0.0800 
 39 H      -10.9190     4.1900     2.0510 H     1 <1>   0.0800 
 40 H       -2.7030     0.1850    -0.5420 H     1 <1>   0.0800 
 41 H       -3.7960    -0.5430     0.6090 H     1 <1>   0.0800 
 42 H       -2.4940     0.4760     1.1720 H     1 <1>   0.0800 
 43 H      -13.3780     2.4320     0.1520 H     1 <1>   0.0800 
 44 H      -13.0930     2.8010    -1.5250 H     1 <1>   0.0800 
 45 H      -12.9140     5.9930     1.2270 H     1 <1>   0.0800 
 46 H      -13.1600     4.3870     1.8510 H     1 <1>   0.0800 
 47 H      -12.5950     5.0270    -0.9380 H     1 <1>   0.4500 
 48 H      -15.2440     4.2650     0.2090 H     1 <1>   0.0800 
 49 H      -14.9220     4.5290    -1.4940 H     1 <1>   0.0800 
 50 H      -14.8190     5.8640    -0.3680 H     1 <1>   0.0800 
@<TRIPOS>BOND
  1   1   2  1   
  2   1   3  1   
  3   2   4  ar  
  4   2   5  ar  
  5   3   6  1   
  6   3  22  1   
  7   3  23  1   
  8   4   7  1   
  9   4   8  ar  
 10   5   9  ar  
 11   5  24  1   
 12   6  10  1   
 13   6  25  1   
 14   6  26  1   
 15   7  11  1   
 16   8  12  ar  
 17   8  27  1   
 18   9  12  ar  
 19   9  28  1   
 20  10  13  1   
 21  10  29  1   
 22  10  30  1   
 23  11  14  1   
 24  11  31  1   
 25  11  32  1   
 26  12  33  1   
 27  13  15  1   
 28  13  16  1   
 29  14  17  1   
 30  14  34  1   
 31  14  35  1   
 32  15  18  1   
 33  15  36  1   
 34  15  37  1   
 35  16  19  1   
 36  16  38  1   
 37  16  39  1   
 38  17  40  1   
 39  17  41  1   
 40  17  42  1   
 41  18  20  1   
 42  18  43  1   
 43  18  44  1   
 44  19  20  1   
 45  19  45  1   
 46  19  46  1   
 47  20  21  1   
 48  20  47  1   
 49  21  48  1   
 50  21  49  1   
 51  21  50  1   
@<TRIPOS>SUBSTRUCTURE
  1 ****   3 GROUP 4 **** **** 0

# MOE 2024.06 (io_trps.svl 2023.06)
