@<TRIPOS>MOLECULE
NONAME
31 31 1 0 0 
SMALL
USER_CHARGES


@<TRIPOS>ATOM
  1 BR      -0.3350     0.0050     0.7370 Br    1 <1>  -0.1110 
  2 C        1.2200     1.0250     0.2250 C.ar  1 <1>   0.1110 
  3 C        1.0640     2.3340    -0.2100 C.ar  1 <1>   0.0820 
  4 C        2.4590     0.4170     0.3170 C.ar  1 <1>  -0.1500 
  5 O       -0.1790     2.8760    -0.2910 O.3   1 <1>  -0.3630 
  6 C        2.2150     3.0300    -0.5700 C.ar  1 <1>   0.1770 
  7 C        3.5940     1.1310    -0.0390 C.ar  1 <1>  -0.1440 
  8 C       -0.4860     3.9710     0.5410 C.3   1 <1>   0.1200 
  9 CL       2.1190     4.6820    -1.1510 Cl    1 <1>  -0.1770 
 10 C        3.4660     2.4400    -0.4850 C.ar  1 <1>  -0.1500 
 11 C        4.9650     0.4830     0.0520 C.3   1 <1>  -0.0960 
 12 C       -1.1390     5.0430    -0.3410 C.3   1 <1>   0.3430 
 13 N       -1.2450     6.3790     0.3380 N.4   1 <1>  -0.9590 
 14 C       -2.1470     7.2790    -0.4470 C.3   1 <1>   0.2630 
 15 C        0.1000     7.0220     0.5030 C.3   1 <1>   0.2630 
 16 H        2.5280    -0.6000     0.6610 H     1 <1>   0.1500 
 17 H        0.4180     4.3270     1.0010 H     1 <1>   0.0800 
 18 H       -1.1670     3.6240     1.2970 H     1 <1>   0.0800 
 19 H        4.3350     3.0050    -0.7730 H     1 <1>   0.1500 
 20 H        4.9830    -0.2550     0.8340 H     1 <1>   0.0800 
 21 H        5.7180     1.2200     0.2660 H     1 <1>   0.0800 
 22 H        5.2040     0.0040    -0.8810 H     1 <1>   0.0800 
 23 H       -2.1220     4.6970    -0.6180 H     1 <1>   0.0800 
 24 H       -0.5550     5.1490    -1.2410 H     1 <1>   0.0800 
 25 H       -1.6660     6.2410     1.2710 H     1 <1>   0.4500 
 26 H       -1.7430     7.4460    -1.4330 H     1 <1>   0.0800 
 27 H       -2.2500     8.2310     0.0490 H     1 <1>   0.0800 
 28 H       -3.1250     6.8360    -0.5460 H     1 <1>   0.0800 
 29 H        0.5710     7.1550    -0.4580 H     1 <1>   0.0800 
 30 H        0.7410     6.4090     1.1150 H     1 <1>   0.0800 
 31 H       -0.0010     7.9860     0.9740 H     1 <1>   0.0800 
@<TRIPOS>BOND
  1   1   2  1   
  2   2   3  ar  
  3   2   4  ar  
  4   3   5  1   
  5   3   6  ar  
  6   4   7  ar  
  7   4  16  1   
  8   5   8  1   
  9   6   9  1   
 10   6  10  ar  
 11   7  10  ar  
 12   7  11  1   
 13   8  12  1   
 14   8  17  1   
 15   8  18  1   
 16  10  19  1   
 17  11  20  1   
 18  11  21  1   
 19  11  22  1   
 20  12  13  1   
 21  12  23  1   
 22  12  24  1   
 23  13  14  1   
 24  13  15  1   
 25  13  25  1   
 26  14  26  1   
 27  14  27  1   
 28  14  28  1   
 29  15  29  1   
 30  15  30  1   
 31  15  31  1   
@<TRIPOS>SUBSTRUCTURE
  1 ****   3 GROUP 4 **** **** 0

# MOE 2024.06 (io_trps.svl 2023.06)
