@<TRIPOS>MOLECULE
NONAME
36 37 1 0 0 
SMALL
USER_CHARGES


@<TRIPOS>ATOM
  1 S       -1.3540     1.1620    -0.3650 S.3   1 <1>  -0.2860 
  2 C        0.3250     1.7400    -0.1080 C.2   1 <1>   0.2420 
  3 C       -1.3710    -0.4610     0.5460 C.3   1 <1>   0.1310 
  4 N        1.2050     1.1060     0.5840 N.2   1 <1>  -0.3380 
  5 N        0.7750     2.8820    -0.6240 N.pl3 1 <1>   0.0480 
  6 C       -2.7540    -1.0940     0.5430 C.2   1 <1>   0.5690 
  7 N        2.3120     1.8560     0.5370 N.2   1 <1>  -0.3380 
  8 C        2.0360     2.8950    -0.1790 C.2   1 <1>   0.0360 
  9 C        0.0680     3.8660    -1.4640 C.3   1 <1>   0.0160 
 10 O       -2.8290    -2.2830     0.7380 O.2   1 <1>  -0.5700 
 11 N       -3.8400    -0.2900     0.3320 N.am  1 <1>  -0.5470 
 12 C       -5.2280    -0.5140     0.2780 C.ar  1 <1>   0.1170 
 13 C       -6.0510     0.5660    -0.0630 C.ar  1 <1>   0.0830 
 14 C       -5.8150    -1.7450     0.5480 C.ar  1 <1>  -0.1500 
 15 O       -5.4340     1.7600    -0.3180 O.3   1 <1>  -0.3630 
 16 C       -7.4310     0.3980    -0.1290 C.ar  1 <1>  -0.1500 
 17 C       -7.1870    -1.9060     0.4800 C.ar  1 <1>  -0.1500 
 18 C       -6.1690     2.9000    -0.6960 C.3   1 <1>   0.1200 
 19 C       -7.9950    -0.8360     0.1430 C.ar  1 <1>  -0.1500 
 20 C       -5.1810     4.0400    -0.9230 C.3   1 <1>  -0.2400 
 21 H       -1.0540    -0.2670     1.5540 H     1 <1>   0.0800 
 22 H       -0.6620    -1.1060     0.0600 H     1 <1>   0.0800 
 23 H        2.7290     3.6870    -0.4000 H     1 <1>   0.1500 
 24 H       -0.2470     3.3930    -2.3760 H     1 <1>   0.0800 
 25 H        0.7230     4.6870    -1.6920 H     1 <1>   0.0800 
 26 H       -0.7940     4.2310    -0.9350 H     1 <1>   0.0800 
 27 H       -3.6130     0.6860     0.1210 H     1 <1>   0.3700 
 28 H       -5.2060    -2.5890     0.8140 H     1 <1>   0.1500 
 29 H       -8.0850     1.2090    -0.3870 H     1 <1>   0.1500 
 30 H       -7.6230    -2.8670     0.6920 H     1 <1>   0.1500 
 31 H       -6.8560     3.1430     0.0970 H     1 <1>   0.0800 
 32 H       -6.7060     2.6760    -1.6020 H     1 <1>   0.0800 
 33 H       -9.0620    -0.9650     0.0910 H     1 <1>   0.1500 
 34 H       -4.6400     4.2450    -0.0170 H     1 <1>   0.0800 
 35 H       -5.7120     4.9280    -1.2140 H     1 <1>   0.0800 
 36 H       -4.4910     3.7790    -1.7050 H     1 <1>   0.0800 
@<TRIPOS>BOND
  1   1   2  1   
  2   1   3  1   
  3   2   4  2   
  4   2   5  1   
  5   3   6  1   
  6   3  21  1   
  7   3  22  1   
  8   4   7  1   
  9   5   8  1   
 10   5   9  1   
 11   6  10  2   
 12   6  11  am  
 13   7   8  2   
 14   8  23  1   
 15   9  24  1   
 16   9  25  1   
 17   9  26  1   
 18  11  12  1   
 19  11  27  1   
 20  12  13  ar  
 21  12  14  ar  
 22  13  15  1   
 23  13  16  ar  
 24  14  17  ar  
 25  14  28  1   
 26  15  18  1   
 27  16  19  ar  
 28  16  29  1   
 29  17  19  ar  
 30  17  30  1   
 31  18  20  1   
 32  18  31  1   
 33  18  32  1   
 34  19  33  1   
 35  20  34  1   
 36  20  35  1   
 37  20  36  1   
@<TRIPOS>SUBSTRUCTURE
  1 ****  11 GROUP 4 **** **** 0

# MOE 2024.06 (io_trps.svl 2023.06)
