@<TRIPOS>MOLECULE
NONAME
32 32 1 0 0 
SMALL
USER_CHARGES


@<TRIPOS>ATOM
  1 S        0.0650     0.1580    -0.9750 S.3   1 <1>  -0.3710 
  2 C        1.5860     1.0150    -0.6380 C.2   1 <1>   0.6410 
  3 C        0.1270    -1.4310    -0.0350 C.3   1 <1>   0.2080 
  4 N        2.5000     0.3670     0.1330 N.pl3 1 <1>  -0.5500 
  5 N        1.7340     2.1820    -1.1350 N.2   1 <1>  -0.6610 
  6 C       -1.1620    -2.2030    -0.2770 C.2   1 <1>  -0.2760 
  7 C        3.6960     0.9500     0.4440 C.2   1 <1>  -0.0380 
  8 C        2.9100     2.8150    -0.8570 C.2   1 <1>   0.7670 
  9 C       -1.1990    -3.3720    -0.9240 C.2   1 <1>  -0.3000 
 10 C       -2.4140    -1.5430     0.2850 C.3   1 <1>  -0.1020 
 11 C        3.9170     2.2000    -0.0420 C.2   1 <1>  -0.1240 
 12 C        4.6370     0.1090     1.2930 C.3   1 <1>  -0.1020 
 13 O        3.0680     3.9310    -1.3310 O.2   1 <1>  -0.5700 
 14 C        5.1950     2.9930     0.2300 C.3   1 <1>   0.1160 
 15 C        6.2640     2.6340    -0.7870 C.2   1 <1>  -0.2880 
 16 C        7.4580     2.1050    -0.5050 C.2   1 <1>  -0.3000 
 17 H        0.2470    -1.1920     1.0070 H     1 <1>   0.0800 
 18 H        0.9770    -1.9800    -0.3980 H     1 <1>   0.0800 
 19 H        2.2820    -0.5720     0.4520 H     1 <1>   0.4000 
 20 H       -2.0990    -3.9340    -1.1040 H     1 <1>   0.1500 
 21 H       -0.3370    -3.8680    -1.3360 H     1 <1>   0.1500 
 22 H       -2.3110    -1.3850     1.3430 H     1 <1>   0.0800 
 23 H       -3.2760    -2.1640     0.1170 H     1 <1>   0.0800 
 24 H       -2.5890    -0.5950    -0.1920 H     1 <1>   0.0800 
 25 H        4.2250    -0.0220     2.2780 H     1 <1>   0.0800 
 26 H        5.6060     0.5610     1.3870 H     1 <1>   0.0800 
 27 H        4.7720    -0.8570     0.8410 H     1 <1>   0.0800 
 28 H        5.5510     2.7920     1.2240 H     1 <1>   0.0800 
 29 H        5.0060     4.0520     0.1870 H     1 <1>   0.0800 
 30 H        5.9540     2.8580    -1.7960 H     1 <1>   0.1500 
 31 H        8.1950     1.8630    -1.2530 H     1 <1>   0.1500 
 32 H        7.8060     1.8710     0.4860 H     1 <1>   0.1500 
@<TRIPOS>BOND
  1   1   2  1   
  2   1   3  1   
  3   2   4  1   
  4   2   5  2   
  5   3   6  1   
  6   3  17  1   
  7   3  18  1   
  8   4   7  1   
  9   4  19  1   
 10   5   8  1   
 11   6   9  2   
 12   6  10  1   
 13   7  11  2   
 14   7  12  1   
 15   8  11  1   
 16   8  13  2   
 17   9  20  1   
 18   9  21  1   
 19  10  22  1   
 20  10  23  1   
 21  10  24  1   
 22  11  14  1   
 23  12  25  1   
 24  12  26  1   
 25  12  27  1   
 26  14  15  1   
 27  14  28  1   
 28  14  29  1   
 29  15  16  2   
 30  15  30  1   
 31  16  31  1   
 32  16  32  1   
@<TRIPOS>SUBSTRUCTURE
  1 ****   4 GROUP 4 **** **** 0

# MOE 2024.06 (io_trps.svl 2023.06)
