@<TRIPOS>MOLECULE
NONAME
38 38 1 0 0 
SMALL
USER_CHARGES


@<TRIPOS>ATOM
  1 S        0.2180    -0.1790     0.9640 S.o2  1 <1>   1.4470 
  2 O        0.6300    -0.3460     2.3380 O.2   1 <1>  -0.6500 
  3 O        0.2840     1.1200     0.3360 O.2   1 <1>  -0.6500 
  4 N        1.2380    -1.1210     0.0330 N.am  1 <1>  -0.9140 
  5 C       -1.4150    -0.9240     0.7000 C.ar  1 <1>  -0.0090 
  6 C        2.6110    -0.9680     0.4370 C.3   1 <1>   0.3340 
  7 C       -2.5210    -0.1350     0.4130 C.ar  1 <1>  -0.1500 
  8 C       -1.6030    -2.2960     0.7970 C.ar  1 <1>  -0.1500 
  9 C        3.4480    -1.5930    -0.6550 C.2   1 <1>  -0.2880 
 10 C       -3.7810    -0.6810     0.2010 C.ar  1 <1>   0.1170 
 11 C       -2.8510    -2.8660     0.6130 C.ar  1 <1>  -0.1500 
 12 C        4.3240    -0.9440    -1.4300 C.2   1 <1>  -0.3000 
 13 N       -4.8980     0.1200    -0.0990 N.am  1 <1>  -0.5470 
 14 C       -3.9470    -2.0630     0.3200 C.ar  1 <1>   0.0830 
 15 C       -5.0830     1.2260    -0.8650 C.2   1 <1>   0.5690 
 16 O       -5.2050    -2.5600     0.1420 O.3   1 <1>  -0.3630 
 17 O       -6.1780     1.7160    -0.9530 O.2   1 <1>  -0.5700 
 18 C       -3.9530     1.8520    -1.6490 C.3   1 <1>  -0.1790 
 19 C       -5.4740    -3.9420     0.2100 C.3   1 <1>   0.1200 
 20 C       -6.9630    -4.1440    -0.0530 C.3   1 <1>  -0.2400 
 21 H        1.1910    -0.6990    -0.8910 H     1 <1>   0.4200 
 22 H        2.7840    -1.4670     1.3770 H     1 <1>   0.0800 
 23 H        2.8610     0.0760     0.5430 H     1 <1>   0.0800 
 24 H       -2.3930     0.9310     0.3660 H     1 <1>   0.1500 
 25 H       -0.7590    -2.9280     1.0240 H     1 <1>   0.1500 
 26 H        3.2600    -2.6490    -0.7500 H     1 <1>   0.1500 
 27 H       -2.9440    -3.9320     0.7050 H     1 <1>   0.1500 
 28 H        4.9060    -1.4190    -2.2010 H     1 <1>   0.1500 
 29 H        4.5350     0.1100    -1.3630 H     1 <1>   0.1500 
 30 H       -5.7860    -0.2980     0.1870 H     1 <1>   0.3700 
 31 H       -3.3020     1.0930    -2.0410 H     1 <1>   0.0800 
 32 H       -3.4000     2.5210    -1.0180 H     1 <1>   0.0800 
 33 H       -4.3580     2.4120    -2.4710 H     1 <1>   0.0800 
 34 H       -5.2110    -4.2940     1.1920 H     1 <1>   0.0800 
 35 H       -4.8850    -4.4420    -0.5400 H     1 <1>   0.0800 
 36 H       -7.5450    -3.6300     0.6920 H     1 <1>   0.0800 
 37 H       -7.2020    -5.1910    -0.0110 H     1 <1>   0.0800 
 38 H       -7.2210    -3.7730    -1.0290 H     1 <1>   0.0800 
@<TRIPOS>BOND
  1   1   2  2   
  2   1   3  2   
  3   1   4  am  
  4   1   5  1   
  5   4   6  1   
  6   4  21  1   
  7   5   7  ar  
  8   5   8  ar  
  9   6   9  1   
 10   6  22  1   
 11   6  23  1   
 12   7  10  ar  
 13   7  24  1   
 14   8  11  ar  
 15   8  25  1   
 16   9  12  2   
 17   9  26  1   
 18  10  13  1   
 19  10  14  ar  
 20  11  14  ar  
 21  11  27  1   
 22  12  28  1   
 23  12  29  1   
 24  13  15  am  
 25  13  30  1   
 26  14  16  1   
 27  15  17  2   
 28  15  18  1   
 29  16  19  1   
 30  18  31  1   
 31  18  32  1   
 32  18  33  1   
 33  19  20  1   
 34  19  34  1   
 35  19  35  1   
 36  20  36  1   
 37  20  37  1   
 38  20  38  1   
@<TRIPOS>SUBSTRUCTURE
  1 ****   5 GROUP 4 **** **** 0

# MOE 2024.06 (io_trps.svl 2023.06)
