@<TRIPOS>MOLECULE
NONAME
39 40 1 0 0 
SMALL
USER_CHARGES


@<TRIPOS>ATOM
  1 O        0.0400    -0.5110    -0.3340 O.2   1 <1>  -0.5700 
  2 C       -0.0930    -1.7020    -0.5500 C.2   1 <1>   0.5440 
  3 N        1.0220    -2.4560    -0.8700 N.am  1 <1>  -0.6600 
  4 C       -1.4170    -2.2830    -0.4580 C.ar  1 <1>   0.0860 
  5 C        2.3430    -1.8190    -1.1330 C.3   1 <1>   0.1400 
  6 C        1.0470    -3.9460    -0.8360 C.3   1 <1>   0.1400 
  7 C       -2.1650    -2.1720     0.7140 C.ar  1 <1>  -0.1500 
  8 C       -1.9950    -2.9650    -1.5290 C.ar  1 <1>  -0.1500 
  9 C        3.3610    -2.2830    -0.0890 C.3   1 <1>  -0.1600 
 10 C        2.0650    -4.4240     0.2020 C.3   1 <1>  -0.1600 
 11 C       -3.4270    -2.7280     0.8250 C.ar  1 <1>  -0.1500 
 12 C       -3.2540    -3.5250    -1.4280 C.ar  1 <1>  -0.1500 
 13 C        3.4610    -3.8180    -0.0400 C.3   1 <1>  -0.0190 
 14 C       -3.9800    -3.4160    -0.2530 C.ar  1 <1>   0.0820 
 15 C        4.4740    -4.2690     1.0100 C.2   1 <1>   0.5690 
 16 O       -5.2020    -3.9930    -0.2350 O.3   1 <1>  -0.3630 
 17 O        4.1800    -4.3030     2.1770 O.2   1 <1>  -0.5700 
 18 N        5.7130    -4.6290     0.6270 N.am  1 <1>  -0.8000 
 19 C       -6.0480    -3.9030     0.8890 C.3   1 <1>   0.3200 
 20 C       -7.3160    -4.6260     0.5880 C.1   1 <1>  -0.2000 
 21 C       -8.3280    -5.2030     0.3480 C.1   1 <1>  -0.1770 
 22 H        2.2640    -0.7450    -1.1050 H     1 <1>   0.0800 
 23 H        2.6730    -2.0970    -2.1190 H     1 <1>   0.0800 
 24 H        1.3160    -4.3130    -1.8120 H     1 <1>   0.0800 
 25 H        0.0810    -4.3450    -0.5830 H     1 <1>   0.0800 
 26 H       -1.7390    -1.6340     1.5440 H     1 <1>   0.1500 
 27 H       -1.4450    -3.0480    -2.4500 H     1 <1>   0.1500 
 28 H        3.0630    -1.9070     0.8750 H     1 <1>   0.0800 
 29 H        4.3230    -1.8610    -0.3200 H     1 <1>   0.0800 
 30 H        2.1270    -5.4970     0.1740 H     1 <1>   0.0800 
 31 H        1.7140    -4.1460     1.1820 H     1 <1>   0.0800 
 32 H       -3.9570    -2.6140     1.7510 H     1 <1>   0.1500 
 33 H       -3.6890    -4.0490    -2.2610 H     1 <1>   0.1500 
 34 H        3.8060    -4.1620    -0.9990 H     1 <1>   0.0800 
 35 H        6.3830    -4.9210     1.3400 H     1 <1>   0.3700 
 36 H        6.0480    -4.6150    -0.3350 H     1 <1>   0.3700 
 37 H       -6.2470    -2.8640     1.0830 H     1 <1>   0.0800 
 38 H       -5.5510    -4.3550     1.7280 H     1 <1>   0.0800 
 39 H       -9.2400    -5.7270     0.1230 H     1 <1>   0.1770 
@<TRIPOS>BOND
  1   1   2  2   
  2   2   3  am  
  3   2   4  1   
  4   3   5  1   
  5   3   6  1   
  6   4   7  ar  
  7   4   8  ar  
  8   5   9  1   
  9   5  22  1   
 10   5  23  1   
 11   6  10  1   
 12   6  24  1   
 13   6  25  1   
 14   7  11  ar  
 15   7  26  1   
 16   8  12  ar  
 17   8  27  1   
 18   9  13  1   
 19   9  28  1   
 20   9  29  1   
 21  10  13  1   
 22  10  30  1   
 23  10  31  1   
 24  11  14  ar  
 25  11  32  1   
 26  12  14  ar  
 27  12  33  1   
 28  13  15  1   
 29  13  34  1   
 30  14  16  1   
 31  15  17  2   
 32  15  18  am  
 33  16  19  1   
 34  18  35  1   
 35  18  36  1   
 36  19  20  1   
 37  19  37  1   
 38  19  38  1   
 39  20  21  3   
 40  21  39  1   
@<TRIPOS>SUBSTRUCTURE
  1 ****   4 GROUP 4 **** **** 0

# MOE 2024.06 (io_trps.svl 2023.06)
