@<TRIPOS>MOLECULE
NONAME
35 35 1 0 0 
SMALL
USER_CHARGES


@<TRIPOS>ATOM
  1 O       -0.3500     0.8460     1.7530 O.2   1 <1>  -0.5700 
  2 C       -0.5930     1.6240     0.8750 C.2   1 <1>   0.6590 
  3 O       -1.4740     2.5950     1.0740 O.3   1 <1>  -0.4300 
  4 C        0.1060     1.4910    -0.4630 C.3   1 <1>  -0.1790 
  5 C       -1.8460     3.5880     0.1460 C.3   1 <1>   0.3380 
  6 C       -0.9390     4.7900     0.3190 C.2   1 <1>  -0.2880 
  7 C       -3.3060     3.9870     0.4060 C.3   1 <1>   0.2000 
  8 C       -1.4170     6.0410     0.3440 C.2   1 <1>  -0.0730 
  9 O       -4.1480     2.9410    -0.0620 O.3   1 <1>  -0.4300 
 10 C       -3.6100     5.3330    -0.2940 C.3   1 <1>   0.2000 
 11 O       -2.7310     6.3330     0.2090 O.3   1 <1>  -0.3570 
 12 C       -5.2760     2.6080     0.5510 C.2   1 <1>   0.6590 
 13 C       -5.0380     5.8500    -0.0900 C.3   1 <1>   0.1200 
 14 O       -5.6720     3.1820     1.5310 O.2   1 <1>  -0.5700 
 15 C       -6.0510     1.4780    -0.0730 C.3   1 <1>  -0.1790 
 16 O       -5.9140     5.1430    -0.9480 O.3   1 <1>  -0.4300 
 17 C       -7.2130     4.9550    -0.7440 C.2   1 <1>   0.6590 
 18 O       -7.8220     4.1910    -1.4400 O.2   1 <1>  -0.5700 
 19 C       -7.9130     5.7060     0.3670 C.3   1 <1>  -0.1790 
 20 H        0.6220     2.4000    -0.7090 H     1 <1>   0.0800 
 21 H       -0.6070     1.2510    -1.2280 H     1 <1>   0.0800 
 22 H        0.8260     0.6960    -0.4070 H     1 <1>   0.0800 
 23 H       -1.7620     3.2040    -0.8550 H     1 <1>   0.0800 
 24 H        0.1040     4.5530     0.4200 H     1 <1>   0.1500 
 25 H       -3.4470     4.1050     1.4670 H     1 <1>   0.0800 
 26 H       -0.8070     6.9210     0.4780 H     1 <1>   0.1500 
 27 H       -3.4070     5.2540    -1.3480 H     1 <1>   0.0800 
 28 H       -5.1010     6.8920    -0.3510 H     1 <1>   0.0800 
 29 H       -5.3360     5.7030     0.9330 H     1 <1>   0.0800 
 30 H       -5.4450     0.5920    -0.0920 H     1 <1>   0.0800 
 31 H       -6.3280     1.7460    -1.0750 H     1 <1>   0.0800 
 32 H       -6.9410     1.2890     0.4980 H     1 <1>   0.0800 
 33 H       -7.5820     5.3370     1.3200 H     1 <1>   0.0800 
 34 H       -8.9730     5.5480     0.2890 H     1 <1>   0.0800 
 35 H       -7.7140     6.7570     0.2890 H     1 <1>   0.0800 
@<TRIPOS>BOND
  1   1   2  2   
  2   2   3  1   
  3   2   4  1   
  4   3   5  1   
  5   4  20  1   
  6   4  21  1   
  7   4  22  1   
  8   5   6  1   
  9   5   7  1   
 10   5  23  1   
 11   6   8  2   
 12   6  24  1   
 13   7   9  1   
 14   7  10  1   
 15   7  25  1   
 16   8  11  1   
 17   8  26  1   
 18   9  12  1   
 19  10  11  1   
 20  10  13  1   
 21  10  27  1   
 22  12  14  2   
 23  12  15  1   
 24  13  16  1   
 25  13  28  1   
 26  13  29  1   
 27  15  30  1   
 28  15  31  1   
 29  15  32  1   
 30  16  17  1   
 31  17  18  2   
 32  17  19  1   
 33  19  33  1   
 34  19  34  1   
 35  19  35  1   
@<TRIPOS>SUBSTRUCTURE
  1 ****   7 GROUP 4 **** **** 0

# MOE 2024.06 (io_trps.svl 2023.06)
