@<TRIPOS>MOLECULE
NONAME
46 48 1 0 0 
SMALL
USER_CHARGES


@<TRIPOS>ATOM
  1 O       -0.4470     0.3640     2.3120 O.2   1 <1>  -0.5700 
  2 C       -0.0570    -0.4870     1.5490 C.2   1 <1>   0.5690 
  3 N       -0.8610    -1.1620     0.6710 N.am  1 <1>  -0.5470 
  4 C        1.4260    -0.8310     1.5510 C.3   1 <1>   0.1810 
  5 C       -2.2320    -1.1040     0.3680 C.ar  1 <1>   0.1170 
  6 O        1.7330    -1.7710     0.5280 O.3   1 <1>  -0.3630 
  7 C       -2.6980    -1.6490    -0.8350 C.ar  1 <1>  -0.1430 
  8 C       -3.1440    -0.5360     1.2500 C.ar  1 <1>  -0.1500 
  9 C        2.9960    -2.2340     0.3390 C.ar  1 <1>   0.0830 
 10 C       -4.0610    -1.6270    -1.1240 C.ar  1 <1>  -0.1440 
 11 C       -1.7050    -2.2810    -1.8170 C.3   1 <1>  -0.0170 
 12 C       -4.4920    -0.5070     0.9570 C.ar  1 <1>  -0.1500 
 13 C        3.1970    -3.1610    -0.6800 C.ar  1 <1>  -0.1430 
 14 C        4.0770    -1.8210     1.1140 C.ar  1 <1>  -0.1500 
 15 C       -4.9480    -1.0530    -0.2270 C.ar  1 <1>  -0.1500 
 16 C       -4.6350    -2.2030    -2.4130 C.3   1 <1>  -0.0170 
 17 C       -2.2860    -2.5270    -3.2140 C.3   1 <1>  -0.1600 
 18 C        4.4690    -3.6600    -0.9100 C.ar  1 <1>  -0.1500 
 19 C        2.0360    -3.6330    -1.5450 C.3   1 <1>  -0.0970 
 20 C        5.3410    -2.3280     0.8730 C.ar  1 <1>  -0.1500 
 21 C       -3.6710    -3.1660    -3.1110 C.3   1 <1>  -0.1600 
 22 C        5.5440    -3.2480    -0.1400 C.ar  1 <1>  -0.1430 
 23 C        6.9310    -3.8070    -0.4050 C.3   1 <1>  -0.0970 
 24 H       -0.3310    -1.8120     0.0890 H     1 <1>   0.3700 
 25 H        1.6900    -1.2600     2.5000 H     1 <1>   0.0800 
 26 H        1.9970     0.0620     1.3760 H     1 <1>   0.0800 
 27 H       -2.8080    -0.1150     2.1790 H     1 <1>   0.1500 
 28 H       -1.3820    -3.2210    -1.4060 H     1 <1>   0.0800 
 29 H       -0.8420    -1.6470    -1.9260 H     1 <1>   0.0800 
 30 H       -5.1850    -0.0620     1.6490 H     1 <1>   0.1500 
 31 H        3.9620    -1.1090     1.9080 H     1 <1>   0.1500 
 32 H       -6.0000    -1.0270    -0.4480 H     1 <1>   0.1500 
 33 H       -4.8600    -1.3860    -3.0760 H     1 <1>   0.0800 
 34 H       -5.5540    -2.7210    -2.2030 H     1 <1>   0.0800 
 35 H       -1.6240    -3.1670    -3.7720 H     1 <1>   0.0800 
 36 H       -2.3630    -1.5890    -3.7370 H     1 <1>   0.0800 
 37 H        4.6290    -4.3780    -1.6950 H     1 <1>   0.1500 
 38 H        1.6140    -2.7970    -2.0730 H     1 <1>   0.0800 
 39 H        1.2770    -4.0760    -0.9260 H     1 <1>   0.0800 
 40 H        2.3600    -4.3640    -2.2630 H     1 <1>   0.0800 
 41 H        6.1680    -2.0030     1.4800 H     1 <1>   0.1500 
 42 H       -4.0430    -3.4010    -4.0930 H     1 <1>   0.0800 
 43 H       -3.6060    -4.0810    -2.5470 H     1 <1>   0.0800 
 44 H        7.6860    -3.1150    -0.0780 H     1 <1>   0.0800 
 45 H        7.0680    -3.9860    -1.4560 H     1 <1>   0.0800 
 46 H        7.0560    -4.7340     0.1250 H     1 <1>   0.0800 
@<TRIPOS>BOND
  1   1   2  2   
  2   2   3  am  
  3   2   4  1   
  4   3   5  1   
  5   3  24  1   
  6   4   6  1   
  7   4  25  1   
  8   4  26  1   
  9   5   7  ar  
 10   5   8  ar  
 11   6   9  1   
 12   7  10  ar  
 13   7  11  1   
 14   8  12  ar  
 15   8  27  1   
 16   9  13  ar  
 17   9  14  ar  
 18  10  15  ar  
 19  10  16  1   
 20  11  17  1   
 21  11  28  1   
 22  11  29  1   
 23  12  15  ar  
 24  12  30  1   
 25  13  18  ar  
 26  13  19  1   
 27  14  20  ar  
 28  14  31  1   
 29  15  32  1   
 30  16  21  1   
 31  16  33  1   
 32  16  34  1   
 33  17  21  1   
 34  17  35  1   
 35  17  36  1   
 36  18  22  ar  
 37  18  37  1   
 38  19  38  1   
 39  19  39  1   
 40  19  40  1   
 41  20  22  ar  
 42  20  41  1   
 43  21  42  1   
 44  21  43  1   
 45  22  23  1   
 46  23  44  1   
 47  23  45  1   
 48  23  46  1   
@<TRIPOS>SUBSTRUCTURE
  1 ****   3 GROUP 4 **** **** 0

# MOE 2024.06 (io_trps.svl 2023.06)
