@<TRIPOS>MOLECULE
NONAME
37 39 1 0 0 
SMALL
USER_CHARGES


@<TRIPOS>ATOM
  1 O       -0.0190     0.1210     0.4500 O.2   1 <1>  -0.5700 
  2 C        0.3140    -0.9060    -0.0860 C.2   1 <1>   0.6300 
  3 N       -0.5330    -1.9430    -0.3580 N.am  1 <1>  -0.5470 
  4 C        1.7630    -1.0690    -0.5170 C.3   1 <1>  -0.1000 
  5 C       -1.8980    -2.1220    -0.0860 C.ar  1 <1>   0.1170 
  6 C        2.5250    -2.3450    -0.2810 C.3   1 <1>  -0.2000 
  7 C        2.8610    -1.1160     0.5060 C.3   1 <1>  -0.2000 
  8 C       -2.6080    -3.0610    -0.8240 C.ar  1 <1>  -0.1500 
  9 C       -2.5760    -1.4120     0.8990 C.ar  1 <1>  -0.1500 
 10 C       -3.9540    -3.2830    -0.5910 C.ar  1 <1>  -0.1500 
 11 C       -3.9210    -1.6310     1.1350 C.ar  1 <1>  -0.1500 
 12 C       -4.6210    -2.5680     0.3920 C.ar  1 <1>  -0.1430 
 13 C       -6.0990    -2.7950     0.6480 C.3   1 <1>   0.2840 
 14 N       -6.8430    -1.7340    -0.0420 N.am  1 <1>  -0.7300 
 15 C       -8.1320    -1.4140     0.2080 C.2   1 <1>   0.6300 
 16 O       -8.8050    -2.0360     0.9930 O.2   1 <1>  -0.5700 
 17 C       -8.7390    -0.2360    -0.5370 C.3   1 <1>  -0.1000 
 18 C       -7.9800     1.0450    -0.7450 C.3   1 <1>  -0.2000 
 19 C       -9.1390     1.0080     0.2020 C.3   1 <1>  -0.2000 
 20 H       -0.0950    -2.7050    -0.8690 H     1 <1>   0.3700 
 21 H        1.9680    -0.5140    -1.4150 H     1 <1>   0.1000 
 22 H        3.2220    -2.6800    -1.0290 H     1 <1>   0.1000 
 23 H        2.0650    -3.1610     0.2500 H     1 <1>   0.1000 
 24 H        2.5870    -1.0650     1.5460 H     1 <1>   0.1000 
 25 H        3.7770    -0.5920     0.2970 H     1 <1>   0.1000 
 26 H       -2.1090    -3.6230    -1.5910 H     1 <1>   0.1500 
 27 H       -2.0550    -0.6830     1.4930 H     1 <1>   0.1500 
 28 H       -4.4820    -4.0130    -1.1800 H     1 <1>   0.1500 
 29 H       -4.4230    -1.0640     1.9010 H     1 <1>   0.1500 
 30 H       -6.3100    -2.7590     1.7040 H     1 <1>   0.0800 
 31 H       -6.4100    -3.7540     0.2710 H     1 <1>   0.0800 
 32 H       -6.2900    -1.1700    -0.6870 H     1 <1>   0.3700 
 33 H       -9.3960    -0.5670    -1.3200 H     1 <1>   0.1000 
 34 H       -8.0930     1.5670    -1.6800 H     1 <1>   0.1000 
 35 H       -6.9940     1.1570    -0.3270 H     1 <1>   0.1000 
 36 H       -8.9530     1.0500     1.2620 H     1 <1>   0.1000 
 37 H      -10.0590     1.4930    -0.0740 H     1 <1>   0.1000 
@<TRIPOS>BOND
  1   1   2  2   
  2   2   3  am  
  3   2   4  1   
  4   3   5  1   
  5   3  20  1   
  6   4   6  1   
  7   4   7  1   
  8   4  21  1   
  9   5   8  ar  
 10   5   9  ar  
 11   6   7  1   
 12   6  22  1   
 13   6  23  1   
 14   7  24  1   
 15   7  25  1   
 16   8  10  ar  
 17   8  26  1   
 18   9  11  ar  
 19   9  27  1   
 20  10  12  ar  
 21  10  28  1   
 22  11  12  ar  
 23  11  29  1   
 24  12  13  1   
 25  13  14  1   
 26  13  30  1   
 27  13  31  1   
 28  14  15  am  
 29  14  32  1   
 30  15  16  2   
 31  15  17  1   
 32  17  18  1   
 33  17  19  1   
 34  17  33  1   
 35  18  19  1   
 36  18  34  1   
 37  18  35  1   
 38  19  36  1   
 39  19  37  1   
@<TRIPOS>SUBSTRUCTURE
  1 ****  11 GROUP 4 **** **** 0

# MOE 2024.06 (io_trps.svl 2023.06)
