@<TRIPOS>MOLECULE
NONAME
38 39 1 0 0 
SMALL
USER_CHARGES


@<TRIPOS>ATOM
  1 CL       1.0420    -0.4920     1.6700 Cl    1 <1>  -0.1770 
  2 C        2.0780     0.6980     0.9250 C.ar  1 <1>   0.1770 
  3 C        3.2930     1.0010     1.5090 C.ar  1 <1>  -0.1500 
  4 C        1.6670     1.3190    -0.2380 C.ar  1 <1>  -0.1500 
  5 C        4.1110     1.9460     0.9140 C.ar  1 <1>  -0.1500 
  6 C        2.4900     2.2650    -0.8280 C.ar  1 <1>  -0.1500 
  7 C        3.7150     2.5860    -0.2550 C.ar  1 <1>  -0.1430 
  8 C        4.6170     3.6350    -0.9040 C.3   1 <1>   0.5020 
  9 N        5.8280     2.9300    -1.3740 N.am  1 <1>  -0.7300 
 10 C        4.9390     4.7820     0.0630 C.2   1 <1>  -0.1240 
 11 C        7.0600     3.2080    -0.9530 C.2   1 <1>   0.5000 
 12 C        6.2360     5.0090     0.4160 C.2   1 <1>  -0.0290 
 13 C        3.7710     5.4910     0.4940 C.2   1 <1>   0.7060 
 14 S        8.3170     2.3400    -1.4740 S.2   1 <1>  -0.3800 
 15 N        7.2510     4.2130    -0.0840 N.am  1 <1>  -0.5390 
 16 C        6.7420     6.1050     1.3420 C.3   1 <1>  -0.1020 
 17 O        3.7100     6.1300     1.5260 O.2   1 <1>  -0.5700 
 18 O        2.6860     5.4470    -0.2910 O.3   1 <1>  -0.4300 
 19 C        1.4760     6.0930     0.0350 C.3   1 <1>   0.2000 
 20 C        0.3520     5.3150    -0.6420 C.3   1 <1>  -0.2400 
 21 C        1.5460     7.5330    -0.4740 C.3   1 <1>  -0.2400 
 22 H        3.5920     0.5030     2.4130 H     1 <1>   0.1500 
 23 H        0.7170     1.0650    -0.6720 H     1 <1>   0.1500 
 24 H        5.0620     2.1840     1.3640 H     1 <1>   0.1500 
 25 H        2.1660     2.7510    -1.7320 H     1 <1>   0.1500 
 26 H        4.1270     4.0440    -1.7720 H     1 <1>   0.0800 
 27 H        5.6710     2.1260    -1.9820 H     1 <1>   0.3700 
 28 H        8.2190     4.3790     0.1980 H     1 <1>   0.3700 
 29 H        7.6110     6.5750     0.9170 H     1 <1>   0.0800 
 30 H        7.0070     5.6830     2.2940 H     1 <1>   0.0800 
 31 H        6.0120     6.8750     1.5020 H     1 <1>   0.0800 
 32 H        1.3370     6.0700     1.1050 H     1 <1>   0.0800 
 33 H        0.4940     5.2960    -1.7080 H     1 <1>   0.0800 
 34 H       -0.5940     5.7800    -0.4300 H     1 <1>   0.0800 
 35 H        0.3240     4.3090    -0.2630 H     1 <1>   0.0800 
 36 H        1.7160     7.5510    -1.5350 H     1 <1>   0.0800 
 37 H        2.3370     8.0630     0.0260 H     1 <1>   0.0800 
 38 H        0.6220     8.0400    -0.2640 H     1 <1>   0.0800 
@<TRIPOS>BOND
  1   1   2  1   
  2   2   3  ar  
  3   2   4  ar  
  4   3   5  ar  
  5   3  22  1   
  6   4   6  ar  
  7   4  23  1   
  8   5   7  ar  
  9   5  24  1   
 10   6   7  ar  
 11   6  25  1   
 12   7   8  1   
 13   8   9  1   
 14   8  10  1   
 15   8  26  1   
 16   9  11  am  
 17   9  27  1   
 18  10  12  2   
 19  10  13  1   
 20  11  14  2   
 21  11  15  am  
 22  12  15  1   
 23  12  16  1   
 24  13  17  2   
 25  13  18  1   
 26  15  28  1   
 27  16  29  1   
 28  16  30  1   
 29  16  31  1   
 30  18  19  1   
 31  19  20  1   
 32  19  21  1   
 33  19  32  1   
 34  20  33  1   
 35  20  34  1   
 36  20  35  1   
 37  21  36  1   
 38  21  37  1   
 39  21  38  1   
@<TRIPOS>SUBSTRUCTURE
  1 ****   7 GROUP 4 **** **** 0

# MOE 2024.06 (io_trps.svl 2023.06)
