@<TRIPOS>MOLECULE
NONAME
34 35 1 0 0 
SMALL
USER_CHARGES


@<TRIPOS>ATOM
  1 BR      -0.4010     0.2950     1.5370 Br    1 <1>  -0.1110 
  2 C       -1.8960    -0.6690     0.8060 C.ar  1 <1>   0.1110 
  3 C       -2.5420    -1.5980     1.5980 C.ar  1 <1>  -0.1500 
  4 C       -2.2860    -0.4090    -0.4930 C.ar  1 <1>  -0.1500 
  5 C       -3.6200    -2.2870     1.0690 C.ar  1 <1>  -0.1500 
  6 C       -3.3650    -1.1030    -1.0140 C.ar  1 <1>  -0.1500 
  7 C       -4.0390    -2.0380    -0.2350 C.ar  1 <1>  -0.1430 
  8 C       -5.2310    -2.7840    -0.8060 C.3   1 <1>   0.4870 
  9 N       -6.4710    -2.2760    -0.1580 N.4   1 <1>  -0.9590 
 10 C       -7.6070    -3.2010    -0.4150 C.3   1 <1>   0.3430 
 11 C       -6.7370    -0.8570    -0.5380 C.3   1 <1>   0.3430 
 12 C       -8.8290    -2.8720     0.4450 C.3   1 <1>  -0.1600 
 13 C       -7.4670    -0.1470     0.6010 C.3   1 <1>  -0.1600 
 14 C       -9.5580    -1.5970     0.0000 C.3   1 <1>  -0.1600 
 15 C       -8.9970    -0.3010     0.6010 C.3   1 <1>  -0.1600 
 16 H       -2.2010    -1.7750     2.6040 H     1 <1>   0.1500 
 17 H       -1.7510     0.3190    -1.0790 H     1 <1>   0.1500 
 18 H       -4.1160    -3.0180     1.6850 H     1 <1>   0.1500 
 19 H       -3.6650    -0.9050    -2.0290 H     1 <1>   0.1500 
 20 H       -5.1120    -3.8360    -0.6060 H     1 <1>   0.0800 
 21 H       -5.2820    -2.6430    -1.8740 H     1 <1>   0.0800 
 22 H       -6.2840    -2.2710     0.8510 H     1 <1>   0.4500 
 23 H       -7.3000    -4.2100    -0.1910 H     1 <1>   0.0800 
 24 H       -7.8830    -3.1640    -1.4570 H     1 <1>   0.0800 
 25 H       -7.3080    -0.7990    -1.4510 H     1 <1>   0.0800 
 26 H       -5.8000    -0.3460    -0.6940 H     1 <1>   0.0800 
 27 H       -8.5680    -2.8270     1.4890 H     1 <1>   0.0800 
 28 H       -9.5180    -3.6910     0.3320 H     1 <1>   0.0800 
 29 H       -7.2510     0.9060     0.5270 H     1 <1>   0.0800 
 30 H       -7.0650    -0.4700     1.5460 H     1 <1>   0.0800 
 31 H      -10.5910    -1.6710     0.3000 H     1 <1>   0.0800 
 32 H       -9.5580    -1.5320    -1.0760 H     1 <1>   0.0800 
 33 H       -9.4290     0.5240     0.0580 H     1 <1>   0.0800 
 34 H       -9.3440    -0.2090     1.6170 H     1 <1>   0.0800 
@<TRIPOS>BOND
  1   1   2  1   
  2   2   3  ar  
  3   2   4  ar  
  4   3   5  ar  
  5   3  16  1   
  6   4   6  ar  
  7   4  17  1   
  8   5   7  ar  
  9   5  18  1   
 10   6   7  ar  
 11   6  19  1   
 12   7   8  1   
 13   8   9  1   
 14   8  20  1   
 15   8  21  1   
 16   9  10  1   
 17   9  11  1   
 18   9  22  1   
 19  10  12  1   
 20  10  23  1   
 21  10  24  1   
 22  11  13  1   
 23  11  25  1   
 24  11  26  1   
 25  12  14  1   
 26  12  27  1   
 27  12  28  1   
 28  13  15  1   
 29  13  29  1   
 30  13  30  1   
 31  14  15  1   
 32  14  31  1   
 33  14  32  1   
 34  15  33  1   
 35  15  34  1   
@<TRIPOS>SUBSTRUCTURE
  1 ****   7 GROUP 4 **** **** 0

# MOE 2024.06 (io_trps.svl 2023.06)
