@<TRIPOS>MOLECULE
NONAME
33 33 1 0 0 
SMALL
USER_CHARGES


@<TRIPOS>ATOM
  1 BR       0.3900     0.1460    -0.7900 Br    1 <1>  -0.1110 
  2 C        2.1330    -0.6490    -0.5170 C.ar  1 <1>   0.1110 
  3 C        3.2580     0.0620    -0.9120 C.ar  1 <1>  -0.1440 
  4 C        2.2080    -1.9070     0.0670 C.ar  1 <1>  -0.1440 
  5 C        4.4980    -0.5210    -0.7090 C.ar  1 <1>  -0.1500 
  6 C        3.1540     1.4390    -1.5500 C.3   1 <1>  -0.0960 
  7 C        3.4620    -2.4670     0.2580 C.ar  1 <1>  -0.1500 
  8 C        0.9580    -2.6650     0.4910 C.3   1 <1>  -0.0960 
  9 C        4.6090    -1.7760    -0.1290 C.ar  1 <1>   0.0830 
 10 O        5.8670    -2.2600     0.0260 O.3   1 <1>  -0.3630 
 11 C        6.0990    -3.5340     0.6150 C.3   1 <1>   0.1810 
 12 C        7.5870    -3.8580     0.6850 C.2   1 <1>   0.5690 
 13 O        7.9250    -4.9190     1.1540 O.2   1 <1>  -0.5700 
 14 N        8.4960    -2.9610     0.2240 N.am  1 <1>  -0.7300 
 15 C        9.9520    -3.1260     0.2520 C.3   1 <1>   0.2780 
 16 C       10.5510    -1.7730     0.5680 C.2   1 <1>  -0.2880 
 17 C       11.3370    -1.0620    -0.2470 C.2   1 <1>  -0.3000 
 18 H        5.3960    -0.0070    -1.0000 H     1 <1>   0.1500 
 19 H        2.6700     2.1220    -0.8740 H     1 <1>   0.0800 
 20 H        2.5810     1.3820    -2.4580 H     1 <1>   0.0800 
 21 H        4.1270     1.8290    -1.7860 H     1 <1>   0.0800 
 22 H        3.5280    -3.4390     0.7080 H     1 <1>   0.1500 
 23 H        0.3240    -2.8340    -0.3610 H     1 <1>   0.0800 
 24 H        0.4130    -2.0940     1.2220 H     1 <1>   0.0800 
 25 H        1.2080    -3.6170     0.9220 H     1 <1>   0.0800 
 26 H        5.6060    -4.2790     0.0190 H     1 <1>   0.0800 
 27 H        5.6940    -3.5270     1.6090 H     1 <1>   0.0800 
 28 H        8.1590    -2.0780    -0.1650 H     1 <1>   0.3700 
 29 H       10.2900    -3.4740    -0.7090 H     1 <1>   0.0800 
 30 H       10.2340    -3.8470     1.0020 H     1 <1>   0.0800 
 31 H       10.2710    -1.4290     1.5500 H     1 <1>   0.1500 
 32 H       11.7490    -0.1000     0.0060 H     1 <1>   0.1500 
 33 H       11.6340    -1.3770    -1.2330 H     1 <1>   0.1500 
@<TRIPOS>BOND
  1   1   2  1   
  2   2   3  ar  
  3   2   4  ar  
  4   3   5  ar  
  5   3   6  1   
  6   4   7  ar  
  7   4   8  1   
  8   5   9  ar  
  9   5  18  1   
 10   6  19  1   
 11   6  20  1   
 12   6  21  1   
 13   7   9  ar  
 14   7  22  1   
 15   8  23  1   
 16   8  24  1   
 17   8  25  1   
 18   9  10  1   
 19  10  11  1   
 20  11  12  1   
 21  11  26  1   
 22  11  27  1   
 23  12  13  2   
 24  12  14  am  
 25  14  15  1   
 26  14  28  1   
 27  15  16  1   
 28  15  29  1   
 29  15  30  1   
 30  16  17  2   
 31  16  31  1   
 32  17  32  1   
 33  17  33  1   
@<TRIPOS>SUBSTRUCTURE
  1 ****  10 GROUP 4 **** **** 0

# MOE 2024.06 (io_trps.svl 2023.06)
