@<TRIPOS>MOLECULE
NONAME
45 46 1 0 0 
SMALL
USER_CHARGES


@<TRIPOS>ATOM
  1 O       -3.7880    -2.9530    -0.6100 O.3   1 <1>  -0.3630 
  2 C       -5.0170    -2.6200    -1.0870 C.ar  1 <1>   0.0830 
  3 C       -3.0910    -4.0860    -1.0820 C.3   1 <1>   0.1200 
  4 C       -5.6460    -1.5100    -0.5270 C.ar  1 <1>  -0.1440 
  5 C       -5.6560    -3.3360    -2.0980 C.ar  1 <1>  -0.1500 
  6 C       -1.7570    -4.1780    -0.3310 C.3   1 <1>   0.2000 
  7 C       -6.9000    -1.1320    -0.9810 C.ar  1 <1>  -0.1500 
  8 C       -4.9760    -0.7070     0.5790 C.3   1 <1>  -0.0960 
  9 C       -6.9070    -2.9490    -2.5420 C.ar  1 <1>  -0.1500 
 10 O       -1.1070    -2.9450    -0.4120 O.3   1 <1>  -0.6800 
 11 C       -0.8280    -5.2730    -0.8980 C.3   1 <1>   0.3430 
 12 C       -7.5290    -1.8470    -1.9840 C.ar  1 <1>  -0.1500 
 13 N        0.5970    -4.9800    -0.5500 N.4   1 <1>  -0.9590 
 14 C        1.5580    -5.5340    -1.5430 C.3   1 <1>   0.3430 
 15 C        0.9360    -5.3440     0.8540 C.3   1 <1>   0.3430 
 16 C        2.9660    -5.0240    -1.2340 C.3   1 <1>  -0.1600 
 17 C        2.3360    -4.8320     1.1930 C.3   1 <1>  -0.1600 
 18 C        3.3880    -5.3560     0.2050 C.3   1 <1>  -0.0800 
 19 C        4.7650    -4.7570     0.5150 C.3   1 <1>  -0.2400 
 20 H       -2.9270    -3.9670    -2.1390 H     1 <1>   0.0800 
 21 H       -3.6950    -4.9580    -0.8970 H     1 <1>   0.0800 
 22 H       -5.2050    -4.1940    -2.5550 H     1 <1>   0.1500 
 23 H       -1.9570    -4.3750     0.7080 H     1 <1>   0.0800 
 24 H       -7.3970    -0.2770    -0.5560 H     1 <1>   0.1500 
 25 H       -4.7570    -1.3470     1.4140 H     1 <1>   0.0800 
 26 H       -5.6120     0.0910     0.9180 H     1 <1>   0.0800 
 27 H       -4.0590    -0.2810     0.2150 H     1 <1>   0.0800 
 28 H       -7.3990    -3.5030    -3.3230 H     1 <1>   0.1500 
 29 H       -1.7810    -2.2340    -0.2970 H     1 <1>   0.4000 
 30 H       -0.9360    -5.2750    -1.9700 H     1 <1>   0.0800 
 31 H       -1.1220    -6.2430    -0.5340 H     1 <1>   0.0800 
 32 H       -8.5030    -1.5450    -2.3300 H     1 <1>   0.1500 
 33 H        0.6400    -3.9430    -0.5980 H     1 <1>   0.4500 
 34 H        1.2790    -5.2290    -2.5390 H     1 <1>   0.0800 
 35 H        1.5480    -6.6110    -1.4990 H     1 <1>   0.0800 
 36 H        0.9070    -6.4160     0.9710 H     1 <1>   0.0800 
 37 H        0.2230    -4.9040     1.5320 H     1 <1>   0.0800 
 38 H        3.0000    -3.9610    -1.3960 H     1 <1>   0.0800 
 39 H        3.6580    -5.4770    -1.9230 H     1 <1>   0.0800 
 40 H        2.5900    -5.1510     2.1890 H     1 <1>   0.0800 
 41 H        2.3270    -3.7560     1.1920 H     1 <1>   0.0800 
 42 H        3.4570    -6.4270     0.3080 H     1 <1>   0.0800 
 43 H        4.7480    -3.6850     0.4260 H     1 <1>   0.0800 
 44 H        5.5040    -5.1440    -0.1650 H     1 <1>   0.0800 
 45 H        5.0680    -5.0110     1.5160 H     1 <1>   0.0800 
@<TRIPOS>BOND
  1   1   2  1   
  2   1   3  1   
  3   2   4  ar  
  4   2   5  ar  
  5   3   6  1   
  6   3  20  1   
  7   3  21  1   
  8   4   7  ar  
  9   4   8  1   
 10   5   9  ar  
 11   5  22  1   
 12   6  10  1   
 13   6  11  1   
 14   6  23  1   
 15   7  12  ar  
 16   7  24  1   
 17   8  25  1   
 18   8  26  1   
 19   8  27  1   
 20   9  12  ar  
 21   9  28  1   
 22  10  29  1   
 23  11  13  1   
 24  11  30  1   
 25  11  31  1   
 26  12  32  1   
 27  13  14  1   
 28  13  15  1   
 29  13  33  1   
 30  14  16  1   
 31  14  34  1   
 32  14  35  1   
 33  15  17  1   
 34  15  36  1   
 35  15  37  1   
 36  16  18  1   
 37  16  38  1   
 38  16  39  1   
 39  17  18  1   
 40  17  40  1   
 41  17  41  1   
 42  18  19  1   
 43  18  42  1   
 44  19  43  1   
 45  19  44  1   
 46  19  45  1   
@<TRIPOS>SUBSTRUCTURE
  1 ****   6 GROUP 4 **** **** 0

# MOE 2024.06 (io_trps.svl 2023.06)
