@<TRIPOS>MOLECULE
NONAME
47 49 1 0 0 
SMALL
USER_CHARGES


@<TRIPOS>ATOM
  1 BR       0.4930    -1.5640     3.0640 Br    1 <1>  -0.1110 
  2 C        0.0680    -2.9240     1.7720 C.ar  1 <1>   0.1110 
  3 C       -0.2610    -2.5420     0.4870 C.ar  1 <1>  -0.1500 
  4 C        0.1050    -4.2480     2.1620 C.ar  1 <1>  -0.1500 
  5 C       -0.5680    -3.5250    -0.4390 C.ar  1 <1>  -0.1500 
  6 C       -0.2030    -5.2240     1.2290 C.ar  1 <1>  -0.1500 
  7 C       -0.5450    -4.8660    -0.0720 C.ar  1 <1>  -0.1430 
  8 C       -0.8980    -5.9360    -1.0890 C.3   1 <1>   0.4870 
  9 N       -2.2250    -6.5090    -0.7490 N.4   1 <1>  -0.9590 
 10 C       -2.6210    -7.6830    -1.5920 C.3   1 <1>   0.3430 
 11 C       -3.3360    -5.5020    -0.6690 C.3   1 <1>   0.3430 
 12 C       -3.9470    -8.3050    -1.0910 C.3   1 <1>   0.1100 
 13 C       -4.6450    -6.1570    -0.1630 C.3   1 <1>   0.1100 
 14 N       -4.4830    -7.6050     0.1050 N.3   1 <1>  -0.8100 
 15 C       -5.7360    -8.2140     0.5980 C.3   1 <1>   0.2530 
 16 C       -5.5080    -9.6680     0.9840 C.ar  1 <1>  -0.1430 
 17 C       -6.1500   -10.6900     0.3000 C.ar  1 <1>  -0.1500 
 18 C       -4.6470    -9.9800     2.0250 C.ar  1 <1>  -0.1500 
 19 C       -5.9270   -12.0190     0.6500 C.ar  1 <1>   0.0830 
 20 C       -4.4220   -11.2990     2.3780 C.ar  1 <1>  -0.1500 
 21 O       -6.5140   -13.0720     0.0290 O.3   1 <1>  -0.3630 
 22 C       -5.0600   -12.3140     1.6890 C.ar  1 <1>  -0.1500 
 23 C       -7.5080   -12.8890    -0.9540 C.3   1 <1>   0.0400 
 24 H       -0.2720    -1.4990     0.2220 H     1 <1>   0.1500 
 25 H        0.3720    -4.5040     3.1730 H     1 <1>   0.1500 
 26 H       -0.8200    -3.2280    -1.4440 H     1 <1>   0.1500 
 27 H       -0.1680    -6.2570     1.5310 H     1 <1>   0.1500 
 28 H       -0.1450    -6.7080    -1.0690 H     1 <1>   0.0800 
 29 H       -0.9210    -5.5080    -2.0770 H     1 <1>   0.0800 
 30 H       -2.1890    -6.8890     0.2090 H     1 <1>   0.4500 
 31 H       -1.8520    -8.4370    -1.5580 H     1 <1>   0.0800 
 32 H       -2.7390    -7.3800    -2.6190 H     1 <1>   0.0800 
 33 H       -3.5080    -5.0630    -1.6380 H     1 <1>   0.0800 
 34 H       -3.0640    -4.7080     0.0070 H     1 <1>   0.0800 
 35 H       -3.7610    -9.3400    -0.8560 H     1 <1>   0.0800 
 36 H       -4.6740    -8.2840    -1.8860 H     1 <1>   0.0800 
 37 H       -5.4220    -6.0040    -0.8950 H     1 <1>   0.0800 
 38 H       -4.9520    -5.6600     0.7420 H     1 <1>   0.0800 
 39 H       -6.5010    -8.1450    -0.1570 H     1 <1>   0.0800 
 40 H       -6.0770    -7.6790     1.4680 H     1 <1>   0.0800 
 41 H       -6.8180   -10.4440    -0.5020 H     1 <1>   0.1500 
 42 H       -4.1480    -9.1920     2.5620 H     1 <1>   0.1500 
 43 H       -3.7540   -11.5370     3.1870 H     1 <1>   0.1500 
 44 H       -4.8930   -13.3420     1.9550 H     1 <1>   0.1500 
 45 H       -7.8600   -13.8590    -1.2560 H     1 <1>   0.0800 
 46 H       -7.0760   -12.3790    -1.7960 H     1 <1>   0.0800 
 47 H       -8.3180   -12.3230    -0.5300 H     1 <1>   0.0800 
@<TRIPOS>BOND
  1   1   2  1   
  2   2   3  ar  
  3   2   4  ar  
  4   3   5  ar  
  5   3  24  1   
  6   4   6  ar  
  7   4  25  1   
  8   5   7  ar  
  9   5  26  1   
 10   6   7  ar  
 11   6  27  1   
 12   7   8  1   
 13   8   9  1   
 14   8  28  1   
 15   8  29  1   
 16   9  10  1   
 17   9  11  1   
 18   9  30  1   
 19  10  12  1   
 20  10  31  1   
 21  10  32  1   
 22  11  13  1   
 23  11  33  1   
 24  11  34  1   
 25  12  14  1   
 26  12  35  1   
 27  12  36  1   
 28  13  14  1   
 29  13  37  1   
 30  13  38  1   
 31  14  15  1   
 32  15  16  1   
 33  15  39  1   
 34  15  40  1   
 35  16  17  ar  
 36  16  18  ar  
 37  17  19  ar  
 38  17  41  1   
 39  18  20  ar  
 40  18  42  1   
 41  19  21  1   
 42  19  22  ar  
 43  20  22  ar  
 44  20  43  1   
 45  21  23  1   
 46  22  44  1   
 47  23  45  1   
 48  23  46  1   
 49  23  47  1   
@<TRIPOS>SUBSTRUCTURE
  1 ****  14 GROUP 4 **** **** 0

# MOE 2024.06 (io_trps.svl 2023.06)
