@<TRIPOS>MOLECULE
NONAME
38 39 1 0 0 
SMALL
USER_CHARGES


@<TRIPOS>ATOM
  1 O        0.6800    -0.4640    -1.3280 O.3   1 <1>  -0.6800 
  2 C        1.5220    -0.9080    -0.3380 C.3   1 <1>   0.2000 
  3 C        2.8130    -0.0940    -0.4110 C.3   1 <1>  -0.1600 
  4 C        1.7750    -2.3910    -0.6000 C.3   1 <1>  -0.1600 
  5 C        3.8820    -0.6820     0.5070 C.3   1 <1>   0.3430 
  6 C        2.8580    -2.9350     0.3250 C.3   1 <1>   0.3430 
  7 N        4.0970    -2.1220     0.1750 N.4   1 <1>  -0.9590 
  8 C        5.2300    -2.7030     0.9470 C.3   1 <1>   0.4860 
  9 C        6.4980    -1.9630     0.5740 C.ar  1 <1>  -0.1440 
 10 C        7.0710    -1.0660     1.4640 C.ar  1 <1>  -0.1500 
 11 C        7.0930    -2.1690    -0.6620 C.ar  1 <1>  -0.1500 
 12 C        8.2170    -0.3740     1.1140 C.ar  1 <1>  -0.1500 
 13 C        8.2390    -1.4740    -1.0080 C.ar  1 <1>  -0.1500 
 14 C        8.8050    -0.5710    -0.1240 C.ar  1 <1>  -0.1440 
 15 C       10.0660     0.1890    -0.5050 C.3   1 <1>  -0.0170 
 16 C       11.3110    -0.5960    -0.0890 C.3   1 <1>  -0.2400 
 17 H        0.3890     0.4560    -1.1690 H     1 <1>   0.4000 
 18 H        1.0300    -0.7700     0.6120 H     1 <1>   0.0800 
 19 H        2.6190     0.9210    -0.1130 H     1 <1>   0.0800 
 20 H        3.1870    -0.0830    -1.4210 H     1 <1>   0.0800 
 21 H        2.0740    -2.5400    -1.6230 H     1 <1>   0.0800 
 22 H        0.8640    -2.9390    -0.4360 H     1 <1>   0.0800 
 23 H        3.5710    -0.5850     1.5340 H     1 <1>   0.0800 
 24 H        4.8000    -0.1300     0.3770 H     1 <1>   0.0800 
 25 H        3.0560    -3.9650     0.0730 H     1 <1>   0.0800 
 26 H        2.5140    -2.8940     1.3460 H     1 <1>   0.0800 
 27 H        4.3830    -2.1500    -0.8130 H     1 <1>   0.4500 
 28 H        5.3480    -3.7480     0.7080 H     1 <1>   0.0800 
 29 H        5.0490    -2.6130     2.0060 H     1 <1>   0.0800 
 30 H        6.6420    -0.8950     2.4360 H     1 <1>   0.1500 
 31 H        6.6840    -2.8700    -1.3700 H     1 <1>   0.1500 
 32 H        8.6570     0.3190     1.8110 H     1 <1>   0.1500 
 33 H        8.6970    -1.6410    -1.9680 H     1 <1>   0.1500 
 34 H       10.0710     1.1520    -0.0250 H     1 <1>   0.0800 
 35 H       10.0840     0.3560    -1.5680 H     1 <1>   0.0800 
 36 H       11.3140    -0.7520     0.9750 H     1 <1>   0.0800 
 37 H       12.1990    -0.0530    -0.3610 H     1 <1>   0.0800 
 38 H       11.3280    -1.5530    -0.5780 H     1 <1>   0.0800 
@<TRIPOS>BOND
  1   1   2  1   
  2   1  17  1   
  3   2   3  1   
  4   2   4  1   
  5   2  18  1   
  6   3   5  1   
  7   3  19  1   
  8   3  20  1   
  9   4   6  1   
 10   4  21  1   
 11   4  22  1   
 12   5   7  1   
 13   5  23  1   
 14   5  24  1   
 15   6   7  1   
 16   6  25  1   
 17   6  26  1   
 18   7   8  1   
 19   7  27  1   
 20   8   9  1   
 21   8  28  1   
 22   8  29  1   
 23   9  10  ar  
 24   9  11  ar  
 25  10  12  ar  
 26  10  30  1   
 27  11  13  ar  
 28  11  31  1   
 29  12  14  ar  
 30  12  32  1   
 31  13  14  ar  
 32  13  33  1   
 33  14  15  1   
 34  15  16  1   
 35  15  34  1   
 36  15  35  1   
 37  16  36  1   
 38  16  37  1   
 39  16  38  1   
@<TRIPOS>SUBSTRUCTURE
  1 ****   9 GROUP 4 **** **** 0

# MOE 2024.06 (io_trps.svl 2023.06)
