@<TRIPOS>MOLECULE
NONAME
38 39 1 0 0 
SMALL
USER_CHARGES


@<TRIPOS>ATOM
  1 CL       0.3170     0.0740     0.9980 Cl    1 <1>  -0.1770 
  2 C       -0.4480    -1.4530     0.6180 C.ar  1 <1>   0.1770 
  3 C        0.3060    -2.5350     0.1550 C.ar  1 <1>   0.0530 
  4 C       -1.8140    -1.5360     0.8120 C.ar  1 <1>  -0.1500 
  5 C        1.7320    -2.4740    -0.0690 C.2   1 <1>   0.0870 
  6 C       -0.3870    -3.7210    -0.0920 C.ar  1 <1>  -0.1500 
  7 C       -2.4730    -2.7240     0.5510 C.ar  1 <1>  -0.1500 
  8 O        2.4910    -3.5170     0.2390 O.3   1 <1>  -0.2800 
  9 C        2.5310    -1.5000    -0.5800 C.2   1 <1>  -0.1500 
 10 C       -1.7540    -3.8170     0.1000 C.ar  1 <1>  -0.1500 
 11 C        3.7450    -3.2390    -0.0430 C.2   1 <1>  -0.0400 
 12 C        3.8370    -1.9920    -0.5600 C.2   1 <1>  -0.1500 
 13 C        4.7770    -4.3080     0.2540 C.3   1 <1>   0.5230 
 14 N        6.1010    -3.8780    -0.2420 N.4   1 <1>  -0.9060 
 15 C        7.2130    -4.8080     0.0400 C.3   1 <1>   0.4230 
 16 C        8.5170    -3.9850     0.1630 C.3   1 <1>   0.1200 
 17 C        7.2770    -5.8780    -1.0590 C.3   1 <1>  -0.1600 
 18 O        8.2330    -2.7340     0.7250 O.3   1 <1>  -0.6800 
 19 C        8.3460    -6.9470    -0.7840 C.3   1 <1>  -0.2400 
 20 H       -2.3560    -0.6780     1.1680 H     1 <1>   0.1500 
 21 H        0.1560    -4.5800    -0.4450 H     1 <1>   0.1500 
 22 H       -3.5380    -2.7980     0.7000 H     1 <1>   0.1500 
 23 H        2.2370    -0.5280    -0.9370 H     1 <1>   0.1500 
 24 H       -2.2620    -4.7450    -0.1010 H     1 <1>   0.1500 
 25 H        4.6930    -1.4350    -0.8980 H     1 <1>   0.1500 
 26 H        4.4800    -5.2240    -0.2300 H     1 <1>   0.0800 
 27 H        4.8120    -4.4780     1.3180 H     1 <1>   0.0800 
 28 H        6.3790    -3.0060     0.2450 H     1 <1>   0.4500 
 29 H        6.0530    -3.6470    -1.2370 H     1 <1>   0.4500 
 30 H        7.0410    -5.2900     0.9890 H     1 <1>   0.0800 
 31 H        8.9620    -3.8230    -0.8050 H     1 <1>   0.0800 
 32 H        9.2260    -4.4970     0.7920 H     1 <1>   0.0800 
 33 H        7.4870    -5.4180    -2.0100 H     1 <1>   0.0800 
 34 H        6.3260    -6.3780    -1.1310 H     1 <1>   0.0800 
 35 H        9.0620    -2.2330     0.9040 H     1 <1>   0.4000 
 36 H        9.3360    -6.5240    -0.7840 H     1 <1>   0.0800 
 37 H        8.3120    -7.7020    -1.5510 H     1 <1>   0.0800 
 38 H        8.1740    -7.4290     0.1640 H     1 <1>   0.0800 
@<TRIPOS>BOND
  1   1   2  1   
  2   2   3  ar  
  3   2   4  ar  
  4   3   5  1   
  5   3   6  ar  
  6   4   7  ar  
  7   4  20  1   
  8   5   8  1   
  9   5   9  2   
 10   6  10  ar  
 11   6  21  1   
 12   7  10  ar  
 13   7  22  1   
 14   8  11  1   
 15   9  12  1   
 16   9  23  1   
 17  10  24  1   
 18  11  12  2   
 19  11  13  1   
 20  12  25  1   
 21  13  14  1   
 22  13  26  1   
 23  13  27  1   
 24  14  15  1   
 25  14  28  1   
 26  14  29  1   
 27  15  16  1   
 28  15  17  1   
 29  15  30  1   
 30  16  18  1   
 31  16  31  1   
 32  16  32  1   
 33  17  19  1   
 34  17  33  1   
 35  17  34  1   
 36  18  35  1   
 37  19  36  1   
 38  19  37  1   
 39  19  38  1   
@<TRIPOS>SUBSTRUCTURE
  1 ****  11 GROUP 4 **** **** 0

# MOE 2024.06 (io_trps.svl 2023.06)
