@<TRIPOS>MOLECULE
NONAME
37 38 1 0 0 
SMALL
USER_CHARGES


@<TRIPOS>ATOM
  1 CL       0.1260     0.0880     0.9920 Cl    1 <1>  -0.1770 
  2 C        1.5970    -0.7490     0.5690 C.ar  1 <1>   0.1770 
  3 C        1.5770    -2.0800     0.1850 C.ar  1 <1>  -0.0090 
  4 C        2.7740    -0.0260     0.6270 C.ar  1 <1>  -0.1500 
  5 S        0.0080    -2.9800     0.1220 S.o2  1 <1>   1.4470 
  6 C        2.7950    -2.6600    -0.1570 C.ar  1 <1>  -0.1500 
  7 C        3.9690    -0.6340     0.2950 C.ar  1 <1>  -0.1500 
  8 O       -0.7290    -2.5480    -1.0450 O.2   1 <1>  -0.6500 
  9 O       -0.6370    -2.9620     1.4170 O.2   1 <1>  -0.6500 
 10 N        0.4570    -4.5910    -0.1630 N.am  1 <1>  -0.8490 
 11 C        4.0100    -1.9730    -0.1000 C.ar  1 <1>   0.0860 
 12 C       -0.5870    -5.3760    -0.7980 C.3   1 <1>   0.1960 
 13 C        0.8480    -5.3510     1.0150 C.3   1 <1>   0.1960 
 14 C        5.2570    -2.6390    -0.4420 C.2   1 <1>   0.5440 
 15 C       -0.1420    -6.8250    -0.6210 C.3   1 <1>  -0.1600 
 16 C        0.8640    -6.7930     0.5300 C.3   1 <1>  -0.1600 
 17 O        5.2550    -3.6170    -1.1620 O.2   1 <1>  -0.5700 
 18 N        6.4510    -2.1960     0.0570 N.am  1 <1>  -0.7300 
 19 C        7.7690    -2.7810    -0.2560 C.3   1 <1>   0.1400 
 20 C        8.7880    -1.6540    -0.3570 C.3   1 <1>  -0.2400 
 21 H        2.7460     1.0070     0.9270 H     1 <1>   0.1500 
 22 H        2.8180    -3.6860    -0.4880 H     1 <1>   0.1500 
 23 H        4.8770    -0.0580     0.3320 H     1 <1>   0.1500 
 24 H       -0.6910    -5.1100    -1.8370 H     1 <1>   0.0800 
 25 H       -1.5250    -5.2130    -0.2910 H     1 <1>   0.0800 
 26 H        0.1090    -5.2460     1.7930 H     1 <1>   0.0800 
 27 H        1.8100    -5.0390     1.3850 H     1 <1>   0.0800 
 28 H        0.3290    -7.1760    -1.5220 H     1 <1>   0.0800 
 29 H       -0.9880    -7.4520    -0.3990 H     1 <1>   0.0800 
 30 H        0.6010    -7.4720     1.3220 H     1 <1>   0.0800 
 31 H        1.8480    -7.0380     0.1690 H     1 <1>   0.0800 
 32 H        6.4600    -1.4630     0.7650 H     1 <1>   0.3700 
 33 H        7.7210    -3.3200    -1.1880 H     1 <1>   0.0800 
 34 H        8.0480    -3.4710     0.5230 H     1 <1>   0.0800 
 35 H        8.5090    -0.9690    -1.1370 H     1 <1>   0.0800 
 36 H        9.7530    -2.0640    -0.5970 H     1 <1>   0.0800 
 37 H        8.8670    -1.1280     0.5780 H     1 <1>   0.0800 
@<TRIPOS>BOND
  1   1   2  1   
  2   2   3  ar  
  3   2   4  ar  
  4   3   5  1   
  5   3   6  ar  
  6   4   7  ar  
  7   4  21  1   
  8   5   8  2   
  9   5   9  2   
 10   5  10  am  
 11   6  11  ar  
 12   6  22  1   
 13   7  11  ar  
 14   7  23  1   
 15  10  12  1   
 16  10  13  1   
 17  11  14  1   
 18  12  15  1   
 19  12  24  1   
 20  12  25  1   
 21  13  16  1   
 22  13  26  1   
 23  13  27  1   
 24  14  17  2   
 25  14  18  am  
 26  15  16  1   
 27  15  28  1   
 28  15  29  1   
 29  16  30  1   
 30  16  31  1   
 31  18  19  1   
 32  18  32  1   
 33  19  20  1   
 34  19  33  1   
 35  19  34  1   
 36  20  35  1   
 37  20  36  1   
 38  20  37  1   
@<TRIPOS>SUBSTRUCTURE
  1 ****   6 GROUP 4 **** **** 0

# MOE 2024.06 (io_trps.svl 2023.06)
