@<TRIPOS>MOLECULE
NONAME
51 54 1 0 0 
SMALL
USER_CHARGES


@<TRIPOS>ATOM
  1 BR       1.7790    -1.3900    -0.5220 Br    1 <1>  -0.1110 
  2 C        0.2950    -2.5760    -0.1870 C.ar  1 <1>   0.1110 
  3 C        0.2530    -3.3320     0.9720 C.ar  1 <1>   0.0820 
  4 C       -0.7090    -2.6350    -1.1350 C.ar  1 <1>  -0.1500 
  5 O        1.2340    -3.2630     1.8950 O.3   1 <1>  -0.5330 
  6 C       -0.8270    -4.1820     1.1900 C.ar  1 <1>   0.0830 
  7 C       -1.7950    -3.4720    -0.9170 C.ar  1 <1>  -0.1430 
  8 O       -0.8230    -4.9110     2.3420 O.3   1 <1>  -0.3630 
  9 C       -1.8470    -4.2460     0.2400 C.ar  1 <1>  -0.1500 
 10 C       -2.9230    -3.5270    -1.9300 C.3   1 <1>   0.4860 
 11 C       -1.8030    -5.8920     2.6050 C.3   1 <1>   0.0400 
 12 N       -4.0940    -2.8150    -1.3650 N.4   1 <1>  -0.9590 
 13 C       -5.3660    -2.9890    -2.1320 C.3   1 <1>   0.3430 
 14 C       -3.8570    -1.3650    -1.0460 C.3   1 <1>   0.3430 
 15 C       -6.5600    -2.4230    -1.3260 C.3   1 <1>   0.1100 
 16 C       -5.0870    -0.7500    -0.3300 C.3   1 <1>   0.1100 
 17 N       -6.1280    -1.7680    -0.0620 N.3   1 <1>  -0.8100 
 18 C       -7.2660    -1.2220     0.7020 C.3   1 <1>   0.2530 
 19 C       -8.1730    -2.3590     1.1430 C.ar  1 <1>  -0.1430 
 20 C       -9.4240    -2.5260     0.5560 C.ar  1 <1>  -0.1500 
 21 C       -7.7410    -3.2460     2.1290 C.ar  1 <1>  -0.1500 
 22 C      -10.1990    -3.5920     0.9680 C.ar  1 <1>   0.0830 
 23 C       -8.5390    -4.3090     2.5360 C.ar  1 <1>  -0.1500 
 24 O      -11.4120    -3.9480     0.5350 O.3   1 <1>  -0.3630 
 25 C       -9.7690    -4.4580     1.9300 C.ar  1 <1>   0.0830 
 26 C      -11.7830    -5.1110     1.2740 C.3   1 <1>   0.4000 
 27 O      -10.6920    -5.4000     2.1470 O.3   1 <1>  -0.3620 
 28 H       -0.6220    -2.0280    -2.0200 H     1 <1>   0.1500 
 29 H        1.0440    -3.8740     2.6350 H     1 <1>   0.4500 
 30 H       -2.6850    -4.8990     0.3980 H     1 <1>   0.1500 
 31 H       -3.1750    -4.5570    -2.1280 H     1 <1>   0.0800 
 32 H       -2.6150    -3.0660    -2.8540 H     1 <1>   0.0800 
 33 H       -1.5610    -6.3640     3.5410 H     1 <1>   0.0800 
 34 H       -1.7890    -6.6240     1.8160 H     1 <1>   0.0800 
 35 H       -2.7660    -5.4180     2.6780 H     1 <1>   0.0800 
 36 H       -4.3120    -3.2140    -0.4390 H     1 <1>   0.4500 
 37 H       -5.5440    -4.0340    -2.3280 H     1 <1>   0.0800 
 38 H       -5.3020    -2.4800    -3.0800 H     1 <1>   0.0800 
 39 H       -3.6540    -0.8110    -1.9470 H     1 <1>   0.0800 
 40 H       -2.9990    -1.2680    -0.4000 H     1 <1>   0.0800 
 41 H       -7.2270    -3.2380    -1.1000 H     1 <1>   0.0800 
 42 H       -7.1050    -1.7240    -1.9390 H     1 <1>   0.0800 
 43 H       -5.4940     0.0420    -0.9360 H     1 <1>   0.0800 
 44 H       -4.7620    -0.3130     0.6000 H     1 <1>   0.0800 
 45 H       -7.8140    -0.5130     0.1040 H     1 <1>   0.0800 
 46 H       -6.9030    -0.7120     1.5790 H     1 <1>   0.0800 
 47 H       -9.7970    -1.8610    -0.2020 H     1 <1>   0.1500 
 48 H       -6.7750    -3.1090     2.5820 H     1 <1>   0.1500 
 49 H       -8.2210    -5.0000     3.2950 H     1 <1>   0.1500 
 50 H      -11.9330    -5.9350     0.6000 H     1 <1>   0.0800 
 51 H      -12.6640    -4.9030     1.8550 H     1 <1>   0.0800 
@<TRIPOS>BOND
  1   1   2  1   
  2   2   3  ar  
  3   2   4  ar  
  4   3   5  1   
  5   3   6  ar  
  6   4   7  ar  
  7   4  28  1   
  8   5  29  1   
  9   6   8  1   
 10   6   9  ar  
 11   7   9  ar  
 12   7  10  1   
 13   8  11  1   
 14   9  30  1   
 15  10  12  1   
 16  10  31  1   
 17  10  32  1   
 18  11  33  1   
 19  11  34  1   
 20  11  35  1   
 21  12  13  1   
 22  12  14  1   
 23  12  36  1   
 24  13  15  1   
 25  13  37  1   
 26  13  38  1   
 27  14  16  1   
 28  14  39  1   
 29  14  40  1   
 30  15  17  1   
 31  15  41  1   
 32  15  42  1   
 33  16  17  1   
 34  16  43  1   
 35  16  44  1   
 36  17  18  1   
 37  18  19  1   
 38  18  45  1   
 39  18  46  1   
 40  19  20  ar  
 41  19  21  ar  
 42  20  22  ar  
 43  20  47  1   
 44  21  23  ar  
 45  21  48  1   
 46  22  24  1   
 47  22  25  ar  
 48  23  25  ar  
 49  23  49  1   
 50  24  26  1   
 51  25  27  1   
 52  26  27  1   
 53  26  50  1   
 54  26  51  1   
@<TRIPOS>SUBSTRUCTURE
  1 ****  17 GROUP 4 **** **** 0

# MOE 2024.06 (io_trps.svl 2023.06)
