@<TRIPOS>MOLECULE
NONAME
38 39 1 0 0 
SMALL
USER_CHARGES


@<TRIPOS>ATOM
  1 S        0.1650    -0.3350     1.6070 S.o2  1 <1>   1.5010 
  2 O        0.7710    -0.1880     2.9080 O.2   1 <1>  -0.6500 
  3 O       -0.8070    -1.3700     1.3520 O.2   1 <1>  -0.6500 
  4 N       -0.6140     1.1690     1.3460 N.am  1 <1>  -0.7570 
  5 C        1.4280    -0.3380     0.3320 C.2   1 <1>  -0.0630 
  6 C       -1.6710     1.4160     0.4720 C.ar  1 <1>   0.1990 
  7 C        1.6400    -1.3930    -0.5440 C.2   1 <1>   0.1390 
  8 C        2.3620     0.5760    -0.0330 C.2   1 <1>  -0.3020 
  9 C       -2.7020     2.2750     0.8720 C.ar  1 <1>   0.0830 
 10 C       -1.7230     0.8430    -0.7930 C.ar  1 <1>  -0.1500 
 11 N        2.6050    -1.1650    -1.3830 N.2   1 <1>  -0.7070 
 12 N        3.0550     0.0600    -1.0640 N.pl3 1 <1>   0.3140 
 13 O       -2.6090     2.8220     2.1240 O.3   1 <1>  -0.3620 
 14 C       -3.7600     2.5360     0.0090 C.ar  1 <1>  -0.1500 
 15 C       -2.7790     1.1040    -1.6480 C.ar  1 <1>  -0.1500 
 16 C        4.1730     0.6980    -1.7890 C.3   1 <1>   0.0960 
 17 C       -3.6460     3.6290     2.6400 C.3   1 <1>   0.0400 
 18 C       -3.8040     1.9550    -1.2470 C.ar  1 <1>   0.0830 
 19 C        3.6590     1.7320    -2.7990 C.3   1 <1>  -0.2400 
 20 O       -4.8780     2.2660    -2.0220 O.3   1 <1>  -0.3630 
 21 C       -5.0350     1.6970    -3.3030 C.3   1 <1>   0.0400 
 22 H       -0.6980     1.6560     2.2350 H     1 <1>   0.4200 
 23 H        1.0660    -2.3070    -0.5360 H     1 <1>   0.1500 
 24 H        2.5570     1.5480     0.3820 H     1 <1>   0.1500 
 25 H       -0.9370     0.1870    -1.1190 H     1 <1>   0.1500 
 26 H       -4.5660     3.1880     0.2810 H     1 <1>   0.1500 
 27 H       -2.7830     0.6390    -2.6150 H     1 <1>   0.1500 
 28 H        4.7240    -0.0710    -2.3000 H     1 <1>   0.0800 
 29 H        4.8220     1.1660    -1.0720 H     1 <1>   0.0800 
 30 H       -3.3790     3.9180     3.6410 H     1 <1>   0.0800 
 31 H       -4.5590     3.0580     2.6570 H     1 <1>   0.0800 
 32 H       -3.7490     4.5040     2.0240 H     1 <1>   0.0800 
 33 H        3.0120     1.2570    -3.5160 H     1 <1>   0.0800 
 34 H        4.4870     2.1710    -3.3250 H     1 <1>   0.0800 
 35 H        3.1190     2.5150    -2.2960 H     1 <1>   0.0800 
 36 H       -5.9520     2.0690    -3.7230 H     1 <1>   0.0800 
 37 H       -5.0860     0.6260    -3.2060 H     1 <1>   0.0800 
 38 H       -4.2050     1.9910    -3.9200 H     1 <1>   0.0800 
@<TRIPOS>BOND
  1   1   2  2   
  2   1   3  2   
  3   1   4  am  
  4   1   5  1   
  5   4   6  1   
  6   4  22  1   
  7   5   7  1   
  8   5   8  2   
  9   6   9  ar  
 10   6  10  ar  
 11   7  11  2   
 12   7  23  1   
 13   8  12  1   
 14   8  24  1   
 15   9  13  1   
 16   9  14  ar  
 17  10  15  ar  
 18  10  25  1   
 19  11  12  1   
 20  12  16  1   
 21  13  17  1   
 22  14  18  ar  
 23  14  26  1   
 24  15  18  ar  
 25  15  27  1   
 26  16  19  1   
 27  16  28  1   
 28  16  29  1   
 29  17  30  1   
 30  17  31  1   
 31  17  32  1   
 32  18  20  1   
 33  19  33  1   
 34  19  34  1   
 35  19  35  1   
 36  20  21  1   
 37  21  36  1   
 38  21  37  1   
 39  21  38  1   
@<TRIPOS>SUBSTRUCTURE
  1 ****  10 GROUP 4 **** **** 0

# MOE 2024.06 (io_trps.svl 2023.06)
