@<TRIPOS>MOLECULE
NONAME
28 28 1 0 0 
SMALL
USER_CHARGES


@<TRIPOS>ATOM
  1 N        3.0410    -0.7260    -0.3860 N.1   1 <1>  -0.5570 
  2 C        2.1110    -1.2870    -0.7100 C.1   1 <1>   0.3570 
  3 C        0.8550    -1.9990    -1.0450 C.3   1 <1>   0.0400 
  4 C       -0.0880    -1.8520     0.1510 C.3   1 <1>   0.3430 
  5 N       -1.4330    -2.4720    -0.0850 N.4   1 <1>  -0.9590 
  6 C       -2.3960    -2.0560     0.9790 C.3   1 <1>   0.4860 
  7 C       -1.3880    -3.9690    -0.1970 C.3   1 <1>   0.2630 
  8 C       -3.7930    -2.4330     0.5290 C.ar  1 <1>  -0.1440 
  9 C       -4.4360    -3.5290     1.0880 C.ar  1 <1>  -0.1500 
 10 C       -4.4380    -1.6880    -0.4490 C.ar  1 <1>  -0.1500 
 11 C       -5.7030    -3.8840     0.6620 C.ar  1 <1>  -0.1500 
 12 C       -5.7060    -2.0460    -0.8720 C.ar  1 <1>  -0.1500 
 13 C       -6.3370    -3.1450    -0.3190 C.ar  1 <1>  -0.1500 
 14 H        1.0900    -3.0290    -1.2350 H     1 <1>   0.0800 
 15 H        0.4310    -1.5500    -1.9240 H     1 <1>   0.0800 
 16 H       -0.2120    -0.8000     0.3550 H     1 <1>   0.0800 
 17 H        0.3700    -2.2990     1.0200 H     1 <1>   0.0800 
 18 H       -1.8400    -2.1080    -0.9600 H     1 <1>   0.4500 
 19 H       -2.3520    -0.9890     1.1280 H     1 <1>   0.0800 
 20 H       -2.1620    -2.5430     1.9120 H     1 <1>   0.0800 
 21 H       -1.0150    -4.4050     0.7150 H     1 <1>   0.0800 
 22 H       -0.7500    -4.2710    -1.0120 H     1 <1>   0.0800 
 23 H       -2.3770    -4.3600    -0.3850 H     1 <1>   0.0800 
 24 H       -3.9670    -4.1170     1.8590 H     1 <1>   0.1500 
 25 H       -3.9760    -0.8210    -0.8890 H     1 <1>   0.1500 
 26 H       -6.2030    -4.7350     1.0950 H     1 <1>   0.1500 
 27 H       -6.2100    -1.4690    -1.6300 H     1 <1>   0.1500 
 28 H       -7.3240    -3.4220    -0.6490 H     1 <1>   0.1500 
@<TRIPOS>BOND
  1   1   2  3   
  2   2   3  1   
  3   3   4  1   
  4   3  14  1   
  5   3  15  1   
  6   4   5  1   
  7   4  16  1   
  8   4  17  1   
  9   5   6  1   
 10   5   7  1   
 11   5  18  1   
 12   6   8  1   
 13   6  19  1   
 14   6  20  1   
 15   7  21  1   
 16   7  22  1   
 17   7  23  1   
 18   8   9  ar  
 19   8  10  ar  
 20   9  11  ar  
 21   9  24  1   
 22  10  12  ar  
 23  10  25  1   
 24  11  13  ar  
 25  11  26  1   
 26  12  13  ar  
 27  12  27  1   
 28  13  28  1   
@<TRIPOS>SUBSTRUCTURE
  1 ****   5 GROUP 4 **** **** 0

# MOE 2024.06 (io_trps.svl 2023.06)
