@<TRIPOS>MOLECULE
NONAME
35 35 1 0 0 
SMALL
USER_CHARGES


@<TRIPOS>ATOM
  1 F        0.1950    -0.3120    -0.3790 F     1 <1>  -0.3400 
  2 C       -1.0570     0.1050    -0.5400 C.3   1 <1>   1.1640 
  3 F       -1.1310     0.5700    -1.7810 F     1 <1>  -0.3400 
  4 F       -1.2020     1.1510     0.2620 F     1 <1>  -0.3400 
  5 C       -2.0970    -0.9910    -0.2560 C.ar  1 <1>  -0.1440 
  6 C       -3.4180    -0.8080    -0.6480 C.ar  1 <1>  -0.1500 
  7 C       -1.7560    -2.1710     0.3960 C.ar  1 <1>  -0.1500 
  8 C       -4.3930    -1.7700    -0.4080 C.ar  1 <1>   0.1170 
  9 C       -2.7090    -3.1440     0.6430 C.ar  1 <1>  -0.1500 
 10 N       -5.7380    -1.6190    -0.7900 N.am  1 <1>  -0.5470 
 11 C       -4.0270    -2.9520     0.2440 C.ar  1 <1>   0.0830 
 12 C       -6.4580    -0.5830    -1.3100 C.2   1 <1>   0.5690 
 13 O       -5.0100    -3.8790     0.4580 O.3   1 <1>  -0.3630 
 14 O       -5.9930     0.4980    -1.5730 O.2   1 <1>  -0.5700 
 15 C       -7.9340    -0.8210    -1.5730 C.3   1 <1>  -0.0990 
 16 C       -4.7430    -5.0910     1.1300 C.3   1 <1>   0.0400 
 17 C       -8.7540    -1.1010    -0.2970 C.3   1 <1>  -0.0800 
 18 C      -10.2120    -1.4030    -0.6640 C.3   1 <1>  -0.2400 
 19 C       -8.7020     0.0860     0.6740 C.3   1 <1>  -0.2400 
 20 H       -3.6900     0.1020    -1.1520 H     1 <1>   0.1500 
 21 H       -0.7420    -2.3460     0.7190 H     1 <1>   0.1500 
 22 H       -2.4010    -4.0410     1.1460 H     1 <1>   0.1500 
 23 H       -6.2790    -2.4580    -0.5760 H     1 <1>   0.3700 
 24 H       -8.0200    -1.6510    -2.2500 H     1 <1>   0.0800 
 25 H       -8.3330     0.0440    -2.0720 H     1 <1>   0.0800 
 26 H       -5.6590    -5.6500     1.1890 H     1 <1>   0.0800 
 27 H       -4.3850    -4.8710     2.1200 H     1 <1>   0.0800 
 28 H       -4.0130    -5.6480     0.5700 H     1 <1>   0.0800 
 29 H       -8.3490    -1.9660     0.2010 H     1 <1>   0.0800 
 30 H      -10.6620    -0.5590    -1.1570 H     1 <1>   0.0800 
 31 H      -10.7810    -1.6250     0.2210 H     1 <1>   0.0800 
 32 H      -10.2660    -2.2540    -1.3210 H     1 <1>   0.0800 
 33 H       -9.0810     0.9770     0.2060 H     1 <1>   0.0800 
 34 H       -7.6910     0.2740     0.9930 H     1 <1>   0.0800 
 35 H       -9.2930    -0.1200     1.5490 H     1 <1>   0.0800 
@<TRIPOS>BOND
  1   1   2  1   
  2   2   3  1   
  3   2   4  1   
  4   2   5  1   
  5   5   6  ar  
  6   5   7  ar  
  7   6   8  ar  
  8   6  20  1   
  9   7   9  ar  
 10   7  21  1   
 11   8  10  1   
 12   8  11  ar  
 13   9  11  ar  
 14   9  22  1   
 15  10  12  am  
 16  10  23  1   
 17  11  13  1   
 18  12  14  2   
 19  12  15  1   
 20  13  16  1   
 21  15  17  1   
 22  15  24  1   
 23  15  25  1   
 24  16  26  1   
 25  16  27  1   
 26  16  28  1   
 27  17  18  1   
 28  17  19  1   
 29  17  29  1   
 30  18  30  1   
 31  18  31  1   
 32  18  32  1   
 33  19  33  1   
 34  19  34  1   
 35  19  35  1   
@<TRIPOS>SUBSTRUCTURE
  1 ****   8 GROUP 4 **** **** 0

# MOE 2024.06 (io_trps.svl 2023.06)
