@<TRIPOS>MOLECULE
NONAME
40 40 1 0 0 
SMALL
USER_CHARGES


@<TRIPOS>ATOM
  1 O        1.7680    -0.2500     2.2640 O.2   1 <1>  -0.5700 
  2 C        0.9050    -0.5020     1.4580 C.2   1 <1>   0.5690 
  3 N        0.9870    -0.1910     0.1340 N.am  1 <1>  -0.7300 
  4 C       -0.3400    -1.2210     1.9510 C.3   1 <1>   0.0440 
  5 C        2.0920     0.3950    -0.6690 C.3   1 <1>   0.2200 
  6 C       -1.1310    -1.8730     0.8190 C.ar  1 <1>  -0.1440 
  7 C        2.9980    -0.7180    -1.2890 C.3   1 <1>   0.0000 
  8 C        2.8220     1.4900     0.1210 C.3   1 <1>  -0.2400 
  9 C       -0.7260    -3.0930     0.3030 C.ar  1 <1>  -0.1500 
 10 C       -2.2420    -1.2430     0.2800 C.ar  1 <1>  -0.1500 
 11 C        3.7050    -1.5760    -0.2220 C.3   1 <1>  -0.2400 
 12 C        2.1490    -1.6560    -2.1700 C.3   1 <1>  -0.2400 
 13 C        4.0790    -0.0960    -2.1930 C.3   1 <1>  -0.2400 
 14 C       -1.4210    -3.6750    -0.7430 C.ar  1 <1>  -0.1500 
 15 C       -2.9360    -1.8260    -0.7650 C.ar  1 <1>  -0.1500 
 16 C       -2.5280    -3.0430    -1.2840 C.ar  1 <1>  -0.1430 
 17 C       -3.2910    -3.6830    -2.4300 C.3   1 <1>  -0.0970 
 18 H        0.2340    -0.5710    -0.4460 H     1 <1>   0.3700 
 19 H       -0.9530    -0.5120     2.4730 H     1 <1>   0.0800 
 20 H       -0.0410    -1.9730     2.6570 H     1 <1>   0.0800 
 21 H        1.6200     0.9010    -1.4940 H     1 <1>   0.0800 
 22 H        3.4370     1.0720     0.8950 H     1 <1>   0.0800 
 23 H        2.1070     2.1560     0.5680 H     1 <1>   0.0800 
 24 H        3.4490     2.0680    -0.5320 H     1 <1>   0.0800 
 25 H        0.1350    -3.5950     0.7090 H     1 <1>   0.1500 
 26 H       -2.5720    -0.2950     0.6690 H     1 <1>   0.1500 
 27 H        2.9880    -2.0750     0.4040 H     1 <1>   0.0800 
 28 H        4.3320    -0.9700     0.4070 H     1 <1>   0.0800 
 29 H        4.3220    -2.3250    -0.6850 H     1 <1>   0.0800 
 30 H        2.7700    -2.3880    -2.6540 H     1 <1>   0.0800 
 31 H        1.4200    -2.1840    -1.5800 H     1 <1>   0.0800 
 32 H        1.6310    -1.0980    -2.9290 H     1 <1>   0.0800 
 33 H        4.7730     0.4890    -1.6160 H     1 <1>   0.0800 
 34 H        3.6320     0.5380    -2.9380 H     1 <1>   0.0800 
 35 H        4.6400    -0.8640    -2.6960 H     1 <1>   0.0800 
 36 H       -1.0960    -4.6230    -1.1330 H     1 <1>   0.1500 
 37 H       -3.7980    -1.3270    -1.1720 H     1 <1>   0.1500 
 38 H       -2.6290    -4.2690    -3.0420 H     1 <1>   0.0800 
 39 H       -3.7440    -2.9290    -3.0480 H     1 <1>   0.0800 
 40 H       -4.0620    -4.3230    -2.0410 H     1 <1>   0.0800 
@<TRIPOS>BOND
  1   1   2  2   
  2   2   3  am  
  3   2   4  1   
  4   3   5  1   
  5   3  18  1   
  6   4   6  1   
  7   4  19  1   
  8   4  20  1   
  9   5   7  1   
 10   5   8  1   
 11   5  21  1   
 12   6   9  ar  
 13   6  10  ar  
 14   7  11  1   
 15   7  12  1   
 16   7  13  1   
 17   8  22  1   
 18   8  23  1   
 19   8  24  1   
 20   9  14  ar  
 21   9  25  1   
 22  10  15  ar  
 23  10  26  1   
 24  11  27  1   
 25  11  28  1   
 26  11  29  1   
 27  12  30  1   
 28  12  31  1   
 29  12  32  1   
 30  13  33  1   
 31  13  34  1   
 32  13  35  1   
 33  14  16  ar  
 34  14  36  1   
 35  15  16  ar  
 36  15  37  1   
 37  16  17  1   
 38  17  38  1   
 39  17  39  1   
 40  17  40  1   
@<TRIPOS>SUBSTRUCTURE
  1 ****   3 GROUP 4 **** **** 0

# MOE 2024.06 (io_trps.svl 2023.06)
