@<TRIPOS>MOLECULE
NONAME
31 32 1 0 0 
SMALL
USER_CHARGES


@<TRIPOS>ATOM
  1 BR      -0.1490     0.1920    -0.6010 Br    1 <1>  -0.1110 
  2 C       -1.0950    -1.4570    -0.2850 C.ar  1 <1>   0.1110 
  3 C       -2.4700    -1.4320    -0.2000 C.ar  1 <1>  -0.1500 
  4 C       -0.3680    -2.6220    -0.1530 C.ar  1 <1>  -0.1500 
  5 C       -3.1880    -2.6100     0.0250 C.ar  1 <1>   0.0530 
  6 C       -1.0600    -3.7940     0.0740 C.ar  1 <1>  -0.1500 
  7 C       -2.4500    -3.8080     0.1660 C.ar  1 <1>   0.1000 
  8 C       -4.6330    -2.5390     0.0990 C.2   1 <1>   0.4250 
  9 N       -3.0500    -5.0330     0.4090 N.pl3 1 <1>  -0.9000 
 10 O       -5.4000    -3.5790    -0.0760 O.3   1 <1>  -0.2800 
 11 N       -5.3540    -1.4850     0.3140 N.2   1 <1>  -0.3380 
 12 C       -6.6040    -3.1280     0.0430 C.2   1 <1>   0.2980 
 13 N       -6.6250    -1.8740     0.2780 N.2   1 <1>  -0.3380 
 14 C       -7.7760    -4.0860    -0.1030 C.3   1 <1>   0.0200 
 15 C       -9.1440    -3.4000     0.0470 C.3   1 <1>  -0.1600 
 16 C      -10.2980    -4.3990    -0.1100 C.3   1 <1>  -0.1600 
 17 C      -11.6520    -3.6990     0.0420 C.3   1 <1>  -0.2400 
 18 H       -2.9850    -0.4940    -0.3090 H     1 <1>   0.1500 
 19 H        0.7050    -2.6060    -0.2240 H     1 <1>   0.1500 
 20 H       -0.5170    -4.7140     0.1900 H     1 <1>   0.1500 
 21 H       -2.5440    -5.8850     0.1490 H     1 <1>   0.4000 
 22 H       -4.0620    -5.1020     0.2460 H     1 <1>   0.4000 
 23 H       -7.6770    -4.8540     0.6420 H     1 <1>   0.0800 
 24 H       -7.7130    -4.5490    -1.0710 H     1 <1>   0.0800 
 25 H       -9.2340    -2.6270    -0.6970 H     1 <1>   0.0800 
 26 H       -9.2000    -2.9340     1.0160 H     1 <1>   0.0800 
 27 H      -10.2160    -5.1710     0.6370 H     1 <1>   0.0800 
 28 H      -10.2490    -4.8640    -1.0800 H     1 <1>   0.0800 
 29 H      -11.7340    -3.2450     1.0140 H     1 <1>   0.0800 
 30 H      -12.4500    -4.4120    -0.0700 H     1 <1>   0.0800 
 31 H      -11.7680    -2.9360    -0.7070 H     1 <1>   0.0800 
@<TRIPOS>BOND
  1   1   2  1   
  2   2   3  ar  
  3   2   4  ar  
  4   3   5  ar  
  5   3  18  1   
  6   4   6  ar  
  7   4  19  1   
  8   5   7  ar  
  9   5   8  1   
 10   6   7  ar  
 11   6  20  1   
 12   7   9  1   
 13   8  10  1   
 14   8  11  2   
 15   9  21  1   
 16   9  22  1   
 17  10  12  1   
 18  11  13  1   
 19  12  13  2   
 20  12  14  1   
 21  14  15  1   
 22  14  23  1   
 23  14  24  1   
 24  15  16  1   
 25  15  25  1   
 26  15  26  1   
 27  16  17  1   
 28  16  27  1   
 29  16  28  1   
 30  17  29  1   
 31  17  30  1   
 32  17  31  1   
@<TRIPOS>SUBSTRUCTURE
  1 ****   8 GROUP 4 **** **** 0

# MOE 2024.06 (io_trps.svl 2023.06)
