@<TRIPOS>MOLECULE
NONAME
39 40 1 0 0 
SMALL
USER_CHARGES


@<TRIPOS>ATOM
  1 O       -1.3880    -0.3530     1.5990 O.2   1 <1>  -0.5700 
  2 C       -2.0770     0.5670     1.2010 C.2   1 <1>   0.7060 
  3 O       -3.3900     0.3500     1.1310 O.3   1 <1>  -0.2330 
  4 C       -1.5640     1.8550     0.8050 C.2   1 <1>  -0.1240 
  5 C       -4.2690     1.2830     0.7170 C.ar  1 <1>   0.0820 
  6 C       -2.4100     2.8220     0.3520 C.2   1 <1>  -0.1670 
  7 C       -0.0470     2.0360     0.9260 C.3   1 <1>  -0.0220 
  8 C       -3.8250     2.5500     0.3170 C.ar  1 <1>   0.0280 
  9 C       -5.6110     0.9450     0.7060 C.ar  1 <1>  -0.1500 
 10 C       -1.9510     4.1970    -0.1400 C.3   1 <1>  -0.1020 
 11 C        0.6580     1.6170    -0.3670 C.3   1 <1>  -0.2400 
 12 C       -4.8070     3.4630    -0.0860 C.ar  1 <1>  -0.1500 
 13 C       -6.5640     1.8680     0.2970 C.ar  1 <1>   0.0830 
 14 C       -6.1510     3.1400    -0.1030 C.ar  1 <1>  -0.1440 
 15 O       -7.8900     1.5900     0.2710 O.3   1 <1>  -0.3630 
 16 C       -7.1620     4.1880    -0.5570 C.3   1 <1>  -0.0170 
 17 C       -8.4080     0.3490     0.6880 C.3   1 <1>   0.1200 
 18 C       -7.7340     4.9430     0.6460 C.3   1 <1>  -0.2400 
 19 C       -9.9260     0.4010     0.5450 C.3   1 <1>  -0.2400 
 20 H        0.3330     1.4440     1.7420 H     1 <1>   0.0800 
 21 H        0.2010     3.0530     1.1640 H     1 <1>   0.0800 
 22 H       -5.8820    -0.0420     1.0220 H     1 <1>   0.1500 
 23 H       -2.3100     4.9620     0.5250 H     1 <1>   0.0800 
 24 H       -2.3410     4.3800    -1.1250 H     1 <1>   0.0800 
 25 H       -0.8850     4.2890    -0.2100 H     1 <1>   0.0800 
 26 H        0.4670     0.5780    -0.5720 H     1 <1>   0.0800 
 27 H        1.7200     1.7570    -0.2720 H     1 <1>   0.0800 
 28 H        0.3030     2.2030    -1.1960 H     1 <1>   0.0800 
 29 H       -4.5210     4.4510    -0.3890 H     1 <1>   0.1500 
 30 H       -6.6900     4.8870    -1.2250 H     1 <1>   0.0800 
 31 H       -7.9610     3.7170    -1.1020 H     1 <1>   0.0800 
 32 H       -8.1280     0.1910     1.7160 H     1 <1>   0.0800 
 33 H       -7.9920    -0.4220     0.0630 H     1 <1>   0.0800 
 34 H       -6.9440     5.4310     1.1890 H     1 <1>   0.0800 
 35 H       -8.2340     4.2560     1.3060 H     1 <1>   0.0800 
 36 H       -8.4410     5.6830     0.3170 H     1 <1>   0.0800 
 37 H      -10.3280     1.1860     1.1600 H     1 <1>   0.0800 
 38 H      -10.1940     0.5760    -0.4820 H     1 <1>   0.0800 
 39 H      -10.3540    -0.5340     0.8580 H     1 <1>   0.0800 
@<TRIPOS>BOND
  1   1   2  2   
  2   2   3  1   
  3   2   4  1   
  4   3   5  1   
  5   4   6  2   
  6   4   7  1   
  7   5   8  ar  
  8   5   9  ar  
  9   6   8  1   
 10   6  10  1   
 11   7  11  1   
 12   7  20  1   
 13   7  21  1   
 14   8  12  ar  
 15   9  13  ar  
 16   9  22  1   
 17  10  23  1   
 18  10  24  1   
 19  10  25  1   
 20  11  26  1   
 21  11  27  1   
 22  11  28  1   
 23  12  14  ar  
 24  12  29  1   
 25  13  14  ar  
 26  13  15  1   
 27  14  16  1   
 28  15  17  1   
 29  16  18  1   
 30  16  30  1   
 31  16  31  1   
 32  17  19  1   
 33  17  32  1   
 34  17  33  1   
 35  18  34  1   
 36  18  35  1   
 37  18  36  1   
 38  19  37  1   
 39  19  38  1   
 40  19  39  1   
@<TRIPOS>SUBSTRUCTURE
  1 ****   5 GROUP 4 **** **** 0

# MOE 2024.06 (io_trps.svl 2023.06)
