@<TRIPOS>MOLECULE
NONAME
44 46 1 0 0 
SMALL
USER_CHARGES


@<TRIPOS>ATOM
  1 F       -1.3810     1.2650     1.6670 F     1 <1>  -0.1900 
  2 C       -0.8420     2.1170     0.8350 C.ar  1 <1>   0.1900 
  3 C       -1.5840     2.5440    -0.2530 C.ar  1 <1>  -0.1440 
  4 C        0.4440     2.5630     1.0870 C.ar  1 <1>  -0.1500 
  5 C       -0.9720     3.4550    -1.0950 C.ar  1 <1>   0.1900 
  6 C       -2.9850     2.0370    -0.5190 C.3   1 <1>   0.4860 
  7 C        1.0240     3.4770     0.2190 C.ar  1 <1>  -0.1500 
  8 F       -1.6320     3.8920    -2.1330 F     1 <1>  -0.1900 
  9 C        0.3120     3.9290    -0.8820 C.ar  1 <1>  -0.1500 
 10 N       -3.8780     2.4430     0.6090 N.4   1 <1>  -0.9590 
 11 C       -5.2620     1.7570     0.5480 C.3   1 <1>   0.4230 
 12 C       -4.0690     4.0370     0.7170 C.3   1 <1>   0.3430 
 13 C       -6.8580     1.5200     0.1470 C.3   1 <1>  -0.1600 
 14 C       -5.5300     3.0250     0.0580 C.3   1 <1>  -0.1600 
 15 C       -5.4640     4.4120     0.0280 C.3   1 <1>   0.0000 
 16 C       -7.8990     2.8430     0.0730 C.3   1 <1>   0.0000 
 17 C       -7.1310     4.3420     0.0730 C.3   1 <1>  -0.1600 
 18 C       -5.0930     5.0680    -1.3290 C.3   1 <1>  -0.2400 
 19 C       -8.7510     2.7230    -1.1970 C.3   1 <1>  -0.2400 
 20 C       -8.8440     2.7860     1.2810 C.3   1 <1>  -0.2400 
 21 H        0.9840     2.2020     1.9460 H     1 <1>   0.1500 
 22 H       -2.9610     0.9620    -0.5980 H     1 <1>   0.0800 
 23 H       -3.3570     2.4370    -1.4480 H     1 <1>   0.0800 
 24 H        2.0250     3.8340     0.3990 H     1 <1>   0.1500 
 25 H        0.7470     4.6370    -1.5670 H     1 <1>   0.1500 
 26 H       -3.3950     2.1170     1.4580 H     1 <1>   0.4500 
 27 H       -5.3830     1.5670     1.6070 H     1 <1>   0.0800 
 28 H       -3.2490     4.5570     0.2490 H     1 <1>   0.0800 
 29 H       -4.1060     4.3280     1.7540 H     1 <1>   0.0800 
 30 H       -7.2610     0.8000     0.8370 H     1 <1>   0.0800 
 31 H       -6.8810     1.0130    -0.8050 H     1 <1>   0.0800 
 32 H       -5.9090     3.1170     1.1420 H     1 <1>   0.0800 
 33 H       -5.6690     2.8380    -1.0210 H     1 <1>   0.0800 
 34 H       -7.5440     4.9370    -0.7240 H     1 <1>   0.0800 
 35 H       -7.4280     4.8650     0.9670 H     1 <1>   0.0800 
 36 H       -4.1220     4.7690    -1.6800 H     1 <1>   0.0800 
 37 H       -5.0890     6.1380    -1.2160 H     1 <1>   0.0800 
 38 H       -5.8000     4.8260    -2.1050 H     1 <1>   0.0800 
 39 H       -8.1300     2.7830    -2.0740 H     1 <1>   0.0800 
 40 H       -9.4770     3.5170    -1.2440 H     1 <1>   0.0800 
 41 H       -9.2770     1.7850    -1.2150 H     1 <1>   0.0800 
 42 H       -9.5450     3.6020     1.2510 H     1 <1>   0.0800 
 43 H       -8.2900     2.8500     2.2000 H     1 <1>   0.0800 
 44 H       -9.4040     1.8670     1.2850 H     1 <1>   0.0800 
@<TRIPOS>BOND
  1   1   2  1   
  2   2   3  ar  
  3   2   4  ar  
  4   3   5  ar  
  5   3   6  1   
  6   4   7  ar  
  7   4  21  1   
  8   5   8  1   
  9   5   9  ar  
 10   6  10  1   
 11   6  22  1   
 12   6  23  1   
 13   7   9  ar  
 14   7  24  1   
 15   9  25  1   
 16  10  11  1   
 17  10  12  1   
 18  10  26  1   
 19  11  13  1   
 20  11  14  1   
 21  11  27  1   
 22  12  15  1   
 23  12  28  1   
 24  12  29  1   
 25  13  16  1   
 26  13  30  1   
 27  13  31  1   
 28  14  15  1   
 29  14  32  1   
 30  14  33  1   
 31  15  17  1   
 32  15  18  1   
 33  16  17  1   
 34  16  19  1   
 35  16  20  1   
 36  17  34  1   
 37  17  35  1   
 38  18  36  1   
 39  18  37  1   
 40  18  38  1   
 41  19  39  1   
 42  19  40  1   
 43  19  41  1   
 44  20  42  1   
 45  20  43  1   
 46  20  44  1   
@<TRIPOS>SUBSTRUCTURE
  1 ****  10 GROUP 4 **** **** 0

# MOE 2024.06 (io_trps.svl 2023.06)
