@<TRIPOS>MOLECULE
NONAME
45 46 1 0 0 
SMALL
USER_CHARGES


@<TRIPOS>ATOM
  1 S       -0.4000    -0.6260    -0.5050 S.3   1 <1>  -0.2860 
  2 C        1.2710    -1.1620    -0.1250 C.2   1 <1>   0.2420 
  3 C       -1.4470    -1.9140     0.3350 C.3   1 <1>   0.1310 
  4 N        1.5410    -2.2020     0.5780 N.2   1 <1>  -0.3380 
  5 N        2.3510    -0.5050    -0.5450 N.pl3 1 <1>   0.0480 
  6 C       -2.9190    -1.5360     0.3070 C.2   1 <1>   0.5690 
  7 N        2.8740    -2.2570     0.6420 N.2   1 <1>  -0.3380 
  8 C        3.3400    -1.2490    -0.0240 C.2   1 <1>   0.0060 
  9 C        2.4170     0.7230    -1.3670 C.3   1 <1>   0.0960 
 10 O       -3.7320    -2.4260     0.3660 O.2   1 <1>  -0.5700 
 11 N       -3.2470    -0.2100     0.2290 N.am  1 <1>  -0.5470 
 12 C        4.8190    -0.9230    -0.2100 C.3   1 <1>   0.0200 
 13 C        2.3480     1.9720    -0.4790 C.3   1 <1>  -0.1600 
 14 C       -4.4630     0.4970     0.2010 C.ar  1 <1>   0.1170 
 15 C        5.7480    -1.8410     0.5930 C.3   1 <1>  -0.2400 
 16 C        2.4280     3.2530    -1.3160 C.3   1 <1>  -0.2400 
 17 C       -4.4100     1.8860     0.0280 C.ar  1 <1>   0.0820 
 18 C       -5.7040    -0.1140     0.3400 C.ar  1 <1>  -0.1500 
 19 O       -3.1710     2.4520    -0.1010 O.3   1 <1>  -0.3630 
 20 C       -5.5860     2.6290    -0.0050 C.ar  1 <1>  -0.1500 
 21 C       -6.8700     0.6300     0.3060 C.ar  1 <1>  -0.1500 
 22 C       -3.0180     3.8430    -0.2840 C.3   1 <1>   0.0400 
 23 C       -6.8120     2.0010     0.1340 C.ar  1 <1>  -0.1500 
 24 H       -1.1040    -1.9950     1.3500 H     1 <1>   0.0800 
 25 H       -1.2840    -2.8420    -0.1800 H     1 <1>   0.0800 
 26 H        1.5950     0.7190    -2.0620 H     1 <1>   0.0800 
 27 H        3.3320     0.7180    -1.9310 H     1 <1>   0.0800 
 28 H       -2.4480     0.4200     0.1200 H     1 <1>   0.3700 
 29 H        4.9930     0.0940     0.0940 H     1 <1>   0.0800 
 30 H        5.0640    -1.0080    -1.2540 H     1 <1>   0.0800 
 31 H        3.1620     1.9610     0.2260 H     1 <1>   0.0800 
 32 H        1.4220     1.9710     0.0710 H     1 <1>   0.0800 
 33 H        5.5260    -1.7670     1.6430 H     1 <1>   0.0800 
 34 H        6.7750    -1.5650     0.4350 H     1 <1>   0.0800 
 35 H        5.6140    -2.8640     0.2870 H     1 <1>   0.0800 
 36 H        3.3540     3.2940    -1.8630 H     1 <1>   0.0800 
 37 H        2.3760     4.1150    -0.6740 H     1 <1>   0.0800 
 38 H        1.6090     3.3010    -2.0140 H     1 <1>   0.0800 
 39 H       -5.7720    -1.1770     0.4760 H     1 <1>   0.1500 
 40 H       -5.5750     3.6940    -0.1370 H     1 <1>   0.1500 
 41 H       -7.8210     0.1390     0.4150 H     1 <1>   0.1500 
 42 H       -1.9670     4.0570    -0.3620 H     1 <1>   0.0800 
 43 H       -3.4320     4.3550     0.5670 H     1 <1>   0.0800 
 44 H       -3.5180     4.1340    -1.1910 H     1 <1>   0.0800 
 45 H       -7.7200     2.5770     0.1070 H     1 <1>   0.1500 
@<TRIPOS>BOND
  1   1   2  1   
  2   1   3  1   
  3   2   4  2   
  4   2   5  1   
  5   3   6  1   
  6   3  24  1   
  7   3  25  1   
  8   4   7  1   
  9   5   8  1   
 10   5   9  1   
 11   6  10  2   
 12   6  11  am  
 13   7   8  2   
 14   8  12  1   
 15   9  13  1   
 16   9  26  1   
 17   9  27  1   
 18  11  14  1   
 19  11  28  1   
 20  12  15  1   
 21  12  29  1   
 22  12  30  1   
 23  13  16  1   
 24  13  31  1   
 25  13  32  1   
 26  14  17  ar  
 27  14  18  ar  
 28  15  33  1   
 29  15  34  1   
 30  15  35  1   
 31  16  36  1   
 32  16  37  1   
 33  16  38  1   
 34  17  19  1   
 35  17  20  ar  
 36  18  21  ar  
 37  18  39  1   
 38  19  22  1   
 39  20  23  ar  
 40  20  40  1   
 41  21  23  ar  
 42  21  41  1   
 43  22  42  1   
 44  22  43  1   
 45  22  44  1   
 46  23  45  1   
@<TRIPOS>SUBSTRUCTURE
  1 ****   1 GROUP 4 **** **** 0

# MOE 2024.06 (io_trps.svl 2023.06)
