@<TRIPOS>MOLECULE
NONAME
47 50 1 0 0 
SMALL
USER_CHARGES


@<TRIPOS>ATOM
  1 O        0.5880     1.0070     2.1330 O.2   1 <1>  -0.5700 
  2 C       -0.0340     1.5320     1.2400 C.2   1 <1>   0.5690 
  3 N        0.5330     1.9480     0.0800 N.am  1 <1>  -0.7300 
  4 C       -1.5240     1.7580     1.4170 C.3   1 <1>   0.0440 
  5 C        1.9150     1.8050    -0.3930 C.3   1 <1>   0.3000 
  6 C       -2.3430     1.1890     0.2570 C.ar  1 <1>  -0.1440 
  7 C        1.9900     2.4320    -1.7970 C.3   1 <1>  -0.1600 
  8 C        2.3060     0.3190    -0.4880 C.3   1 <1>  -0.1600 
  9 C        2.8930     2.5440     0.5390 C.3   1 <1>  -0.1600 
 10 C       -2.5090     1.8940    -0.9350 C.ar  1 <1>   0.0830 
 11 C       -2.9290    -0.0600     0.3980 C.ar  1 <1>  -0.1500 
 12 C        3.4200     2.3140    -2.3590 C.3   1 <1>  -0.0800 
 13 C        3.7400     0.1870    -1.0360 C.3   1 <1>  -0.0800 
 14 C        4.3300     2.4210    -0.0060 C.3   1 <1>  -0.0800 
 15 O       -1.9030     3.1070    -1.0460 O.3   1 <1>  -0.3630 
 16 C       -3.2690     1.3390    -1.9630 C.ar  1 <1>  -0.1500 
 17 C       -3.6810    -0.6060    -0.6270 C.ar  1 <1>  -0.1500 
 18 C        3.8080     0.8250    -2.4370 C.3   1 <1>  -0.1600 
 19 C        4.3940     3.0430    -1.4140 C.3   1 <1>  -0.1600 
 20 C        4.7100     0.9290    -0.0950 C.3   1 <1>  -0.1600 
 21 C       -2.0960     3.9330    -2.1740 C.3   1 <1>   0.0400 
 22 C       -3.8520     0.0950    -1.8060 C.ar  1 <1>  -0.1500 
 23 H       -0.1100     2.3390    -0.6150 H     1 <1>   0.3700 
 24 H       -1.7010     2.8130     1.5110 H     1 <1>   0.0800 
 25 H       -1.8330     1.3020     2.3390 H     1 <1>   0.0800 
 26 H        1.7120     3.4700    -1.7460 H     1 <1>   0.0800 
 27 H        1.3060     1.9290    -2.4570 H     1 <1>   0.0800 
 28 H        1.6190    -0.1990    -1.1340 H     1 <1>   0.0800 
 29 H        2.2570    -0.1350     0.4850 H     1 <1>   0.0800 
 30 H        2.8530     2.1180     1.5250 H     1 <1>   0.0800 
 31 H        2.6180     3.5810     0.6090 H     1 <1>   0.0800 
 32 H       -2.8000    -0.6180     1.3090 H     1 <1>   0.1500 
 33 H        3.4650     2.7540    -3.3400 H     1 <1>   0.0800 
 34 H        4.0130    -0.8530    -1.0940 H     1 <1>   0.0800 
 35 H        5.0130     2.9320     0.6520 H     1 <1>   0.0800 
 36 H       -3.4180     1.8550    -2.8910 H     1 <1>   0.1500 
 37 H       -4.1310    -1.5760    -0.5050 H     1 <1>   0.1500 
 38 H        4.8050     0.7290    -2.8320 H     1 <1>   0.0800 
 39 H        3.1420     0.3080    -3.1050 H     1 <1>   0.0800 
 40 H        4.1410     4.0880    -1.3620 H     1 <1>   0.0800 
 41 H        5.3970     2.9700    -1.7980 H     1 <1>   0.0800 
 42 H        5.7170     0.8310    -0.4580 H     1 <1>   0.0800 
 43 H        4.6720     0.4870     0.8860 H     1 <1>   0.0800 
 44 H       -1.5560     4.8490    -2.0130 H     1 <1>   0.0800 
 45 H       -3.1460     4.1420    -2.2770 H     1 <1>   0.0800 
 46 H       -1.7140     3.4320    -3.0450 H     1 <1>   0.0800 
 47 H       -4.4380    -0.3310    -2.6020 H     1 <1>   0.1500 
@<TRIPOS>BOND
  1   1   2  2   
  2   2   3  am  
  3   2   4  1   
  4   3   5  1   
  5   3  23  1   
  6   4   6  1   
  7   4  24  1   
  8   4  25  1   
  9   5   7  1   
 10   5   8  1   
 11   5   9  1   
 12   6  10  ar  
 13   6  11  ar  
 14   7  12  1   
 15   7  26  1   
 16   7  27  1   
 17   8  13  1   
 18   8  28  1   
 19   8  29  1   
 20   9  14  1   
 21   9  30  1   
 22   9  31  1   
 23  10  15  1   
 24  10  16  ar  
 25  11  17  ar  
 26  11  32  1   
 27  12  18  1   
 28  12  19  1   
 29  12  33  1   
 30  13  18  1   
 31  13  20  1   
 32  13  34  1   
 33  14  19  1   
 34  14  20  1   
 35  14  35  1   
 36  15  21  1   
 37  16  22  ar  
 38  16  36  1   
 39  17  22  ar  
 40  17  37  1   
 41  18  38  1   
 42  18  39  1   
 43  19  40  1   
 44  19  41  1   
 45  20  42  1   
 46  20  43  1   
 47  21  44  1   
 48  21  45  1   
 49  21  46  1   
 50  22  47  1   
@<TRIPOS>SUBSTRUCTURE
  1 ****   3 GROUP 4 **** **** 0

# MOE 2024.06 (io_trps.svl 2023.06)
