@<TRIPOS>MOLECULE
NONAME
40 43 1 0 0 
SMALL
USER_CHARGES


@<TRIPOS>ATOM
  1 O        0.3590     0.5460    -0.9510 O.2   1 <1>  -0.5700 
  2 C        0.2500     1.6910    -0.5420 C.2   1 <1>   0.6160 
  3 N        1.3760     2.4910    -0.5060 N.am  1 <1>  -0.1800 
  4 C       -1.0060     2.2720    -0.1880 C.2   1 <1>  -0.1240 
  5 C        2.6750     2.0070    -0.5310 C.2   1 <1>   0.5690 
  6 C        1.1660     3.8480    -0.4910 C.2   1 <1>   0.4500 
  7 C       -1.0970     3.6360    -0.1750 C.2   1 <1>   0.1430 
  8 C       -2.2620     1.4130     0.1080 C.3   1 <1>   0.1380 
  9 O        3.5830     2.6650    -0.9690 O.2   1 <1>  -0.5700 
 10 C        3.0290     0.6530     0.0560 C.3   1 <1>  -0.1790 
 11 N        0.0270     4.4120    -0.3460 N.2   1 <1>  -0.6210 
 12 C       -2.3600     4.3310    -0.0210 C.ar  1 <1>   0.0280 
 13 C       -3.2650     2.2230     0.9740 C.3   1 <1>  -0.0170 
 14 C       -2.9300     0.9720    -1.2020 C.3   1 <1>  -0.1600 
 15 C       -2.0430     0.0700     0.8410 C.3   1 <1>  -0.1600 
 16 C       -3.4570     3.6520     0.5040 C.ar  1 <1>  -0.1440 
 17 C       -2.5470     5.6600    -0.4060 C.ar  1 <1>  -0.1500 
 18 C       -3.7590    -0.2760    -0.8740 C.3   1 <1>  -0.1600 
 19 C       -3.2440    -0.8050     0.4700 C.3   1 <1>  -0.1600 
 20 C       -4.6910     4.2700     0.6250 C.ar  1 <1>  -0.1500 
 21 C       -3.7750     6.2820    -0.2840 C.ar  1 <1>  -0.1500 
 22 C       -4.8530     5.5850     0.2290 C.ar  1 <1>  -0.1500 
 23 H        2.0370     4.4710    -0.6070 H     1 <1>   0.0600 
 24 H        2.4160     0.4380     0.9120 H     1 <1>   0.0800 
 25 H        4.0600     0.6480     0.3600 H     1 <1>   0.0800 
 26 H        2.8870    -0.1110    -0.6860 H     1 <1>   0.0800 
 27 H       -2.8930     2.2780     1.9820 H     1 <1>   0.0800 
 28 H       -4.2180     1.7290     1.0130 H     1 <1>   0.0800 
 29 H       -2.1710     0.6980    -1.9140 H     1 <1>   0.0800 
 30 H       -3.5320     1.7530    -1.6340 H     1 <1>   0.0800 
 31 H       -1.9490     0.1860     1.9060 H     1 <1>   0.0800 
 32 H       -1.1700    -0.4460     0.4960 H     1 <1>   0.0800 
 33 H       -1.7190     6.2140    -0.8120 H     1 <1>   0.1500 
 34 H       -3.6450    -1.0150    -1.6490 H     1 <1>   0.0800 
 35 H       -4.8020    -0.0210    -0.7920 H     1 <1>   0.0800 
 36 H       -4.0140    -0.7110     1.2170 H     1 <1>   0.0800 
 37 H       -2.9600    -1.8420     0.4000 H     1 <1>   0.0800 
 38 H       -5.5320     3.7350     1.0310 H     1 <1>   0.1500 
 39 H       -3.8930     7.3070    -0.5900 H     1 <1>   0.1500 
 40 H       -5.8110     6.0650     0.3240 H     1 <1>   0.1500 
@<TRIPOS>BOND
  1   1   2  2   
  2   2   3  am  
  3   2   4  1   
  4   3   5  am  
  5   3   6  1   
  6   4   7  2   
  7   4   8  1   
  8   5   9  2   
  9   5  10  1   
 10   6  11  2   
 11   6  23  1   
 12   7  11  1   
 13   7  12  1   
 14   8  13  1   
 15   8  14  1   
 16   8  15  1   
 17  10  24  1   
 18  10  25  1   
 19  10  26  1   
 20  12  16  ar  
 21  12  17  ar  
 22  13  16  1   
 23  13  27  1   
 24  13  28  1   
 25  14  18  1   
 26  14  29  1   
 27  14  30  1   
 28  15  19  1   
 29  15  31  1   
 30  15  32  1   
 31  16  20  ar  
 32  17  21  ar  
 33  17  33  1   
 34  18  19  1   
 35  18  34  1   
 36  18  35  1   
 37  19  36  1   
 38  19  37  1   
 39  20  22  ar  
 40  20  38  1   
 41  21  22  ar  
 42  21  39  1   
 43  22  40  1   
@<TRIPOS>SUBSTRUCTURE
  1 ****   4 GROUP 4 **** **** 0

# MOE 2024.06 (io_trps.svl 2023.06)
