@<TRIPOS>MOLECULE
NONAME
57 59 1 0 0 
SMALL
USER_CHARGES


@<TRIPOS>ATOM
  1 O       -0.6170    -0.1750    -1.9960 O.2   1 <1>  -0.5700 
  2 C        0.1240    -0.7940    -1.2520 C.2   1 <1>   0.5440 
  3 N        0.4680    -0.2230    -0.0370 N.am  1 <1>  -0.6600 
  4 C        0.6030    -2.0710    -1.7180 C.ar  1 <1>   0.0860 
  5 C        0.2740     1.2510     0.1400 C.3   1 <1>   0.2200 
  6 C        1.2290    -0.8360     1.0950 C.3   1 <1>   0.2200 
  7 C       -0.1960    -3.2220    -1.6280 C.ar  1 <1>   0.1170 
  8 C        1.8730    -2.1700    -2.2870 C.ar  1 <1>  -0.1500 
  9 C        1.4430     1.8930     0.9220 C.3   1 <1>  -0.1600 
 10 C       -1.0690     1.5030     0.8250 C.3   1 <1>  -0.2400 
 11 C        2.6780    -0.3250     1.0430 C.3   1 <1>  -0.1600 
 12 C        1.1510    -2.3560     1.2360 C.3   1 <1>  -0.2400 
 13 N       -1.4610    -3.1410    -1.0240 N.am  1 <1>  -0.5470 
 14 C        0.3000    -4.4240    -2.1280 C.ar  1 <1>  -0.1500 
 15 C        2.3530    -3.3720    -2.7660 C.ar  1 <1>  -0.1500 
 16 C        2.7720     1.1650     0.6550 C.3   1 <1>  -0.1600 
 17 C       -2.1760    -4.0590    -0.3010 C.2   1 <1>   0.5690 
 18 C        1.5600    -4.5040    -2.6880 C.ar  1 <1>  -0.1500 
 19 O       -1.9030    -5.2350    -0.2580 O.2   1 <1>  -0.5700 
 20 C       -3.3610    -3.5610     0.5150 C.3   1 <1>   0.1810 
 21 O       -2.9950    -2.4070     1.2620 O.3   1 <1>  -0.3630 
 22 C       -3.7430    -1.2760     1.1710 C.ar  1 <1>   0.0820 
 23 C       -4.0910    -0.6720    -0.0440 C.ar  1 <1>   0.0820 
 24 C       -4.1370    -0.7010     2.3670 C.ar  1 <1>  -0.1500 
 25 O       -3.6520    -1.2280    -1.2090 O.3   1 <1>  -0.3630 
 26 C       -4.8570     0.4900    -0.0260 C.ar  1 <1>  -0.1500 
 27 C       -4.8930     0.4580     2.3730 C.ar  1 <1>  -0.1500 
 28 C       -3.6260    -0.4830    -2.4090 C.3   1 <1>   0.0400 
 29 C       -5.2550     1.0500     1.1760 C.ar  1 <1>  -0.1500 
 30 H        0.2520     1.7140    -0.8320 H     1 <1>   0.0800 
 31 H        0.7850    -0.4520     1.9990 H     1 <1>   0.0800 
 32 H        2.4800    -1.2850    -2.3520 H     1 <1>   0.1500 
 33 H        1.2340     1.8710     1.9770 H     1 <1>   0.0800 
 34 H        1.5260     2.9270     0.6380 H     1 <1>   0.0800 
 35 H       -1.1060     1.0280     1.7870 H     1 <1>   0.0800 
 36 H       -1.8620     1.1150     0.2120 H     1 <1>   0.0800 
 37 H       -1.2270     2.5580     0.9510 H     1 <1>   0.0800 
 38 H        3.2470    -0.9110     0.3430 H     1 <1>   0.0800 
 39 H        3.1180    -0.4700     2.0140 H     1 <1>   0.0800 
 40 H        1.7230    -2.8610     0.4810 H     1 <1>   0.0800 
 41 H        0.1270    -2.6800     1.2090 H     1 <1>   0.0800 
 42 H        1.5580    -2.6430     2.1880 H     1 <1>   0.0800 
 43 H       -1.8530    -2.1890    -0.9600 H     1 <1>   0.3700 
 44 H       -0.3040    -5.3120    -2.0790 H     1 <1>   0.1500 
 45 H        3.3350    -3.4320    -3.2020 H     1 <1>   0.1500 
 46 H        3.5740     1.6390     1.1940 H     1 <1>   0.0800 
 47 H        2.9920     1.2380    -0.3970 H     1 <1>   0.0800 
 48 H        1.9240    -5.4450    -3.0630 H     1 <1>   0.1500 
 49 H       -3.6530    -4.3190     1.2170 H     1 <1>   0.0800 
 50 H       -4.1950    -3.3450    -0.1250 H     1 <1>   0.0800 
 51 H       -3.8500    -1.1650     3.2930 H     1 <1>   0.1500 
 52 H       -5.1540     0.9740    -0.9370 H     1 <1>   0.1500 
 53 H       -5.1970     0.8980     3.3070 H     1 <1>   0.1500 
 54 H       -3.0700    -1.0440    -3.1390 H     1 <1>   0.0800 
 55 H       -3.1320     0.4560    -2.2280 H     1 <1>   0.0800 
 56 H       -4.6330    -0.3310    -2.7510 H     1 <1>   0.0800 
 57 H       -5.8450     1.9510     1.1810 H     1 <1>   0.1500 
@<TRIPOS>BOND
  1   1   2  2   
  2   2   3  am  
  3   2   4  1   
  4   3   5  1   
  5   3   6  1   
  6   4   7  ar  
  7   4   8  ar  
  8   5   9  1   
  9   5  10  1   
 10   5  30  1   
 11   6  11  1   
 12   6  12  1   
 13   6  31  1   
 14   7  13  1   
 15   7  14  ar  
 16   8  15  ar  
 17   8  32  1   
 18   9  16  1   
 19   9  33  1   
 20   9  34  1   
 21  10  35  1   
 22  10  36  1   
 23  10  37  1   
 24  11  16  1   
 25  11  38  1   
 26  11  39  1   
 27  12  40  1   
 28  12  41  1   
 29  12  42  1   
 30  13  17  am  
 31  13  43  1   
 32  14  18  ar  
 33  14  44  1   
 34  15  18  ar  
 35  15  45  1   
 36  16  46  1   
 37  16  47  1   
 38  17  19  2   
 39  17  20  1   
 40  18  48  1   
 41  20  21  1   
 42  20  49  1   
 43  20  50  1   
 44  21  22  1   
 45  22  23  ar  
 46  22  24  ar  
 47  23  25  1   
 48  23  26  ar  
 49  24  27  ar  
 50  24  51  1   
 51  25  28  1   
 52  26  29  ar  
 53  26  52  1   
 54  27  29  ar  
 55  27  53  1   
 56  28  54  1   
 57  28  55  1   
 58  28  56  1   
 59  29  57  1   
@<TRIPOS>SUBSTRUCTURE
  1 ****   2 GROUP 4 **** **** 0

# MOE 2024.06 (io_trps.svl 2023.06)
