@<TRIPOS>MOLECULE
NONAME
42 44 1 0 0 
SMALL
USER_CHARGES


@<TRIPOS>ATOM
  1 O        0.4840     0.0020    -0.5360 O.3   1 <1>  -0.3620 
  2 C        0.4450    -1.3560    -0.4180 C.ar  1 <1>   0.0830 
  3 C        1.6090     0.6710    -1.0660 C.3   1 <1>   0.0400 
  4 C        1.5640    -2.1850    -0.0890 C.ar  1 <1>   0.3100 
  5 C       -0.7940    -1.9040    -0.6360 C.ar  1 <1>  -0.1500 
  6 N        2.7850    -1.6410     0.1680 N.ar  1 <1>  -0.6200 
  7 C        1.3500    -3.5880    -0.0290 C.ar  1 <1>   0.0000 
  8 C       -0.9930    -3.2800    -0.5680 C.ar  1 <1>  -0.1500 
  9 C        3.7870    -2.4240     0.4460 C.ar  1 <1>   0.4100 
 10 C        2.4490    -4.4200     0.2910 C.ar  1 <1>  -0.1440 
 11 C        0.0590    -4.1000    -0.2740 C.ar  1 <1>  -0.1500 
 12 N        5.0200    -1.8340     0.6740 N.pl3 1 <1>  -0.8380 
 13 C        3.6450    -3.8210     0.5260 C.ar  1 <1>  -0.1500 
 14 C        2.3160    -5.9340     0.3840 C.3   1 <1>  -0.0970 
 15 C        6.2840    -2.4340     0.1700 C.3   1 <1>   0.2090 
 16 C        5.0930    -0.5520     1.4270 C.3   1 <1>   0.2090 
 17 C        7.0560    -1.4890    -0.7590 C.3   1 <1>  -0.1600 
 18 C        5.3000     0.6180     0.4620 C.3   1 <1>  -0.1600 
 19 C        7.6930    -0.2960    -0.0290 C.3   1 <1>  -0.1600 
 20 C        6.7680     0.9230     0.1150 C.3   1 <1>  -0.1600 
 21 H        1.2860     1.6190    -1.4540 H     1 <1>   0.0800 
 22 H        2.0390     0.0740    -1.8510 H     1 <1>   0.0800 
 23 H        2.3210     0.8240    -0.2750 H     1 <1>   0.0800 
 24 H       -1.6250    -1.2620    -0.8690 H     1 <1>   0.1500 
 25 H       -1.9760    -3.6790    -0.7490 H     1 <1>   0.1500 
 26 H       -0.1090    -5.1600    -0.2280 H     1 <1>   0.1500 
 27 H        4.5090    -4.3950     0.7940 H     1 <1>   0.1500 
 28 H        1.6020    -6.1960     1.1450 H     1 <1>   0.0800 
 29 H        3.2570    -6.3880     0.6350 H     1 <1>   0.0800 
 30 H        1.9900    -6.3340    -0.5600 H     1 <1>   0.0800 
 31 H        6.0570    -3.3260    -0.3870 H     1 <1>   0.0800 
 32 H        6.8990    -2.7150     1.0070 H     1 <1>   0.0800 
 33 H        5.8820    -0.5940     2.1570 H     1 <1>   0.0800 
 34 H        4.1670    -0.4080     1.9570 H     1 <1>   0.0800 
 35 H        6.4180    -1.1590    -1.5600 H     1 <1>   0.0800 
 36 H        7.8490    -2.0640    -1.2030 H     1 <1>   0.0800 
 37 H        4.8720     1.5000     0.9030 H     1 <1>   0.0800 
 38 H        4.7460     0.4170    -0.4380 H     1 <1>   0.0800 
 39 H        8.5670     0.0180    -0.5740 H     1 <1>   0.0800 
 40 H        8.0280    -0.6110     0.9440 H     1 <1>   0.0800 
 41 H        7.1800     1.5640     0.8760 H     1 <1>   0.0800 
 42 H        6.7800     1.4790    -0.8060 H     1 <1>   0.0800 
@<TRIPOS>BOND
  1   1   2  1   
  2   1   3  1   
  3   2   4  ar  
  4   2   5  ar  
  5   3  21  1   
  6   3  22  1   
  7   3  23  1   
  8   4   6  ar  
  9   4   7  ar  
 10   5   8  ar  
 11   5  24  1   
 12   6   9  ar  
 13   7  10  ar  
 14   7  11  ar  
 15   8  11  ar  
 16   8  25  1   
 17   9  12  1   
 18   9  13  ar  
 19  10  13  ar  
 20  10  14  1   
 21  11  26  1   
 22  12  15  1   
 23  12  16  1   
 24  13  27  1   
 25  14  28  1   
 26  14  29  1   
 27  14  30  1   
 28  15  17  1   
 29  15  31  1   
 30  15  32  1   
 31  16  18  1   
 32  16  33  1   
 33  16  34  1   
 34  17  19  1   
 35  17  35  1   
 36  17  36  1   
 37  18  20  1   
 38  18  37  1   
 39  18  38  1   
 40  19  20  1   
 41  19  39  1   
 42  19  40  1   
 43  20  41  1   
 44  20  42  1   
@<TRIPOS>SUBSTRUCTURE
  1 ****   6 GROUP 4 **** **** 0

# MOE 2024.06 (io_trps.svl 2023.06)
