@<TRIPOS>MOLECULE
NONAME
47 48 1 0 0 
SMALL
USER_CHARGES


@<TRIPOS>ATOM
  1 CL      -0.1460     0.1490    -1.8860 Cl    1 <1>  -0.1770 
  2 C        1.3620     0.7680    -1.2440 C.ar  1 <1>   0.1770 
  3 C        1.3690     1.9050    -0.4390 C.ar  1 <1>   0.0820 
  4 C        2.5300     0.1090    -1.5590 C.ar  1 <1>  -0.1500 
  5 O        0.2390     2.5670    -0.1250 O.3   1 <1>  -0.3630 
  6 C        2.5750     2.3830     0.0330 C.ar  1 <1>  -0.1500 
  7 C        3.7650     0.5670    -1.0790 C.ar  1 <1>   0.0280 
  8 C       -0.5770     2.0060     0.8880 C.3   1 <1>   0.1810 
  9 C        3.7530     1.7230    -0.2800 C.ar  1 <1>   0.0830 
 10 C        5.0320    -0.0620    -1.3500 C.2   1 <1>  -0.1670 
 11 C       -1.7950     2.8800     1.1620 C.2   1 <1>   0.4480 
 12 O        4.9020     2.2290     0.2060 O.3   1 <1>  -0.2330 
 13 C        6.1650     0.5040    -0.8520 C.2   1 <1>  -0.1240 
 14 C        5.0150    -1.3490    -2.1800 C.3   1 <1>  -0.1020 
 15 O       -1.8420     3.5050     2.1840 O.2   1 <1>  -0.5700 
 16 C       -2.9580     2.8960     0.1340 C.3   1 <1>   0.0610 
 17 C        6.0970     1.6950    -0.0460 C.2   1 <1>   0.7060 
 18 C        7.5710    -0.0650    -1.0820 C.3   1 <1>   0.0390 
 19 C       -3.5490     1.4850    -0.0500 C.3   1 <1>  -0.2400 
 20 C       -2.4970     3.4200    -1.2390 C.3   1 <1>  -0.2400 
 21 C       -4.1000     3.8160     0.6170 C.3   1 <1>  -0.2400 
 22 O        7.0650     2.2630     0.4180 O.2   1 <1>  -0.5700 
 23 C        7.8730    -1.1950    -0.1190 C.2   1 <1>   0.6590 
 24 O        8.0670    -2.3170    -0.5120 O.2   1 <1>  -0.5700 
 25 O        7.9040    -0.8820     1.1700 O.3   1 <1>  -0.4300 
 26 C        8.1730    -1.8450     2.1660 C.3   1 <1>   0.0400 
 27 H        2.4670    -0.7610    -2.1840 H     1 <1>   0.1500 
 28 H        2.6000     3.2690     0.6430 H     1 <1>   0.1500 
 29 H        0.0140     1.9390     1.7830 H     1 <1>   0.0800 
 30 H       -0.8750     1.0190     0.5930 H     1 <1>   0.0800 
 31 H        4.6580    -1.1420    -3.1730 H     1 <1>   0.0800 
 32 H        4.3630    -2.0710    -1.7200 H     1 <1>   0.0800 
 33 H        5.9780    -1.8140    -2.2670 H     1 <1>   0.0800 
 34 H        8.3270     0.6880    -0.9620 H     1 <1>   0.0800 
 35 H        7.6680    -0.4270    -2.0870 H     1 <1>   0.0800 
 36 H       -3.8560     1.0820     0.8990 H     1 <1>   0.0800 
 37 H       -2.8330     0.8170    -0.4930 H     1 <1>   0.0800 
 38 H       -4.4090     1.5180    -0.6970 H     1 <1>   0.0800 
 39 H       -1.7900     2.7500    -1.6930 H     1 <1>   0.0800 
 40 H       -2.0310     4.3840    -1.1310 H     1 <1>   0.0800 
 41 H       -3.3320     3.5200    -1.9100 H     1 <1>   0.0800 
 42 H       -4.4770     3.4770     1.5660 H     1 <1>   0.0800 
 43 H       -4.9120     3.8310    -0.0870 H     1 <1>   0.0800 
 44 H       -3.7390     4.8220     0.7420 H     1 <1>   0.0800 
 45 H        8.1490    -1.3590     3.1250 H     1 <1>   0.0800 
 46 H        9.1470    -2.2670     1.9870 H     1 <1>   0.0800 
 47 H        7.4210    -2.6140     2.1190 H     1 <1>   0.0800 
@<TRIPOS>BOND
  1   1   2  1   
  2   2   3  ar  
  3   2   4  ar  
  4   3   5  1   
  5   3   6  ar  
  6   4   7  ar  
  7   4  27  1   
  8   5   8  1   
  9   6   9  ar  
 10   6  28  1   
 11   7   9  ar  
 12   7  10  1   
 13   8  11  1   
 14   8  29  1   
 15   8  30  1   
 16   9  12  1   
 17  10  13  2   
 18  10  14  1   
 19  11  15  2   
 20  11  16  1   
 21  12  17  1   
 22  13  17  1   
 23  13  18  1   
 24  14  31  1   
 25  14  32  1   
 26  14  33  1   
 27  16  19  1   
 28  16  20  1   
 29  16  21  1   
 30  17  22  2   
 31  18  23  1   
 32  18  34  1   
 33  18  35  1   
 34  19  36  1   
 35  19  37  1   
 36  19  38  1   
 37  20  39  1   
 38  20  40  1   
 39  20  41  1   
 40  21  42  1   
 41  21  43  1   
 42  21  44  1   
 43  23  24  2   
 44  23  25  1   
 45  25  26  1   
 46  26  45  1   
 47  26  46  1   
 48  26  47  1   
@<TRIPOS>SUBSTRUCTURE
  1 ****   9 GROUP 4 **** **** 0

# MOE 2024.06 (io_trps.svl 2023.06)
