@<TRIPOS>MOLECULE
NONAME
44 46 1 0 0 
SMALL
USER_CHARGES


@<TRIPOS>ATOM
  1 O       -0.2860    -1.1230     1.8510 O.2   1 <1>  -0.5700 
  2 C       -0.1940    -1.5640     0.7200 C.2   1 <1>   0.6900 
  3 N       -1.2300    -2.2510     0.1430 N.am  1 <1>  -0.6600 
  4 N        0.9490    -1.3950     0.0280 N.am  1 <1>  -0.7300 
  5 C       -2.3790    -2.7370     0.9540 C.3   1 <1>   0.1400 
  6 C       -1.3440    -2.5460    -1.3110 C.3   1 <1>   0.1400 
  7 C        2.1970    -0.8910     0.6120 C.3   1 <1>   0.5070 
  8 C       -2.5270    -4.2520     0.7690 C.3   1 <1>  -0.1600 
  9 C       -1.4640    -4.0600    -1.5140 C.3   1 <1>  -0.1600 
 10 C        2.6380     0.4200    -0.0610 C.ar  1 <1>  -0.1440 
 11 C        3.2110    -2.0230     0.4480 C.ar  1 <1>  -0.1440 
 12 C       -2.6390    -4.6400    -0.7130 C.3   1 <1>  -0.1600 
 13 C        3.9790     0.7900    -0.0650 C.ar  1 <1>  -0.1500 
 14 C        1.7170     1.2790    -0.6520 C.ar  1 <1>  -0.1500 
 15 C        3.7750    -2.3090    -0.7890 C.ar  1 <1>  -0.1500 
 16 C        3.5660    -2.7960     1.5440 C.ar  1 <1>  -0.1500 
 17 C        4.3900     1.9700    -0.6610 C.ar  1 <1>  -0.1500 
 18 C        2.1250     2.4590    -1.2490 C.ar  1 <1>  -0.1500 
 19 C        4.6830    -3.3450    -0.9250 C.ar  1 <1>  -0.1500 
 20 C        4.4740    -3.8320     1.4100 C.ar  1 <1>  -0.1500 
 21 C        3.4640     2.8050    -1.2560 C.ar  1 <1>  -0.1500 
 22 C        5.0340    -4.1070     0.1750 C.ar  1 <1>  -0.1500 
 23 H        1.1080    -2.0230    -0.7500 H     1 <1>   0.3700 
 24 H       -3.2740    -2.2340     0.6290 H     1 <1>   0.0800 
 25 H       -2.2310    -2.5150     1.9970 H     1 <1>   0.0800 
 26 H       -0.4990    -2.1660    -1.8560 H     1 <1>   0.0800 
 27 H       -2.2250    -2.0590    -1.6930 H     1 <1>   0.0800 
 28 H        2.0570    -0.6900     1.6610 H     1 <1>   0.0800 
 29 H       -3.4000    -4.5890     1.2990 H     1 <1>   0.0800 
 30 H       -1.6720    -4.7350     1.2070 H     1 <1>   0.0800 
 31 H       -0.5450    -4.5270    -1.2030 H     1 <1>   0.0800 
 32 H       -1.6020    -4.2700    -2.5600 H     1 <1>   0.0800 
 33 H       -3.5640    -4.2600    -1.1110 H     1 <1>   0.0800 
 34 H       -2.6510    -5.7120    -0.8080 H     1 <1>   0.0800 
 35 H        4.7190     0.1600     0.3980 H     1 <1>   0.1500 
 36 H        0.6670     1.0400    -0.6490 H     1 <1>   0.1500 
 37 H        3.5130    -1.7200    -1.6520 H     1 <1>   0.1500 
 38 H        3.1310    -2.5980     2.5100 H     1 <1>   0.1500 
 39 H        5.4330     2.2370    -0.6590 H     1 <1>   0.1500 
 40 H        1.3990     3.1090    -1.7040 H     1 <1>   0.1500 
 41 H        5.1180    -3.5570    -1.8870 H     1 <1>   0.1500 
 42 H        4.7430    -4.4250     2.2660 H     1 <1>   0.1500 
 43 H        3.7820     3.7220    -1.7200 H     1 <1>   0.1500 
 44 H        5.7400    -4.9120     0.0700 H     1 <1>   0.1500 
@<TRIPOS>BOND
  1   1   2  2   
  2   2   3  am  
  3   2   4  am  
  4   3   5  1   
  5   3   6  1   
  6   4   7  1   
  7   4  23  1   
  8   5   8  1   
  9   5  24  1   
 10   5  25  1   
 11   6   9  1   
 12   6  26  1   
 13   6  27  1   
 14   7  10  1   
 15   7  11  1   
 16   7  28  1   
 17   8  12  1   
 18   8  29  1   
 19   8  30  1   
 20   9  12  1   
 21   9  31  1   
 22   9  32  1   
 23  10  13  ar  
 24  10  14  ar  
 25  11  15  ar  
 26  11  16  ar  
 27  12  33  1   
 28  12  34  1   
 29  13  17  ar  
 30  13  35  1   
 31  14  18  ar  
 32  14  36  1   
 33  15  19  ar  
 34  15  37  1   
 35  16  20  ar  
 36  16  38  1   
 37  17  21  ar  
 38  17  39  1   
 39  18  21  ar  
 40  18  40  1   
 41  19  22  ar  
 42  19  41  1   
 43  20  22  ar  
 44  20  42  1   
 45  21  43  1   
 46  22  44  1   
@<TRIPOS>SUBSTRUCTURE
  1 ****   4 GROUP 4 **** **** 0

# MOE 2024.06 (io_trps.svl 2023.06)
