@<TRIPOS>MOLECULE
NONAME
51 53 1 0 0 
SMALL
USER_CHARGES


@<TRIPOS>ATOM
  1 F        3.0350    -0.5980     3.5470 F     1 <1>  -0.1900 
  2 C        3.9270    -0.3800     2.6140 C.ar  1 <1>   0.1900 
  3 C        5.2640    -0.5520     2.9170 C.ar  1 <1>  -0.1500 
  4 C        3.4970     0.0140     1.3600 C.ar  1 <1>  -0.1500 
  5 C        6.2020    -0.3190     1.9260 C.ar  1 <1>  -0.1500 
  6 C        4.4480     0.2430     0.3810 C.ar  1 <1>  -0.1500 
  7 C        5.8020     0.0800     0.6510 C.ar  1 <1>   0.1000 
  8 N        6.7280     0.3200    -0.3560 N.pl3 1 <1>  -0.8380 
  9 C        7.5830     1.5310    -0.1790 C.3   1 <1>   0.2090 
 10 C        7.5190    -0.8590    -0.8210 C.3   1 <1>   0.2090 
 11 C        8.4080     1.8160    -1.4470 C.3   1 <1>   0.1100 
 12 C        8.3570    -0.5170    -2.0690 C.3   1 <1>   0.1100 
 13 N        9.2400     0.6470    -1.8370 N.3   1 <1>  -0.8100 
 14 C       10.0770     0.9470    -3.0390 C.3   1 <1>   0.1710 
 15 C       11.2430     1.8990    -2.7560 C.2   1 <1>   0.5690 
 16 O       11.7630     2.4860    -3.6750 O.2   1 <1>  -0.5700 
 17 N       11.6100     2.0330    -1.4510 N.am  1 <1>  -0.5470 
 18 C       12.4770     2.9040    -0.7700 C.ar  1 <1>   0.1170 
 19 C       12.2770     3.1130     0.5980 C.ar  1 <1>   0.0830 
 20 C       13.5240     3.5590    -1.4070 C.ar  1 <1>  -0.1500 
 21 O       11.2340     2.4510     1.1880 O.3   1 <1>  -0.3630 
 22 C       13.1190     3.9680     1.2990 C.ar  1 <1>  -0.1500 
 23 C       14.3600     4.4110    -0.7060 C.ar  1 <1>  -0.1500 
 24 C       10.9880     2.5660     2.5720 C.3   1 <1>   0.0400 
 25 C       14.1580     4.6190     0.6540 C.ar  1 <1>   0.0830 
 26 O       14.9290     5.4380     1.4170 O.3   1 <1>  -0.3620 
 27 C       16.0010     6.1580     0.8510 C.3   1 <1>   0.0400 
 28 H        5.5580    -0.8600     3.9040 H     1 <1>   0.1500 
 29 H        2.4490     0.1370     1.1610 H     1 <1>   0.1500 
 30 H        7.2480    -0.4430     2.1330 H     1 <1>   0.1500 
 31 H        4.1540     0.5500    -0.6060 H     1 <1>   0.1500 
 32 H        8.2530     1.3860     0.6510 H     1 <1>   0.0800 
 33 H        6.9570     2.3780     0.0380 H     1 <1>   0.0800 
 34 H        6.8450    -1.6660    -1.0520 H     1 <1>   0.0800 
 35 H        8.1770    -1.1850    -0.0350 H     1 <1>   0.0800 
 36 H        9.0340     2.6710    -1.2590 H     1 <1>   0.0800 
 37 H        7.7330     2.0700    -2.2470 H     1 <1>   0.0800 
 38 H        7.6890    -0.3140    -2.8890 H     1 <1>   0.0800 
 39 H        8.9540    -1.3740    -2.3270 H     1 <1>   0.0800 
 40 H        9.4660     1.3670    -3.8170 H     1 <1>   0.0800 
 41 H       10.5030     0.0320    -3.4100 H     1 <1>   0.0800 
 42 H       10.9920     1.5020    -0.8260 H     1 <1>   0.3700 
 43 H       13.6910     3.4030    -2.4570 H     1 <1>   0.1500 
 44 H       12.9960     4.1540     2.3470 H     1 <1>   0.1500 
 45 H       15.1560     4.8970    -1.2370 H     1 <1>   0.1500 
 46 H       10.1430     1.9490     2.8150 H     1 <1>   0.0800 
 47 H       10.7690     3.5940     2.8040 H     1 <1>   0.0800 
 48 H       11.8560     2.2260     3.1100 H     1 <1>   0.0800 
 49 H       16.4610     6.7400     1.6300 H     1 <1>   0.0800 
 50 H       15.6190     6.8100     0.0860 H     1 <1>   0.0800 
 51 H       16.7140     5.4620     0.4460 H     1 <1>   0.0800 
@<TRIPOS>BOND
  1   1   2  1   
  2   2   3  ar  
  3   2   4  ar  
  4   3   5  ar  
  5   3  28  1   
  6   4   6  ar  
  7   4  29  1   
  8   5   7  ar  
  9   5  30  1   
 10   6   7  ar  
 11   6  31  1   
 12   7   8  1   
 13   8   9  1   
 14   8  10  1   
 15   9  11  1   
 16   9  32  1   
 17   9  33  1   
 18  10  12  1   
 19  10  34  1   
 20  10  35  1   
 21  11  13  1   
 22  11  36  1   
 23  11  37  1   
 24  12  13  1   
 25  12  38  1   
 26  12  39  1   
 27  13  14  1   
 28  14  15  1   
 29  14  40  1   
 30  14  41  1   
 31  15  16  2   
 32  15  17  am  
 33  17  18  1   
 34  17  42  1   
 35  18  19  ar  
 36  18  20  ar  
 37  19  21  1   
 38  19  22  ar  
 39  20  23  ar  
 40  20  43  1   
 41  21  24  1   
 42  22  25  ar  
 43  22  44  1   
 44  23  25  ar  
 45  23  45  1   
 46  24  46  1   
 47  24  47  1   
 48  24  48  1   
 49  25  26  1   
 50  26  27  1   
 51  27  49  1   
 52  27  50  1   
 53  27  51  1   
@<TRIPOS>SUBSTRUCTURE
  1 ****  11 GROUP 4 **** **** 0

# MOE 2024.06 (io_trps.svl 2023.06)
