@<TRIPOS>MOLECULE
NONAME
43 44 1 0 0 
SMALL
USER_CHARGES


@<TRIPOS>ATOM
  1 O       -0.0910     0.4180    -0.8910 O.2   1 <1>  -0.5700 
  2 C        0.0160     1.3380    -0.1000 C.2   1 <1>   0.6900 
  3 N       -1.0840     1.9920     0.4000 N.am  1 <1>  -0.6600 
  4 N        1.2510     1.7290     0.2850 N.am  1 <1>  -0.7300 
  5 C       -2.4490     1.5820    -0.0580 C.3   1 <1>   0.2200 
  6 C       -0.9850     2.9180     1.5660 C.3   1 <1>   0.1400 
  7 C        2.4950     1.3050    -0.3680 C.3   1 <1>   0.2840 
  8 C       -3.3530     2.7890    -0.3550 C.3   1 <1>  -0.1600 
  9 C       -3.0960     0.6320     0.9600 C.3   1 <1>  -0.1600 
 10 C       -0.6230     4.3280     1.0960 C.3   1 <1>  -0.2400 
 11 C        3.4680     2.4670    -0.2940 C.ar  1 <1>  -0.1440 
 12 C       -4.7380     2.3310    -0.8350 C.3   1 <1>  -0.1600 
 13 C       -4.4860     0.1800     0.4870 C.3   1 <1>  -0.1600 
 14 C        4.4570     2.5000     0.6770 C.ar  1 <1>  -0.1500 
 15 C        3.3640     3.5160    -1.1950 C.ar  1 <1>  -0.1500 
 16 C       -5.3900     1.3830     0.1820 C.3   1 <1>  -0.1600 
 17 C        5.3350     3.5680     0.7440 C.ar  1 <1>  -0.1500 
 18 C        4.2420     4.5840    -1.1290 C.ar  1 <1>  -0.1500 
 19 C        5.2280     4.6100    -0.1590 C.ar  1 <1>  -0.1500 
 20 H        1.3230     2.6180     0.7720 H     1 <1>   0.3700 
 21 H       -2.3530     1.0400    -0.9840 H     1 <1>   0.0800 
 22 H       -0.2360     2.5560     2.2500 H     1 <1>   0.0800 
 23 H       -1.9170     2.9440     2.1020 H     1 <1>   0.0800 
 24 H        2.3040     1.0430    -1.3960 H     1 <1>   0.0800 
 25 H        2.8890     0.4420     0.1390 H     1 <1>   0.0800 
 26 H       -2.8950     3.3940    -1.1170 H     1 <1>   0.0800 
 27 H       -3.4840     3.3850     0.5290 H     1 <1>   0.0800 
 28 H       -3.1970     1.1210     1.9120 H     1 <1>   0.0800 
 29 H       -2.4660    -0.2310     1.0830 H     1 <1>   0.0800 
 30 H        0.3160     4.3330     0.5750 H     1 <1>   0.0800 
 31 H       -0.5430     4.9810     1.9460 H     1 <1>   0.0800 
 32 H       -1.3850     4.7160     0.4450 H     1 <1>   0.0800 
 33 H       -4.6380     1.8240    -1.7800 H     1 <1>   0.0800 
 34 H       -5.3700     3.1890    -0.9870 H     1 <1>   0.0800 
 35 H       -4.9430    -0.4340     1.2430 H     1 <1>   0.0800 
 36 H       -4.3790    -0.4180    -0.4020 H     1 <1>   0.0800 
 37 H        4.5470     1.6950     1.3860 H     1 <1>   0.1500 
 38 H        2.5960     3.5020    -1.9500 H     1 <1>   0.1500 
 39 H       -6.3330     1.0350    -0.2040 H     1 <1>   0.0800 
 40 H       -5.5880     1.9200     1.0940 H     1 <1>   0.0800 
 41 H        6.1020     3.5880     1.4990 H     1 <1>   0.1500 
 42 H        4.1570     5.3940    -1.8320 H     1 <1>   0.1500 
 43 H        5.9110     5.4400    -0.1080 H     1 <1>   0.1500 
@<TRIPOS>BOND
  1   1   2  2   
  2   2   3  am  
  3   2   4  am  
  4   3   5  1   
  5   3   6  1   
  6   4   7  1   
  7   4  20  1   
  8   5   8  1   
  9   5   9  1   
 10   5  21  1   
 11   6  10  1   
 12   6  22  1   
 13   6  23  1   
 14   7  11  1   
 15   7  24  1   
 16   7  25  1   
 17   8  12  1   
 18   8  26  1   
 19   8  27  1   
 20   9  13  1   
 21   9  28  1   
 22   9  29  1   
 23  10  30  1   
 24  10  31  1   
 25  10  32  1   
 26  11  14  ar  
 27  11  15  ar  
 28  12  16  1   
 29  12  33  1   
 30  12  34  1   
 31  13  16  1   
 32  13  35  1   
 33  13  36  1   
 34  14  17  ar  
 35  14  37  1   
 36  15  18  ar  
 37  15  38  1   
 38  16  39  1   
 39  16  40  1   
 40  17  19  ar  
 41  17  41  1   
 42  18  19  ar  
 43  18  42  1   
 44  19  43  1   
@<TRIPOS>SUBSTRUCTURE
  1 ****   2 GROUP 4 **** **** 0

# MOE 2024.06 (io_trps.svl 2023.06)
