@<TRIPOS>MOLECULE
NONAME
44 45 1 0 0 
SMALL
USER_CHARGES


@<TRIPOS>ATOM
  1 CL       0.1590     0.3050    -0.8370 Cl    1 <1>  -0.1770 
  2 C       -1.4170     1.0400    -0.6320 C.ar  1 <1>   0.1770 
  3 C       -1.5530     2.3620    -0.2200 C.ar  1 <1>  -0.1440 
  4 C       -2.5140     0.2490    -0.9060 C.ar  1 <1>  -0.1500 
  5 C       -2.8370     2.8990    -0.1070 C.ar  1 <1>  -0.1440 
  6 C       -0.3090     3.1960     0.0930 C.3   1 <1>  -0.0960 
  7 C       -3.7840     0.7740    -0.7730 C.ar  1 <1>  -0.1500 
  8 C       -3.9520     2.0970    -0.3700 C.ar  1 <1>   0.0830 
  9 C       -3.0260     4.3620     0.3050 C.3   1 <1>  -0.0960 
 10 O       -5.1870     2.6480    -0.2160 O.3   1 <1>  -0.3630 
 11 C       -6.3670     1.8940    -0.3460 C.3   1 <1>   0.1200 
 12 C       -7.5380     2.8340    -0.0400 C.3   1 <1>   0.3430 
 13 N       -8.8740     2.1640    -0.1650 N.4   1 <1>  -0.9590 
 14 C       -9.9710     3.1860    -0.1530 C.3   1 <1>   0.3430 
 15 C       -9.1100     1.1260     0.8790 C.3   1 <1>   0.3430 
 16 C      -11.3730     2.5500    -0.0280 C.3   1 <1>  -0.0800 
 17 C      -10.3420     0.2930     0.5010 C.3   1 <1>  -0.1600 
 18 C      -11.3700     1.0480    -0.3620 C.3   1 <1>  -0.1600 
 19 C      -12.3820     3.2900    -0.9160 C.3   1 <1>  -0.2400 
 20 H       -2.3660    -0.7680    -1.2220 H     1 <1>   0.1500 
 21 H        0.5250     2.5780     0.3710 H     1 <1>   0.0800 
 22 H       -0.4860     3.8610     0.9170 H     1 <1>   0.0800 
 23 H       -0.0320     3.7740    -0.7700 H     1 <1>   0.0800 
 24 H       -4.6150     0.1330    -0.9920 H     1 <1>   0.1500 
 25 H       -2.2990     4.9890    -0.1790 H     1 <1>   0.0800 
 26 H       -2.9140     4.4560     1.3700 H     1 <1>   0.0800 
 27 H       -3.9920     4.7400     0.0290 H     1 <1>   0.0800 
 28 H       -6.3200     1.0830     0.3580 H     1 <1>   0.0800 
 29 H       -6.4210     1.5310    -1.3570 H     1 <1>   0.0800 
 30 H       -7.4890     3.6600    -0.7310 H     1 <1>   0.0800 
 31 H       -7.4210     3.2220     0.9580 H     1 <1>   0.0800 
 32 H       -8.9310     1.6890    -1.0760 H     1 <1>   0.4500 
 33 H       -9.9270     3.7570    -1.0670 H     1 <1>   0.0800 
 34 H       -9.8300     3.8710     0.6670 H     1 <1>   0.0800 
 35 H       -9.2800     1.6080     1.8290 H     1 <1>   0.0800 
 36 H       -8.2570     0.4750     0.9790 H     1 <1>   0.0800 
 37 H      -11.6950     2.6650     0.9940 H     1 <1>   0.0800 
 38 H      -10.8130    -0.0300     1.4140 H     1 <1>   0.0800 
 39 H      -10.0300    -0.5970    -0.0170 H     1 <1>   0.0800 
 40 H      -11.1280     0.9160    -1.4040 H     1 <1>   0.0800 
 41 H      -12.3510     0.6280    -0.2060 H     1 <1>   0.0800 
 42 H      -12.1180     3.2070    -1.9560 H     1 <1>   0.0800 
 43 H      -12.4250     4.3330    -0.6540 H     1 <1>   0.0800 
 44 H      -13.3680     2.8760    -0.7850 H     1 <1>   0.0800 
@<TRIPOS>BOND
  1   1   2  1   
  2   2   3  ar  
  3   2   4  ar  
  4   3   5  ar  
  5   3   6  1   
  6   4   7  ar  
  7   4  20  1   
  8   5   8  ar  
  9   5   9  1   
 10   6  21  1   
 11   6  22  1   
 12   6  23  1   
 13   7   8  ar  
 14   7  24  1   
 15   8  10  1   
 16   9  25  1   
 17   9  26  1   
 18   9  27  1   
 19  10  11  1   
 20  11  12  1   
 21  11  28  1   
 22  11  29  1   
 23  12  13  1   
 24  12  30  1   
 25  12  31  1   
 26  13  14  1   
 27  13  15  1   
 28  13  32  1   
 29  14  16  1   
 30  14  33  1   
 31  14  34  1   
 32  15  17  1   
 33  15  35  1   
 34  15  36  1   
 35  16  18  1   
 36  16  19  1   
 37  16  37  1   
 38  17  18  1   
 39  17  38  1   
 40  17  39  1   
 41  18  40  1   
 42  18  41  1   
 43  19  42  1   
 44  19  43  1   
 45  19  44  1   
@<TRIPOS>SUBSTRUCTURE
  1 ****  11 GROUP 4 **** **** 0

# MOE 2024.06 (io_trps.svl 2023.06)
