@<TRIPOS>MOLECULE
NONAME
46 49 1 0 0 
SMALL
USER_CHARGES


@<TRIPOS>ATOM
  1 O        4.4380    -0.7460     1.3690 O.3   1 <1>  -0.6800 
  2 C        3.5280    -1.7660     1.1340 C.3   1 <1>   0.1200 
  3 C        3.6550    -2.2310    -0.3320 C.3   1 <1>   0.4230 
  4 N        2.7180    -3.3290    -0.6830 N.4   1 <1>  -0.9590 
  5 C        5.0270    -2.8090    -0.6760 C.3   1 <1>  -0.1600 
  6 C        3.2640    -3.9450    -1.9180 C.3   1 <1>   0.3430 
  7 C        1.2990    -2.8870    -0.8280 C.3   1 <1>   0.3430 
  8 C        4.7760    -3.8640    -1.7570 C.3   1 <1>  -0.1600 
  9 C        0.3110    -3.8650    -0.1570 C.3   1 <1>   0.0000 
 10 C        0.5650    -3.9610     1.3700 C.3   1 <1>  -0.1600 
 11 C        0.3920    -5.2880    -0.7660 C.3   1 <1>  -0.1600 
 12 C       -1.1220    -3.3250    -0.3760 C.3   1 <1>  -0.1600 
 13 C       -0.4670    -4.8910     2.0330 C.3   1 <1>  -0.0800 
 14 C       -0.6420    -6.2200    -0.1070 C.3   1 <1>  -0.0800 
 15 C       -2.1640    -4.2480     0.2820 C.3   1 <1>  -0.0800 
 16 C       -0.3650    -6.2940     1.4060 C.3   1 <1>  -0.1600 
 17 C       -1.8810    -4.3330     1.7920 C.3   1 <1>  -0.1600 
 18 C       -2.0540    -5.6530    -0.3360 C.3   1 <1>  -0.1600 
 19 H        4.4040    -0.4310     2.2970 H     1 <1>   0.4000 
 20 H        2.5440    -1.3760     1.3290 H     1 <1>   0.0800 
 21 H        3.7490    -2.5700     1.8140 H     1 <1>   0.0800 
 22 H        3.4610    -1.3910    -0.9800 H     1 <1>   0.0800 
 23 H        2.7650    -4.0320     0.0640 H     1 <1>   0.4500 
 24 H        5.4710    -3.2640     0.1920 H     1 <1>   0.0800 
 25 H        5.6840    -2.0270    -1.0180 H     1 <1>   0.0800 
 26 H        2.9660    -3.3660    -2.7780 H     1 <1>   0.0800 
 27 H        2.9300    -4.9630    -2.0400 H     1 <1>   0.0800 
 28 H        1.0500    -2.7890    -1.8720 H     1 <1>   0.0800 
 29 H        1.1720    -1.9190    -0.3720 H     1 <1>   0.0800 
 30 H        5.1680    -4.8190    -1.4510 H     1 <1>   0.0800 
 31 H        5.2350    -3.5910    -2.6920 H     1 <1>   0.0800 
 32 H        0.4930    -2.9850     1.8190 H     1 <1>   0.0800 
 33 H        1.5470    -4.3470     1.5740 H     1 <1>   0.0800 
 34 H        1.3680    -5.7140    -0.6180 H     1 <1>   0.0800 
 35 H        0.2050    -5.2490    -1.8260 H     1 <1>   0.0800 
 36 H       -1.3360    -3.2520    -1.4290 H     1 <1>   0.0800 
 37 H       -1.2170    -2.3380     0.0430 H     1 <1>   0.0800 
 38 H       -0.2800    -4.9530     3.0920 H     1 <1>   0.0800 
 39 H       -0.5750    -7.2050    -0.5370 H     1 <1>   0.0800 
 40 H       -3.1550    -3.8570     0.1200 H     1 <1>   0.0800 
 41 H       -1.0800    -6.9510     1.8720 H     1 <1>   0.0800 
 42 H        0.6130    -6.7070     1.5820 H     1 <1>   0.0800 
 43 H       -1.9740    -3.3580     2.2390 H     1 <1>   0.0800 
 44 H       -2.6090    -4.9730     2.2610 H     1 <1>   0.0800 
 45 H       -2.7840    -6.3050     0.1140 H     1 <1>   0.0800 
 46 H       -2.2670    -5.6090    -1.3900 H     1 <1>   0.0800 
@<TRIPOS>BOND
  1   1   2  1   
  2   1  19  1   
  3   2   3  1   
  4   2  20  1   
  5   2  21  1   
  6   3   4  1   
  7   3   5  1   
  8   3  22  1   
  9   4   6  1   
 10   4   7  1   
 11   4  23  1   
 12   5   8  1   
 13   5  24  1   
 14   5  25  1   
 15   6   8  1   
 16   6  26  1   
 17   6  27  1   
 18   7   9  1   
 19   7  28  1   
 20   7  29  1   
 21   8  30  1   
 22   8  31  1   
 23   9  10  1   
 24   9  11  1   
 25   9  12  1   
 26  10  13  1   
 27  10  32  1   
 28  10  33  1   
 29  11  14  1   
 30  11  34  1   
 31  11  35  1   
 32  12  15  1   
 33  12  36  1   
 34  12  37  1   
 35  13  16  1   
 36  13  17  1   
 37  13  38  1   
 38  14  16  1   
 39  14  18  1   
 40  14  39  1   
 41  15  17  1   
 42  15  18  1   
 43  15  40  1   
 44  16  41  1   
 45  16  42  1   
 46  17  43  1   
 47  17  44  1   
 48  18  45  1   
 49  18  46  1   
@<TRIPOS>SUBSTRUCTURE
  1 ****   9 GROUP 4 **** **** 0

# MOE 2024.06 (io_trps.svl 2023.06)
