@<TRIPOS>MOLECULE
NONAME
39 41 1 0 0 
SMALL
USER_CHARGES


@<TRIPOS>ATOM
  1 O       -0.3550     0.5820    -1.1510 O.2   1 <1>  -0.5700 
  2 C       -0.6030     1.4990    -0.4050 C.2   1 <1>   0.5690 
  3 N        0.3380     2.3140     0.1450 N.am  1 <1>  -0.4930 
  4 C       -2.0640     1.7780    -0.0440 C.3   1 <1>  -0.0190 
  5 C        1.7100     2.3390     0.0320 C.2   1 <1>   0.5790 
  6 C       -2.6980     0.5820     0.6930 C.3   1 <1>  -0.1600 
  7 C       -2.8900     2.1440    -1.2920 C.3   1 <1>  -0.1600 
  8 N        2.4190     1.5220    -0.6790 N.2   1 <1>  -0.7070 
  9 N        2.3520     3.2830     0.7130 N.2   1 <1>  -0.5650 
 10 C       -4.1670     0.8530     1.0490 C.3   1 <1>  -0.1600 
 11 C       -4.3590     2.4160    -0.9370 C.3   1 <1>  -0.1600 
 12 N        3.6470     1.9640    -0.4510 N.pl3 1 <1>   0.6010 
 13 C        3.5800     3.0310     0.3950 C.2   1 <1>   0.3120 
 14 C       -4.9790     1.2230    -0.1980 C.3   1 <1>  -0.1600 
 15 C        4.8700     1.5180    -0.9210 C.2   1 <1>  -0.1690 
 16 N        4.6850     3.7190     0.8300 N.2   1 <1>  -0.5760 
 17 C        5.9690     2.1970    -0.4930 C.2   1 <1>  -0.1360 
 18 C        4.9020     0.3230    -1.8650 C.3   1 <1>  -0.1020 
 19 C        5.8270     3.3040     0.3920 C.2   1 <1>   0.3750 
 20 C        7.0800     4.0260     0.8390 C.3   1 <1>  -0.1790 
 21 H        0.0160     3.0530     0.7580 H     1 <1>   0.3700 
 22 H       -2.0920     2.6210     0.6220 H     1 <1>   0.0800 
 23 H       -2.1420     0.3730     1.5900 H     1 <1>   0.0800 
 24 H       -2.6420    -0.2910     0.0640 H     1 <1>   0.0800 
 25 H       -2.8420     1.3320    -1.9990 H     1 <1>   0.0800 
 26 H       -2.4670     3.0130    -1.7650 H     1 <1>   0.0800 
 27 H       -4.2210     1.6580     1.7620 H     1 <1>   0.0800 
 28 H       -4.5930    -0.0220     1.5080 H     1 <1>   0.0800 
 29 H       -4.9170     2.6100    -1.8370 H     1 <1>   0.0800 
 30 H       -4.4220     3.2930    -0.3150 H     1 <1>   0.0800 
 31 H       -5.9900     1.4610     0.0860 H     1 <1>   0.0800 
 32 H       -5.0150     0.3760    -0.8620 H     1 <1>   0.0800 
 33 H        6.9610     1.9240    -0.8040 H     1 <1>   0.1500 
 34 H        4.3320     0.5400    -2.7520 H     1 <1>   0.0800 
 35 H        4.4650    -0.5360    -1.3850 H     1 <1>   0.0800 
 36 H        5.9100     0.0830    -2.1510 H     1 <1>   0.0800 
 37 H        7.7280     3.3460     1.3600 H     1 <1>   0.0800 
 38 H        6.8260     4.8360     1.5000 H     1 <1>   0.0800 
 39 H        7.5950     4.4270    -0.0140 H     1 <1>   0.0800 
@<TRIPOS>BOND
  1   1   2  2   
  2   2   3  am  
  3   2   4  1   
  4   3   5  1   
  5   3  21  1   
  6   4   6  1   
  7   4   7  1   
  8   4  22  1   
  9   5   8  2   
 10   5   9  1   
 11   6  10  1   
 12   6  23  1   
 13   6  24  1   
 14   7  11  1   
 15   7  25  1   
 16   7  26  1   
 17   8  12  1   
 18   9  13  2   
 19  10  14  1   
 20  10  27  1   
 21  10  28  1   
 22  11  14  1   
 23  11  29  1   
 24  11  30  1   
 25  12  13  1   
 26  12  15  1   
 27  13  16  1   
 28  14  31  1   
 29  14  32  1   
 30  15  17  2   
 31  15  18  1   
 32  16  19  2   
 33  17  19  1   
 34  17  33  1   
 35  18  34  1   
 36  18  35  1   
 37  18  36  1   
 38  19  20  1   
 39  20  37  1   
 40  20  38  1   
 41  20  39  1   
@<TRIPOS>SUBSTRUCTURE
  1 ****   5 GROUP 4 **** **** 0

# MOE 2024.06 (io_trps.svl 2023.06)
