@<TRIPOS>MOLECULE
NONAME
37 39 1 0 0 
SMALL
USER_CHARGES


@<TRIPOS>ATOM
  1 O        0.5510     0.5290    -0.1360 O.co2 1 <1>  -0.9000 
  2 C        0.0520     1.5770    -0.5670 C.2   1 <1>   0.9060 
  3 O        0.0760     1.8610    -1.7650 O.co2 1 <1>  -0.9000 
  4 C       -0.6730     2.4660     0.4370 C.3   1 <1>  -0.1860 
  5 C       -2.3100     2.1080     0.6770 C.3   1 <1>  -0.0190 
  6 C       -0.5590     4.0610     0.0670 C.3   1 <1>  -0.0800 
  7 C       -2.8780     0.7990     0.0950 C.2   1 <1>   0.5690 
  8 C       -3.1570     3.4550     0.2590 C.3   1 <1>  -0.0800 
  9 C       -1.8550     3.7630     0.1880 C.3   1 <1>  -0.1600 
 10 C       -1.4200     5.4010    -0.3000 C.3   1 <1>  -0.1600 
 11 O       -4.0530     0.7360    -0.1910 O.2   1 <1>  -0.5700 
 12 N       -2.0870    -0.2900    -0.0300 N.am  1 <1>  -0.7300 
 13 C       -3.0360     5.0510    -0.0590 C.3   1 <1>  -0.1600 
 14 C       -2.4320    -1.4960    -0.7890 C.3   1 <1>   0.2840 
 15 C       -1.7250    -2.6940    -0.1820 C.ar  1 <1>  -0.1440 
 16 C       -2.4500    -3.7430     0.3640 C.ar  1 <1>   0.1600 
 17 C       -0.3460    -2.7620    -0.1680 C.ar  1 <1>  -0.1500 
 18 N       -1.9250    -4.8360     0.9000 N.ar  1 <1>  -0.6200 
 19 C        0.2200    -3.8850     0.3920 C.ar  1 <1>  -0.1500 
 20 C       -0.6010    -4.8760     0.9020 C.ar  1 <1>   0.1600 
 21 H       -0.1620     2.2920     1.3690 H     1 <1>   0.0800 
 22 H       -2.4390     1.9720     1.7400 H     1 <1>   0.0800 
 23 H        0.0260     4.4190     0.9030 H     1 <1>   0.0800 
 24 H       -3.6970     3.1240    -0.6190 H     1 <1>   0.0800 
 25 H       -1.8720     3.4640    -0.9510 H     1 <1>   0.0800 
 26 H       -1.8230     4.0490     1.3270 H     1 <1>   0.0800 
 27 H       -1.2490     5.6670    -1.3320 H     1 <1>   0.0800 
 28 H       -1.1170     6.2380     0.3080 H     1 <1>   0.0800 
 29 H       -1.0600    -0.1640     0.0790 H     1 <1>   0.3700 
 30 H       -3.4230     5.6250     0.7690 H     1 <1>   0.0800 
 31 H       -3.6110     5.3130    -0.9340 H     1 <1>   0.0800 
 32 H       -2.1080    -1.3640    -1.8070 H     1 <1>   0.0800 
 33 H       -3.4980    -1.6370    -0.7850 H     1 <1>   0.0800 
 34 H       -3.5250    -3.6800     0.3600 H     1 <1>   0.1500 
 35 H        0.2620    -1.9640    -0.5700 H     1 <1>   0.1500 
 36 H        1.2890    -3.9850     0.4340 H     1 <1>   0.1500 
 37 H       -0.1440    -5.7480     1.3350 H     1 <1>   0.1500 
@<TRIPOS>BOND
  1   1   2  ar  
  2   2   3  ar  
  3   2   4  1   
  4   4   5  1   
  5   4   6  1   
  6   4  21  1   
  7   5   7  1   
  8   5   8  1   
  9   5  22  1   
 10   6   9  1   
 11   6  10  1   
 12   6  23  1   
 13   7  11  2   
 14   7  12  am  
 15   8   9  1   
 16   8  13  1   
 17   8  24  1   
 18   9  25  1   
 19   9  26  1   
 20  10  13  1   
 21  10  27  1   
 22  10  28  1   
 23  12  14  1   
 24  12  29  1   
 25  13  30  1   
 26  13  31  1   
 27  14  15  1   
 28  14  32  1   
 29  14  33  1   
 30  15  16  ar  
 31  15  17  ar  
 32  16  18  ar  
 33  16  34  1   
 34  17  19  ar  
 35  17  35  1   
 36  18  20  ar  
 37  19  20  ar  
 38  19  36  1   
 39  20  37  1   
@<TRIPOS>SUBSTRUCTURE
  1 ****  12 GROUP 4 **** **** 0

# MOE 2024.06 (io_trps.svl 2023.06)
