@<TRIPOS>MOLECULE
NONAME
30 31 1 0 0 
SMALL
USER_CHARGES


@<TRIPOS>ATOM
  1 S        0.1580    -0.0520    -0.2480 S.o2  1 <1>   1.5760 
  2 O        0.1230    -0.3800    -1.6520 O.2   1 <1>  -0.6500 
  3 O        0.2460    -1.0620     0.7760 O.2   1 <1>  -0.6500 
  4 N       -1.0880     1.0080     0.1310 N.am  1 <1>  -0.8490 
  5 N        1.4310     0.9700     0.0340 N.am  1 <1>  -0.9140 
  6 C       -2.3500     0.2860     0.3420 C.3   1 <1>   0.1960 
  7 C       -1.2800     2.0300    -0.9110 C.3   1 <1>   0.1960 
  8 C        2.6730     0.3320    -0.3510 C.3   1 <1>   0.3760 
  9 C       -3.4980     1.2620     0.6630 C.3   1 <1>   0.1200 
 10 C       -2.4500     2.9650    -0.5560 C.3   1 <1>   0.1200 
 11 C        3.8560     1.1820     0.0820 C.2   1 <1>  -0.0400 
 12 O       -3.6210     2.2270    -0.3430 O.3   1 <1>  -0.5600 
 13 O        5.0670     0.6720    -0.0380 O.3   1 <1>  -0.2800 
 14 C        3.9230     2.4300     0.5960 C.2   1 <1>  -0.1500 
 15 C        5.9270     1.5730     0.3940 C.2   1 <1>  -0.0100 
 16 C        5.2840     2.6870     0.8020 C.2   1 <1>  -0.1500 
 17 H        1.4430     1.0210     1.0470 H     1 <1>   0.4200 
 18 H       -2.2390    -0.4030     1.1620 H     1 <1>   0.0800 
 19 H       -2.6050    -0.2800    -0.5390 H     1 <1>   0.0800 
 20 H       -1.4840     1.5650    -1.8610 H     1 <1>   0.0800 
 21 H       -0.3810     2.6150    -1.0140 H     1 <1>   0.0800 
 22 H        2.7040     0.2000    -1.4200 H     1 <1>   0.0800 
 23 H        2.7570    -0.6370     0.1160 H     1 <1>   0.0800 
 24 H       -3.3160     1.7610     1.5990 H     1 <1>   0.0800 
 25 H       -4.4310     0.7320     0.7260 H     1 <1>   0.0800 
 26 H       -2.6360     3.6520    -1.3630 H     1 <1>   0.0800 
 27 H       -2.2280     3.5260     0.3350 H     1 <1>   0.0800 
 28 H        3.1190     3.1130     0.8110 H     1 <1>   0.1500 
 29 H        6.9770     1.3390     0.3750 H     1 <1>   0.1500 
 30 H        5.6970     3.5950     1.2030 H     1 <1>   0.1500 
@<TRIPOS>BOND
  1   1   2  2   
  2   1   3  2   
  3   1   4  am  
  4   1   5  am  
  5   4   6  1   
  6   4   7  1   
  7   5   8  1   
  8   5  17  1   
  9   6   9  1   
 10   6  18  1   
 11   6  19  1   
 12   7  10  1   
 13   7  20  1   
 14   7  21  1   
 15   8  11  1   
 16   8  22  1   
 17   8  23  1   
 18   9  12  1   
 19   9  24  1   
 20   9  25  1   
 21  10  12  1   
 22  10  26  1   
 23  10  27  1   
 24  11  13  1   
 25  11  14  2   
 26  13  15  1   
 27  14  16  1   
 28  14  28  1   
 29  15  16  2   
 30  15  29  1   
 31  16  30  1   
@<TRIPOS>SUBSTRUCTURE
  1 ****   5 GROUP 4 **** **** 0

# MOE 2024.06 (io_trps.svl 2023.06)
