@<TRIPOS>MOLECULE
NONAME
47 48 1 0 0 
SMALL
USER_CHARGES


@<TRIPOS>ATOM
  1 O       -1.3300     1.2490     1.5230 O.2   1 <1>  -0.5700 
  2 C       -1.4310     2.3350     0.9840 C.2   1 <1>   0.7800 
  3 O       -0.3590     3.1210     0.8780 O.3   1 <1>  -0.4300 
  4 N       -2.6120     2.7930     0.4660 N.am  1 <1>  -0.6600 
  5 C        0.8890     2.7150     1.3900 C.3   1 <1>   0.1200 
  6 C       -2.7430     4.0900    -0.2700 C.3   1 <1>   0.1400 
  7 C       -3.8650     1.9790     0.5240 C.3   1 <1>   0.1400 
  8 C        1.8990     3.8230     1.1110 C.3   1 <1>  -0.2400 
  9 C       -3.3600     3.8750    -1.6610 C.3   1 <1>   0.1400 
 10 C       -4.4510     1.7870    -0.8830 C.3   1 <1>   0.1400 
 11 N       -4.6430     3.1140    -1.5480 N.am  1 <1>  -0.6600 
 12 C       -5.8530     3.7100    -1.8430 C.2   1 <1>   0.5690 
 13 O       -5.8850     4.8130    -2.3420 O.2   1 <1>  -0.5700 
 14 C       -7.2190     3.0540    -1.5600 C.3   1 <1>   0.2610 
 15 O       -7.2810     2.5230    -0.2430 O.3   1 <1>  -0.3630 
 16 C       -7.5770     1.9340    -2.5470 C.3   1 <1>  -0.2400 
 17 C       -8.2540     2.9930     0.5660 C.ar  1 <1>   0.0820 
 18 C       -8.1450     4.2340     1.1900 C.ar  1 <1>  -0.1440 
 19 C       -9.3680     2.1950     0.7720 C.ar  1 <1>  -0.1500 
 20 C       -9.1840     4.6670     2.0000 C.ar  1 <1>  -0.1500 
 21 C       -6.9210     5.1220     1.0150 C.3   1 <1>  -0.0970 
 22 C      -10.3950     2.6360     1.5850 C.ar  1 <1>  -0.1500 
 23 C      -10.3030     3.8750     2.1960 C.ar  1 <1>  -0.1500 
 24 H        1.1750     1.7980     0.9030 H     1 <1>   0.0800 
 25 H        0.7830     2.5450     2.4490 H     1 <1>   0.0800 
 26 H       -1.7850     4.5660    -0.3820 H     1 <1>   0.0800 
 27 H       -3.3750     4.7520     0.2960 H     1 <1>   0.0800 
 28 H       -4.5870     2.4790     1.1450 H     1 <1>   0.0800 
 29 H       -3.6700     1.0140     0.9600 H     1 <1>   0.0800 
 30 H        1.9850     3.9880     0.0520 H     1 <1>   0.0800 
 31 H        2.8630     3.5390     1.4930 H     1 <1>   0.0800 
 32 H        1.5930     4.7330     1.5950 H     1 <1>   0.0800 
 33 H       -2.6730     3.3210    -2.2750 H     1 <1>   0.0800 
 34 H       -3.5190     4.8300    -2.1300 H     1 <1>   0.0800 
 35 H       -5.3680     1.2370    -0.8140 H     1 <1>   0.0800 
 36 H       -3.7670     1.1970    -1.4670 H     1 <1>   0.0800 
 37 H       -7.9670     3.8240    -1.6390 H     1 <1>   0.0800 
 38 H       -6.8620     1.1350    -2.5000 H     1 <1>   0.0800 
 39 H       -7.5790     2.3290    -3.5470 H     1 <1>   0.0800 
 40 H       -8.5590     1.5540    -2.3300 H     1 <1>   0.0800 
 41 H       -9.4270     1.2340     0.2950 H     1 <1>   0.1500 
 42 H       -9.1280     5.6250     2.4860 H     1 <1>   0.1500 
 43 H       -6.0260     4.5270     0.9910 H     1 <1>   0.0800 
 44 H       -6.8370     5.8190     1.8290 H     1 <1>   0.0800 
 45 H       -6.9970     5.6760     0.0960 H     1 <1>   0.0800 
 46 H      -11.2630     2.0190     1.7430 H     1 <1>   0.1500 
 47 H      -11.1020     4.2220     2.8280 H     1 <1>   0.1500 
@<TRIPOS>BOND
  1   1   2  2   
  2   2   3  1   
  3   2   4  am  
  4   3   5  1   
  5   4   6  1   
  6   4   7  1   
  7   5   8  1   
  8   5  24  1   
  9   5  25  1   
 10   6   9  1   
 11   6  26  1   
 12   6  27  1   
 13   7  10  1   
 14   7  28  1   
 15   7  29  1   
 16   8  30  1   
 17   8  31  1   
 18   8  32  1   
 19   9  11  1   
 20   9  33  1   
 21   9  34  1   
 22  10  11  1   
 23  10  35  1   
 24  10  36  1   
 25  11  12  am  
 26  12  13  2   
 27  12  14  1   
 28  14  15  1   
 29  14  16  1   
 30  14  37  1   
 31  15  17  1   
 32  16  38  1   
 33  16  39  1   
 34  16  40  1   
 35  17  18  ar  
 36  17  19  ar  
 37  18  20  ar  
 38  18  21  1   
 39  19  22  ar  
 40  19  41  1   
 41  20  23  ar  
 42  20  42  1   
 43  21  43  1   
 44  21  44  1   
 45  21  45  1   
 46  22  23  ar  
 47  22  46  1   
 48  23  47  1   
@<TRIPOS>SUBSTRUCTURE
  1 ****  11 GROUP 4 **** **** 0

# MOE 2024.06 (io_trps.svl 2023.06)
