@<TRIPOS>MOLECULE
NONAME
53 56 1 0 0 
SMALL
USER_CHARGES


@<TRIPOS>ATOM
  1 O       -5.4430     0.9490     0.5770 O.2   1 <1>  -0.5700 
  2 C       -4.8060     1.8140     0.0140 C.2   1 <1>   0.5950 
  3 C       -5.2470     3.1710    -0.0510 C.2   1 <1>  -0.0860 
  4 C       -3.5250     1.3660    -0.6890 C.3   1 <1>  -0.0990 
  5 C       -6.5490     3.6220    -0.0310 C.2   1 <1>  -0.0680 
  6 C       -4.5070     4.3730    -0.1840 C.2   1 <1>   0.1080 
  7 C       -3.6630     0.0310    -1.4410 C.3   1 <1>  -0.2400 
  8 N       -6.5180     4.9510    -0.2140 N.pl3 1 <1>   0.5930 
  9 N       -7.8660     3.2000     0.1110 N.pl3 1 <1>  -0.5530 
 10 N       -5.2550     5.4240    -0.3060 N.2   1 <1>  -0.7070 
 11 C       -2.9840     4.5080    -0.1660 C.3   1 <1>   0.0210 
 12 C       -7.8200     5.4400    -0.2030 C.ar  1 <1>  -0.0230 
 13 C       -8.6520     4.3480     0.0020 C.ar  1 <1>   0.1000 
 14 C       -8.2990     1.9390     0.7500 C.3   1 <1>   0.2090 
 15 C       -2.5010     5.7970     0.5120 C.3   1 <1>  -0.2400 
 16 C       -8.3290     6.7230    -0.3470 C.ar  1 <1>  -0.1500 
 17 C      -10.0300     4.5320     0.0670 C.ar  1 <1>  -0.1500 
 18 C       -8.3680     0.8340    -0.3150 C.3   1 <1>   0.3430 
 19 C       -9.6990     6.8980    -0.2830 C.ar  1 <1>  -0.1500 
 20 C      -10.5430     5.8080    -0.0760 C.ar  1 <1>  -0.1500 
 21 N       -8.6820    -0.5260     0.2450 N.4   1 <1>  -0.9590 
 22 C       -7.5110    -1.0760     1.0210 C.3   1 <1>   0.3430 
 23 C       -9.0440    -1.4800    -0.8590 C.3   1 <1>   0.3430 
 24 C       -7.7580    -2.5270     1.4730 C.3   1 <1>   0.1200 
 25 C       -9.2370    -2.9140    -0.3260 C.3   1 <1>   0.1200 
 26 O       -8.1010    -3.3250     0.3770 O.3   1 <1>  -0.5600 
 27 H       -2.7470     1.2750     0.0480 H     1 <1>   0.0800 
 28 H       -3.2310     2.1110    -1.4040 H     1 <1>   0.0800 
 29 H       -3.8970    -0.7670    -0.7570 H     1 <1>   0.0800 
 30 H       -2.7390    -0.2100    -1.9370 H     1 <1>   0.0800 
 31 H       -4.4410     0.0940    -2.1820 H     1 <1>   0.0800 
 32 H       -2.6220     4.4900    -1.1780 H     1 <1>   0.0800 
 33 H       -2.5540     3.6830     0.3680 H     1 <1>   0.0800 
 34 H       -9.2640     2.0820     1.1990 H     1 <1>   0.0800 
 35 H       -7.5950     1.6900     1.5220 H     1 <1>   0.0800 
 36 H       -2.8510     6.6580    -0.0320 H     1 <1>   0.0800 
 37 H       -1.4270     5.8240     0.5420 H     1 <1>   0.0800 
 38 H       -2.8800     5.8520     1.5170 H     1 <1>   0.0800 
 39 H       -7.6610     7.5530    -0.5050 H     1 <1>   0.1500 
 40 H      -10.6860     3.6980     0.2240 H     1 <1>   0.1500 
 41 H       -7.4200     0.7970    -0.8270 H     1 <1>   0.0800 
 42 H       -9.1220     1.1130    -1.0310 H     1 <1>   0.0800 
 43 H      -10.1200     7.8830    -0.3910 H     1 <1>   0.1500 
 44 H      -11.6070     5.9700    -0.0290 H     1 <1>   0.1500 
 45 H       -9.4870    -0.4630     0.8810 H     1 <1>   0.4500 
 46 H       -7.3080    -0.4600     1.8820 H     1 <1>   0.0800 
 47 H       -6.6280    -1.0640     0.4020 H     1 <1>   0.0800 
 48 H       -8.2590    -1.4980    -1.5970 H     1 <1>   0.0800 
 49 H       -9.9500    -1.1570    -1.3470 H     1 <1>   0.0800 
 50 H       -8.5470    -2.5800     2.2030 H     1 <1>   0.0800 
 51 H       -6.8620    -2.9350     1.9070 H     1 <1>   0.0800 
 52 H       -9.3780    -3.5980    -1.1450 H     1 <1>   0.0800 
 53 H      -10.0920    -2.9790     0.3250 H     1 <1>   0.0800 
@<TRIPOS>BOND
  1   1   2  2   
  2   2   3  1   
  3   2   4  1   
  4   3   5  2   
  5   3   6  1   
  6   4   7  1   
  7   4  27  1   
  8   4  28  1   
  9   5   8  1   
 10   5   9  1   
 11   6  10  2   
 12   6  11  1   
 13   7  29  1   
 14   7  30  1   
 15   7  31  1   
 16   8  10  1   
 17   8  12  1   
 18   9  13  1   
 19   9  14  1   
 20  11  15  1   
 21  11  32  1   
 22  11  33  1   
 23  12  13  ar  
 24  12  16  ar  
 25  13  17  ar  
 26  14  18  1   
 27  14  34  1   
 28  14  35  1   
 29  15  36  1   
 30  15  37  1   
 31  15  38  1   
 32  16  19  ar  
 33  16  39  1   
 34  17  20  ar  
 35  17  40  1   
 36  18  21  1   
 37  18  41  1   
 38  18  42  1   
 39  19  20  ar  
 40  19  43  1   
 41  20  44  1   
 42  21  22  1   
 43  21  23  1   
 44  21  45  1   
 45  22  24  1   
 46  22  46  1   
 47  22  47  1   
 48  23  25  1   
 49  23  48  1   
 50  23  49  1   
 51  24  26  1   
 52  24  50  1   
 53  24  51  1   
 54  25  26  1   
 55  25  52  1   
 56  25  53  1   
@<TRIPOS>SUBSTRUCTURE
  1 ****   9 GROUP 4 **** **** 0

# MOE 2024.06 (io_trps.svl 2023.06)
