@<TRIPOS>MOLECULE
NONAME
56 59 1 0 0 
SMALL
USER_CHARGES


@<TRIPOS>ATOM
  1 S        0.1860    -0.3500     2.2090 S.3   1 <1>  -0.2860 
  2 C       -1.3310     0.0010     1.3130 C.2   1 <1>   0.2420 
  3 C        1.0180     1.3010     2.4160 C.3   1 <1>   0.1310 
  4 N       -1.7930     1.1820     1.1040 N.2   1 <1>  -0.3380 
  5 N       -2.0780    -0.9630     0.7860 N.pl3 1 <1>   0.0480 
  6 C        2.3240     1.3200     1.6320 C.2   1 <1>   0.5690 
  7 N       -2.9050     1.0160     0.3910 N.2   1 <1>  -0.3380 
  8 C       -3.0810    -0.2650     0.2110 C.2   1 <1>   0.1330 
  9 C       -1.8120    -2.4220     0.7790 C.3   1 <1>   0.0160 
 10 O        3.3390     1.1610     2.2710 O.2   1 <1>  -0.5700 
 11 N        2.3560     1.5030     0.2680 N.am  1 <1>  -0.6600 
 12 C       -4.1800    -0.8580    -0.5140 C.ar  1 <1>   0.0530 
 13 C        1.1820     1.8240    -0.5910 C.3   1 <1>   0.1400 
 14 C        3.6060     1.2860    -0.5090 C.3   1 <1>   0.1400 
 15 C       -4.8330    -1.9880    -0.0350 C.ar  1 <1>  -0.1500 
 16 C       -4.6190    -0.3250    -1.7240 C.ar  1 <1>  -0.1500 
 17 C        0.9260     0.6610    -1.5540 C.3   1 <1>  -0.1600 
 18 C        3.3960     0.1240    -1.4880 C.3   1 <1>  -0.1600 
 19 C       -5.8330    -2.6280    -0.7530 C.ar  1 <1>   0.1170 
 20 C       -5.6400    -0.9230    -2.4390 C.ar  1 <1>  -0.1500 
 21 C        2.1740     0.3490    -2.3930 C.3   1 <1>  -0.1600 
 22 N       -6.4320    -3.8060    -0.2890 N.am  1 <1>  -0.5470 
 23 C       -6.2400    -2.0730    -1.9590 C.ar  1 <1>  -0.1500 
 24 C       -5.8830    -4.8440     0.4320 C.2   1 <1>   0.5440 
 25 O       -4.7120    -4.8020     0.7610 O.2   1 <1>  -0.5700 
 26 C       -6.7090    -5.9790     0.8000 C.ar  1 <1>   0.0860 
 27 C       -6.5160    -6.6340     2.0170 C.ar  1 <1>  -0.1500 
 28 C       -7.7210    -6.4600    -0.0340 C.ar  1 <1>  -0.1500 
 29 C       -7.3030    -7.7070     2.3940 C.ar  1 <1>  -0.1500 
 30 C       -8.5130    -7.5320     0.3390 C.ar  1 <1>  -0.1500 
 31 C       -8.3060    -8.1560     1.5550 C.ar  1 <1>  -0.1500 
 32 H        1.2210     1.4090     3.4650 H     1 <1>   0.0800 
 33 H        0.3500     2.0790     2.1050 H     1 <1>   0.0800 
 34 H       -0.7520    -2.6000     0.7960 H     1 <1>   0.0800 
 35 H       -2.2250    -2.8650    -0.1090 H     1 <1>   0.0800 
 36 H       -2.2640    -2.8720     1.6440 H     1 <1>   0.0800 
 37 H        1.3980     2.7160    -1.1540 H     1 <1>   0.0800 
 38 H        0.3050     2.0190    -0.0070 H     1 <1>   0.0800 
 39 H        4.4310     1.0600     0.1460 H     1 <1>   0.0800 
 40 H        3.8470     2.1850    -1.0490 H     1 <1>   0.0800 
 41 H       -4.5560    -2.3790     0.9240 H     1 <1>   0.1500 
 42 H       -4.1470     0.5670    -2.1010 H     1 <1>   0.1500 
 43 H        0.1040     0.9100    -2.2000 H     1 <1>   0.0800 
 44 H        0.6440    -0.2070    -0.9840 H     1 <1>   0.0800 
 45 H        3.2640    -0.7810    -0.9200 H     1 <1>   0.0800 
 46 H        4.2780     0.0050    -2.0920 H     1 <1>   0.0800 
 47 H       -5.9640    -0.4930    -3.3720 H     1 <1>   0.1500 
 48 H        2.3720     1.1750    -3.0560 H     1 <1>   0.0800 
 49 H        2.0000    -0.5260    -2.9950 H     1 <1>   0.0800 
 50 H       -7.4120    -3.9230    -0.5400 H     1 <1>   0.3700 
 51 H       -7.0220    -2.5410    -2.5280 H     1 <1>   0.1500 
 52 H       -5.7340    -6.2930     2.6730 H     1 <1>   0.1500 
 53 H       -7.8900    -6.0030    -0.9920 H     1 <1>   0.1500 
 54 H       -7.1350    -8.1930     3.3400 H     1 <1>   0.1500 
 55 H       -9.2890    -7.8870    -0.3180 H     1 <1>   0.1500 
 56 H       -8.9210    -8.9910     1.8470 H     1 <1>   0.1500 
@<TRIPOS>BOND
  1   1   2  1   
  2   1   3  1   
  3   2   4  2   
  4   2   5  1   
  5   3   6  1   
  6   3  32  1   
  7   3  33  1   
  8   4   7  1   
  9   5   8  1   
 10   5   9  1   
 11   6  10  2   
 12   6  11  am  
 13   7   8  2   
 14   8  12  1   
 15   9  34  1   
 16   9  35  1   
 17   9  36  1   
 18  11  13  1   
 19  11  14  1   
 20  12  15  ar  
 21  12  16  ar  
 22  13  17  1   
 23  13  37  1   
 24  13  38  1   
 25  14  18  1   
 26  14  39  1   
 27  14  40  1   
 28  15  19  ar  
 29  15  41  1   
 30  16  20  ar  
 31  16  42  1   
 32  17  21  1   
 33  17  43  1   
 34  17  44  1   
 35  18  21  1   
 36  18  45  1   
 37  18  46  1   
 38  19  22  1   
 39  19  23  ar  
 40  20  23  ar  
 41  20  47  1   
 42  21  48  1   
 43  21  49  1   
 44  22  24  am  
 45  22  50  1   
 46  23  51  1   
 47  24  25  2   
 48  24  26  1   
 49  26  27  ar  
 50  26  28  ar  
 51  27  29  ar  
 52  27  52  1   
 53  28  30  ar  
 54  28  53  1   
 55  29  31  ar  
 56  29  54  1   
 57  30  31  ar  
 58  30  55  1   
 59  31  56  1   
@<TRIPOS>SUBSTRUCTURE
  1 ****   5 GROUP 4 **** **** 0

# MOE 2024.06 (io_trps.svl 2023.06)
