@<TRIPOS>MOLECULE
NONAME
38 39 1 0 0 
SMALL
USER_CHARGES


@<TRIPOS>ATOM
  1 S       -0.7440     0.6430    -0.9570 S.3   1 <1>  -0.2860 
  2 C       -1.9730    -0.4800    -0.3000 C.2   1 <1>   0.5340 
  3 C       -0.0850     1.4860     0.5480 C.3   1 <1>  -0.0100 
  4 O       -2.6450    -1.2150    -1.1170 O.3   1 <1>  -0.2800 
  5 N       -2.2680    -0.6510     0.9310 N.2   1 <1>  -0.3380 
  6 C       -3.4230    -1.8800    -0.3180 C.2   1 <1>   0.2980 
  7 N       -3.2290    -1.5800     0.9190 N.2   1 <1>  -0.3380 
  8 C       -4.4080    -2.8980    -0.9020 C.3   1 <1>   0.4000 
  9 N       -5.7590    -2.8130    -0.3050 N.am  1 <1>  -0.6600 
 10 C       -3.9690    -4.3440    -0.6380 C.3   1 <1>  -0.1600 
 11 C       -6.5640    -1.7350    -0.5020 C.2   1 <1>   0.7800 
 12 C       -6.1730    -4.0850     0.3090 C.3   1 <1>   0.1400 
 13 C       -5.2540    -5.1160    -0.3340 C.3   1 <1>  -0.1600 
 14 O       -6.2220    -0.8060    -1.2050 O.2   1 <1>  -0.5700 
 15 O       -7.7540    -1.7550     0.1030 O.3   1 <1>  -0.4300 
 16 C       -8.7380    -0.7450     0.0790 C.3   1 <1>   0.2800 
 17 C       -9.8740    -1.2760     0.9550 C.3   1 <1>  -0.2400 
 18 C       -8.1870     0.5460     0.6950 C.3   1 <1>  -0.2400 
 19 C       -9.2550    -0.5400    -1.3490 C.3   1 <1>  -0.2400 
 20 H        0.6700     2.1820     0.2320 H     1 <1>   0.0800 
 21 H        0.3280     0.7310     1.1940 H     1 <1>   0.0800 
 22 H       -0.9040     1.9920     1.0270 H     1 <1>   0.0800 
 23 H       -4.5000    -2.7320    -1.9620 H     1 <1>   0.0800 
 24 H       -3.3260    -4.3700     0.2250 H     1 <1>   0.0800 
 25 H       -3.4340    -4.7520    -1.4770 H     1 <1>   0.0800 
 26 H       -7.2120    -4.2970     0.1150 H     1 <1>   0.0800 
 27 H       -6.0030    -4.0320     1.3720 H     1 <1>   0.0800 
 28 H       -5.0840    -5.9580     0.3140 H     1 <1>   0.0800 
 29 H       -5.7020    -5.4620    -1.2490 H     1 <1>   0.0800 
 30 H       -9.5220    -1.4500     1.9560 H     1 <1>   0.0800 
 31 H      -10.2580    -2.1950     0.5520 H     1 <1>   0.0800 
 32 H      -10.6770    -0.5630     0.9980 H     1 <1>   0.0800 
 33 H       -7.7650     0.3480     1.6640 H     1 <1>   0.0800 
 34 H       -8.9760     1.2670     0.8060 H     1 <1>   0.0800 
 35 H       -7.4340     0.9860     0.0670 H     1 <1>   0.0800 
 36 H       -9.5650    -1.4780    -1.7730 H     1 <1>   0.0800 
 37 H       -8.5010    -0.1010    -1.9760 H     1 <1>   0.0800 
 38 H      -10.0980     0.1260    -1.3420 H     1 <1>   0.0800 
@<TRIPOS>BOND
  1   1   2  1   
  2   1   3  1   
  3   2   4  1   
  4   2   5  2   
  5   3  20  1   
  6   3  21  1   
  7   3  22  1   
  8   4   6  1   
  9   5   7  1   
 10   6   7  2   
 11   6   8  1   
 12   8   9  1   
 13   8  10  1   
 14   8  23  1   
 15   9  11  am  
 16   9  12  1   
 17  10  13  1   
 18  10  24  1   
 19  10  25  1   
 20  11  14  2   
 21  11  15  1   
 22  12  13  1   
 23  12  26  1   
 24  12  27  1   
 25  13  28  1   
 26  13  29  1   
 27  15  16  1   
 28  16  17  1   
 29  16  18  1   
 30  16  19  1   
 31  17  30  1   
 32  17  31  1   
 33  17  32  1   
 34  18  33  1   
 35  18  34  1   
 36  18  35  1   
 37  19  36  1   
 38  19  37  1   
 39  19  38  1   
@<TRIPOS>SUBSTRUCTURE
  1 ****   9 GROUP 4 **** **** 0

# MOE 2024.06 (io_trps.svl 2023.06)
