@<TRIPOS>MOLECULE
NONAME
45 46 1 0 0 
SMALL
USER_CHARGES


@<TRIPOS>ATOM
  1 S        0.4650    -0.9580     1.8440 S.o2  1 <1>   1.4470 
  2 O        1.8130    -1.4840     1.8790 O.2   1 <1>  -0.6500 
  3 O        0.0030    -0.1000     2.9120 O.2   1 <1>  -0.6500 
  4 N        0.3050    -0.1090     0.3800 N.am  1 <1>  -0.8490 
  5 C       -0.7300    -2.3060     1.6270 C.ar  1 <1>  -0.0090 
  6 C        0.9890    -0.7850    -0.7230 C.3   1 <1>   0.1960 
  7 C        0.7120     1.2940     0.5070 C.3   1 <1>   0.1960 
  8 C       -2.0400    -2.0270     1.2710 C.ar  1 <1>  -0.1500 
  9 C       -0.3760    -3.6350     1.8010 C.ar  1 <1>  -0.1500 
 10 C        0.3590    -0.3760    -2.0540 C.3   1 <1>  -0.2400 
 11 C       -0.5410     2.1520     0.6400 C.3   1 <1>  -0.2400 
 12 C       -2.9980    -3.0190     1.0610 C.ar  1 <1>   0.0860 
 13 C       -1.3020    -4.6450     1.6140 C.ar  1 <1>  -0.1500 
 14 C       -2.6030    -4.3500     1.2440 C.ar  1 <1>  -0.1440 
 15 C       -4.3340    -2.6290     0.6490 C.2   1 <1>   0.5440 
 16 C       -3.5860    -5.4980     1.0400 C.3   1 <1>  -0.0970 
 17 O       -5.3150    -3.0210     1.2460 O.2   1 <1>  -0.5700 
 18 N       -4.4610    -1.7850    -0.4310 N.am  1 <1>  -0.5470 
 19 C       -5.5940    -1.2090    -1.0380 C.ar  1 <1>   0.1170 
 20 C       -5.4640    -0.0280    -1.7710 C.ar  1 <1>   0.1600 
 21 C       -6.8590    -1.7710    -0.9620 C.ar  1 <1>  -0.1500 
 22 N       -6.4370     0.6060    -2.4050 N.ar  1 <1>  -0.6200 
 23 C       -7.8900    -1.1250    -1.6100 C.ar  1 <1>  -0.1500 
 24 C       -7.6310     0.0430    -2.3070 C.ar  1 <1>   0.1600 
 25 H        0.8830    -1.8530    -0.6200 H     1 <1>   0.0800 
 26 H        2.0440    -0.5580    -0.7080 H     1 <1>   0.0800 
 27 H        1.2590     1.6190    -0.3620 H     1 <1>   0.0800 
 28 H        1.3550     1.4330     1.3620 H     1 <1>   0.0800 
 29 H       -2.3240    -0.9940     1.1590 H     1 <1>   0.1500 
 30 H        0.6330    -3.8840     2.0870 H     1 <1>   0.1500 
 31 H       -0.6920    -0.6000    -2.0480 H     1 <1>   0.0800 
 32 H        0.8200    -0.9290    -2.8520 H     1 <1>   0.0800 
 33 H        0.4990     0.6710    -2.2480 H     1 <1>   0.0800 
 34 H       -1.1720     2.0260    -0.2210 H     1 <1>   0.0800 
 35 H       -0.2630     3.1880     0.7130 H     1 <1>   0.0800 
 36 H       -1.0880     1.8870     1.5270 H     1 <1>   0.0800 
 37 H       -0.9980    -5.6680     1.7610 H     1 <1>   0.1500 
 38 H       -4.0810    -5.4040     0.0900 H     1 <1>   0.0800 
 39 H       -4.3300    -5.4830     1.8180 H     1 <1>   0.0800 
 40 H       -3.0870    -6.4490     1.0670 H     1 <1>   0.0800 
 41 H       -3.5700    -1.5020    -0.8360 H     1 <1>   0.3700 
 42 H       -4.4900     0.4190    -1.8350 H     1 <1>   0.1500 
 43 H       -7.0380    -2.6810    -0.4200 H     1 <1>   0.1500 
 44 H       -8.8880    -1.5230    -1.5750 H     1 <1>   0.1500 
 45 H       -8.4450     0.5370    -2.8090 H     1 <1>   0.1500 
@<TRIPOS>BOND
  1   1   2  2   
  2   1   3  2   
  3   1   4  am  
  4   1   5  1   
  5   4   6  1   
  6   4   7  1   
  7   5   8  ar  
  8   5   9  ar  
  9   6  10  1   
 10   6  25  1   
 11   6  26  1   
 12   7  11  1   
 13   7  27  1   
 14   7  28  1   
 15   8  12  ar  
 16   8  29  1   
 17   9  13  ar  
 18   9  30  1   
 19  10  31  1   
 20  10  32  1   
 21  10  33  1   
 22  11  34  1   
 23  11  35  1   
 24  11  36  1   
 25  12  14  ar  
 26  12  15  1   
 27  13  14  ar  
 28  13  37  1   
 29  14  16  1   
 30  15  17  2   
 31  15  18  am  
 32  16  38  1   
 33  16  39  1   
 34  16  40  1   
 35  18  19  1   
 36  18  41  1   
 37  19  20  ar  
 38  19  21  ar  
 39  20  22  ar  
 40  20  42  1   
 41  21  23  ar  
 42  21  43  1   
 43  22  24  ar  
 44  23  24  ar  
 45  23  44  1   
 46  24  45  1   
@<TRIPOS>SUBSTRUCTURE
  1 ****   8 GROUP 4 **** **** 0

# MOE 2024.06 (io_trps.svl 2023.06)
