@<TRIPOS>MOLECULE
NONAME
37 37 1 0 0 
SMALL
USER_CHARGES


@<TRIPOS>ATOM
  1 S       -0.1300    -0.4320    -2.1390 S.o2  1 <1>   1.3330 
  2 O       -1.1190    -1.1610    -2.8930 O.2   1 <1>  -0.6500 
  3 O        0.2730     0.9030    -2.5080 O.2   1 <1>  -0.6500 
  4 N        1.2640    -1.4270    -2.1750 N.am  1 <1>  -0.7570 
  5 C       -0.5700    -0.4750    -0.3990 C.3   1 <1>  -0.0550 
  6 C        2.3850    -1.2240    -1.3750 C.ar  1 <1>   0.1990 
  7 C       -1.8510     0.3070    -0.0660 C.3   1 <1>  -0.1600 
  8 C        2.7840    -2.2130    -0.4690 C.ar  1 <1>   0.0830 
  9 C        3.1130    -0.0470    -1.4590 C.ar  1 <1>  -0.1500 
 10 C       -2.1700     0.2370     1.4320 C.3   1 <1>  -0.1600 
 11 O        2.0290    -3.3540    -0.4170 O.3   1 <1>  -0.3630 
 12 C        3.8970    -2.0040     0.3350 C.ar  1 <1>  -0.1500 
 13 C        4.2210     0.1600    -0.6560 C.ar  1 <1>  -0.1500 
 14 C       -3.4460     1.0180     1.7570 C.3   1 <1>  -0.2400 
 15 C        2.4340    -4.4520     0.3740 C.3   1 <1>   0.0400 
 16 C        4.6160    -0.8230     0.2470 C.ar  1 <1>   0.0830 
 17 O        5.6900    -0.7040     1.0740 O.3   1 <1>  -0.3630 
 18 C        6.5120     0.4420     1.0320 C.3   1 <1>   0.0400 
 19 H        0.9830    -2.4010    -2.2580 H     1 <1>   0.4200 
 20 H        0.2400    -0.0670     0.1740 H     1 <1>   0.0800 
 21 H       -0.7000    -1.4970    -0.0980 H     1 <1>   0.0800 
 22 H       -2.6720    -0.1030    -0.6310 H     1 <1>   0.0800 
 23 H       -1.7240     1.3350    -0.3620 H     1 <1>   0.0800 
 24 H        2.8120     0.7100    -2.1620 H     1 <1>   0.1500 
 25 H       -1.3510     0.6490     1.9980 H     1 <1>   0.0800 
 26 H       -2.3000    -0.7900     1.7300 H     1 <1>   0.0800 
 27 H        4.2340    -2.7350     1.0430 H     1 <1>   0.1500 
 28 H        4.7570     1.0850    -0.7500 H     1 <1>   0.1500 
 29 H       -3.3330     2.0540     1.4880 H     1 <1>   0.0800 
 30 H       -3.6560     0.9600     2.8100 H     1 <1>   0.0800 
 31 H       -4.2840     0.6110     1.2190 H     1 <1>   0.0800 
 32 H        1.7300    -5.2510     0.2240 H     1 <1>   0.0800 
 33 H        2.4340    -4.1570     1.4090 H     1 <1>   0.0800 
 34 H        3.4140    -4.7660     0.0620 H     1 <1>   0.0800 
 35 H        7.3000     0.3140     1.7520 H     1 <1>   0.0800 
 36 H        5.9220     1.3050     1.2870 H     1 <1>   0.0800 
 37 H        6.9300     0.5370     0.0460 H     1 <1>   0.0800 
@<TRIPOS>BOND
  1   1   2  2   
  2   1   3  2   
  3   1   4  am  
  4   1   5  1   
  5   4   6  1   
  6   4  19  1   
  7   5   7  1   
  8   5  20  1   
  9   5  21  1   
 10   6   8  ar  
 11   6   9  ar  
 12   7  10  1   
 13   7  22  1   
 14   7  23  1   
 15   8  11  1   
 16   8  12  ar  
 17   9  13  ar  
 18   9  24  1   
 19  10  14  1   
 20  10  25  1   
 21  10  26  1   
 22  11  15  1   
 23  12  16  ar  
 24  12  27  1   
 25  13  16  ar  
 26  13  28  1   
 27  14  29  1   
 28  14  30  1   
 29  14  31  1   
 30  15  32  1   
 31  15  33  1   
 32  15  34  1   
 33  16  17  1   
 34  17  18  1   
 35  18  35  1   
 36  18  36  1   
 37  18  37  1   
@<TRIPOS>SUBSTRUCTURE
  1 ****   6 GROUP 4 **** **** 0

# MOE 2024.06 (io_trps.svl 2023.06)
