@<TRIPOS>MOLECULE
NONAME
34 35 1 0 0 
SMALL
USER_CHARGES


@<TRIPOS>ATOM
  1 O        2.5860     5.5250    -2.4120 O.2   1 <1>  -0.5700 
  2 C        2.5590     4.8440    -1.4160 C.2   1 <1>   0.4950 
  3 C        1.3700     4.2910    -0.8790 C.2   1 <1>  -0.1360 
  4 C        3.8620     4.5740    -0.6860 C.3   1 <1>  -0.0990 
  5 C        1.3100     3.4850     0.2110 C.2   1 <1>  -0.0380 
  6 C        3.8550     3.2150     0.0500 C.3   1 <1>   0.0000 
  7 N        0.1480     2.9760     0.7510 N.pl3 1 <1>  -0.6000 
  8 C        2.5930     3.0960     0.9390 C.3   1 <1>  -0.0220 
  9 C        5.1130     3.1050     0.9250 C.3   1 <1>  -0.2400 
 10 C        3.8830     2.0650    -0.9760 C.3   1 <1>  -0.2400 
 11 C       -1.1650     3.3280     0.4140 C.ar  1 <1>   0.1000 
 12 C       -1.6790     4.6110     0.6480 C.ar  1 <1>   0.0730 
 13 C       -1.9780     2.3620    -0.1640 C.ar  1 <1>  -0.1500 
 14 C       -0.8880     5.6340     1.2680 C.1   1 <1>   0.4840 
 15 C       -2.9930     4.8850     0.2810 C.ar  1 <1>  -0.1500 
 16 C       -3.2810     2.6490    -0.5190 C.ar  1 <1>  -0.1500 
 17 N       -0.2810     6.4620     1.7680 N.1   1 <1>  -0.5570 
 18 C       -3.7910     3.9160    -0.2980 C.ar  1 <1>  -0.1500 
 19 H        0.4780     4.5610    -1.4120 H     1 <1>   0.1500 
 20 H        4.0070     5.3720     0.0190 H     1 <1>   0.0800 
 21 H        4.6720     4.6090    -1.3920 H     1 <1>   0.0800 
 22 H        0.2350     2.2640     1.4850 H     1 <1>   0.4000 
 23 H        2.5140     2.0870     1.3030 H     1 <1>   0.0800 
 24 H        2.6900     3.7430     1.7940 H     1 <1>   0.0800 
 25 H        5.1400     3.8940     1.6560 H     1 <1>   0.0800 
 26 H        6.0010     3.1750     0.3220 H     1 <1>   0.0800 
 27 H        5.1320     2.1630     1.4450 H     1 <1>   0.0800 
 28 H        3.0120     2.0810    -1.6070 H     1 <1>   0.0800 
 29 H        3.9150     1.1130    -0.4770 H     1 <1>   0.0800 
 30 H        4.7520     2.1420    -1.6060 H     1 <1>   0.0800 
 31 H       -1.5800     1.3790    -0.3430 H     1 <1>   0.1500 
 32 H       -3.3980     5.8690     0.4520 H     1 <1>   0.1500 
 33 H       -3.9000     1.8910    -0.9700 H     1 <1>   0.1500 
 34 H       -4.8060     4.1440    -0.5770 H     1 <1>   0.1500 
@<TRIPOS>BOND
  1   1   2  2   
  2   2   3  1   
  3   2   4  1   
  4   3   5  2   
  5   3  19  1   
  6   4   6  1   
  7   4  20  1   
  8   4  21  1   
  9   5   7  1   
 10   5   8  1   
 11   6   8  1   
 12   6   9  1   
 13   6  10  1   
 14   7  11  1   
 15   7  22  1   
 16   8  23  1   
 17   8  24  1   
 18   9  25  1   
 19   9  26  1   
 20   9  27  1   
 21  10  28  1   
 22  10  29  1   
 23  10  30  1   
 24  11  12  ar  
 25  11  13  ar  
 26  12  14  1   
 27  12  15  ar  
 28  13  16  ar  
 29  13  31  1   
 30  14  17  3   
 31  15  18  ar  
 32  15  32  1   
 33  16  18  ar  
 34  16  33  1   
 35  18  34  1   
@<TRIPOS>SUBSTRUCTURE
  1 ****   5 GROUP 4 **** **** 0

# MOE 2024.06 (io_trps.svl 2023.06)
