@<TRIPOS>MOLECULE
NONAME
52 53 1 0 0 
SMALL
USER_CHARGES


@<TRIPOS>ATOM
  1 N        0.2490    -0.2230     0.8390 N.4   1 <1>  -0.9590 
  2 C        1.3970     0.7430     0.8740 C.3   1 <1>   0.4230 
  3 C       -0.0110    -0.8170    -0.5330 C.3   1 <1>   0.3430 
  4 C       -0.9960     0.3930     1.4400 C.3   1 <1>   0.3430 
  5 C        1.2440     1.8980    -0.1260 C.3   1 <1>  -0.1600 
  6 C        2.7130     0.0010     0.6340 C.3   1 <1>  -0.1600 
  7 C       -1.2500    -1.7570    -0.5750 C.3   1 <1>   0.3430 
  8 C       -2.2370    -0.5450     1.3930 C.3   1 <1>   0.3430 
  9 C        2.4260     2.8700    -0.0060 C.3   1 <1>  -0.1600 
 10 C        3.9050     0.9630     0.7540 C.3   1 <1>  -0.1600 
 11 N       -2.4950    -1.1390     0.0230 N.4   1 <1>  -0.9590 
 12 C        3.7900     2.1650    -0.2160 C.3   1 <1>  -0.0800 
 13 C       -3.6050    -2.1400     0.0510 C.3   1 <1>   0.3430 
 14 C        5.0170     3.1390    -0.1610 C.3   1 <1>   0.0000 
 15 C       -4.9340    -1.4290     0.2800 C.3   1 <1>  -0.2400 
 16 C        6.3220     2.3840    -0.4760 C.3   1 <1>  -0.2400 
 17 C        5.1860     3.8200     1.2100 C.3   1 <1>  -0.2400 
 18 C        4.8800     4.2450    -1.2230 C.3   1 <1>  -0.2400 
 19 H        0.5510    -0.9890     1.4600 H     1 <1>   0.4500 
 20 H        1.4530     1.1750     1.8620 H     1 <1>   0.0800 
 21 H        0.8550    -1.3700    -0.8600 H     1 <1>   0.0800 
 22 H       -0.1690    -0.0240    -1.2440 H     1 <1>   0.0800 
 23 H       -1.2400     1.2990     0.9090 H     1 <1>   0.0800 
 24 H       -0.8050     0.6680     2.4650 H     1 <1>   0.0800 
 25 H        0.3410     2.4490     0.0610 H     1 <1>   0.0800 
 26 H        1.2260     1.5320    -1.1370 H     1 <1>   0.0800 
 27 H        2.7360    -0.4330    -0.3500 H     1 <1>   0.0800 
 28 H        2.8370    -0.7810     1.3620 H     1 <1>   0.0800 
 29 H       -1.0090    -2.6610    -0.0400 H     1 <1>   0.0800 
 30 H       -1.4410    -2.0350    -1.6000 H     1 <1>   0.0800 
 31 H       -3.1030     0.0130     1.7150 H     1 <1>   0.0800 
 32 H       -2.0900    -1.3410     2.1040 H     1 <1>   0.0800 
 33 H        2.4020     3.3360     0.9640 H     1 <1>   0.0800 
 34 H        2.2920     3.6430    -0.7410 H     1 <1>   0.0800 
 35 H        4.8000     0.4030     0.5480 H     1 <1>   0.0800 
 36 H        3.9710     1.3160     1.7680 H     1 <1>   0.0800 
 37 H       -2.8220    -0.3870    -0.6060 H     1 <1>   0.4500 
 38 H        3.7780     1.7580    -1.2130 H     1 <1>   0.0800 
 39 H       -3.4390    -2.8710     0.8280 H     1 <1>   0.0800 
 40 H       -3.6540    -2.6610    -0.8930 H     1 <1>   0.0800 
 41 H       -4.9860    -0.9800     1.2550 H     1 <1>   0.0800 
 42 H       -5.7300    -2.1520     0.2190 H     1 <1>   0.0800 
 43 H       -5.1130    -0.6860    -0.4760 H     1 <1>   0.0800 
 44 H        7.1440     3.0720    -0.5700 H     1 <1>   0.0800 
 45 H        6.2350     1.8420    -1.4010 H     1 <1>   0.0800 
 46 H        6.5790     1.6940     0.3070 H     1 <1>   0.0800 
 47 H        5.3470     3.0990     1.9890 H     1 <1>   0.0800 
 48 H        4.3280     4.4150     1.4610 H     1 <1>   0.0800 
 49 H        6.0400     4.4750     1.1940 H     1 <1>   0.0800 
 50 H        4.7020     3.8200    -2.1950 H     1 <1>   0.0800 
 51 H        5.7800     4.8320    -1.2770 H     1 <1>   0.0800 
 52 H        4.0780     4.9210    -0.9890 H     1 <1>   0.0800 
@<TRIPOS>BOND
  1   1   2  1   
  2   1   3  1   
  3   1   4  1   
  4   1  19  1   
  5   2   5  1   
  6   2   6  1   
  7   2  20  1   
  8   3   7  1   
  9   3  21  1   
 10   3  22  1   
 11   4   8  1   
 12   4  23  1   
 13   4  24  1   
 14   5   9  1   
 15   5  25  1   
 16   5  26  1   
 17   6  10  1   
 18   6  27  1   
 19   6  28  1   
 20   7  11  1   
 21   7  29  1   
 22   7  30  1   
 23   8  11  1   
 24   8  31  1   
 25   8  32  1   
 26   9  12  1   
 27   9  33  1   
 28   9  34  1   
 29  10  12  1   
 30  10  35  1   
 31  10  36  1   
 32  11  13  1   
 33  11  37  1   
 34  12  14  1   
 35  12  38  1   
 36  13  15  1   
 37  13  39  1   
 38  13  40  1   
 39  14  16  1   
 40  14  17  1   
 41  14  18  1   
 42  15  41  1   
 43  15  42  1   
 44  15  43  1   
 45  16  44  1   
 46  16  45  1   
 47  16  46  1   
 48  17  47  1   
 49  17  48  1   
 50  17  49  1   
 51  18  50  1   
 52  18  51  1   
 53  18  52  1   
@<TRIPOS>SUBSTRUCTURE
  1 ****   2 GROUP 4 **** **** 0

# MOE 2024.06 (io_trps.svl 2023.06)
