@<TRIPOS>MOLECULE
NONAME
47 49 1 0 0 
SMALL
USER_CHARGES


@<TRIPOS>ATOM
  1 F       -4.6800     1.3700    -2.4080 F     1 <1>  -0.1900 
  2 C       -3.6370     1.7410    -1.7050 C.ar  1 <1>   0.1900 
  3 C       -3.4520     1.1940    -0.4320 C.ar  1 <1>   0.1170 
  4 C       -2.7760     2.6610    -2.2690 C.ar  1 <1>  -0.1500 
  5 N       -4.3760     0.2570     0.0700 N.am  1 <1>  -0.5470 
  6 C       -2.3310     1.6100     0.2870 C.ar  1 <1>  -0.1500 
  7 C       -1.6850     3.0410    -1.5140 C.ar  1 <1>   0.1900 
  8 C       -4.6360    -0.2200     1.3220 C.2   1 <1>   0.5690 
  9 C       -1.4460     2.5340    -0.2490 C.ar  1 <1>  -0.1500 
 10 F       -0.8470     3.9110    -2.0130 F     1 <1>  -0.1900 
 11 O       -4.0260     0.1020     2.3130 O.2   1 <1>  -0.5700 
 12 C       -5.7900    -1.2180     1.4430 C.3   1 <1>   0.1710 
 13 N       -6.7500    -1.1620     0.2990 N.3   1 <1>  -0.8100 
 14 C       -7.5960    -2.3770     0.2560 C.3   1 <1>   0.1100 
 15 C       -7.6270     0.0350     0.3940 C.3   1 <1>   0.1100 
 16 C       -8.5960    -2.3580    -0.9190 C.3   1 <1>   0.2090 
 17 C       -8.6040     0.1380    -0.7920 C.3   1 <1>   0.2090 
 18 N       -9.4130    -1.1070    -0.9370 N.pl3 1 <1>  -0.8380 
 19 C      -10.7400    -1.0900    -0.5040 C.ar  1 <1>   0.1000 
 20 C      -11.6550    -0.2630    -1.1410 C.ar  1 <1>  -0.1500 
 21 C      -11.1860    -1.8720     0.5580 C.ar  1 <1>  -0.1500 
 22 C      -12.9770    -0.2020    -0.7390 C.ar  1 <1>   0.0820 
 23 C      -12.5060    -1.8250     0.9680 C.ar  1 <1>  -0.1500 
 24 O      -13.7880     0.6440    -1.4250 O.3   1 <1>  -0.3620 
 25 C      -13.4050    -0.9910     0.3250 C.ar  1 <1>  -0.1500 
 26 C      -15.1590     0.7540    -1.1130 C.3   1 <1>   0.0400 
 27 H       -2.9450     3.0640    -3.2490 H     1 <1>   0.1500 
 28 H       -5.0690    -0.0880    -0.6070 H     1 <1>   0.3700 
 29 H       -2.1420     1.2140     1.2690 H     1 <1>   0.1500 
 30 H       -0.5820     2.8570     0.3060 H     1 <1>   0.1500 
 31 H       -6.3080    -1.0440     2.3690 H     1 <1>   0.0800 
 32 H       -5.3510    -2.1980     1.4900 H     1 <1>   0.0800 
 33 H       -8.1450    -2.4690     1.1770 H     1 <1>   0.0800 
 34 H       -6.9680    -3.2450     0.1540 H     1 <1>   0.0800 
 35 H       -7.0280     0.9280     0.4200 H     1 <1>   0.0800 
 36 H       -8.2010    -0.0030     1.3040 H     1 <1>   0.0800 
 37 H       -9.2440    -3.2150    -0.8610 H     1 <1>   0.0800 
 38 H       -8.0500    -2.4260    -1.8430 H     1 <1>   0.0800 
 39 H       -8.0490     0.3060    -1.6980 H     1 <1>   0.0800 
 40 H       -9.2560     0.9810    -0.6410 H     1 <1>   0.0800 
 41 H      -11.3290     0.3380    -1.9680 H     1 <1>   0.1500 
 42 H      -10.4980    -2.5140     1.0700 H     1 <1>   0.1500 
 43 H      -12.8360    -2.4360     1.7900 H     1 <1>   0.1500 
 44 H      -14.4230    -0.9710     0.6630 H     1 <1>   0.1500 
 45 H      -15.5990     1.4660    -1.7880 H     1 <1>   0.0800 
 46 H      -15.2600     1.0990    -0.1000 H     1 <1>   0.0800 
 47 H      -15.6240    -0.2080    -1.2420 H     1 <1>   0.0800 
@<TRIPOS>BOND
  1   1   2  1   
  2   2   3  ar  
  3   2   4  ar  
  4   3   5  1   
  5   3   6  ar  
  6   4   7  ar  
  7   4  27  1   
  8   5   8  am  
  9   5  28  1   
 10   6   9  ar  
 11   6  29  1   
 12   7   9  ar  
 13   7  10  1   
 14   8  11  2   
 15   8  12  1   
 16   9  30  1   
 17  12  13  1   
 18  12  31  1   
 19  12  32  1   
 20  13  14  1   
 21  13  15  1   
 22  14  16  1   
 23  14  33  1   
 24  14  34  1   
 25  15  17  1   
 26  15  35  1   
 27  15  36  1   
 28  16  18  1   
 29  16  37  1   
 30  16  38  1   
 31  17  18  1   
 32  17  39  1   
 33  17  40  1   
 34  18  19  1   
 35  19  20  ar  
 36  19  21  ar  
 37  20  22  ar  
 38  20  41  1   
 39  21  23  ar  
 40  21  42  1   
 41  22  24  1   
 42  22  25  ar  
 43  23  25  ar  
 44  23  43  1   
 45  24  26  1   
 46  25  44  1   
 47  26  45  1   
 48  26  46  1   
 49  26  47  1   
@<TRIPOS>SUBSTRUCTURE
  1 ****  15 GROUP 4 **** **** 0

# MOE 2024.06 (io_trps.svl 2023.06)
