@<TRIPOS>MOLECULE
NONAME
33 35 1 0 0 
SMALL
USER_CHARGES


@<TRIPOS>ATOM
  1 S        0.9870    -0.0850     1.8280 S.3   1 <1>  -0.4600 
  2 C        2.7050     0.4090     1.5330 C.3   1 <1>   0.0700 
  3 C        0.5430    -0.9130     0.2800 C.3   1 <1>   0.0700 
  4 C        3.5100    -0.8200     1.0890 C.3   1 <1>   0.3430 
  5 C        1.5840    -1.9990    -0.0210 C.3   1 <1>   0.3430 
  6 N        2.9720    -1.4440    -0.1730 N.4   1 <1>  -0.9590 
  7 C        3.9040    -2.4790    -0.6910 C.3   1 <1>   0.5240 
  8 C        5.1650    -1.7720    -1.1270 C.2   1 <1>  -0.1810 
  9 C        6.3390    -1.7050    -0.3430 C.ar  1 <1>   0.0000 
 10 C        5.3940    -1.0900    -2.2770 C.2   1 <1>  -0.3020 
 11 C        7.2470    -0.9440    -1.0710 C.ar  1 <1>  -0.1520 
 12 C        6.7140    -2.2160     0.9060 C.ar  1 <1>  -0.1500 
 13 N        6.6640    -0.5820    -2.2580 N.pl3 1 <1>   0.0330 
 14 C        8.5190    -0.6630    -0.5670 C.ar  1 <1>  -0.1500 
 15 C        7.9670    -1.9390     1.4020 C.ar  1 <1>  -0.1500 
 16 C        8.8680    -1.1610     0.6660 C.ar  1 <1>  -0.1500 
 17 H        3.0830     0.8050     2.4590 H     1 <1>   0.0800 
 18 H        2.7060     1.1810     0.7840 H     1 <1>   0.0800 
 19 H        0.5020    -0.1680    -0.4950 H     1 <1>   0.0800 
 20 H       -0.4350    -1.3390     0.4220 H     1 <1>   0.0800 
 21 H        3.5030    -1.5450     1.8860 H     1 <1>   0.0800 
 22 H        4.5310    -0.5100     0.9350 H     1 <1>   0.0800 
 23 H        1.2950    -2.5040    -0.9290 H     1 <1>   0.0800 
 24 H        1.5680    -2.7220     0.7790 H     1 <1>   0.0800 
 25 H        2.9680    -0.7090    -0.8920 H     1 <1>   0.4500 
 26 H        3.4710    -2.9780    -1.5420 H     1 <1>   0.0800 
 27 H        4.1270    -3.2130     0.0670 H     1 <1>   0.0800 
 28 H        4.7450    -0.9260    -3.1210 H     1 <1>   0.1500 
 29 H        6.0330    -2.8240     1.4720 H     1 <1>   0.1500 
 30 H        7.1250    -0.0400    -2.9970 H     1 <1>   0.2700 
 31 H        9.2100    -0.0690    -1.1390 H     1 <1>   0.1500 
 32 H        8.2740    -2.3220     2.3600 H     1 <1>   0.1500 
 33 H        9.8430    -0.9600     1.0770 H     1 <1>   0.1500 
@<TRIPOS>BOND
  1   1   2  1   
  2   1   3  1   
  3   2   4  1   
  4   2  17  1   
  5   2  18  1   
  6   3   5  1   
  7   3  19  1   
  8   3  20  1   
  9   4   6  1   
 10   4  21  1   
 11   4  22  1   
 12   5   6  1   
 13   5  23  1   
 14   5  24  1   
 15   6   7  1   
 16   6  25  1   
 17   7   8  1   
 18   7  26  1   
 19   7  27  1   
 20   8   9  1   
 21   8  10  2   
 22   9  11  ar  
 23   9  12  ar  
 24  10  13  1   
 25  10  28  1   
 26  11  13  1   
 27  11  14  ar  
 28  12  15  ar  
 29  12  29  1   
 30  13  30  1   
 31  14  16  ar  
 32  14  31  1   
 33  15  16  ar  
 34  15  32  1   
 35  16  33  1   
@<TRIPOS>SUBSTRUCTURE
  1 ****   8 GROUP 4 **** **** 0

# MOE 2024.06 (io_trps.svl 2023.06)
