@<TRIPOS>MOLECULE
NONAME
37 37 1 0 0 
SMALL
USER_CHARGES


@<TRIPOS>ATOM
  1 CL      -2.3420    -3.7230    -2.2810 Cl    1 <1>  -0.1770 
  2 C       -0.8320    -3.2000    -1.5590 C.ar  1 <1>   0.1770 
  3 C       -0.5060    -3.5850    -0.2590 C.ar  1 <1>   0.0820 
  4 C        0.0130    -2.4010    -2.3030 C.ar  1 <1>  -0.1500 
  5 O       -1.3500    -4.3670     0.4590 O.3   1 <1>  -0.3630 
  6 C        0.6840    -3.1460     0.3170 C.ar  1 <1>  -0.1440 
  7 C        1.1950    -1.9830    -1.7230 C.ar  1 <1>   0.1770 
  8 C       -1.3650    -5.7480     0.1450 C.3   1 <1>   0.1200 
  9 C        1.5350    -2.3430    -0.4300 C.ar  1 <1>  -0.1500 
 10 C        1.0610    -3.5250     1.7420 C.3   1 <1>  -0.0960 
 11 CL       2.2830    -0.9760    -2.6420 Cl    1 <1>  -0.1770 
 12 C       -2.7620    -6.3030     0.4540 C.3   1 <1>   0.3430 
 13 N       -3.8070    -5.3420     0.0000 N.4   1 <1>  -0.9060 
 14 C       -5.1850    -5.7060     0.3900 C.3   1 <1>   0.3430 
 15 C       -6.1380    -4.6260    -0.1160 C.3   1 <1>  -0.1600 
 16 C       -7.5870    -4.9540     0.2620 C.3   1 <1>  -0.1600 
 17 C       -8.5430    -3.8710    -0.2450 C.3   1 <1>  -0.2400 
 18 H       -0.2370    -2.1070    -3.3060 H     1 <1>   0.1500 
 19 H       -0.6110    -6.2410     0.7340 H     1 <1>   0.0800 
 20 H       -1.1330    -5.8810    -0.8980 H     1 <1>   0.0800 
 21 H        2.4650    -1.9880    -0.0200 H     1 <1>   0.1500 
 22 H        1.2780    -4.5760     1.7990 H     1 <1>   0.0800 
 23 H        0.2510    -3.2990     2.4130 H     1 <1>   0.0800 
 24 H        1.9290    -2.9810     2.0690 H     1 <1>   0.0800 
 25 H       -2.8440    -6.4510     1.5190 H     1 <1>   0.0800 
 26 H       -2.8900    -7.2590    -0.0280 H     1 <1>   0.0800 
 27 H       -3.7450    -5.2090    -1.0190 H     1 <1>   0.4500 
 28 H       -3.5550    -4.4210     0.3940 H     1 <1>   0.4500 
 29 H       -5.2610    -5.7810     1.4630 H     1 <1>   0.0800 
 30 H       -5.4550    -6.6570    -0.0420 H     1 <1>   0.0800 
 31 H       -6.0670    -4.5510    -1.1880 H     1 <1>   0.0800 
 32 H       -5.8730    -3.6760     0.3170 H     1 <1>   0.0800 
 33 H       -7.6830    -5.0280     1.3330 H     1 <1>   0.0800 
 34 H       -7.8760    -5.9000    -0.1650 H     1 <1>   0.0800 
 35 H       -8.3000    -2.9150     0.1860 H     1 <1>   0.0800 
 36 H       -9.5550    -4.1160     0.0290 H     1 <1>   0.0800 
 37 H       -8.4950    -3.7900    -1.3170 H     1 <1>   0.0800 
@<TRIPOS>BOND
  1   1   2  1   
  2   2   3  ar  
  3   2   4  ar  
  4   3   5  1   
  5   3   6  ar  
  6   4   7  ar  
  7   4  18  1   
  8   5   8  1   
  9   6   9  ar  
 10   6  10  1   
 11   7   9  ar  
 12   7  11  1   
 13   8  12  1   
 14   8  19  1   
 15   8  20  1   
 16   9  21  1   
 17  10  22  1   
 18  10  23  1   
 19  10  24  1   
 20  12  13  1   
 21  12  25  1   
 22  12  26  1   
 23  13  14  1   
 24  13  27  1   
 25  13  28  1   
 26  14  15  1   
 27  14  29  1   
 28  14  30  1   
 29  15  16  1   
 30  15  31  1   
 31  15  32  1   
 32  16  17  1   
 33  16  33  1   
 34  16  34  1   
 35  17  35  1   
 36  17  36  1   
 37  17  37  1   
@<TRIPOS>SUBSTRUCTURE
  1 ****   5 GROUP 4 **** **** 0

# MOE 2024.06 (io_trps.svl 2023.06)
