@<TRIPOS>MOLECULE
NONAME
46 49 1 0 0 
SMALL
USER_CHARGES


@<TRIPOS>ATOM
  1 O        0.1970     0.9730    -0.1860 O.2   1 <1>  -0.5700 
  2 C       -0.6300     1.8480    -0.3330 C.2   1 <1>   0.5690 
  3 N       -1.9280     1.4770    -0.6210 N.am  1 <1>  -0.6600 
  4 C       -0.1440     3.3260    -0.2040 C.3   1 <1>   0.0610 
  5 C       -3.1340     2.3080    -0.8500 C.3   1 <1>   0.1400 
  6 C       -2.2700     0.0420    -0.7840 C.3   1 <1>   0.1400 
  7 C        1.3180     3.3700     0.3320 C.3   1 <1>  -0.1600 
  8 C       -1.0030     4.1610     0.7840 C.3   1 <1>  -0.1600 
  9 C       -0.1330     4.0240    -1.5880 C.3   1 <1>  -0.1600 
 10 C       -4.1290     1.3780    -1.5310 C.3   1 <1>  -0.1600 
 11 C       -3.7790    -0.0020    -0.9910 C.3   1 <1>  -0.1600 
 12 C        1.8600     4.8080     0.4500 C.3   1 <1>   0.0000 
 13 C       -0.4970     5.6130     0.8970 C.3   1 <1>   0.0000 
 14 C        0.3720     5.4740    -1.4770 C.3   1 <1>  -0.0800 
 15 C        0.9540     5.5990     1.4120 C.3   1 <1>  -0.1600 
 16 C        1.8130     5.4690    -0.9410 C.3   1 <1>  -0.1600 
 17 C        3.3000     4.7890     0.9770 C.3   1 <1>  -0.2400 
 18 C       -0.5270     6.2580    -0.5040 C.3   1 <1>  -0.1600 
 19 C       -1.3870     6.4080     1.8610 C.3   1 <1>  -0.2400 
 20 H       -2.9310     3.1660    -1.4620 H     1 <1>   0.0800 
 21 H       -3.5290     2.6190     0.1020 H     1 <1>   0.0800 
 22 H       -1.9720    -0.5210     0.0840 H     1 <1>   0.0800 
 23 H       -1.7570    -0.3410    -1.6500 H     1 <1>   0.0800 
 24 H        1.9580     2.8100    -0.3290 H     1 <1>   0.0800 
 25 H        1.3570     2.8900     1.2940 H     1 <1>   0.0800 
 26 H       -0.9860     3.6900     1.7520 H     1 <1>   0.0800 
 27 H       -2.0220     4.1990     0.4620 H     1 <1>   0.0800 
 28 H       -1.1140     4.0330    -2.0190 H     1 <1>   0.0800 
 29 H        0.5020     3.4710    -2.2590 H     1 <1>   0.0800 
 30 H       -3.9650     1.4080    -2.5940 H     1 <1>   0.0800 
 31 H       -5.1470     1.6570    -1.3220 H     1 <1>   0.0800 
 32 H       -4.2570    -0.1570    -0.0390 H     1 <1>   0.0800 
 33 H       -4.0670    -0.7920    -1.6610 H     1 <1>   0.0800 
 34 H        0.3510     5.9410    -2.4480 H     1 <1>   0.0800 
 35 H        0.9870     5.1510     2.3900 H     1 <1>   0.0800 
 36 H        1.3170     6.6080     1.5030 H     1 <1>   0.0800 
 37 H        2.4490     4.9320    -1.6230 H     1 <1>   0.0800 
 38 H        2.1790     6.4790    -0.8800 H     1 <1>   0.0800 
 39 H        3.3390     4.3260     1.9460 H     1 <1>   0.0800 
 40 H        3.6830     5.7910     1.0610 H     1 <1>   0.0800 
 41 H        3.9370     4.2350     0.3100 H     1 <1>   0.0800 
 42 H       -0.1840     7.2770    -0.4440 H     1 <1>   0.0800 
 43 H       -1.5350     6.2760    -0.8800 H     1 <1>   0.0800 
 44 H       -1.3750     5.9600     2.8390 H     1 <1>   0.0800 
 45 H       -2.4030     6.4290     1.5090 H     1 <1>   0.0800 
 46 H       -1.0370     7.4210     1.9470 H     1 <1>   0.0800 
@<TRIPOS>BOND
  1   1   2  2   
  2   2   3  am  
  3   2   4  1   
  4   3   5  1   
  5   3   6  1   
  6   4   7  1   
  7   4   8  1   
  8   4   9  1   
  9   5  10  1   
 10   5  20  1   
 11   5  21  1   
 12   6  11  1   
 13   6  22  1   
 14   6  23  1   
 15   7  12  1   
 16   7  24  1   
 17   7  25  1   
 18   8  13  1   
 19   8  26  1   
 20   8  27  1   
 21   9  14  1   
 22   9  28  1   
 23   9  29  1   
 24  10  11  1   
 25  10  30  1   
 26  10  31  1   
 27  11  32  1   
 28  11  33  1   
 29  12  15  1   
 30  12  16  1   
 31  12  17  1   
 32  13  15  1   
 33  13  18  1   
 34  13  19  1   
 35  14  16  1   
 36  14  18  1   
 37  14  34  1   
 38  15  35  1   
 39  15  36  1   
 40  16  37  1   
 41  16  38  1   
 42  17  39  1   
 43  17  40  1   
 44  17  41  1   
 45  18  42  1   
 46  18  43  1   
 47  19  44  1   
 48  19  45  1   
 49  19  46  1   
@<TRIPOS>SUBSTRUCTURE
  1 ****   4 GROUP 4 **** **** 0

# MOE 2024.06 (io_trps.svl 2023.06)
