@<TRIPOS>MOLECULE
NONAME
38 39 1 0 0 
SMALL
USER_CHARGES


@<TRIPOS>ATOM
  1 S       -0.0140    -2.5240    -0.5310 S.3   1 <1>  -0.0800 
  2 C        1.0140    -1.4600     0.3740 C.2   1 <1>   0.4420 
  3 C       -1.3540    -1.5870     0.0280 C.2   1 <1>   0.1980 
  4 N        0.3470    -0.5480     0.9840 N.2   1 <1>  -0.3380 
  5 N        2.3640    -1.7270     0.3150 N.am  1 <1>  -0.4940 
  6 N       -1.0050    -0.6270     0.7820 N.2   1 <1>  -0.3380 
  7 C       -2.7410    -1.9890    -0.4180 C.3   1 <1>  -0.0600 
  8 C        3.4410    -1.1280     0.9190 C.2   1 <1>   0.5440 
  9 O        3.2380    -0.2070     1.6830 O.2   1 <1>  -0.5700 
 10 C        4.8050    -1.5770     0.6570 C.ar  1 <1>   0.0860 
 11 C        5.1470    -2.7080    -0.1150 C.ar  1 <1>   0.0830 
 12 C        5.8680    -0.8450     1.2020 C.ar  1 <1>  -0.1500 
 13 O        4.1560    -3.4580    -0.6660 O.3   1 <1>  -0.3620 
 14 C        6.4820    -3.0530    -0.3090 C.ar  1 <1>  -0.1500 
 15 C        7.1900    -1.1920     1.0070 C.ar  1 <1>  -0.1500 
 16 C        4.3890    -4.6240    -1.4240 C.3   1 <1>   0.1200 
 17 C        7.5050    -2.3080     0.2430 C.ar  1 <1>   0.0830 
 18 C        3.0340    -5.1810    -1.8470 C.3   1 <1>  -0.2400 
 19 O        8.7680    -2.7230    -0.0010 O.3   1 <1>  -0.3630 
 20 C        9.8890    -2.0420     0.5140 C.3   1 <1>   0.1200 
 21 C       11.1420    -2.7760     0.0480 C.3   1 <1>  -0.2400 
 22 H        2.6260    -2.5220    -0.2690 H     1 <1>   0.3700 
 23 H       -2.8080    -1.9430    -1.4890 H     1 <1>   0.0800 
 24 H       -3.4670    -1.3180     0.0060 H     1 <1>   0.0800 
 25 H       -2.9560    -2.9890    -0.0900 H     1 <1>   0.0800 
 26 H        5.6510     0.0250     1.7990 H     1 <1>   0.1500 
 27 H        6.7700    -3.9060    -0.8920 H     1 <1>   0.1500 
 28 H        7.9560    -0.5860     1.4540 H     1 <1>   0.1500 
 29 H        4.9180    -5.3330    -0.8090 H     1 <1>   0.0800 
 30 H        4.9800    -4.3620    -2.2850 H     1 <1>   0.0800 
 31 H        2.4440    -5.4270    -0.9820 H     1 <1>   0.0800 
 32 H        3.1760    -6.0760    -2.4260 H     1 <1>   0.0800 
 33 H        2.5080    -4.4650    -2.4530 H     1 <1>   0.0800 
 34 H        9.8250    -2.0430     1.5880 H     1 <1>   0.0800 
 35 H        9.8770    -1.0330     0.1390 H     1 <1>   0.0800 
 36 H       11.1360    -3.7870     0.4140 H     1 <1>   0.0800 
 37 H       12.0170    -2.2790     0.4260 H     1 <1>   0.0800 
 38 H       11.1880    -2.7840    -1.0260 H     1 <1>   0.0800 
@<TRIPOS>BOND
  1   1   2  1   
  2   1   3  1   
  3   2   4  2   
  4   2   5  1   
  5   3   6  2   
  6   3   7  1   
  7   4   6  1   
  8   5   8  am  
  9   5  22  1   
 10   7  23  1   
 11   7  24  1   
 12   7  25  1   
 13   8   9  2   
 14   8  10  1   
 15  10  11  ar  
 16  10  12  ar  
 17  11  13  1   
 18  11  14  ar  
 19  12  15  ar  
 20  12  26  1   
 21  13  16  1   
 22  14  17  ar  
 23  14  27  1   
 24  15  17  ar  
 25  15  28  1   
 26  16  18  1   
 27  16  29  1   
 28  16  30  1   
 29  17  19  1   
 30  18  31  1   
 31  18  32  1   
 32  18  33  1   
 33  19  20  1   
 34  20  21  1   
 35  20  34  1   
 36  20  35  1   
 37  21  36  1   
 38  21  37  1   
 39  21  38  1   
@<TRIPOS>SUBSTRUCTURE
  1 ****  10 GROUP 4 **** **** 0

# MOE 2024.06 (io_trps.svl 2023.06)
