@<TRIPOS>MOLECULE
NONAME
42 44 1 0 0 
SMALL
USER_CHARGES


@<TRIPOS>ATOM
  1 CL       1.3390     1.7390    -2.9570 Cl    1 <1>  -0.1770 
  2 C        0.6030     2.6180    -1.6360 C.ar  1 <1>   0.1770 
  3 C        1.2290     2.7380    -0.3890 C.ar  1 <1>   0.0860 
  4 C       -0.6340     3.1790    -1.8970 C.ar  1 <1>  -0.1500 
  5 C        2.5280     2.1780    -0.0600 C.2   1 <1>   0.5440 
  6 C        0.5270     3.4530     0.5860 C.ar  1 <1>  -0.1500 
  7 C       -1.2960     3.8840    -0.9100 C.ar  1 <1>  -0.1500 
  8 O        2.7770     1.8610     1.0930 O.2   1 <1>  -0.5700 
  9 N        3.5140     2.0250    -0.9900 N.am  1 <1>  -0.4300 
 10 C       -0.7110     4.0180     0.3360 C.ar  1 <1>  -0.1500 
 11 N        4.8490     1.5100    -0.6860 N.am  1 <1>  -0.1200 
 12 C        5.0670     0.1410    -0.6910 C.2   1 <1>   0.5690 
 13 C        5.8350     2.3910    -0.2800 C.2   1 <1>   0.5690 
 14 O        4.3010    -0.6300    -1.2280 O.2   1 <1>  -0.5700 
 15 C        6.3440    -0.3960     0.0100 C.3   1 <1>   0.0610 
 16 O        5.7740     3.5880    -0.4530 O.2   1 <1>  -0.5700 
 17 C        7.0640     1.8050     0.4140 C.3   1 <1>  -0.0190 
 18 C        7.5350     0.5430    -0.3370 C.3   1 <1>   0.0000 
 19 C        6.1500    -0.1690     1.5270 C.3   1 <1>  -0.1600 
 20 C        6.6060    -1.8890    -0.2950 C.3   1 <1>  -0.2400 
 21 C        6.6180     1.2730     1.7910 C.3   1 <1>  -0.1600 
 22 C        7.7560     0.7690    -1.8530 C.3   1 <1>  -0.2400 
 23 C        8.8980     0.0630     0.2230 C.3   1 <1>  -0.2400 
 24 H       -1.0780     3.0630    -2.8700 H     1 <1>   0.1500 
 25 H        0.9650     3.5670     1.5640 H     1 <1>   0.1500 
 26 H       -2.2600     4.3230    -1.1060 H     1 <1>   0.1500 
 27 H        3.3140     2.1990    -1.9780 H     1 <1>   0.3700 
 28 H       -1.2200     4.5630     1.1130 H     1 <1>   0.1500 
 29 H        7.8330     2.5540     0.4970 H     1 <1>   0.0800 
 30 H        5.1190    -0.3050     1.8150 H     1 <1>   0.0800 
 31 H        6.7500    -0.8540     2.1010 H     1 <1>   0.0800 
 32 H        7.4570    -2.2620     0.2430 H     1 <1>   0.0800 
 33 H        6.7710    -2.0310    -1.3480 H     1 <1>   0.0800 
 34 H        5.7500    -2.4770    -0.0100 H     1 <1>   0.0800 
 35 H        5.8280     1.8740     2.2120 H     1 <1>   0.0800 
 36 H        7.4470     1.2740     2.4780 H     1 <1>   0.0800 
 37 H        6.8800     1.1030    -2.3760 H     1 <1>   0.0800 
 38 H        8.0780    -0.1450    -2.3210 H     1 <1>   0.0800 
 39 H        8.5250     1.5060    -2.0070 H     1 <1>   0.0800 
 40 H        9.6390     0.8340     0.1030 H     1 <1>   0.0800 
 41 H        8.8560    -0.1910     1.2660 H     1 <1>   0.0800 
 42 H        9.2430    -0.8050    -0.3100 H     1 <1>   0.0800 
@<TRIPOS>BOND
  1   1   2  1   
  2   2   3  ar  
  3   2   4  ar  
  4   3   5  1   
  5   3   6  ar  
  6   4   7  ar  
  7   4  24  1   
  8   5   8  2   
  9   5   9  am  
 10   6  10  ar  
 11   6  25  1   
 12   7  10  ar  
 13   7  26  1   
 14   9  11  1   
 15   9  27  1   
 16  10  28  1   
 17  11  12  am  
 18  11  13  am  
 19  12  14  2   
 20  12  15  1   
 21  13  16  2   
 22  13  17  1   
 23  15  18  1   
 24  15  19  1   
 25  15  20  1   
 26  17  18  1   
 27  17  21  1   
 28  17  29  1   
 29  18  22  1   
 30  18  23  1   
 31  19  21  1   
 32  19  30  1   
 33  19  31  1   
 34  20  32  1   
 35  20  33  1   
 36  20  34  1   
 37  21  35  1   
 38  21  36  1   
 39  22  37  1   
 40  22  38  1   
 41  22  39  1   
 42  23  40  1   
 43  23  41  1   
 44  23  42  1   
@<TRIPOS>SUBSTRUCTURE
  1 ****  11 GROUP 4 **** **** 0

# MOE 2024.06 (io_trps.svl 2023.06)
