@<TRIPOS>MOLECULE
NONAME
47 49 1 0 0 
SMALL
USER_CHARGES


@<TRIPOS>ATOM
  1 S        0.1990     0.2330    -0.4160 S.3   1 <1>  -0.3320 
  2 C        1.7250    -0.6790    -0.2090 C.ar  1 <1>   0.7220 
  3 C       -1.1270    -1.0150    -0.1220 C.3   1 <1>   0.0700 
  4 N        1.5790    -1.9930     0.0870 N.ar  1 <1>  -0.3100 
  5 N        2.8270     0.0050    -0.3630 N.ar  1 <1>  -0.5670 
  6 C       -2.4690    -0.3060    -0.3150 C.3   1 <1>   0.3430 
  7 N        2.6340    -2.7360     0.2540 N.ar  1 <1>  -0.2560 
  8 C        3.9010    -0.7700    -0.1860 C.ar  1 <1>   0.1050 
  9 N       -3.6370    -1.2100    -0.0420 N.4   1 <1>  -0.9590 
 10 C        3.8140    -2.1180     0.1170 C.ar  1 <1>   0.2560 
 11 N        5.2210    -0.4080    -0.2640 N.pl3 1 <1>   0.0480 
 12 C       -3.7620    -2.2720    -1.0810 C.3   1 <1>   0.3430 
 13 C       -4.8990    -0.4260     0.0760 C.3   1 <1>   0.3430 
 14 C        5.1420    -2.6080     0.2300 C.ar  1 <1>   0.0000 
 15 C        5.9910    -1.5300    -0.0100 C.ar  1 <1>  -0.1520 
 16 C        5.7230     0.9510    -0.5630 C.3   1 <1>   0.0960 
 17 C       -4.5800    -3.4330    -0.5260 C.3   1 <1>  -0.2400 
 18 C       -4.9390     0.2830     1.4250 C.3   1 <1>  -0.2400 
 19 C        5.6770    -3.8660     0.5140 C.ar  1 <1>  -0.1500 
 20 C        7.3760    -1.6950     0.0340 C.ar  1 <1>  -0.1500 
 21 C        6.0420     1.7020     0.7330 C.3   1 <1>  -0.2400 
 22 C        7.0450    -4.0250     0.5550 C.ar  1 <1>  -0.1500 
 23 C        7.8930    -2.9410     0.3150 C.ar  1 <1>  -0.1500 
 24 H       -1.0020    -1.3740     0.8840 H     1 <1>   0.0800 
 25 H       -0.9740    -1.8050    -0.8350 H     1 <1>   0.0800 
 26 H       -2.5290     0.0750    -1.3220 H     1 <1>   0.0800 
 27 H       -2.4970     0.5360     0.3580 H     1 <1>   0.0800 
 28 H       -3.4850    -1.6760     0.8640 H     1 <1>   0.4500 
 29 H       -2.7870    -2.6420    -1.3530 H     1 <1>   0.0800 
 30 H       -4.2300    -1.8750    -1.9680 H     1 <1>   0.0800 
 31 H       -5.7500    -1.0850     0.0110 H     1 <1>   0.0800 
 32 H       -4.9710     0.2920    -0.7270 H     1 <1>   0.0800 
 33 H        4.9720     1.4840    -1.1190 H     1 <1>   0.0800 
 34 H        6.6030     0.8690    -1.1740 H     1 <1>   0.0800 
 35 H       -4.1200    -3.8360     0.3590 H     1 <1>   0.0800 
 36 H       -4.6190    -4.2160    -1.2630 H     1 <1>   0.0800 
 37 H       -5.5910    -3.1410    -0.3090 H     1 <1>   0.0800 
 38 H       -4.8590    -0.4240     2.2310 H     1 <1>   0.0800 
 39 H       -5.8820     0.7910     1.5250 H     1 <1>   0.0800 
 40 H       -4.1630     1.0220     1.5100 H     1 <1>   0.0800 
 41 H        5.0130    -4.6920     0.6970 H     1 <1>   0.1500 
 42 H        8.0290    -0.8610    -0.1490 H     1 <1>   0.1500 
 43 H        5.1540     1.8010     1.3320 H     1 <1>   0.0800 
 44 H        6.4070     2.6870     0.5020 H     1 <1>   0.0800 
 45 H        6.7960     1.1800     1.2960 H     1 <1>   0.0800 
 46 H        7.4710    -4.9890     0.7730 H     1 <1>   0.1500 
 47 H        8.9580    -3.0890     0.3530 H     1 <1>   0.1500 
@<TRIPOS>BOND
  1   1   2  1   
  2   1   3  1   
  3   2   4  ar  
  4   2   5  ar  
  5   3   6  1   
  6   3  24  1   
  7   3  25  1   
  8   4   7  ar  
  9   5   8  ar  
 10   6   9  1   
 11   6  26  1   
 12   6  27  1   
 13   7  10  ar  
 14   8  10  ar  
 15   8  11  1   
 16   9  12  1   
 17   9  13  1   
 18   9  28  1   
 19  10  14  1   
 20  11  15  1   
 21  11  16  1   
 22  12  17  1   
 23  12  29  1   
 24  12  30  1   
 25  13  18  1   
 26  13  31  1   
 27  13  32  1   
 28  14  15  ar  
 29  14  19  ar  
 30  15  20  ar  
 31  16  21  1   
 32  16  33  1   
 33  16  34  1   
 34  17  35  1   
 35  17  36  1   
 36  17  37  1   
 37  18  38  1   
 38  18  39  1   
 39  18  40  1   
 40  19  22  ar  
 41  19  41  1   
 42  20  23  ar  
 43  20  42  1   
 44  21  43  1   
 45  21  44  1   
 46  21  45  1   
 47  22  23  ar  
 48  22  46  1   
 49  23  47  1   
@<TRIPOS>SUBSTRUCTURE
  1 ****   2 GROUP 4 **** **** 0

# MOE 2024.06 (io_trps.svl 2023.06)
