@<TRIPOS>MOLECULE
NONAME
45 46 1 0 0 
SMALL
USER_CHARGES


@<TRIPOS>ATOM
  1 I       -0.9150     1.6560     3.4410 I     1 <1>  -0.0810 
  2 C       -1.4510     1.5100     1.3750 C.ar  1 <1>   0.0810 
  3 C       -0.4690     1.5580     0.3890 C.ar  1 <1>   0.0830 
  4 C       -2.7950     1.3680     1.0830 C.ar  1 <1>  -0.1500 
  5 O        0.8330     1.7000     0.7590 O.3   1 <1>  -0.3630 
  6 C       -0.8790     1.4580    -0.9390 C.ar  1 <1>  -0.1500 
  7 C       -3.1800     1.2700    -0.2430 C.ar  1 <1>  -0.1500 
  8 C        1.8720     1.7550    -0.1920 C.3   1 <1>   0.1200 
  9 C       -2.2240     1.3150    -1.2470 C.ar  1 <1>  -0.1500 
 10 C        3.1870     1.9150     0.5640 C.3   1 <1>   0.1200 
 11 O        4.2340     1.9750    -0.3590 O.3   1 <1>  -0.5600 
 12 C        5.4900     2.1180     0.2150 C.3   1 <1>   0.1200 
 13 C        6.5140     2.1480    -0.9260 C.3   1 <1>   0.3430 
 14 N        7.9300     2.2410    -0.4410 N.4   1 <1>  -0.9590 
 15 C        8.2230     3.5540     0.2110 C.3   1 <1>   0.3430 
 16 C        8.8720     1.9800    -1.5700 C.3   1 <1>   0.3430 
 17 C        9.6440     3.5450     0.7740 C.3   1 <1>  -0.1600 
 18 C       10.3070     1.9370    -1.0450 C.3   1 <1>  -0.1600 
 19 C       10.6820     3.2340    -0.3140 C.3   1 <1>  -0.0800 
 20 C       12.0850     3.1280     0.2910 C.3   1 <1>  -0.2400 
 21 H       -3.5270     1.3340     1.8710 H     1 <1>   0.1500 
 22 H       -0.1730     1.4880    -1.7460 H     1 <1>   0.1500 
 23 H       -4.2210     1.1580    -0.4950 H     1 <1>   0.1500 
 24 H        1.7000     2.6010    -0.8330 H     1 <1>   0.0800 
 25 H        1.8680     0.8370    -0.7520 H     1 <1>   0.0800 
 26 H       -2.5310     1.2380    -2.2760 H     1 <1>   0.1500 
 27 H        3.3400     1.0690     1.2120 H     1 <1>   0.0800 
 28 H        3.1720     2.8280     1.1350 H     1 <1>   0.0800 
 29 H        5.6640     1.2760     0.8630 H     1 <1>   0.0800 
 30 H        5.5000     3.0380     0.7740 H     1 <1>   0.0800 
 31 H        6.2950     2.9850    -1.5680 H     1 <1>   0.0800 
 32 H        6.3930     1.2440    -1.5000 H     1 <1>   0.0800 
 33 H        8.0920     1.5020     0.2560 H     1 <1>   0.4500 
 34 H        7.5260     3.7370     1.0130 H     1 <1>   0.0800 
 35 H        8.1270     4.3500    -0.5100 H     1 <1>   0.0800 
 36 H        8.7820     2.7610    -2.3080 H     1 <1>   0.0800 
 37 H        8.6350     1.0390    -2.0400 H     1 <1>   0.0800 
 38 H        9.7080     2.8220     1.5680 H     1 <1>   0.0800 
 39 H        9.8550     4.5100     1.2010 H     1 <1>   0.0800 
 40 H       10.9750     1.7910    -1.8760 H     1 <1>   0.0800 
 41 H       10.4210     1.0910    -0.3890 H     1 <1>   0.0800 
 42 H       10.6860     4.0430    -1.0280 H     1 <1>   0.0800 
 43 H       12.1360     2.3310     1.0130 H     1 <1>   0.0800 
 44 H       12.3540     4.0480     0.7810 H     1 <1>   0.0800 
 45 H       12.8120     2.9360    -0.4780 H     1 <1>   0.0800 
@<TRIPOS>BOND
  1   1   2  1   
  2   2   3  ar  
  3   2   4  ar  
  4   3   5  1   
  5   3   6  ar  
  6   4   7  ar  
  7   4  21  1   
  8   5   8  1   
  9   6   9  ar  
 10   6  22  1   
 11   7   9  ar  
 12   7  23  1   
 13   8  10  1   
 14   8  24  1   
 15   8  25  1   
 16   9  26  1   
 17  10  11  1   
 18  10  27  1   
 19  10  28  1   
 20  11  12  1   
 21  12  13  1   
 22  12  29  1   
 23  12  30  1   
 24  13  14  1   
 25  13  31  1   
 26  13  32  1   
 27  14  15  1   
 28  14  16  1   
 29  14  33  1   
 30  15  17  1   
 31  15  34  1   
 32  15  35  1   
 33  16  18  1   
 34  16  36  1   
 35  16  37  1   
 36  17  19  1   
 37  17  38  1   
 38  17  39  1   
 39  18  19  1   
 40  18  40  1   
 41  18  41  1   
 42  19  20  1   
 43  19  42  1   
 44  20  43  1   
 45  20  44  1   
 46  20  45  1   
@<TRIPOS>SUBSTRUCTURE
  1 ****  11 GROUP 4 **** **** 0

# MOE 2024.06 (io_trps.svl 2023.06)
