@<TRIPOS>MOLECULE
NONAME
50 51 1 0 0 
SMALL
USER_CHARGES


@<TRIPOS>ATOM
  1 S       -0.2730    -0.1130     0.3520 S.o2  1 <1>   1.4470 
  2 O       -0.6460    -0.6340    -0.9460 O.2   1 <1>  -0.6500 
  3 O       -0.3130    -0.9940     1.4980 O.2   1 <1>  -0.6500 
  4 N       -1.3560     1.1520     0.6700 N.am  1 <1>  -0.8490 
  5 C        1.3340     0.7220     0.2780 C.ar  1 <1>  -0.0090 
  6 C       -2.6360     0.6090     1.1970 C.3   1 <1>   0.2570 
  7 C       -1.5440     2.0470    -0.4790 C.3   1 <1>   0.1160 
  8 C        2.1850     0.5570    -0.8090 C.ar  1 <1>  -0.1500 
  9 C        1.7530     1.5510     1.3110 C.ar  1 <1>  -0.1500 
 10 C       -3.7740     1.6190     1.4040 C.2   1 <1>   0.5690 
 11 C        3.4120     1.1990    -0.8760 C.ar  1 <1>  -0.1440 
 12 C        2.9740     2.2000     1.2620 C.ar  1 <1>  -0.1500 
 13 O       -3.8660     2.2030     2.4580 O.2   1 <1>  -0.5700 
 14 N       -4.6630     1.8260     0.3910 N.am  1 <1>  -0.7300 
 15 C        3.8130     2.0290     0.1650 C.ar  1 <1>   0.0830 
 16 C        4.3100     0.9880    -2.0880 C.3   1 <1>  -0.0970 
 17 C       -5.7890     2.7720     0.4350 C.3   1 <1>   0.2200 
 18 O        5.0210     2.6400     0.0580 O.3   1 <1>  -0.3630 
 19 C       -7.0900     2.0040     0.1810 C.3   1 <1>  -0.1600 
 20 C       -5.5640     3.8540    -0.6260 C.3   1 <1>  -0.1600 
 21 C        5.5260     3.4750     1.0770 C.3   1 <1>   0.0400 
 22 C       -8.2910     2.9580     0.1040 C.3   1 <1>  -0.1600 
 23 C       -6.7630     4.8110    -0.7050 C.3   1 <1>  -0.1600 
 24 C       -8.0690     4.0450    -0.9560 C.3   1 <1>  -0.1600 
 25 H       -2.4460     0.1490     2.1520 H     1 <1>   0.0800 
 26 H       -2.9910    -0.1620     0.5370 H     1 <1>   0.0800 
 27 H       -0.5890     2.3950    -0.8370 H     1 <1>   0.0800 
 28 H       -2.1200     2.9100    -0.1910 H     1 <1>   0.0800 
 29 H       -2.0480     1.5350    -1.2820 H     1 <1>   0.0800 
 30 H        1.8760    -0.0870    -1.6150 H     1 <1>   0.1500 
 31 H        1.1100     1.6900     2.1640 H     1 <1>   0.1500 
 32 H        3.2510     2.8310     2.0850 H     1 <1>   0.1500 
 33 H       -4.5790     1.3050    -0.4810 H     1 <1>   0.3700 
 34 H        3.8600     0.3200    -2.7990 H     1 <1>   0.0800 
 35 H        5.2500     0.5720    -1.7740 H     1 <1>   0.0800 
 36 H        4.4960     1.9310    -2.5700 H     1 <1>   0.0800 
 37 H       -5.8390     3.2380     1.4060 H     1 <1>   0.0800 
 38 H       -7.2480     1.3010     0.9800 H     1 <1>   0.0800 
 39 H       -7.0170     1.4610    -0.7450 H     1 <1>   0.0800 
 40 H       -5.4220     3.3950    -1.5880 H     1 <1>   0.0800 
 41 H       -4.6800     4.4150    -0.3780 H     1 <1>   0.0800 
 42 H        6.4940     3.8270     0.7690 H     1 <1>   0.0800 
 43 H        5.6170     2.9030     1.9830 H     1 <1>   0.0800 
 44 H        4.8590     4.3080     1.2090 H     1 <1>   0.0800 
 45 H       -8.4380     3.4230     1.0650 H     1 <1>   0.0800 
 46 H       -9.1810     2.4010    -0.1310 H     1 <1>   0.0800 
 47 H       -6.6050     5.5250    -1.4960 H     1 <1>   0.0800 
 48 H       -6.8440     5.3580     0.2200 H     1 <1>   0.0800 
 49 H       -8.8970     4.7330    -0.9450 H     1 <1>   0.0800 
 50 H       -8.0340     3.5900    -1.9320 H     1 <1>   0.0800 
@<TRIPOS>BOND
  1   1   2  2   
  2   1   3  2   
  3   1   4  am  
  4   1   5  1   
  5   4   6  1   
  6   4   7  1   
  7   5   8  ar  
  8   5   9  ar  
  9   6  10  1   
 10   6  25  1   
 11   6  26  1   
 12   7  27  1   
 13   7  28  1   
 14   7  29  1   
 15   8  11  ar  
 16   8  30  1   
 17   9  12  ar  
 18   9  31  1   
 19  10  13  2   
 20  10  14  am  
 21  11  15  ar  
 22  11  16  1   
 23  12  15  ar  
 24  12  32  1   
 25  14  17  1   
 26  14  33  1   
 27  15  18  1   
 28  16  34  1   
 29  16  35  1   
 30  16  36  1   
 31  17  19  1   
 32  17  20  1   
 33  17  37  1   
 34  18  21  1   
 35  19  22  1   
 36  19  38  1   
 37  19  39  1   
 38  20  23  1   
 39  20  40  1   
 40  20  41  1   
 41  21  42  1   
 42  21  43  1   
 43  21  44  1   
 44  22  24  1   
 45  22  45  1   
 46  22  46  1   
 47  23  24  1   
 48  23  47  1   
 49  23  48  1   
 50  24  49  1   
 51  24  50  1   
@<TRIPOS>SUBSTRUCTURE
  1 ****   7 GROUP 4 **** **** 0

# MOE 2024.06 (io_trps.svl 2023.06)
