@<TRIPOS>MOLECULE
NONAME
51 53 1 0 0 
SMALL
USER_CHARGES


@<TRIPOS>ATOM
  1 CL      -2.5580     2.8070     1.8940 Cl    1 <1>  -0.1770 
  2 C       -1.9780     3.3400     0.3270 C.ar  1 <1>   0.1770 
  3 C       -2.6670     2.9440    -0.8190 C.ar  1 <1>   0.1170 
  4 C       -0.8580     4.1470     0.2700 C.ar  1 <1>  -0.1500 
  5 N       -3.7930     2.1100    -0.6920 N.am  1 <1>  -0.5470 
  6 C       -2.1860     3.3910    -2.0460 C.ar  1 <1>  -0.1500 
  7 C       -0.3990     4.5810    -0.9620 C.ar  1 <1>  -0.1500 
  8 C       -4.9130     1.9980    -1.4710 C.2   1 <1>   0.5690 
  9 C       -1.0650     4.2020    -2.1160 C.ar  1 <1>  -0.1500 
 10 O       -5.0530     2.5820    -2.5170 O.2   1 <1>  -0.5700 
 11 C       -6.0480     1.0970    -0.9640 C.3   1 <1>   0.1710 
 12 N       -7.0800     1.7840    -0.1260 N.3   1 <1>  -0.8100 
 13 C       -8.2050     0.8830     0.2230 C.3   1 <1>   0.1100 
 14 C       -6.5480     2.4770     1.0740 C.3   1 <1>   0.1100 
 15 C       -9.3090     1.6020     1.0380 C.3   1 <1>   0.3430 
 16 C       -7.6500     3.2560     1.8360 C.3   1 <1>   0.3430 
 17 N       -8.9930     3.0600     1.2020 N.4   1 <1>  -0.9590 
 18 C      -10.0830     3.8580     1.8200 C.3   1 <1>   0.4860 
 19 C      -11.3590     3.6450     1.0280 C.ar  1 <1>  -0.1430 
 20 C      -11.4540     4.1000    -0.2780 C.ar  1 <1>  -0.1500 
 21 C      -12.4380     2.9840     1.5980 C.ar  1 <1>  -0.1500 
 22 C      -12.6030     3.8890    -1.0200 C.ar  1 <1>   0.0830 
 23 C      -13.5920     2.7730     0.8630 C.ar  1 <1>  -0.1500 
 24 O      -12.5960     4.3590    -2.2900 O.3   1 <1>  -0.3620 
 25 C      -13.6780     3.2200    -0.4430 C.ar  1 <1>  -0.1500 
 26 C      -13.7260     4.2350    -3.1260 C.3   1 <1>   0.0400 
 27 H       -0.3540     4.4320     1.1760 H     1 <1>   0.1500 
 28 H       -3.8090     1.5880     0.1830 H     1 <1>   0.3700 
 29 H       -2.6860     3.1060    -2.9550 H     1 <1>   0.1500 
 30 H        0.4730     5.2110    -1.0240 H     1 <1>   0.1500 
 31 H       -0.7100     4.5390    -3.0750 H     1 <1>   0.1500 
 32 H       -5.6210     0.2790    -0.4130 H     1 <1>   0.0800 
 33 H       -6.5320     0.6850    -1.8330 H     1 <1>   0.0800 
 34 H       -7.8420     0.0400     0.7860 H     1 <1>   0.0800 
 35 H       -8.6440     0.5010    -0.6840 H     1 <1>   0.0800 
 36 H       -5.7890     3.1830     0.7810 H     1 <1>   0.0800 
 37 H       -6.0910     1.7640     1.7390 H     1 <1>   0.0800 
 38 H       -9.4030     1.1330     2.0030 H     1 <1>   0.0800 
 39 H      -10.2490     1.4820     0.5230 H     1 <1>   0.0800 
 40 H       -7.3950     4.3030     1.8350 H     1 <1>   0.0800 
 41 H       -7.6720     2.9240     2.8610 H     1 <1>   0.0800 
 42 H       -8.8670     3.3780     0.2280 H     1 <1>   0.4500 
 43 H       -9.8280     4.9050     1.8090 H     1 <1>   0.0800 
 44 H      -10.2330     3.5520     2.8420 H     1 <1>   0.0800 
 45 H      -10.6440     4.6270    -0.7510 H     1 <1>   0.1500 
 46 H      -12.3990     2.6280     2.6140 H     1 <1>   0.1500 
 47 H      -14.4290     2.2610     1.3080 H     1 <1>   0.1500 
 48 H      -14.5850     3.0430    -0.9920 H     1 <1>   0.1500 
 49 H      -13.4930     4.6910    -4.0720 H     1 <1>   0.0800 
 50 H      -14.5560     4.7450    -2.6700 H     1 <1>   0.0800 
 51 H      -13.9440     3.1920    -3.2680 H     1 <1>   0.0800 
@<TRIPOS>BOND
  1   1   2  1   
  2   2   3  ar  
  3   2   4  ar  
  4   3   5  1   
  5   3   6  ar  
  6   4   7  ar  
  7   4  27  1   
  8   5   8  am  
  9   5  28  1   
 10   6   9  ar  
 11   6  29  1   
 12   7   9  ar  
 13   7  30  1   
 14   8  10  2   
 15   8  11  1   
 16   9  31  1   
 17  11  12  1   
 18  11  32  1   
 19  11  33  1   
 20  12  13  1   
 21  12  14  1   
 22  13  15  1   
 23  13  34  1   
 24  13  35  1   
 25  14  16  1   
 26  14  36  1   
 27  14  37  1   
 28  15  17  1   
 29  15  38  1   
 30  15  39  1   
 31  16  17  1   
 32  16  40  1   
 33  16  41  1   
 34  17  18  1   
 35  17  42  1   
 36  18  19  1   
 37  18  43  1   
 38  18  44  1   
 39  19  20  ar  
 40  19  21  ar  
 41  20  22  ar  
 42  20  45  1   
 43  21  23  ar  
 44  21  46  1   
 45  22  24  1   
 46  22  25  ar  
 47  23  25  ar  
 48  23  47  1   
 49  24  26  1   
 50  25  48  1   
 51  26  49  1   
 52  26  50  1   
 53  26  51  1   
@<TRIPOS>SUBSTRUCTURE
  1 ****  12 GROUP 4 **** **** 0

# MOE 2024.06 (io_trps.svl 2023.06)
