@<TRIPOS>MOLECULE
NONAME
57 59 1 0 0 
SMALL
USER_CHARGES


@<TRIPOS>ATOM
  1 S       -0.2700    -1.8530    -0.5960 S.3   1 <1>  -0.2860 
  2 C       -1.8840    -1.2210    -0.1530 C.2   1 <1>   0.2420 
  3 C        0.5570    -0.3920    -1.3900 C.3   1 <1>   0.1310 
  4 N       -2.2000     0.0230    -0.3240 N.2   1 <1>  -0.5650 
  5 N       -2.8400    -2.0120     0.3790 N.pl3 1 <1>   0.0480 
  6 C        2.0670    -0.5520    -1.3400 C.2   1 <1>   0.5690 
  7 C       -3.4570     0.0500     0.1360 C.2   1 <1>   0.2900 
  8 C       -3.8760    -1.1540     0.5870 C.2   1 <1>  -0.2370 
  9 C       -2.7980    -3.4750     0.6260 C.3   1 <1>   0.2390 
 10 O        2.6120    -0.9170    -2.3570 O.2   1 <1>  -0.5700 
 11 N        2.7780    -0.2670    -0.1960 N.am  1 <1>  -0.6600 
 12 N       -4.2940     1.1590     0.1780 N.am  1 <1>  -0.4230 
 13 C       -5.1640    -1.3150     1.1530 C.2   1 <1>   0.7150 
 14 C       -3.4850    -4.2630    -0.4940 C.ar  1 <1>  -0.1430 
 15 C        2.1660     0.1900     1.0800 C.3   1 <1>   0.1400 
 16 C        4.2560    -0.4340    -0.1690 C.3   1 <1>   0.1400 
 17 C       -5.5780     1.0100     0.6710 C.2   1 <1>   0.6900 
 18 C       -3.7840     2.4540    -0.3450 C.3   1 <1>   0.0600 
 19 O       -5.5010    -2.3610     1.6780 O.2   1 <1>  -0.5700 
 20 N       -6.0160    -0.2260     1.1310 N.am  1 <1>  -0.4200 
 21 C       -4.3900    -5.2900    -0.2280 C.ar  1 <1>  -0.1430 
 22 C       -3.1860    -3.9560    -1.8170 C.ar  1 <1>  -0.1500 
 23 C        2.1800     1.7150     1.1360 C.3   1 <1>  -0.2400 
 24 C        4.6020    -1.8300     0.3450 C.3   1 <1>  -0.2400 
 25 O       -6.3310     1.9680     0.7110 O.2   1 <1>  -0.5700 
 26 C       -7.4080    -0.3640     1.6520 C.3   1 <1>   0.0600 
 27 C       -4.9850    -5.9690    -1.2820 C.ar  1 <1>  -0.1500 
 28 C       -4.7570    -5.7120     1.1890 C.3   1 <1>  -0.0970 
 29 C       -3.7820    -4.6400    -2.8600 C.ar  1 <1>  -0.1500 
 30 C       -4.6860    -5.6470    -2.5920 C.ar  1 <1>  -0.1500 
 31 H        0.2510     0.4930    -0.8690 H     1 <1>   0.0800 
 32 H        0.2130    -0.3510    -2.4060 H     1 <1>   0.0800 
 33 H       -3.2660    -3.6590     1.5740 H     1 <1>   0.0800 
 34 H       -1.7750    -3.7920     0.7000 H     1 <1>   0.0800 
 35 H        2.7220    -0.2110     1.9110 H     1 <1>   0.0800 
 36 H        1.1560    -0.1700     1.1670 H     1 <1>   0.0800 
 37 H        4.6990     0.3160     0.4630 H     1 <1>   0.0800 
 38 H        4.6570    -0.3070    -1.1610 H     1 <1>   0.0800 
 39 H       -2.8740     2.7130     0.1670 H     1 <1>   0.0800 
 40 H       -4.5010     3.2420    -0.1980 H     1 <1>   0.0800 
 41 H       -3.5790     2.3580    -1.3960 H     1 <1>   0.0800 
 42 H       -2.4810    -3.1800    -2.0580 H     1 <1>   0.1500 
 43 H        3.1890     2.0850     1.1020 H     1 <1>   0.0800 
 44 H        1.7270     2.0460     2.0530 H     1 <1>   0.0800 
 45 H        1.6230     2.1270     0.3140 H     1 <1>   0.0800 
 46 H        4.2370    -1.9700     1.3460 H     1 <1>   0.0800 
 47 H        5.6680    -1.9590     0.3480 H     1 <1>   0.0800 
 48 H        4.1700    -2.5740    -0.3010 H     1 <1>   0.0800 
 49 H       -7.7440    -1.3830     1.5750 H     1 <1>   0.0800 
 50 H       -8.0800     0.2570     1.0850 H     1 <1>   0.0800 
 51 H       -7.4350    -0.0600     2.6830 H     1 <1>   0.0800 
 52 H       -5.6900    -6.7580    -1.0890 H     1 <1>   0.1500 
 53 H       -5.3220    -4.9360     1.6720 H     1 <1>   0.0800 
 54 H       -3.8710    -5.9150     1.7620 H     1 <1>   0.0800 
 55 H       -5.3570    -6.6040     1.1820 H     1 <1>   0.0800 
 56 H       -3.5400    -4.3870    -3.8780 H     1 <1>   0.1500 
 57 H       -5.1550    -6.1820    -3.4000 H     1 <1>   0.1500 
@<TRIPOS>BOND
  1   1   2  1   
  2   1   3  1   
  3   2   4  2   
  4   2   5  1   
  5   3   6  1   
  6   3  31  1   
  7   3  32  1   
  8   4   7  1   
  9   5   8  1   
 10   5   9  1   
 11   6  10  2   
 12   6  11  am  
 13   7   8  2   
 14   7  12  1   
 15   8  13  1   
 16   9  14  1   
 17   9  33  1   
 18   9  34  1   
 19  11  15  1   
 20  11  16  1   
 21  12  17  am  
 22  12  18  1   
 23  13  19  2   
 24  13  20  am  
 25  14  21  ar  
 26  14  22  ar  
 27  15  23  1   
 28  15  35  1   
 29  15  36  1   
 30  16  24  1   
 31  16  37  1   
 32  16  38  1   
 33  17  20  am  
 34  17  25  2   
 35  18  39  1   
 36  18  40  1   
 37  18  41  1   
 38  20  26  1   
 39  21  27  ar  
 40  21  28  1   
 41  22  29  ar  
 42  22  42  1   
 43  23  43  1   
 44  23  44  1   
 45  23  45  1   
 46  24  46  1   
 47  24  47  1   
 48  24  48  1   
 49  26  49  1   
 50  26  50  1   
 51  26  51  1   
 52  27  30  ar  
 53  27  52  1   
 54  28  53  1   
 55  28  54  1   
 56  28  55  1   
 57  29  30  ar  
 58  29  56  1   
 59  30  57  1   
@<TRIPOS>SUBSTRUCTURE
  1 ****   2 GROUP 4 **** **** 0

# MOE 2024.06 (io_trps.svl 2023.06)
