@<TRIPOS>MOLECULE
NONAME
35 36 1 0 0 
SMALL
USER_CHARGES


@<TRIPOS>ATOM
  1 S       -0.1010     0.2380     1.3670 S.3   1 <1>  -0.3320 
  2 C       -1.6360     0.9680     0.8280 C.ar  1 <1>   0.7220 
  3 C        1.2360     1.1640     0.4700 C.3   1 <1>   0.2110 
  4 N       -2.7100     0.4760     1.3460 N.ar  1 <1>  -0.6200 
  5 N       -1.5260     1.9660    -0.0700 N.ar  1 <1>  -0.6200 
  6 C        2.4300     0.2290     0.2620 C.2   1 <1>   0.6590 
  7 C        1.5430     2.4290     1.2880 C.3   1 <1>  -0.2400 
  8 C       -3.8710     1.0270     0.9410 C.ar  1 <1>   0.3100 
  9 C       -2.6310     2.5020    -0.4640 C.ar  1 <1>   0.1660 
 10 O        3.4610     0.3360     0.8810 O.2   1 <1>  -0.5700 
 11 O        2.2730    -0.7090    -0.6680 O.3   1 <1>  -0.4300 
 12 C       -3.8920     2.0760     0.0090 C.ar  1 <1>   0.0000 
 13 C       -5.0810     0.5470     1.4590 C.ar  1 <1>  -0.1500 
 14 C       -2.5290     3.6290    -1.4760 C.3   1 <1>  -0.0970 
 15 C        3.2870    -1.6490    -0.9550 C.3   1 <1>   0.0400 
 16 C       -5.1420     2.6100    -0.3730 C.ar  1 <1>  -0.1500 
 17 C       -6.2820     1.0820     1.0730 C.ar  1 <1>  -0.1500 
 18 C       -6.3160     2.1270     0.1450 C.ar  1 <1>  -0.1430 
 19 C       -7.6620     2.6990    -0.2640 C.3   1 <1>  -0.0970 
 20 H        0.8540     1.4260    -0.4990 H     1 <1>   0.0800 
 21 H        1.8810     2.1600     2.2730 H     1 <1>   0.0800 
 22 H        0.6630     3.0420     1.3740 H     1 <1>   0.0800 
 23 H        2.3150     3.0000     0.8050 H     1 <1>   0.0800 
 24 H       -5.0360    -0.2560     2.1710 H     1 <1>   0.1500 
 25 H       -1.5010     3.8210    -1.7240 H     1 <1>   0.0800 
 26 H       -2.9540     4.5280    -1.0680 H     1 <1>   0.0800 
 27 H       -3.0520     3.3620    -2.3760 H     1 <1>   0.0800 
 28 H        2.9350    -2.3050    -1.7310 H     1 <1>   0.0800 
 29 H        3.5010    -2.2120    -0.0630 H     1 <1>   0.0800 
 30 H        4.1670    -1.1240    -1.2830 H     1 <1>   0.0800 
 31 H       -5.1690     3.4130    -1.0870 H     1 <1>   0.1500 
 32 H       -7.2030     0.7020     1.4800 H     1 <1>   0.1500 
 33 H       -7.5430     3.4930    -0.9790 H     1 <1>   0.0800 
 34 H       -8.1710     3.0900     0.5990 H     1 <1>   0.0800 
 35 H       -8.2680     1.9290    -0.7060 H     1 <1>   0.0800 
@<TRIPOS>BOND
  1   1   2  1   
  2   1   3  1   
  3   2   4  ar  
  4   2   5  ar  
  5   3   6  1   
  6   3   7  1   
  7   3  20  1   
  8   4   8  ar  
  9   5   9  ar  
 10   6  10  2   
 11   6  11  1   
 12   7  21  1   
 13   7  22  1   
 14   7  23  1   
 15   8  12  ar  
 16   8  13  ar  
 17   9  12  ar  
 18   9  14  1   
 19  11  15  1   
 20  12  16  ar  
 21  13  17  ar  
 22  13  24  1   
 23  14  25  1   
 24  14  26  1   
 25  14  27  1   
 26  15  28  1   
 27  15  29  1   
 28  15  30  1   
 29  16  18  ar  
 30  16  31  1   
 31  17  18  ar  
 32  17  32  1   
 33  18  19  1   
 34  19  33  1   
 35  19  34  1   
 36  19  35  1   
@<TRIPOS>SUBSTRUCTURE
  1 ****   2 GROUP 4 **** **** 0

# MOE 2024.06 (io_trps.svl 2023.06)
