@<TRIPOS>MOLECULE
NONAME
51 53 1 0 0 
SMALL
USER_CHARGES


@<TRIPOS>ATOM
  1 O       -1.5950     1.4840     0.8850 O.3   1 <1>  -0.3630 
  2 C       -0.9350     2.0890    -0.1410 C.ar  1 <1>   0.0820 
  3 C       -0.9060     1.0560     2.0450 C.3   1 <1>   0.0400 
  4 C       -1.6250     2.2450    -1.3410 C.ar  1 <1>  -0.1440 
  5 C        0.3730     2.5540    -0.0300 C.ar  1 <1>  -0.1500 
  6 C       -1.0080     2.8610    -2.4190 C.ar  1 <1>  -0.1500 
  7 C       -3.0500     1.7440    -1.4730 C.3   1 <1>   0.4870 
  8 C        0.9850     3.1730    -1.1140 C.ar  1 <1>   0.0820 
  9 C        0.2890     3.3220    -2.3010 C.ar  1 <1>  -0.1500 
 10 N       -3.8920     2.4660    -0.4880 N.4   1 <1>  -0.9590 
 11 O        2.2510     3.6570    -1.0930 O.3   1 <1>  -0.3620 
 12 C       -5.2690     1.8750    -0.3540 C.3   1 <1>   0.3430 
 13 C       -3.9420     3.9500    -0.7520 C.3   1 <1>   0.3430 
 14 C        3.0940     3.4930     0.0270 C.3   1 <1>   0.0400 
 15 C       -6.1190     2.5950     0.7140 C.3   1 <1>   0.2090 
 16 C       -4.7740     4.7130     0.3000 C.3   1 <1>   0.2090 
 17 N       -6.1050     4.0750     0.5270 N.pl3 1 <1>  -0.8380 
 18 C       -7.2240     4.6630    -0.0620 C.ar  1 <1>   0.1000 
 19 C       -8.1740     5.3280     0.7150 C.ar  1 <1>  -0.1430 
 20 C       -7.4100     4.5920    -1.4390 C.ar  1 <1>  -0.1500 
 21 C       -9.2800     5.9010     0.1100 C.ar  1 <1>  -0.1500 
 22 C       -8.0080     5.4320     2.2250 C.3   1 <1>  -0.0970 
 23 C       -8.5160     5.1660    -2.0370 C.ar  1 <1>  -0.1500 
 24 C       -9.4540     5.8230    -1.2610 C.ar  1 <1>  -0.1500 
 25 H       -0.5400     1.9160     2.5770 H     1 <1>   0.0800 
 26 H       -0.0940     0.4120     1.7540 H     1 <1>   0.0800 
 27 H       -1.5940     0.5110     2.6670 H     1 <1>   0.0800 
 28 H        0.9120     2.4430     0.8880 H     1 <1>   0.1500 
 29 H       -1.5190     2.9870    -3.3580 H     1 <1>   0.1500 
 30 H       -3.0680     0.6860    -1.2670 H     1 <1>   0.0800 
 31 H       -3.4150     1.9090    -2.4730 H     1 <1>   0.0800 
 32 H        0.7790     3.8000    -3.1320 H     1 <1>   0.1500 
 33 H       -3.3900     2.3370     0.4060 H     1 <1>   0.4500 
 34 H       -5.1970     0.8310    -0.0960 H     1 <1>   0.0800 
 35 H       -5.7860     1.9490    -1.2950 H     1 <1>   0.0800 
 36 H       -4.3810     4.1290    -1.7190 H     1 <1>   0.0800 
 37 H       -2.9430     4.3550    -0.7640 H     1 <1>   0.0800 
 38 H        4.0480     3.9290    -0.2090 H     1 <1>   0.0800 
 39 H        3.2130     2.4430     0.2250 H     1 <1>   0.0800 
 40 H        2.6600     4.0020     0.8690 H     1 <1>   0.0800 
 41 H       -5.7430     2.3630     1.6950 H     1 <1>   0.0800 
 42 H       -7.1340     2.2380     0.6630 H     1 <1>   0.0800 
 43 H       -4.9160     5.7300    -0.0260 H     1 <1>   0.0800 
 44 H       -4.2380     4.7440     1.2320 H     1 <1>   0.0800 
 45 H       -6.6910     4.0860    -2.0490 H     1 <1>   0.1500 
 46 H      -10.0170     6.4150     0.7020 H     1 <1>   0.1500 
 47 H       -7.9980     4.4490     2.6590 H     1 <1>   0.0800 
 48 H       -8.8110     5.9940     2.6670 H     1 <1>   0.0800 
 49 H       -7.0800     5.9220     2.4550 H     1 <1>   0.0800 
 50 H       -8.6520     5.1070    -3.1020 H     1 <1>   0.1500 
 51 H      -10.3170     6.2720    -1.7200 H     1 <1>   0.1500 
@<TRIPOS>BOND
  1   1   2  1   
  2   1   3  1   
  3   2   4  ar  
  4   2   5  ar  
  5   3  25  1   
  6   3  26  1   
  7   3  27  1   
  8   4   6  ar  
  9   4   7  1   
 10   5   8  ar  
 11   5  28  1   
 12   6   9  ar  
 13   6  29  1   
 14   7  10  1   
 15   7  30  1   
 16   7  31  1   
 17   8   9  ar  
 18   8  11  1   
 19   9  32  1   
 20  10  12  1   
 21  10  13  1   
 22  10  33  1   
 23  11  14  1   
 24  12  15  1   
 25  12  34  1   
 26  12  35  1   
 27  13  16  1   
 28  13  36  1   
 29  13  37  1   
 30  14  38  1   
 31  14  39  1   
 32  14  40  1   
 33  15  17  1   
 34  15  41  1   
 35  15  42  1   
 36  16  17  1   
 37  16  43  1   
 38  16  44  1   
 39  17  18  1   
 40  18  19  ar  
 41  18  20  ar  
 42  19  21  ar  
 43  19  22  1   
 44  20  23  ar  
 45  20  45  1   
 46  21  24  ar  
 47  21  46  1   
 48  22  47  1   
 49  22  48  1   
 50  22  49  1   
 51  23  24  ar  
 52  23  50  1   
 53  24  51  1   
@<TRIPOS>SUBSTRUCTURE
  1 ****  13 GROUP 4 **** **** 0

# MOE 2024.06 (io_trps.svl 2023.06)
