@<TRIPOS>MOLECULE
NONAME
35 37 1 0 0 
SMALL
USER_CHARGES


@<TRIPOS>ATOM
  1 O        0.2840     0.2130     2.0710 O.2   1 <1>  -0.5700 
  2 C        0.7520    -0.5860     1.3120 C.2   1 <1>   0.4480 
  3 C        0.0020    -1.5320     0.3820 C.3   1 <1>   0.3410 
  4 C        2.2130    -0.7870     1.0930 C.3   1 <1>  -0.0990 
  5 O        1.0080    -2.2280    -0.2980 O.3   1 <1>  -0.5600 
  6 C       -0.8360    -0.7860    -0.6860 C.3   1 <1>  -0.1600 
  7 C       -0.8170    -2.5770     1.1690 C.3   1 <1>  -0.1600 
  8 C        2.2180    -1.5310    -0.2340 C.3   1 <1>   0.3440 
  9 C       -2.3390    -0.8070    -0.3680 C.3   1 <1>  -0.1600 
 10 C       -1.8630    -3.2600     0.2770 C.3   1 <1>  -0.1600 
 11 C        3.4020    -2.4830    -0.3600 C.ar  1 <1>  -0.1440 
 12 C       -2.8810    -2.2470    -0.2800 C.3   1 <1>  -0.1600 
 13 C        3.3340    -3.7890     0.1080 C.ar  1 <1>  -0.1500 
 14 C        4.5800    -2.0380    -0.9430 C.ar  1 <1>  -0.1500 
 15 C        4.4240    -4.6340    -0.0030 C.ar  1 <1>  -0.1500 
 16 C        5.6720    -2.8820    -1.0550 C.ar  1 <1>  -0.1500 
 17 C        5.5950    -4.1800    -0.5840 C.ar  1 <1>  -0.1500 
 18 H        2.6210    -1.3970     1.8770 H     1 <1>   0.0800 
 19 H        2.7450     0.1430     1.0320 H     1 <1>   0.0800 
 20 H       -0.5070     0.2350    -0.7620 H     1 <1>   0.0800 
 21 H       -0.6930    -1.2540    -1.6440 H     1 <1>   0.0800 
 22 H       -1.3300    -2.0860     1.9770 H     1 <1>   0.0800 
 23 H       -0.1560    -3.3060     1.6010 H     1 <1>   0.0800 
 24 H        2.2170    -0.8290    -1.0510 H     1 <1>   0.0800 
 25 H       -2.8840    -0.2610    -1.1190 H     1 <1>   0.0800 
 26 H       -2.4990    -0.3090     0.5740 H     1 <1>   0.0800 
 27 H       -1.3520    -3.7380    -0.5430 H     1 <1>   0.0800 
 28 H       -2.3790    -4.0270     0.8300 H     1 <1>   0.0800 
 29 H       -3.1860    -2.5740    -1.2600 H     1 <1>   0.0800 
 30 H       -3.7590    -2.2420     0.3430 H     1 <1>   0.0800 
 31 H        2.4270    -4.1540     0.5580 H     1 <1>   0.1500 
 32 H        4.6570    -1.0310    -1.3140 H     1 <1>   0.1500 
 33 H        4.3600    -5.6440     0.3610 H     1 <1>   0.1500 
 34 H        6.5820    -2.5290    -1.5080 H     1 <1>   0.1500 
 35 H        6.4430    -4.8370    -0.6710 H     1 <1>   0.1500 
@<TRIPOS>BOND
  1   1   2  2   
  2   2   3  1   
  3   2   4  1   
  4   3   5  1   
  5   3   6  1   
  6   3   7  1   
  7   4   8  1   
  8   4  18  1   
  9   4  19  1   
 10   5   8  1   
 11   6   9  1   
 12   6  20  1   
 13   6  21  1   
 14   7  10  1   
 15   7  22  1   
 16   7  23  1   
 17   8  11  1   
 18   8  24  1   
 19   9  12  1   
 20   9  25  1   
 21   9  26  1   
 22  10  12  1   
 23  10  27  1   
 24  10  28  1   
 25  11  13  ar  
 26  11  14  ar  
 27  12  29  1   
 28  12  30  1   
 29  13  15  ar  
 30  13  31  1   
 31  14  16  ar  
 32  14  32  1   
 33  15  17  ar  
 34  15  33  1   
 35  16  17  ar  
 36  16  34  1   
 37  17  35  1   
@<TRIPOS>SUBSTRUCTURE
  1 ****   5 GROUP 4 **** **** 0

# MOE 2024.06 (io_trps.svl 2023.06)
