@<TRIPOS>MOLECULE
NONAME
40 43 1 0 0 
SMALL
USER_CHARGES


@<TRIPOS>ATOM
  1 S        0.6930     2.1630    -1.4730 S.3   1 <1>  -0.0800 
  2 C        0.5380     1.5600     0.1710 C.2   1 <1>  -0.1400 
  3 C       -0.1870     0.7860    -2.1090 C.2   1 <1>  -0.1100 
  4 C       -0.1440     0.3990     0.1830 C.2   1 <1>  -0.1500 
  5 C        1.1630     2.3860     1.2890 C.3   1 <1>   0.0810 
  6 C       -0.5560    -0.0420    -1.1150 C.2   1 <1>  -0.1500 
  7 C        2.6820     2.3270     1.3290 C.2   1 <1>   0.5690 
  8 O        3.2510     2.9970     2.1560 O.2   1 <1>  -0.5700 
  9 N        3.3370     1.5230     0.4480 N.am  1 <1>  -0.7300 
 10 C        4.7810     1.3170     0.2700 C.3   1 <1>   0.3000 
 11 C        4.9670     0.3120    -0.8820 C.3   1 <1>  -0.1600 
 12 C        5.4140     0.7350     1.5470 C.3   1 <1>  -0.1600 
 13 C        5.4790     2.6380    -0.1040 C.3   1 <1>  -0.1600 
 14 C        6.4650     0.0490    -1.1260 C.3   1 <1>  -0.0800 
 15 C        6.9170     0.4800     1.3200 C.3   1 <1>  -0.0800 
 16 C        6.9830     2.3910    -0.3370 C.3   1 <1>  -0.0800 
 17 C        7.0930    -0.5190     0.1610 C.3   1 <1>  -0.1600 
 18 C        7.1580     1.3780    -1.4840 C.3   1 <1>  -0.1600 
 19 C        7.6030     1.8100     0.9490 C.3   1 <1>  -0.1600 
 20 H       -0.3390     0.7440    -3.1740 H     1 <1>   0.1500 
 21 H       -0.3810    -0.1800     1.0590 H     1 <1>   0.1500 
 22 H        0.7980     2.0330     2.2350 H     1 <1>   0.0800 
 23 H        0.8630     3.4120     1.1840 H     1 <1>   0.0800 
 24 H       -1.1080    -0.9580    -1.2370 H     1 <1>   0.1500 
 25 H        2.7650     1.0290    -0.2400 H     1 <1>   0.3700 
 26 H        4.5240     0.7030    -1.7810 H     1 <1>   0.0800 
 27 H        4.4790    -0.6150    -0.6390 H     1 <1>   0.0800 
 28 H        4.9250    -0.1860     1.8110 H     1 <1>   0.0800 
 29 H        5.2950     1.4240     2.3630 H     1 <1>   0.0800 
 30 H        5.3610     3.3540     0.6900 H     1 <1>   0.0800 
 31 H        5.0360     3.0480    -0.9940 H     1 <1>   0.0800 
 32 H        6.5870    -0.6540    -1.9330 H     1 <1>   0.0800 
 33 H        7.3580     0.0810     2.2170 H     1 <1>   0.0800 
 34 H        7.4690     3.3180    -0.5900 H     1 <1>   0.0800 
 35 H        8.1400    -0.7100     0.0010 H     1 <1>   0.0800 
 36 H        6.6260    -1.4550     0.4130 H     1 <1>   0.0800 
 37 H        6.7370     1.7770    -2.3900 H     1 <1>   0.0800 
 38 H        8.2060     1.2060    -1.6610 H     1 <1>   0.0800 
 39 H        8.6570     1.6480     0.8040 H     1 <1>   0.0800 
 40 H        7.4900     2.5140     1.7560 H     1 <1>   0.0800 
@<TRIPOS>BOND
  1   1   2  1   
  2   1   3  1   
  3   2   4  2   
  4   2   5  1   
  5   3   6  2   
  6   3  20  1   
  7   4   6  1   
  8   4  21  1   
  9   5   7  1   
 10   5  22  1   
 11   5  23  1   
 12   6  24  1   
 13   7   8  2   
 14   7   9  am  
 15   9  10  1   
 16   9  25  1   
 17  10  11  1   
 18  10  12  1   
 19  10  13  1   
 20  11  14  1   
 21  11  26  1   
 22  11  27  1   
 23  12  15  1   
 24  12  28  1   
 25  12  29  1   
 26  13  16  1   
 27  13  30  1   
 28  13  31  1   
 29  14  17  1   
 30  14  18  1   
 31  14  32  1   
 32  15  17  1   
 33  15  19  1   
 34  15  33  1   
 35  16  18  1   
 36  16  19  1   
 37  16  34  1   
 38  17  35  1   
 39  17  36  1   
 40  18  37  1   
 41  18  38  1   
 42  19  39  1   
 43  19  40  1   
@<TRIPOS>SUBSTRUCTURE
  1 ****   9 GROUP 4 **** **** 0

# MOE 2024.06 (io_trps.svl 2023.06)
