@<TRIPOS>MOLECULE
NONAME
47 49 1 0 0 
SMALL
USER_CHARGES


@<TRIPOS>ATOM
  1 N        0.3520     0.0200     0.5890 N.4   1 <1>  -0.9590 
  2 C        0.9250     0.0580    -0.7960 C.3   1 <1>   0.4860 
  3 C       -0.9090    -0.8020     0.7260 C.3   1 <1>   0.3430 
  4 C        0.2590     1.3980     1.1880 C.3   1 <1>   0.2630 
  5 C        2.3350     0.6000    -0.7100 C.ar  1 <1>  -0.1440 
  6 C       -2.1650    -0.2270     0.0040 C.3   1 <1>   0.3430 
  7 C        3.3660    -0.2010    -0.2300 C.ar  1 <1>  -0.1500 
  8 C        2.6040     1.9070    -1.1070 C.ar  1 <1>  -0.1500 
  9 N       -3.4350    -1.0160     0.2320 N.4   1 <1>  -0.9590 
 10 C        4.6400     0.3250    -0.1370 C.ar  1 <1>  -0.1430 
 11 C        3.8850     2.4230    -1.0090 C.ar  1 <1>  -0.1500 
 12 C       -3.3980    -2.4070    -0.3380 C.3   1 <1>   0.2630 
 13 C       -4.6140    -0.2880    -0.3520 C.3   1 <1>   0.2630 
 14 C        4.9080     1.6280    -0.5160 C.ar  1 <1>   0.0000 
 15 C        5.9150    -0.3510     0.3520 C.3   1 <1>   0.1270 
 16 C        6.2990     1.9070    -0.3100 C.ar  1 <1>   0.0000 
 17 C        6.9200     0.7800     0.1970 C.ar  1 <1>  -0.1430 
 18 C        7.0420     3.0590    -0.5310 C.ar  1 <1>  -0.1500 
 19 C        8.2700     0.7750     0.4920 C.ar  1 <1>  -0.1500 
 20 C        8.3960     3.0640    -0.2390 C.ar  1 <1>  -0.1500 
 21 C        9.0080     1.9270     0.2710 C.ar  1 <1>  -0.1500 
 22 H        1.0950    -0.4500     1.1350 H     1 <1>   0.4500 
 23 H        0.3320     0.6870    -1.4400 H     1 <1>   0.0800 
 24 H        0.9600    -0.9340    -1.2180 H     1 <1>   0.0800 
 25 H       -1.1380    -0.8940     1.7750 H     1 <1>   0.0800 
 26 H       -0.7170    -1.7920     0.3460 H     1 <1>   0.0800 
 27 H       -0.4160     2.0190     0.6240 H     1 <1>   0.0800 
 28 H        1.2310     1.8690     1.1900 H     1 <1>   0.0800 
 29 H       -0.0840     1.3440     2.2090 H     1 <1>   0.0800 
 30 H       -1.9700    -0.1830    -1.0550 H     1 <1>   0.0800 
 31 H       -2.3230     0.7790     0.3540 H     1 <1>   0.0800 
 32 H        3.2020    -1.2230     0.0670 H     1 <1>   0.1500 
 33 H        1.8280     2.5420    -1.4990 H     1 <1>   0.1500 
 34 H       -3.6250    -1.0960     1.2470 H     1 <1>   0.4500 
 35 H        4.0990     3.4330    -1.3130 H     1 <1>   0.1500 
 36 H       -3.2320    -2.3760    -1.4030 H     1 <1>   0.0800 
 37 H       -4.3360    -2.9090    -0.1570 H     1 <1>   0.0800 
 38 H       -2.6140    -2.9900     0.1190 H     1 <1>   0.0800 
 39 H       -4.5050    -0.1840    -1.4200 H     1 <1>   0.0800 
 40 H       -4.7070     0.6950     0.0820 H     1 <1>   0.0800 
 41 H       -5.5250    -0.8310    -0.1560 H     1 <1>   0.0800 
 42 H        6.1790    -1.1850    -0.2720 H     1 <1>   0.0800 
 43 H        5.8320    -0.6510     1.3810 H     1 <1>   0.0800 
 44 H        6.5670     3.9380    -0.9260 H     1 <1>   0.1500 
 45 H        8.7430    -0.1070     0.8860 H     1 <1>   0.1500 
 46 H        8.9780     3.9530    -0.4080 H     1 <1>   0.1500 
 47 H       10.0610     1.9400     0.4940 H     1 <1>   0.1500 
@<TRIPOS>BOND
  1   1   2  1   
  2   1   3  1   
  3   1   4  1   
  4   1  22  1   
  5   2   5  1   
  6   2  23  1   
  7   2  24  1   
  8   3   6  1   
  9   3  25  1   
 10   3  26  1   
 11   4  27  1   
 12   4  28  1   
 13   4  29  1   
 14   5   7  ar  
 15   5   8  ar  
 16   6   9  1   
 17   6  30  1   
 18   6  31  1   
 19   7  10  ar  
 20   7  32  1   
 21   8  11  ar  
 22   8  33  1   
 23   9  12  1   
 24   9  13  1   
 25   9  34  1   
 26  10  14  ar  
 27  10  15  1   
 28  11  14  ar  
 29  11  35  1   
 30  12  36  1   
 31  12  37  1   
 32  12  38  1   
 33  13  39  1   
 34  13  40  1   
 35  13  41  1   
 36  14  16  1   
 37  15  17  1   
 38  15  42  1   
 39  15  43  1   
 40  16  17  ar  
 41  16  18  ar  
 42  17  19  ar  
 43  18  20  ar  
 44  18  44  1   
 45  19  21  ar  
 46  19  45  1   
 47  20  21  ar  
 48  20  46  1   
 49  21  47  1   
@<TRIPOS>SUBSTRUCTURE
  1 ****   5 GROUP 4 **** **** 0

# MOE 2024.06 (io_trps.svl 2023.06)
