@<TRIPOS>MOLECULE
NONAME
50 51 1 0 0 
SMALL
USER_CHARGES


@<TRIPOS>ATOM
  1 CL       0.3080    -0.5260    -1.8830 Cl    1 <1>  -0.1770 
  2 C       -0.6650     0.5110    -0.8600 C.ar  1 <1>   0.1770 
  3 C       -0.1970     1.7600    -0.4640 C.ar  1 <1>   0.0820 
  4 C       -1.9070     0.0560    -0.4610 C.ar  1 <1>  -0.1500 
  5 O        1.0220     2.2000    -0.8560 O.3   1 <1>  -0.3630 
  6 C       -1.0010     2.5720     0.3300 C.ar  1 <1>  -0.1440 
  7 C       -2.7060     0.8570     0.3400 C.ar  1 <1>  -0.1430 
  8 C        2.1210     1.7330    -0.1050 C.3   1 <1>   0.1200 
  9 C       -2.2470     2.1080     0.7270 C.ar  1 <1>  -0.1500 
 10 C       -0.5320     3.9540     0.7620 C.3   1 <1>  -0.0960 
 11 C       -4.0730     0.3760     0.7920 C.3   1 <1>  -0.0970 
 12 C        3.3940     2.3260    -0.6980 C.3   1 <1>   0.1200 
 13 O        4.4750     1.9410     0.0940 O.3   1 <1>  -0.5600 
 14 C        5.7020     2.4130    -0.3580 C.3   1 <1>   0.1200 
 15 C        6.7880     1.8690     0.5730 C.3   1 <1>   0.1100 
 16 N        8.1400     2.3200     0.1730 N.3   1 <1>  -0.8100 
 17 C        8.3860     3.7410     0.5310 C.3   1 <1>   0.1100 
 18 C        9.1780     1.4540     0.7840 C.3   1 <1>   0.1100 
 19 C        9.8250     4.2030     0.1870 C.3   1 <1>   0.3430 
 20 C       10.6150     1.8780     0.3890 C.3   1 <1>   0.3430 
 21 N       10.6010     3.1040    -0.4760 N.4   1 <1>  -0.9590 
 22 C       11.9560     3.5230    -0.9350 C.3   1 <1>   0.2630 
 23 H       -2.2380    -0.9150    -0.7790 H     1 <1>   0.1500 
 24 H        2.1460     0.6590    -0.1580 H     1 <1>   0.0800 
 25 H        1.9940     2.0530     0.9140 H     1 <1>   0.0800 
 26 H       -2.8720     2.7280     1.3470 H     1 <1>   0.1500 
 27 H       -0.1640     4.4990    -0.0890 H     1 <1>   0.0800 
 28 H        0.2600     3.8620     1.4820 H     1 <1>   0.0800 
 29 H       -1.3360     4.5150     1.2020 H     1 <1>   0.0800 
 30 H       -4.4210    -0.4260     0.1660 H     1 <1>   0.0800 
 31 H       -4.7860     1.1800     0.7400 H     1 <1>   0.0800 
 32 H       -4.0180     0.0250     1.8060 H     1 <1>   0.0800 
 33 H        3.3340     3.4000    -0.7020 H     1 <1>   0.0800 
 34 H        3.5430     1.9520    -1.6970 H     1 <1>   0.0800 
 35 H        5.6770     3.4880    -0.3390 H     1 <1>   0.0800 
 36 H        5.8620     2.0560    -1.3610 H     1 <1>   0.0800 
 37 H        6.7420     0.7940     0.5230 H     1 <1>   0.0800 
 38 H        6.5800     2.1700     1.5860 H     1 <1>   0.0800 
 39 H        8.2140     3.8890     1.5840 H     1 <1>   0.0800 
 40 H        7.6920     4.3720     0.0020 H     1 <1>   0.0800 
 41 H        9.0220     0.4350     0.4710 H     1 <1>   0.0800 
 42 H        9.0860     1.4770     1.8570 H     1 <1>   0.0800 
 43 H       10.3220     4.5110     1.0920 H     1 <1>   0.0800 
 44 H        9.7700     5.0600    -0.4640 H     1 <1>   0.0800 
 45 H       11.0840     1.0640    -0.1390 H     1 <1>   0.0800 
 46 H       11.1870     2.0620     1.2830 H     1 <1>   0.0800 
 47 H       10.0070     2.8310    -1.2770 H     1 <1>   0.4500 
 48 H       12.5670     3.8040    -0.0920 H     1 <1>   0.0800 
 49 H       11.8800     4.3650    -1.6030 H     1 <1>   0.0800 
 50 H       12.4400     2.7140    -1.4580 H     1 <1>   0.0800 
@<TRIPOS>BOND
  1   1   2  1   
  2   2   3  ar  
  3   2   4  ar  
  4   3   5  1   
  5   3   6  ar  
  6   4   7  ar  
  7   4  23  1   
  8   5   8  1   
  9   6   9  ar  
 10   6  10  1   
 11   7   9  ar  
 12   7  11  1   
 13   8  12  1   
 14   8  24  1   
 15   8  25  1   
 16   9  26  1   
 17  10  27  1   
 18  10  28  1   
 19  10  29  1   
 20  11  30  1   
 21  11  31  1   
 22  11  32  1   
 23  12  13  1   
 24  12  33  1   
 25  12  34  1   
 26  13  14  1   
 27  14  15  1   
 28  14  35  1   
 29  14  36  1   
 30  15  16  1   
 31  15  37  1   
 32  15  38  1   
 33  16  17  1   
 34  16  18  1   
 35  17  19  1   
 36  17  39  1   
 37  17  40  1   
 38  18  20  1   
 39  18  41  1   
 40  18  42  1   
 41  19  21  1   
 42  19  43  1   
 43  19  44  1   
 44  20  21  1   
 45  20  45  1   
 46  20  46  1   
 47  21  22  1   
 48  21  47  1   
 49  22  48  1   
 50  22  49  1   
 51  22  50  1   
@<TRIPOS>SUBSTRUCTURE
  1 ****  12 GROUP 4 **** **** 0

# MOE 2024.06 (io_trps.svl 2023.06)
