@<TRIPOS>MOLECULE
NONAME
32 33 1 0 0 
SMALL
USER_CHARGES


@<TRIPOS>ATOM
  1 O       -6.1930     1.2410     0.3030 O.2   1 <1>  -0.5700 
  2 C       -5.9290     0.1840    -0.1770 C.2   1 <1>   0.4480 
  3 C       -4.5380    -0.4320    -0.1460 C.3   1 <1>  -0.0190 
  4 C       -7.0000    -0.6800    -0.7930 C.3   1 <1>  -0.0990 
  5 C       -4.6430    -1.7560     0.6130 C.3   1 <1>   0.3430 
  6 C       -3.4790     0.4800     0.5010 C.3   1 <1>  -0.2400 
  7 C       -7.0690    -1.9870    -0.0150 C.3   1 <1>   0.3430 
  8 N       -5.7200    -2.6270     0.0380 N.4   1 <1>  -0.9590 
  9 C       -5.7430    -3.9690     0.7000 C.3   1 <1>   0.4860 
 10 C       -4.5820    -4.8050     0.1630 C.ar  1 <1>   0.1670 
 11 N       -4.2440    -4.5900    -1.1070 N.ar  1 <1>  -0.6200 
 12 C       -3.9470    -5.7180     0.9930 C.ar  1 <1>  -0.1500 
 13 C       -3.2400    -5.3260    -1.5640 C.ar  1 <1>   0.1600 
 14 C       -2.9020    -6.4690     0.5010 C.ar  1 <1>  -0.1500 
 15 C       -2.5480    -6.2610    -0.8140 C.ar  1 <1>  -0.1500 
 16 H       -4.2290    -0.6320    -1.1570 H     1 <1>   0.0800 
 17 H       -6.7800    -0.8630    -1.8290 H     1 <1>   0.0800 
 18 H       -7.9470    -0.1730    -0.7360 H     1 <1>   0.0800 
 19 H       -4.8580    -1.5480     1.6490 H     1 <1>   0.0800 
 20 H       -3.6940    -2.2680     0.5620 H     1 <1>   0.0800 
 21 H       -3.7430     0.7130     1.5190 H     1 <1>   0.0800 
 22 H       -3.4100     1.4060    -0.0440 H     1 <1>   0.0800 
 23 H       -2.5100     0.0110     0.4910 H     1 <1>   0.0800 
 24 H       -7.7770    -2.6500    -0.4890 H     1 <1>   0.0800 
 25 H       -7.4140    -1.7820     0.9870 H     1 <1>   0.0800 
 26 H       -5.4100    -2.8860    -0.9200 H     1 <1>   0.4500 
 27 H       -6.6600    -4.4800     0.4560 H     1 <1>   0.0800 
 28 H       -5.6750    -3.8710     1.7700 H     1 <1>   0.0800 
 29 H       -4.2580    -5.8550     2.0140 H     1 <1>   0.1500 
 30 H       -2.9490    -5.1810    -2.5920 H     1 <1>   0.1500 
 31 H       -2.3840    -7.1910     1.1130 H     1 <1>   0.1500 
 32 H       -1.7420    -6.8210    -1.2570 H     1 <1>   0.1500 
@<TRIPOS>BOND
  1   1   2  2   
  2   2   3  1   
  3   2   4  1   
  4   3   5  1   
  5   3   6  1   
  6   3  16  1   
  7   4   7  1   
  8   4  17  1   
  9   4  18  1   
 10   5   8  1   
 11   5  19  1   
 12   5  20  1   
 13   6  21  1   
 14   6  22  1   
 15   6  23  1   
 16   7   8  1   
 17   7  24  1   
 18   7  25  1   
 19   8   9  1   
 20   8  26  1   
 21   9  10  1   
 22   9  27  1   
 23   9  28  1   
 24  10  11  ar  
 25  10  12  ar  
 26  11  13  ar  
 27  12  14  ar  
 28  12  29  1   
 29  13  15  ar  
 30  13  30  1   
 31  14  15  ar  
 32  14  31  1   
 33  15  32  1   
@<TRIPOS>SUBSTRUCTURE
  1 ****   8 GROUP 4 **** **** 0

# MOE 2024.06 (io_trps.svl 2023.06)
