@<TRIPOS>MOLECULE
NONAME
53 54 1 0 0 
SMALL
USER_CHARGES


@<TRIPOS>ATOM
  1 CL       0.9700    -0.4700    -0.1590 Cl    1 <1>  -0.1770 
  2 C        2.4440     0.4660     0.0090 C.ar  1 <1>   0.1770 
  3 C        2.3630     1.7860     0.4350 C.ar  1 <1>  -0.1440 
  4 C        3.6620    -0.1310    -0.2870 C.ar  1 <1>  -0.1440 
  5 C        3.5310     2.5200     0.5650 C.ar  1 <1>  -0.1500 
  6 C        1.0180     2.4250     0.7550 C.3   1 <1>  -0.0960 
  7 C        4.8180     0.6190    -0.1500 C.ar  1 <1>  -0.1500 
  8 C        3.7390    -1.5780    -0.7530 C.3   1 <1>  -0.0960 
  9 C        4.7630     1.9380     0.2730 C.ar  1 <1>   0.0830 
 10 O        5.9480     2.5910     0.3760 O.3   1 <1>  -0.3630 
 11 C        6.0040     3.9560     0.7790 C.3   1 <1>   0.1810 
 12 C        7.4380     4.4650     0.8120 C.2   1 <1>   0.5690 
 13 O        7.6280     5.5950     1.1900 O.2   1 <1>  -0.5700 
 14 N        8.4350     3.6120     0.4220 N.am  1 <1>  -0.5470 
 15 C        9.8290     3.7720     0.3390 C.ar  1 <1>   0.1170 
 16 C       10.6290     2.6380     0.3280 C.ar  1 <1>  -0.1500 
 17 C       10.4430     5.0150     0.2510 C.ar  1 <1>  -0.1500 
 18 C       12.0130     2.7370     0.2350 C.ar  1 <1>   0.0830 
 19 C       11.8190     5.1240     0.1570 C.ar  1 <1>  -0.1500 
 20 O       12.8360     1.6420     0.2280 O.3   1 <1>  -0.3620 
 21 C       12.6240     3.9920     0.1450 C.ar  1 <1>   0.1170 
 22 C       12.3210     0.3340     0.3520 C.3   1 <1>   0.0400 
 23 N       14.0300     4.0380     0.0510 N.am  1 <1>  -0.5470 
 24 C       14.9290     5.0520    -0.1190 C.2   1 <1>   0.5690 
 25 O       14.6160     6.2130    -0.2350 O.2   1 <1>  -0.5700 
 26 C       16.4150     4.6760    -0.1690 C.3   1 <1>  -0.0190 
 27 C       17.2070     5.3530     0.9620 C.3   1 <1>  -0.2400 
 28 C       17.0390     5.0260    -1.5300 C.3   1 <1>  -0.2400 
 29 H        3.4640     3.5390     0.8950 H     1 <1>   0.1500 
 30 H        0.3870     2.4070    -0.1160 H     1 <1>   0.0800 
 31 H        1.1360     3.4460     1.0690 H     1 <1>   0.0800 
 32 H        0.5320     1.8800     1.5450 H     1 <1>   0.0800 
 33 H        5.7770     0.1860    -0.3720 H     1 <1>   0.1500 
 34 H        3.1800    -1.7010    -1.6640 H     1 <1>   0.0800 
 35 H        3.3250    -2.2280    -0.0030 H     1 <1>   0.0800 
 36 H        4.7560    -1.8730    -0.9360 H     1 <1>   0.0800 
 37 H        5.5770     4.0390     1.7610 H     1 <1>   0.0800 
 38 H        5.4370     4.5420     0.0790 H     1 <1>   0.0800 
 39 H        8.0840     2.6840     0.1790 H     1 <1>   0.3700 
 40 H       10.1480     1.6830     0.3970 H     1 <1>   0.1500 
 41 H        9.8520     5.9120     0.2520 H     1 <1>   0.1500 
 42 H       12.2550     6.1030     0.0940 H     1 <1>   0.1500 
 43 H       13.1480    -0.3540     0.3380 H     1 <1>   0.0800 
 44 H       11.6680     0.1340    -0.4790 H     1 <1>   0.0800 
 45 H       11.7950     0.2520     1.2870 H     1 <1>   0.0800 
 46 H       14.4300     3.1000     0.1040 H     1 <1>   0.3700 
 47 H       16.4990     3.6130    -0.0350 H     1 <1>   0.0800 
 48 H       17.1650     6.4230     0.8570 H     1 <1>   0.0800 
 49 H       18.2360     5.0430     0.9420 H     1 <1>   0.0800 
 50 H       16.7860     5.0900     1.9160 H     1 <1>   0.0800 
 51 H       16.9900     6.0880    -1.7000 H     1 <1>   0.0800 
 52 H       16.5030     4.5320    -2.3210 H     1 <1>   0.0800 
 53 H       18.0680     4.7160    -1.5660 H     1 <1>   0.0800 
@<TRIPOS>BOND
  1   1   2  1   
  2   2   3  ar  
  3   2   4  ar  
  4   3   5  ar  
  5   3   6  1   
  6   4   7  ar  
  7   4   8  1   
  8   5   9  ar  
  9   5  29  1   
 10   6  30  1   
 11   6  31  1   
 12   6  32  1   
 13   7   9  ar  
 14   7  33  1   
 15   8  34  1   
 16   8  35  1   
 17   8  36  1   
 18   9  10  1   
 19  10  11  1   
 20  11  12  1   
 21  11  37  1   
 22  11  38  1   
 23  12  13  2   
 24  12  14  am  
 25  14  15  1   
 26  14  39  1   
 27  15  16  ar  
 28  15  17  ar  
 29  16  18  ar  
 30  16  40  1   
 31  17  19  ar  
 32  17  41  1   
 33  18  20  1   
 34  18  21  ar  
 35  19  21  ar  
 36  19  42  1   
 37  20  22  1   
 38  21  23  1   
 39  22  43  1   
 40  22  44  1   
 41  22  45  1   
 42  23  24  am  
 43  23  46  1   
 44  24  25  2   
 45  24  26  1   
 46  26  27  1   
 47  26  28  1   
 48  26  47  1   
 49  27  48  1   
 50  27  49  1   
 51  27  50  1   
 52  28  51  1   
 53  28  52  1   
 54  28  53  1   
@<TRIPOS>SUBSTRUCTURE
  1 ****  14 GROUP 4 **** **** 0

# MOE 2024.06 (io_trps.svl 2023.06)
