@<TRIPOS>MOLECULE
NONAME
48 50 1 0 0 
SMALL
USER_CHARGES


@<TRIPOS>ATOM
  1 N       -5.8260    -3.4030    -0.1960 N.4   1 <1>  -0.9590 
  2 C       -5.4640    -2.1300     0.4770 C.3   1 <1>   0.3430 
  3 C       -7.2800    -3.3330    -0.4660 C.3   1 <1>   0.3430 
  4 C       -5.4080    -4.6130     0.5530 C.3   1 <1>   0.5430 
  5 C       -6.3620    -1.0900    -0.1780 C.3   1 <1>  -0.1600 
  6 C       -7.5290    -1.8680    -0.7970 C.3   1 <1>  -0.1600 
  7 C       -3.9240    -4.6510     0.5600 C.1   1 <1>  -0.2000 
  8 C       -2.7330    -4.6620     0.5620 C.1   1 <1>  -0.0730 
  9 C       -1.3010    -4.6660     0.5640 C.ar  1 <1>   0.0730 
 10 C       -0.5920    -4.3290     1.7080 C.ar  1 <1>  -0.1500 
 11 C       -0.5890    -5.0060    -0.5770 C.ar  1 <1>  -0.1500 
 12 C        0.7920    -4.3260     1.7090 C.ar  1 <1>  -0.1500 
 13 C        0.7950    -5.0030    -0.5760 C.ar  1 <1>  -0.1500 
 14 C        1.5050    -4.6600     0.5660 C.ar  1 <1>   0.0730 
 15 C        2.9370    -4.6510     0.5660 C.1   1 <1>  -0.0730 
 16 C        4.1270    -4.6340     0.5660 C.1   1 <1>  -0.2000 
 17 C        5.6110    -4.5900     0.5610 C.3   1 <1>   0.5430 
 18 N        6.0250    -3.3790    -0.1890 N.4   1 <1>  -0.9590 
 19 C        7.4790    -3.3040    -0.4570 C.3   1 <1>   0.3430 
 20 C        5.6580    -2.1070     0.4820 C.3   1 <1>   0.3430 
 21 C        7.7230    -1.8380    -0.7900 C.3   1 <1>  -0.1600 
 22 C        6.5520    -1.0640    -0.1740 C.3   1 <1>  -0.1600 
 23 H       -5.3280    -3.4180    -1.0950 H     1 <1>   0.4500 
 24 H       -4.4180    -1.8960     0.3530 H     1 <1>   0.0800 
 25 H       -5.6940    -2.1930     1.5290 H     1 <1>   0.0800 
 26 H       -7.8320    -3.5980     0.4210 H     1 <1>   0.0800 
 27 H       -7.5700    -3.9810    -1.2790 H     1 <1>   0.0800 
 28 H       -5.7850    -5.5000     0.0700 H     1 <1>   0.0800 
 29 H       -5.7830    -4.5810     1.5630 H     1 <1>   0.0800 
 30 H       -5.8140    -0.5640    -0.9410 H     1 <1>   0.0800 
 31 H       -6.7000    -0.3740     0.5510 H     1 <1>   0.0800 
 32 H       -8.4780    -1.5480    -0.4010 H     1 <1>   0.0800 
 33 H       -7.5440    -1.7330    -1.8650 H     1 <1>   0.0800 
 34 H       -1.1240    -4.0680     2.6060 H     1 <1>   0.1500 
 35 H       -1.1180    -5.2760    -1.4740 H     1 <1>   0.1500 
 36 H        1.3220    -4.0630     2.6080 H     1 <1>   0.1500 
 37 H        1.3270    -5.2710    -1.4720 H     1 <1>   0.1500 
 38 H        5.9930    -5.4760     0.0790 H     1 <1>   0.0800 
 39 H        5.9850    -4.5550     1.5720 H     1 <1>   0.0800 
 40 H        5.5290    -3.3970    -1.0890 H     1 <1>   0.4500 
 41 H        7.7730    -3.9520    -1.2690 H     1 <1>   0.0800 
 42 H        8.0310    -3.5660     0.4320 H     1 <1>   0.0800 
 43 H        5.8860    -2.1680     1.5340 H     1 <1>   0.0800 
 44 H        4.6110    -1.8770     0.3550 H     1 <1>   0.0800 
 45 H        7.7390    -1.7050    -1.8580 H     1 <1>   0.0800 
 46 H        8.6700    -1.5140    -0.3920 H     1 <1>   0.0800 
 47 H        6.8860    -0.3460     0.5550 H     1 <1>   0.0800 
 48 H        6.0030    -0.5420    -0.9390 H     1 <1>   0.0800 
@<TRIPOS>BOND
  1   1   2  1   
  2   1   3  1   
  3   1   4  1   
  4   1  23  1   
  5   2   5  1   
  6   2  24  1   
  7   2  25  1   
  8   3   6  1   
  9   3  26  1   
 10   3  27  1   
 11   4   7  1   
 12   4  28  1   
 13   4  29  1   
 14   5   6  1   
 15   5  30  1   
 16   5  31  1   
 17   6  32  1   
 18   6  33  1   
 19   7   8  3   
 20   8   9  1   
 21   9  10  ar  
 22   9  11  ar  
 23  10  12  ar  
 24  10  34  1   
 25  11  13  ar  
 26  11  35  1   
 27  12  14  ar  
 28  12  36  1   
 29  13  14  ar  
 30  13  37  1   
 31  14  15  1   
 32  15  16  3   
 33  16  17  1   
 34  17  18  1   
 35  17  38  1   
 36  17  39  1   
 37  18  19  1   
 38  18  20  1   
 39  18  40  1   
 40  19  21  1   
 41  19  41  1   
 42  19  42  1   
 43  20  22  1   
 44  20  43  1   
 45  20  44  1   
 46  21  22  1   
 47  21  45  1   
 48  21  46  1   
 49  22  47  1   
 50  22  48  1   
@<TRIPOS>SUBSTRUCTURE
  1 ****  13 GROUP 4 **** **** 0

# MOE 2024.06 (io_trps.svl 2023.06)
