@<TRIPOS>MOLECULE
NONAME
41 41 1 0 0 
SMALL
USER_CHARGES


@<TRIPOS>ATOM
  1 O        0.0610     0.0810     1.0810 O.2   1 <1>  -0.5700 
  2 C        0.0400     0.9340     0.2180 C.2   1 <1>   0.6900 
  3 N        1.1540     1.3500    -0.4200 N.am  1 <1>  -0.7300 
  4 N       -1.1220     1.5200    -0.1430 N.am  1 <1>  -0.7300 
  5 C        2.5430     0.8890    -0.3260 C.3   1 <1>   0.5000 
  6 C       -2.4400     1.2220     0.4380 C.3   1 <1>   0.2200 
  7 C        3.1510     1.3710    -1.6040 C.1   1 <1>  -0.2000 
  8 C        2.6360    -0.6570    -0.2750 C.3   1 <1>  -0.1600 
  9 C        3.2640     1.6130     0.8360 C.3   1 <1>  -0.1600 
 10 C       -3.4020     0.8340    -0.6900 C.3   1 <1>  -0.1600 
 11 C       -2.9380     2.4570     1.1950 C.3   1 <1>  -0.1600 
 12 C        3.6310     1.7600    -2.6220 C.1   1 <1>  -0.1770 
 13 C        4.0590    -1.2470    -0.3530 C.3   1 <1>  -0.2400 
 14 C        2.7750     1.2960     2.2610 C.3   1 <1>  -0.2400 
 15 C       -4.8250     0.6150    -0.1540 C.3   1 <1>  -0.1600 
 16 C       -4.3600     2.2420     1.7340 C.3   1 <1>  -0.1600 
 17 C       -5.3270     1.8500     0.6080 C.3   1 <1>  -0.1600 
 18 H        1.0430     2.0230    -1.1680 H     1 <1>   0.3700 
 19 H       -1.1060     2.2660    -0.8310 H     1 <1>   0.3700 
 20 H       -2.3580     0.3970     1.1270 H     1 <1>   0.0800 
 21 H        2.0600    -1.0570    -1.0900 H     1 <1>   0.0800 
 22 H        2.1940    -1.0160     0.6350 H     1 <1>   0.0800 
 23 H        3.1800     2.6740     0.6790 H     1 <1>   0.0800 
 24 H        4.3110     1.3780     0.7850 H     1 <1>   0.0800 
 25 H       -3.0540    -0.0710    -1.1550 H     1 <1>   0.0800 
 26 H       -3.4230     1.6140    -1.4300 H     1 <1>   0.0800 
 27 H       -2.9380     3.3090     0.5370 H     1 <1>   0.0800 
 28 H       -2.2740     2.6590     2.0170 H     1 <1>   0.0800 
 29 H        4.0690     2.1050    -3.5420 H     1 <1>   0.1770 
 30 H        4.5490    -0.9600    -1.2670 H     1 <1>   0.0800 
 31 H        4.0050    -2.3210    -0.3260 H     1 <1>   0.0800 
 32 H        4.6550    -0.9220     0.4810 H     1 <1>   0.0800 
 33 H        1.7540     1.6080     2.3900 H     1 <1>   0.0800 
 34 H        3.3780     1.8220     2.9800 H     1 <1>   0.0800 
 35 H        2.8420     0.2430     2.4680 H     1 <1>   0.0800 
 36 H       -4.8280    -0.2360     0.5060 H     1 <1>   0.0800 
 37 H       -5.4900     0.4000    -0.9730 H     1 <1>   0.0800 
 38 H       -4.7060     3.1430     2.2100 H     1 <1>   0.0800 
 39 H       -4.3440     1.4620     2.4760 H     1 <1>   0.0800 
 40 H       -6.2990     1.6460     1.0230 H     1 <1>   0.0800 
 41 H       -5.4290     2.6740    -0.0780 H     1 <1>   0.0800 
@<TRIPOS>BOND
  1   1   2  2   
  2   2   3  am  
  3   2   4  am  
  4   3   5  1   
  5   3  18  1   
  6   4   6  1   
  7   4  19  1   
  8   5   7  1   
  9   5   8  1   
 10   5   9  1   
 11   6  10  1   
 12   6  11  1   
 13   6  20  1   
 14   7  12  3   
 15   8  13  1   
 16   8  21  1   
 17   8  22  1   
 18   9  14  1   
 19   9  23  1   
 20   9  24  1   
 21  10  15  1   
 22  10  25  1   
 23  10  26  1   
 24  11  16  1   
 25  11  27  1   
 26  11  28  1   
 27  12  29  1   
 28  13  30  1   
 29  13  31  1   
 30  13  32  1   
 31  14  33  1   
 32  14  34  1   
 33  14  35  1   
 34  15  17  1   
 35  15  36  1   
 36  15  37  1   
 37  16  17  1   
 38  16  38  1   
 39  16  39  1   
 40  17  40  1   
 41  17  41  1   
@<TRIPOS>SUBSTRUCTURE
  1 ****   2 GROUP 4 **** **** 0

# MOE 2024.06 (io_trps.svl 2023.06)
