@<TRIPOS>MOLECULE
NONAME
49 51 1 0 0 
SMALL
USER_CHARGES


@<TRIPOS>ATOM
  1 F       -0.4640    -0.7700    -0.5800 F     1 <1>  -0.1900 
  2 C       -0.9700    -1.9530    -0.3230 C.ar  1 <1>   0.1900 
  3 C       -0.1290    -3.0130     0.0320 C.ar  1 <1>   0.1000 
  4 C       -2.3350    -2.0840    -0.4330 C.ar  1 <1>  -0.1500 
  5 N        1.2580    -2.9400     0.1640 N.pl3 1 <1>  -0.8380 
  6 C       -0.7570    -4.2290     0.2690 C.ar  1 <1>  -0.1500 
  7 C       -2.9620    -3.3120    -0.1960 C.ar  1 <1>   0.0860 
  8 C        1.9170    -1.7430     0.7760 C.3   1 <1>   0.2090 
  9 C        2.1270    -3.6690    -0.8120 C.3   1 <1>   0.2090 
 10 C       -2.1290    -4.3910     0.1600 C.ar  1 <1>  -0.1440 
 11 C       -4.4000    -3.4180    -0.3240 C.2   1 <1>   0.4230 
 12 C        3.2640    -2.1360     1.4080 C.3   1 <1>   0.1400 
 13 C        3.4820    -4.0350    -0.1810 C.3   1 <1>   0.1400 
 14 C       -2.7020    -5.7770     0.4360 C.3   1 <1>  -0.0960 
 15 O       -5.0990    -4.1010     0.3810 O.2   1 <1>  -0.5700 
 16 C       -5.1130    -2.6240    -1.4010 C.3   1 <1>  -0.1790 
 17 N        4.1400    -2.8230     0.4030 N.am  1 <1>  -0.6600 
 18 C        5.2880    -2.3030    -0.1430 C.2   1 <1>   0.5690 
 19 O        5.8920    -2.8910    -1.0110 O.2   1 <1>  -0.5700 
 20 C        5.8550    -0.9610     0.3060 C.3   1 <1>   0.0440 
 21 C        4.9270     0.2160     0.0140 C.ar  1 <1>  -0.1440 
 22 C        4.2990     0.3250    -1.2190 C.ar  1 <1>  -0.1500 
 23 C        4.6940     1.1840     0.9800 C.ar  1 <1>  -0.1500 
 24 C        3.4380     1.3770    -1.4760 C.ar  1 <1>  -0.1500 
 25 C        3.8330     2.2380     0.7230 C.ar  1 <1>  -0.1500 
 26 C        3.2030     2.3330    -0.5050 C.ar  1 <1>  -0.1500 
 27 H       -2.9120    -1.2180    -0.6980 H     1 <1>   0.1500 
 28 H       -0.1370    -5.0590     0.5550 H     1 <1>   0.1500 
 29 H        1.2740    -1.3240     1.5290 H     1 <1>   0.0800 
 30 H        2.0830    -0.9950     0.0200 H     1 <1>   0.0800 
 31 H        2.2970    -3.0410    -1.6700 H     1 <1>   0.0800 
 32 H        1.6330    -4.5630    -1.1460 H     1 <1>   0.0800 
 33 H        3.0750    -2.8100     2.2250 H     1 <1>   0.0800 
 34 H        3.7380    -1.2630     1.8120 H     1 <1>   0.0800 
 35 H        4.1100    -4.4870    -0.9280 H     1 <1>   0.0800 
 36 H        3.3240    -4.7600     0.5980 H     1 <1>   0.0800 
 37 H       -1.9240    -6.5120     0.5350 H     1 <1>   0.0800 
 38 H       -3.3500    -6.0810    -0.3660 H     1 <1>   0.0800 
 39 H       -3.2700    -5.7620     1.3500 H     1 <1>   0.0800 
 40 H       -4.4770    -2.4860    -2.2550 H     1 <1>   0.0800 
 41 H       -5.4080    -1.6680    -1.0100 H     1 <1>   0.0800 
 42 H       -5.9950    -3.1540    -1.7130 H     1 <1>   0.0800 
 43 H        6.7860    -0.7940    -0.2030 H     1 <1>   0.0800 
 44 H        6.0700    -1.0220     1.3560 H     1 <1>   0.0800 
 45 H        4.4750    -0.4120    -1.9850 H     1 <1>   0.1500 
 46 H        5.1800     1.1260     1.9380 H     1 <1>   0.1500 
 47 H        2.9510     1.4500    -2.4330 H     1 <1>   0.1500 
 48 H        3.6550     2.9850     1.4770 H     1 <1>   0.1500 
 49 H        2.5320     3.1500    -0.7050 H     1 <1>   0.1500 
@<TRIPOS>BOND
  1   1   2  1   
  2   2   3  ar  
  3   2   4  ar  
  4   3   5  1   
  5   3   6  ar  
  6   4   7  ar  
  7   4  27  1   
  8   5   8  1   
  9   5   9  1   
 10   6  10  ar  
 11   6  28  1   
 12   7  10  ar  
 13   7  11  1   
 14   8  12  1   
 15   8  29  1   
 16   8  30  1   
 17   9  13  1   
 18   9  31  1   
 19   9  32  1   
 20  10  14  1   
 21  11  15  2   
 22  11  16  1   
 23  12  17  1   
 24  12  33  1   
 25  12  34  1   
 26  13  17  1   
 27  13  35  1   
 28  13  36  1   
 29  14  37  1   
 30  14  38  1   
 31  14  39  1   
 32  16  40  1   
 33  16  41  1   
 34  16  42  1   
 35  17  18  am  
 36  18  19  2   
 37  18  20  1   
 38  20  21  1   
 39  20  43  1   
 40  20  44  1   
 41  21  22  ar  
 42  21  23  ar  
 43  22  24  ar  
 44  22  45  1   
 45  23  25  ar  
 46  23  46  1   
 47  24  26  ar  
 48  24  47  1   
 49  25  26  ar  
 50  25  48  1   
 51  26  49  1   
@<TRIPOS>SUBSTRUCTURE
  1 ****   5 GROUP 4 **** **** 0

# MOE 2024.06 (io_trps.svl 2023.06)
