@<TRIPOS>MOLECULE
NONAME
39 41 1 0 0 
SMALL
USER_CHARGES


@<TRIPOS>ATOM
  1 O        0.8740    -6.6840     0.9810 O.2   1 <1>  -0.5700 
  2 C        1.9460    -6.2470     0.5910 C.2   1 <1>   0.6900 
  3 N        2.1740    -5.5760    -0.5880 N.am  1 <1>  -0.4770 
  4 N        3.0850    -6.3100     1.3120 N.am  1 <1>  -0.5470 
  5 C        3.5280    -5.2330    -0.5900 C.ar  1 <1>   0.1170 
  6 C        1.3190    -5.4970    -1.8040 C.3   1 <1>   0.1400 
  7 C        4.0880    -5.6880     0.5930 C.ar  1 <1>   0.1170 
  8 C        4.3140    -4.5690    -1.5240 C.ar  1 <1>  -0.1500 
  9 C       -0.1830    -5.4370    -1.4950 C.3   1 <1>  -0.1600 
 10 C        5.4300    -5.4920     0.8770 C.ar  1 <1>  -0.1500 
 11 C        5.6560    -4.3690    -1.2450 C.ar  1 <1>  -0.1500 
 12 C       -0.5080    -4.3420    -0.4750 C.3   1 <1>   0.3430 
 13 C        6.2110    -4.8260    -0.0520 C.ar  1 <1>  -0.1500 
 14 N       -1.8620    -4.5470     0.1020 N.4   1 <1>  -0.9590 
 15 C       -2.3960    -3.3150     0.7710 C.3   1 <1>   0.3430 
 16 C       -1.9040    -5.7040     1.0670 C.3   1 <1>   0.3430 
 17 C       -3.7650    -3.5750     1.4420 C.3   1 <1>   0.1200 
 18 C       -3.3070    -5.8710     1.6940 C.3   1 <1>   0.1200 
 19 O       -4.1980    -4.8920     1.2280 O.3   1 <1>  -0.5600 
 20 H        3.1670    -6.8120     2.1940 H     1 <1>   0.3700 
 21 H        1.5260    -6.3540    -2.4230 H     1 <1>   0.0800 
 22 H        1.5950    -4.6170    -2.3590 H     1 <1>   0.0800 
 23 H        3.8930    -4.2160    -2.4470 H     1 <1>   0.1500 
 24 H       -0.4840    -6.4070    -1.1460 H     1 <1>   0.0800 
 25 H       -0.7150    -5.2420    -2.4090 H     1 <1>   0.0800 
 26 H        5.8490    -5.8510     1.8000 H     1 <1>   0.1500 
 27 H        6.2810    -3.8550    -1.9560 H     1 <1>   0.1500 
 28 H       -0.4510    -3.3810    -0.9600 H     1 <1>   0.0800 
 29 H        0.2190    -4.3550     0.3220 H     1 <1>   0.0800 
 30 H        7.2570    -4.6600     0.1450 H     1 <1>   0.1500 
 31 H       -2.5380    -4.7820    -0.6390 H     1 <1>   0.4500 
 32 H       -2.5050    -2.5220     0.0490 H     1 <1>   0.0800 
 33 H       -1.7010    -2.9760     1.5220 H     1 <1>   0.0800 
 34 H       -1.1830    -5.5520     1.8530 H     1 <1>   0.0800 
 35 H       -1.6320    -6.6190     0.5680 H     1 <1>   0.0800 
 36 H       -4.5100    -2.9150     1.0330 H     1 <1>   0.0800 
 37 H       -3.7080    -3.4010     2.5030 H     1 <1>   0.0800 
 38 H       -3.2530    -5.8070     2.7670 H     1 <1>   0.0800 
 39 H       -3.7130    -6.8340     1.4360 H     1 <1>   0.0800 
@<TRIPOS>BOND
  1   1   2  2   
  2   2   3  am  
  3   2   4  am  
  4   3   5  1   
  5   3   6  1   
  6   4   7  1   
  7   4  20  1   
  8   5   7  ar  
  9   5   8  ar  
 10   6   9  1   
 11   6  21  1   
 12   6  22  1   
 13   7  10  ar  
 14   8  11  ar  
 15   8  23  1   
 16   9  12  1   
 17   9  24  1   
 18   9  25  1   
 19  10  13  ar  
 20  10  26  1   
 21  11  13  ar  
 22  11  27  1   
 23  12  14  1   
 24  12  28  1   
 25  12  29  1   
 26  13  30  1   
 27  14  15  1   
 28  14  16  1   
 29  14  31  1   
 30  15  17  1   
 31  15  32  1   
 32  15  33  1   
 33  16  18  1   
 34  16  34  1   
 35  16  35  1   
 36  17  19  1   
 37  17  36  1   
 38  17  37  1   
 39  18  19  1   
 40  18  38  1   
 41  18  39  1   
@<TRIPOS>SUBSTRUCTURE
  1 ****   3 GROUP 4 **** **** 0

# MOE 2024.06 (io_trps.svl 2023.06)
