@<TRIPOS>MOLECULE
NONAME
49 51 1 0 0 
SMALL
USER_CHARGES


@<TRIPOS>ATOM
  1 O      -10.7520     1.4210     2.2850 O.2   1 <1>  -0.5700 
  2 C      -10.6340     1.3270     1.1010 C.2   1 <1>   0.4480 
  3 C       -9.3020     0.9640     0.4650 C.3   1 <1>  -0.0190 
  4 C      -11.7950     1.5490     0.1510 C.3   1 <1>  -0.0990 
  5 C       -9.4770    -0.2100    -0.5230 C.3   1 <1>  -0.1600 
  6 C       -8.3060     0.6520     1.5960 C.3   1 <1>   0.3430 
  7 C      -11.9300     0.3790    -0.8350 C.3   1 <1>  -0.1600 
  8 C      -10.5960     0.0780    -1.5360 C.3   1 <1>  -0.1600 
  9 N       -6.9500     0.2840     1.0820 N.4   1 <1>  -0.9590 
 10 C       -6.4320    -0.9500     1.7250 C.3   1 <1>   0.4860 
 11 C       -5.9700     1.4040     1.1770 C.3   1 <1>   0.4860 
 12 C       -5.2510    -1.4330     0.9080 C.ar  1 <1>  -0.1440 
 13 C       -6.3850     2.4820     0.1990 C.ar  1 <1>  -0.1440 
 14 C       -3.9580    -1.2860     1.3900 C.ar  1 <1>  -0.1500 
 15 C       -5.4560    -2.0150    -0.3360 C.ar  1 <1>  -0.1500 
 16 C       -6.1750     2.2990    -1.1610 C.ar  1 <1>  -0.1500 
 17 C       -6.9880     3.6480     0.6500 C.ar  1 <1>  -0.1500 
 18 C       -2.8810    -1.7010     0.6270 C.ar  1 <1>  -0.1500 
 19 C       -4.3760    -2.4290    -1.0960 C.ar  1 <1>  -0.1500 
 20 C       -6.5820     3.2660    -2.0620 C.ar  1 <1>  -0.1500 
 21 C       -7.3940     4.6130    -0.2550 C.ar  1 <1>  -0.1500 
 22 C       -3.0890    -2.2690    -0.6160 C.ar  1 <1>  -0.1500 
 23 C       -7.1940     4.4210    -1.6100 C.ar  1 <1>  -0.1500 
 24 H       -8.9740     1.8320    -0.0760 H     1 <1>   0.0800 
 25 H      -11.6300     2.4630    -0.3900 H     1 <1>   0.0800 
 26 H      -12.7040     1.6560     0.7160 H     1 <1>   0.0800 
 27 H       -9.7250    -1.1080     0.0190 H     1 <1>   0.0800 
 28 H       -8.5660    -0.3860    -1.0670 H     1 <1>   0.0800 
 29 H       -8.7120    -0.1600     2.1780 H     1 <1>   0.0800 
 30 H       -8.2370     1.5080     2.2490 H     1 <1>   0.0800 
 31 H      -12.6820     0.6130    -1.5710 H     1 <1>   0.0800 
 32 H      -12.2590    -0.4980    -0.3020 H     1 <1>   0.0800 
 33 H      -10.7220    -0.7730    -2.1840 H     1 <1>   0.0800 
 34 H      -10.3200     0.9170    -2.1540 H     1 <1>   0.0800 
 35 H       -7.0300     0.0810     0.0800 H     1 <1>   0.4500 
 36 H       -7.1920    -1.7150     1.7320 H     1 <1>   0.0800 
 37 H       -6.1330    -0.7530     2.7410 H     1 <1>   0.0800 
 38 H       -4.9820     1.0630     0.9140 H     1 <1>   0.0800 
 39 H       -5.9420     1.7990     2.1790 H     1 <1>   0.0800 
 40 H       -3.7680    -0.8530     2.3580 H     1 <1>   0.1500 
 41 H       -6.4480    -2.1610    -0.7290 H     1 <1>   0.1500 
 42 H       -5.6900     1.4120    -1.5350 H     1 <1>   0.1500 
 43 H       -7.1510     3.8220     1.7000 H     1 <1>   0.1500 
 44 H       -1.8760    -1.5870     0.9990 H     1 <1>   0.1500 
 45 H       -4.5330    -2.8810    -2.0620 H     1 <1>   0.1500 
 46 H       -6.4190     3.1270    -3.1180 H     1 <1>   0.1500 
 47 H       -7.8630     5.5180     0.0930 H     1 <1>   0.1500 
 48 H       -2.2490    -2.5930    -1.2080 H     1 <1>   0.1500 
 49 H       -7.5090     5.1750    -2.3130 H     1 <1>   0.1500 
@<TRIPOS>BOND
  1   1   2  2   
  2   2   3  1   
  3   2   4  1   
  4   3   5  1   
  5   3   6  1   
  6   3  24  1   
  7   4   7  1   
  8   4  25  1   
  9   4  26  1   
 10   5   8  1   
 11   5  27  1   
 12   5  28  1   
 13   6   9  1   
 14   6  29  1   
 15   6  30  1   
 16   7   8  1   
 17   7  31  1   
 18   7  32  1   
 19   8  33  1   
 20   8  34  1   
 21   9  10  1   
 22   9  11  1   
 23   9  35  1   
 24  10  12  1   
 25  10  36  1   
 26  10  37  1   
 27  11  13  1   
 28  11  38  1   
 29  11  39  1   
 30  12  14  ar  
 31  12  15  ar  
 32  13  16  ar  
 33  13  17  ar  
 34  14  18  ar  
 35  14  40  1   
 36  15  19  ar  
 37  15  41  1   
 38  16  20  ar  
 39  16  42  1   
 40  17  21  ar  
 41  17  43  1   
 42  18  22  ar  
 43  18  44  1   
 44  19  22  ar  
 45  19  45  1   
 46  20  23  ar  
 47  20  46  1   
 48  21  23  ar  
 49  21  47  1   
 50  22  48  1   
 51  23  49  1   
@<TRIPOS>SUBSTRUCTURE
  1 ****   9 GROUP 4 **** **** 0

# MOE 2024.06 (io_trps.svl 2023.06)
