@<TRIPOS>MOLECULE
NONAME
49 51 1 0 0 
SMALL
USER_CHARGES


@<TRIPOS>ATOM
  1 S        0.1290    -0.3450    -1.0250 S.o2  1 <1>   1.4470 
  2 O        0.3340    -0.6340    -2.4290 O.2   1 <1>  -0.6500 
  3 O       -0.0330     1.0290    -0.6020 O.2   1 <1>  -0.6500 
  4 N        1.4910    -0.9450    -0.2140 N.am  1 <1>  -0.8490 
  5 C       -1.2230    -1.3530    -0.3580 C.ar  1 <1>  -0.0090 
  6 C        1.8780    -2.2780    -0.6690 C.3   1 <1>   0.1960 
  7 C        2.6100     0.0060    -0.2760 C.3   1 <1>   0.1960 
  8 C       -1.4260    -1.4580     1.0120 C.ar  1 <1>  -0.1500 
  9 C       -2.0860    -2.0510    -1.1960 C.ar  1 <1>  -0.1500 
 10 C        2.8670    -2.9000     0.3280 C.3   1 <1>  -0.1600 
 11 C        3.9420    -0.6170     0.1770 C.3   1 <1>  -0.1600 
 12 C       -2.4470    -2.2350     1.5310 C.ar  1 <1>  -0.1500 
 13 C       -3.1100    -2.8290    -0.6840 C.ar  1 <1>  -0.1500 
 14 C        3.7270    -1.8520     1.0710 C.3   1 <1>  -0.0190 
 15 C       -3.2940    -2.9280     0.6840 C.ar  1 <1>  -0.1440 
 16 C        5.0360    -2.4400     1.5910 C.2   1 <1>   0.5690 
 17 C       -4.4170    -3.7790     1.2490 C.3   1 <1>  -0.0970 
 18 O        5.1880    -2.5500     2.7810 O.2   1 <1>  -0.5700 
 19 N        5.9710    -2.8150     0.6730 N.am  1 <1>  -0.5470 
 20 C        7.2280    -3.3640     0.7690 C.ar  1 <1>   0.4270 
 21 N        7.7720    -3.5670    -0.4210 N.ar  1 <1>  -0.6200 
 22 C        7.8670    -3.6750     1.9680 C.ar  1 <1>  -0.1500 
 23 C        8.9850    -4.0930    -0.4300 C.ar  1 <1>   0.1670 
 24 C        9.1280    -4.2230     1.9490 C.ar  1 <1>  -0.1500 
 25 C        9.6950    -4.4340     0.7100 C.ar  1 <1>  -0.1500 
 26 C        9.5940    -4.3190    -1.7980 C.3   1 <1>  -0.0970 
 27 H        2.3300    -2.2060    -1.6460 H     1 <1>   0.0800 
 28 H        1.0130    -2.9160    -0.7500 H     1 <1>   0.0800 
 29 H        2.3750     0.8420     0.3630 H     1 <1>   0.0800 
 30 H        2.7190     0.3830    -1.2810 H     1 <1>   0.0800 
 31 H       -0.7720    -0.9230     1.6810 H     1 <1>   0.1500 
 32 H       -1.9560    -1.9840    -2.2630 H     1 <1>   0.1500 
 33 H        3.4870    -3.5950    -0.2090 H     1 <1>   0.0800 
 34 H        2.3180    -3.4700     1.0570 H     1 <1>   0.0800 
 35 H        4.5150     0.1260     0.7040 H     1 <1>   0.0800 
 36 H        4.5030    -0.8900    -0.6990 H     1 <1>   0.0800 
 37 H       -2.5790    -2.2950     2.5980 H     1 <1>   0.1500 
 38 H       -3.7630    -3.3570    -1.3570 H     1 <1>   0.1500 
 39 H        3.1660    -1.5230     1.9290 H     1 <1>   0.0800 
 40 H       -5.3050    -3.1830     1.3570 H     1 <1>   0.0800 
 41 H       -4.1440    -4.1720     2.2110 H     1 <1>   0.0800 
 42 H       -4.6300    -4.6050     0.5940 H     1 <1>   0.0800 
 43 H        5.7280    -2.6760    -0.3020 H     1 <1>   0.3700 
 44 H        7.3830    -3.4920     2.9070 H     1 <1>   0.1500 
 45 H        9.6480    -4.4740     2.8580 H     1 <1>   0.1500 
 46 H       10.6790    -4.8590     0.6360 H     1 <1>   0.1500 
 47 H        9.6630    -3.3810    -2.3190 H     1 <1>   0.0800 
 48 H        8.9680    -4.9840    -2.3640 H     1 <1>   0.0800 
 49 H       10.5760    -4.7460    -1.7210 H     1 <1>   0.0800 
@<TRIPOS>BOND
  1   1   2  2   
  2   1   3  2   
  3   1   4  am  
  4   1   5  1   
  5   4   6  1   
  6   4   7  1   
  7   5   8  ar  
  8   5   9  ar  
  9   6  10  1   
 10   6  27  1   
 11   6  28  1   
 12   7  11  1   
 13   7  29  1   
 14   7  30  1   
 15   8  12  ar  
 16   8  31  1   
 17   9  13  ar  
 18   9  32  1   
 19  10  14  1   
 20  10  33  1   
 21  10  34  1   
 22  11  14  1   
 23  11  35  1   
 24  11  36  1   
 25  12  15  ar  
 26  12  37  1   
 27  13  15  ar  
 28  13  38  1   
 29  14  16  1   
 30  14  39  1   
 31  15  17  1   
 32  16  18  2   
 33  16  19  am  
 34  17  40  1   
 35  17  41  1   
 36  17  42  1   
 37  19  20  1   
 38  19  43  1   
 39  20  21  ar  
 40  20  22  ar  
 41  21  23  ar  
 42  22  24  ar  
 43  22  44  1   
 44  23  25  ar  
 45  23  26  1   
 46  24  25  ar  
 47  24  45  1   
 48  25  46  1   
 49  26  47  1   
 50  26  48  1   
 51  26  49  1   
@<TRIPOS>SUBSTRUCTURE
  1 ****  10 GROUP 4 **** **** 0

# MOE 2024.06 (io_trps.svl 2023.06)
