@<TRIPOS>MOLECULE
NONAME
35 36 1 0 0 
SMALL
USER_CHARGES


@<TRIPOS>ATOM
  1 CL      -2.2480     1.1670    -2.7830 Cl    1 <1>  -0.1770 
  2 C       -1.5390     1.7390    -1.2910 C.ar  1 <1>   0.1770 
  3 C       -2.2200     2.6300    -0.4710 C.ar  1 <1>  -0.1440 
  4 C       -0.2870     1.2560    -0.9540 C.ar  1 <1>  -0.1500 
  5 C       -1.6120     3.0270     0.7130 C.ar  1 <1>  -0.1500 
  6 C       -3.5950     3.1810    -0.8320 C.3   1 <1>   0.2840 
  7 C        0.3040     1.6600     0.2300 C.ar  1 <1>  -0.1500 
  8 C       -0.3610     2.5450     1.0610 C.ar  1 <1>  -0.1500 
  9 N       -4.5660     2.8950     0.2500 N.am  1 <1>  -0.7300 
 10 C       -5.0070     1.7120     0.7310 C.2   1 <1>   0.5690 
 11 O       -5.7470     1.7000     1.6810 O.2   1 <1>  -0.5700 
 12 C       -4.5860     0.3710     0.1250 C.3   1 <1>  -0.0190 
 13 C       -5.7950    -0.5570    -0.1040 C.3   1 <1>  -0.1600 
 14 C       -3.5490    -0.3240     1.0280 C.3   1 <1>  -0.1600 
 15 C       -5.3670    -1.9300    -0.6180 C.3   1 <1>   0.3430 
 16 C       -3.1600    -1.6980     0.4910 C.3   1 <1>   0.3430 
 17 N       -4.3860    -2.5260     0.3290 N.4   1 <1>  -0.9060 
 18 H        0.2220     0.5760    -1.6140 H     1 <1>   0.1500 
 19 H       -2.1110     3.7180     1.3730 H     1 <1>   0.1500 
 20 H       -3.9650     2.7700    -1.7540 H     1 <1>   0.0800 
 21 H       -3.5210     4.2480    -0.9610 H     1 <1>   0.0800 
 22 H        1.2810     1.2950     0.5020 H     1 <1>   0.1500 
 23 H        0.0990     2.8640     1.9820 H     1 <1>   0.1500 
 24 H       -4.9130     3.7170     0.7510 H     1 <1>   0.3700 
 25 H       -4.1400     0.5520    -0.8330 H     1 <1>   0.0800 
 26 H       -6.4600    -0.1030    -0.8180 H     1 <1>   0.0800 
 27 H       -6.3500    -0.6790     0.8120 H     1 <1>   0.0800 
 28 H       -3.9420    -0.4250     2.0260 H     1 <1>   0.0800 
 29 H       -2.6660     0.2860     1.0990 H     1 <1>   0.0800 
 30 H       -4.9180    -1.8260    -1.5930 H     1 <1>   0.0800 
 31 H       -6.2320    -2.5680    -0.7080 H     1 <1>   0.0800 
 32 H       -2.4770    -2.1740     1.1760 H     1 <1>   0.0800 
 33 H       -2.6640    -1.5860    -0.4610 H     1 <1>   0.0800 
 34 H       -4.1310    -3.4720     0.0190 H     1 <1>   0.4500 
 35 H       -4.8380    -2.6210     1.2470 H     1 <1>   0.4500 
@<TRIPOS>BOND
  1   1   2  1   
  2   2   3  ar  
  3   2   4  ar  
  4   3   5  ar  
  5   3   6  1   
  6   4   7  ar  
  7   4  18  1   
  8   5   8  ar  
  9   5  19  1   
 10   6   9  1   
 11   6  20  1   
 12   6  21  1   
 13   7   8  ar  
 14   7  22  1   
 15   8  23  1   
 16   9  10  am  
 17   9  24  1   
 18  10  11  2   
 19  10  12  1   
 20  12  13  1   
 21  12  14  1   
 22  12  25  1   
 23  13  15  1   
 24  13  26  1   
 25  13  27  1   
 26  14  16  1   
 27  14  28  1   
 28  14  29  1   
 29  15  17  1   
 30  15  30  1   
 31  15  31  1   
 32  16  17  1   
 33  16  32  1   
 34  16  33  1   
 35  17  34  1   
 36  17  35  1   
@<TRIPOS>SUBSTRUCTURE
  1 ****  12 GROUP 4 **** **** 0

# MOE 2024.06 (io_trps.svl 2023.06)
