@<TRIPOS>MOLECULE
NONAME
40 41 1 0 0 
SMALL
USER_CHARGES


@<TRIPOS>ATOM
  1 CL       1.7760    -0.6360    -1.7600 Cl    1 <1>  -0.1770 
  2 C        0.8970    -1.9170    -0.9580 C.ar  1 <1>   0.1770 
  3 C        1.2980    -2.3320     0.3030 C.ar  1 <1>  -0.1440 
  4 C       -0.1720    -2.5030    -1.6080 C.ar  1 <1>  -0.1500 
  5 C        0.6030    -3.3620     0.9200 C.ar  1 <1>  -0.1500 
  6 C        2.4690    -1.6620     0.9820 C.3   1 <1>   0.4870 
  7 C       -0.8580    -3.5310    -0.9850 C.ar  1 <1>  -0.1500 
  8 C       -0.4690    -3.9580     0.2740 C.ar  1 <1>  -0.1500 
  9 N        3.6960    -2.0990     0.2680 N.4   1 <1>  -0.9060 
 10 C        4.9450    -1.3970     0.6400 C.3   1 <1>   0.4230 
 11 C        4.9150     0.0500     0.1340 C.3   1 <1>  -0.1600 
 12 C        6.1260    -2.1470     0.0220 C.3   1 <1>  -0.1600 
 13 C        6.2490     0.7580     0.3860 C.3   1 <1>   0.3430 
 14 C        7.4470    -1.4190     0.2800 C.3   1 <1>   0.3430 
 15 N        7.3650    -0.0170    -0.2290 N.4   1 <1>  -0.9590 
 16 C        8.6530     0.7130    -0.0270 C.3   1 <1>   0.3430 
 17 C        9.7010     0.1870    -1.0020 C.3   1 <1>  -0.2400 
 18 H       -0.4660    -2.1620    -2.5860 H     1 <1>   0.1500 
 19 H        0.8730    -3.7150     1.9020 H     1 <1>   0.1500 
 20 H        2.5100    -1.9470     2.0210 H     1 <1>   0.0800 
 21 H        2.3490    -0.5930     0.9180 H     1 <1>   0.0800 
 22 H       -1.6940    -3.9990    -1.4790 H     1 <1>   0.1500 
 23 H       -1.0110    -4.7580     0.7530 H     1 <1>   0.1500 
 24 H        3.5010    -1.9760    -0.7360 H     1 <1>   0.4500 
 25 H        3.7820    -3.1140     0.4070 H     1 <1>   0.4500 
 26 H        5.0540    -1.3990     1.7150 H     1 <1>   0.0800 
 27 H        4.1490     0.6070     0.6440 H     1 <1>   0.0800 
 28 H        4.7030     0.0810    -0.9210 H     1 <1>   0.0800 
 29 H        5.9960    -2.2560    -1.0410 H     1 <1>   0.0800 
 30 H        6.1980    -3.1300     0.4540 H     1 <1>   0.0800 
 31 H        6.4160     0.8560     1.4470 H     1 <1>   0.0800 
 32 H        6.2140     1.7500    -0.0380 H     1 <1>   0.0800 
 33 H        8.2470    -1.9460    -0.2160 H     1 <1>   0.0800 
 34 H        7.6620    -1.4100     1.3380 H     1 <1>   0.0800 
 35 H        7.2220    -0.0440    -1.2510 H     1 <1>   0.4500 
 36 H        8.9990     0.5970     0.9880 H     1 <1>   0.0800 
 37 H        8.5090     1.7660    -0.2150 H     1 <1>   0.0800 
 38 H        9.9610    -0.8350    -0.7960 H     1 <1>   0.0800 
 39 H       10.5970     0.7740    -0.8980 H     1 <1>   0.0800 
 40 H        9.3650     0.2820    -2.0190 H     1 <1>   0.0800 
@<TRIPOS>BOND
  1   1   2  1   
  2   2   3  ar  
  3   2   4  ar  
  4   3   5  ar  
  5   3   6  1   
  6   4   7  ar  
  7   4  18  1   
  8   5   8  ar  
  9   5  19  1   
 10   6   9  1   
 11   6  20  1   
 12   6  21  1   
 13   7   8  ar  
 14   7  22  1   
 15   8  23  1   
 16   9  10  1   
 17   9  24  1   
 18   9  25  1   
 19  10  11  1   
 20  10  12  1   
 21  10  26  1   
 22  11  13  1   
 23  11  27  1   
 24  11  28  1   
 25  12  14  1   
 26  12  29  1   
 27  12  30  1   
 28  13  15  1   
 29  13  31  1   
 30  13  32  1   
 31  14  15  1   
 32  14  33  1   
 33  14  34  1   
 34  15  16  1   
 35  15  35  1   
 36  16  17  1   
 37  16  36  1   
 38  16  37  1   
 39  17  38  1   
 40  17  39  1   
 41  17  40  1   
@<TRIPOS>SUBSTRUCTURE
  1 ****   9 GROUP 4 **** **** 0

# MOE 2024.06 (io_trps.svl 2023.06)
