@<TRIPOS>MOLECULE
NONAME
62 64 1 0 0 
SMALL
USER_CHARGES


@<TRIPOS>ATOM
  1 O        4.6710    -9.1090    -0.8740 O.3   1 <1>  -0.5600 
  2 C        5.2590    -8.9690     0.3820 C.3   1 <1>   0.2800 
  3 C        5.1820    -8.3390    -1.9240 C.3   1 <1>   0.1200 
  4 C        4.9820    -7.5450     0.9160 C.3   1 <1>  -0.1600 
  5 C        4.5840   -10.0170     1.2680 C.3   1 <1>  -0.2400 
  6 C        6.7600    -9.2920     0.3040 C.3   1 <1>  -0.2400 
  7 C        5.3330    -6.8630    -1.5220 C.3   1 <1>  -0.1600 
  8 C        4.6970    -6.4620    -0.1670 C.3   1 <1>   0.1440 
  9 C        5.3400    -5.1160     0.2740 C.ar  1 <1>  -0.1440 
 10 C        3.1560    -6.2930    -0.3290 C.3   1 <1>  -0.1600 
 11 C        6.7070    -5.0720     0.5470 C.ar  1 <1>  -0.1500 
 12 C        4.6300    -3.9210     0.4060 C.ar  1 <1>  -0.1500 
 13 C        2.3750    -7.5600    -0.6900 C.3   1 <1>   0.3430 
 14 C        7.3390    -3.9060     0.9420 C.ar  1 <1>  -0.1500 
 15 C        5.2570    -2.7520     0.8010 C.ar  1 <1>  -0.1500 
 16 N        0.9170    -7.2840    -0.7440 N.4   1 <1>  -0.9060 
 17 C        6.6110    -2.7310     1.0730 C.ar  1 <1>   0.0820 
 18 C        0.2720    -7.1340     0.5770 C.3   1 <1>   0.4860 
 19 O        7.1430    -1.5440     1.4550 O.3   1 <1>  -0.3620 
 20 C       -1.1760    -6.8020     0.3040 C.ar  1 <1>  -0.1440 
 21 C        8.5150    -1.4200     1.7570 C.3   1 <1>   0.0400 
 22 C       -1.5660    -5.4790     0.1460 C.ar  1 <1>  -0.1500 
 23 C       -2.1220    -7.8120     0.2000 C.ar  1 <1>  -0.1500 
 24 C       -2.8880    -5.1760    -0.1250 C.ar  1 <1>  -0.1500 
 25 C       -3.4450    -7.5060    -0.0700 C.ar  1 <1>  -0.1500 
 26 C       -3.8340    -6.1810    -0.2370 C.ar  1 <1>   0.0820 
 27 O       -5.1030    -5.7930    -0.5060 O.3   1 <1>  -0.3620 
 28 C       -6.1590    -6.7250    -0.5900 C.3   1 <1>   0.0400 
 29 H        4.5010    -8.4350    -2.7510 H     1 <1>   0.0800 
 30 H        6.1270    -8.7550    -2.2290 H     1 <1>   0.0800 
 31 H        5.8220    -7.2680     1.5240 H     1 <1>   0.0800 
 32 H        4.1630    -7.5700     1.6110 H     1 <1>   0.0800 
 33 H        3.5230    -9.8630     1.3080 H     1 <1>   0.0800 
 34 H        4.9740    -9.9650     2.2680 H     1 <1>   0.0800 
 35 H        4.7760   -11.0030     0.8840 H     1 <1>   0.0800 
 36 H        7.3060    -8.5340    -0.2250 H     1 <1>   0.0800 
 37 H        6.9120   -10.2410    -0.1770 H     1 <1>   0.0800 
 38 H        7.1740    -9.3500     1.2950 H     1 <1>   0.0800 
 39 H        4.9550    -6.2360    -2.3100 H     1 <1>   0.0800 
 40 H        6.3890    -6.6710    -1.4960 H     1 <1>   0.0800 
 41 H        2.9740    -5.5630    -1.0980 H     1 <1>   0.0800 
 42 H        2.7740    -5.9150     0.6010 H     1 <1>   0.0800 
 43 H        7.3110    -5.9560     0.4560 H     1 <1>   0.1500 
 44 H        3.5800    -3.8460     0.2100 H     1 <1>   0.1500 
 45 H        2.5780    -8.3380     0.0290 H     1 <1>   0.0800 
 46 H        2.7070    -7.9130    -1.6530 H     1 <1>   0.0800 
 47 H        8.3930    -3.9310     1.1410 H     1 <1>   0.1500 
 48 H        4.6970    -1.8390     0.9000 H     1 <1>   0.1500 
 49 H        0.4340    -8.0460    -1.2350 H     1 <1>   0.4500 
 50 H        0.7260    -6.4380    -1.2930 H     1 <1>   0.4500 
 51 H        0.7300    -6.3370     1.1390 H     1 <1>   0.0800 
 52 H        0.3450    -8.0500     1.1420 H     1 <1>   0.0800 
 53 H        8.7040    -0.3990     2.0340 H     1 <1>   0.0800 
 54 H        9.0880    -1.6750     0.8830 H     1 <1>   0.0800 
 55 H        8.7520    -2.0730     2.5780 H     1 <1>   0.0800 
 56 H       -0.8590    -4.6710     0.2320 H     1 <1>   0.1500 
 57 H       -1.8480    -8.8460     0.3290 H     1 <1>   0.1500 
 58 H       -3.2030    -4.1540    -0.2500 H     1 <1>   0.1500 
 59 H       -4.1590    -8.3050    -0.1460 H     1 <1>   0.1500 
 60 H       -7.0660    -6.1840    -0.7910 H     1 <1>   0.0800 
 61 H       -6.2440    -7.2430     0.3490 H     1 <1>   0.0800 
 62 H       -5.9590    -7.4110    -1.3940 H     1 <1>   0.0800 
@<TRIPOS>BOND
  1   1   2  1   
  2   1   3  1   
  3   2   4  1   
  4   2   5  1   
  5   2   6  1   
  6   3   7  1   
  7   3  29  1   
  8   3  30  1   
  9   4   8  1   
 10   4  31  1   
 11   4  32  1   
 12   5  33  1   
 13   5  34  1   
 14   5  35  1   
 15   6  36  1   
 16   6  37  1   
 17   6  38  1   
 18   7   8  1   
 19   7  39  1   
 20   7  40  1   
 21   8   9  1   
 22   8  10  1   
 23   9  11  ar  
 24   9  12  ar  
 25  10  13  1   
 26  10  41  1   
 27  10  42  1   
 28  11  14  ar  
 29  11  43  1   
 30  12  15  ar  
 31  12  44  1   
 32  13  16  1   
 33  13  45  1   
 34  13  46  1   
 35  14  17  ar  
 36  14  47  1   
 37  15  17  ar  
 38  15  48  1   
 39  16  18  1   
 40  16  49  1   
 41  16  50  1   
 42  17  19  1   
 43  18  20  1   
 44  18  51  1   
 45  18  52  1   
 46  19  21  1   
 47  20  22  ar  
 48  20  23  ar  
 49  21  53  1   
 50  21  54  1   
 51  21  55  1   
 52  22  24  ar  
 53  22  56  1   
 54  23  25  ar  
 55  23  57  1   
 56  24  26  ar  
 57  24  58  1   
 58  25  26  ar  
 59  25  59  1   
 60  26  27  1   
 61  27  28  1   
 62  28  60  1   
 63  28  61  1   
 64  28  62  1   
@<TRIPOS>SUBSTRUCTURE
  1 ****  10 GROUP 4 **** **** 0

# MOE 2024.06 (io_trps.svl 2023.06)
