@<TRIPOS>MOLECULE
NONAME
45 47 1 0 0 
SMALL
USER_CHARGES


@<TRIPOS>ATOM
  1 N       -0.5790    -0.0590     0.0860 N.2   1 <1>  -0.5760 
  2 C        0.6010    -0.5630     0.1410 C.2   1 <1>   0.3750 
  3 C       -1.6210    -0.9360     0.0490 C.2   1 <1>  -0.0260 
  4 C        0.8650    -1.9810     0.1510 C.2   1 <1>  -0.1240 
  5 C        1.7160     0.4720     0.1640 C.3   1 <1>  -0.1790 
  6 N       -1.4650    -2.3000    -0.0140 N.pl3 1 <1>   0.6010 
  7 C       -2.9620    -0.6670     0.1000 C.2   1 <1>  -0.0540 
  8 C       -0.1770    -2.8750    -0.0250 C.2   1 <1>  -0.1690 
  9 C        2.3240    -2.3920     0.3910 C.3   1 <1>  -0.1020 
 10 N       -2.6880    -2.8940     0.0330 N.2   1 <1>  -0.7070 
 11 C       -3.6100     0.6200     0.1680 C.ar  1 <1>   0.0540 
 12 C       -3.5490    -1.9280     0.0790 C.2   1 <1>   0.1080 
 13 C       -0.1150    -4.4340    -0.2360 C.3   1 <1>   0.1380 
 14 C       -3.2800     1.6330    -0.7290 C.ar  1 <1>  -0.1500 
 15 C       -4.5810     0.8970     1.1280 C.ar  1 <1>  -0.1500 
 16 C       -5.0350    -2.2120     0.0970 C.3   1 <1>  -0.0590 
 17 C       -0.9330    -4.8580    -1.4810 C.3   1 <1>  -0.2400 
 18 C        1.2790    -5.0370    -0.5160 C.3   1 <1>  -0.2400 
 19 C       -0.6480    -5.1590     1.0100 C.3   1 <1>  -0.2400 
 20 C       -3.9050     2.8650    -0.6850 C.ar  1 <1>  -0.1500 
 21 C       -5.2120     2.1270     1.1780 C.ar  1 <1>  -0.1500 
 22 C       -4.8760     3.1140     0.2690 C.ar  1 <1>  -0.1500 
 23 H        2.4640     0.2350    -0.5680 H     1 <1>   0.0800 
 24 H        2.1560     0.5160     1.1430 H     1 <1>   0.0800 
 25 H        1.3240     1.4470    -0.0670 H     1 <1>   0.0800 
 26 H        2.9240    -1.6120     0.8150 H     1 <1>   0.0800 
 27 H        2.7920    -2.6990    -0.5250 H     1 <1>   0.0800 
 28 H        2.3640    -3.1760     1.1200 H     1 <1>   0.0800 
 29 H       -2.5180     1.4410    -1.4640 H     1 <1>   0.1500 
 30 H       -4.8370     0.1380     1.8440 H     1 <1>   0.1500 
 31 H       -5.5800    -1.3960    -0.3410 H     1 <1>   0.0800 
 32 H       -5.3620    -2.3590     1.1090 H     1 <1>   0.0800 
 33 H       -5.2380    -3.1040    -0.4670 H     1 <1>   0.0800 
 34 H       -0.6590    -4.2520    -2.3250 H     1 <1>   0.0800 
 35 H       -1.9900    -4.7710    -1.3320 H     1 <1>   0.0800 
 36 H       -0.7630    -5.8880    -1.7360 H     1 <1>   0.0800 
 37 H        1.7610    -4.5200    -1.3240 H     1 <1>   0.0800 
 38 H        1.1990    -6.0710    -0.8020 H     1 <1>   0.0800 
 39 H        1.9000    -5.0380     0.3560 H     1 <1>   0.0800 
 40 H       -1.6800    -4.9250     1.1920 H     1 <1>   0.0800 
 41 H       -0.0820    -4.8690     1.8770 H     1 <1>   0.0800 
 42 H       -0.5730    -6.2260     0.8930 H     1 <1>   0.0800 
 43 H       -3.6330     3.6310    -1.3910 H     1 <1>   0.1500 
 44 H       -5.9610     2.3190     1.9260 H     1 <1>   0.1500 
 45 H       -5.3640     4.0720     0.3050 H     1 <1>   0.1500 
@<TRIPOS>BOND
  1   1   2  2   
  2   1   3  1   
  3   2   4  1   
  4   2   5  1   
  5   3   6  1   
  6   3   7  2   
  7   4   8  2   
  8   4   9  1   
  9   5  23  1   
 10   5  24  1   
 11   5  25  1   
 12   6   8  1   
 13   6  10  1   
 14   7  11  1   
 15   7  12  1   
 16   8  13  1   
 17   9  26  1   
 18   9  27  1   
 19   9  28  1   
 20  10  12  2   
 21  11  14  ar  
 22  11  15  ar  
 23  12  16  1   
 24  13  17  1   
 25  13  18  1   
 26  13  19  1   
 27  14  20  ar  
 28  14  29  1   
 29  15  21  ar  
 30  15  30  1   
 31  16  31  1   
 32  16  32  1   
 33  16  33  1   
 34  17  34  1   
 35  17  35  1   
 36  17  36  1   
 37  18  37  1   
 38  18  38  1   
 39  18  39  1   
 40  19  40  1   
 41  19  41  1   
 42  19  42  1   
 43  20  22  ar  
 44  20  43  1   
 45  21  22  ar  
 46  21  44  1   
 47  22  45  1   
@<TRIPOS>SUBSTRUCTURE
  1 ****   3 GROUP 4 **** **** 0

# MOE 2024.06 (io_trps.svl 2023.06)
