@<TRIPOS>MOLECULE
NONAME
50 51 1 0 0 
SMALL
USER_CHARGES


@<TRIPOS>ATOM
  1 O        0.1610     0.1690     0.5500 O.2   1 <1>  -0.5700 
  2 C        0.6060     1.2580     0.2430 C.2   1 <1>   0.5440 
  3 N       -0.2430     2.3020    -0.0340 N.am  1 <1>  -0.5470 
  4 C        2.0410     1.4760     0.1910 C.ar  1 <1>   0.0860 
  5 C       -1.6430     2.4330    -0.1240 C.ar  1 <1>   0.1170 
  6 C        2.6160     2.4170    -0.6680 C.ar  1 <1>  -0.1500 
  7 C        2.9050     0.7470     1.0090 C.ar  1 <1>  -0.1500 
  8 C       -2.1710     3.7230    -0.2190 C.ar  1 <1>   0.0830 
  9 C       -2.5140     1.3510    -0.1330 C.ar  1 <1>  -0.1500 
 10 C        3.9830     2.6270    -0.6970 C.ar  1 <1>  -0.1500 
 11 C        4.2720     0.9520     0.9840 C.ar  1 <1>  -0.1500 
 12 O       -1.2770     4.7610    -0.2200 O.3   1 <1>  -0.3630 
 13 C       -3.5450     3.9120    -0.3100 C.ar  1 <1>  -0.1500 
 14 C       -3.8890     1.5400    -0.2160 C.ar  1 <1>   0.0830 
 15 C        4.8140     1.8960     0.1320 C.ar  1 <1>  -0.1500 
 16 C       -1.7210     6.0990    -0.1810 C.3   1 <1>   0.1200 
 17 C       -4.4160     2.8310    -0.3040 C.ar  1 <1>   0.1170 
 18 O       -4.7820     0.5020    -0.2150 O.3   1 <1>  -0.3630 
 19 C       -0.4930     7.0000    -0.1070 C.3   1 <1>  -0.2400 
 20 N       -5.8170     2.9660    -0.3890 N.am  1 <1>  -0.5470 
 21 C       -4.3500    -0.8220     0.0070 C.3   1 <1>   0.1200 
 22 C       -6.6610     4.0380    -0.3880 C.2   1 <1>   0.5690 
 23 C       -5.5830    -1.7200     0.0390 C.3   1 <1>  -0.2400 
 24 O       -6.3000     5.1860    -0.3170 O.2   1 <1>  -0.5700 
 25 C       -8.1500     3.7510    -0.4870 C.3   1 <1>  -0.0990 
 26 C       -8.7050     3.0240     0.7490 C.3   1 <1>  -0.2400 
 27 H        0.2110     3.2150    -0.1060 H     1 <1>   0.3700 
 28 H        1.9910     2.9880    -1.3320 H     1 <1>   0.1500 
 29 H        2.4900     0.0080     1.6740 H     1 <1>   0.1500 
 30 H       -2.1040     0.3650    -0.0780 H     1 <1>   0.1500 
 31 H        4.4040     3.3580    -1.3660 H     1 <1>   0.1500 
 32 H        4.9150     0.3760     1.6280 H     1 <1>   0.1500 
 33 H       -3.9530     4.8980    -0.3890 H     1 <1>   0.1500 
 34 H        5.8780     2.0580     0.1110 H     1 <1>   0.1500 
 35 H       -2.3420     6.2280     0.6900 H     1 <1>   0.0800 
 36 H       -2.2870     6.2990    -1.0750 H     1 <1>   0.0800 
 37 H        0.0730     6.7840     0.7810 H     1 <1>   0.0800 
 38 H       -0.8020     8.0290    -0.0740 H     1 <1>   0.0800 
 39 H        0.1250     6.8560    -0.9750 H     1 <1>   0.0800 
 40 H       -6.2730     2.0520    -0.4120 H     1 <1>   0.3700 
 41 H       -3.8270    -0.8590     0.9480 H     1 <1>   0.0800 
 42 H       -3.6920    -1.1070    -0.7960 H     1 <1>   0.0800 
 43 H       -6.2390    -1.4200     0.8360 H     1 <1>   0.0800 
 44 H       -5.2840    -2.7390     0.2070 H     1 <1>   0.0800 
 45 H       -6.1050    -1.6670    -0.9000 H     1 <1>   0.0800 
 46 H       -8.3300     3.1640    -1.3680 H     1 <1>   0.0800 
 47 H       -8.6680     4.6860    -0.6070 H     1 <1>   0.0800 
 48 H       -8.2360     2.0640     0.8720 H     1 <1>   0.0800 
 49 H       -9.7660     2.8780     0.6460 H     1 <1>   0.0800 
 50 H       -8.5240     3.6120     1.6330 H     1 <1>   0.0800 
@<TRIPOS>BOND
  1   1   2  2   
  2   2   3  am  
  3   2   4  1   
  4   3   5  1   
  5   3  27  1   
  6   4   6  ar  
  7   4   7  ar  
  8   5   8  ar  
  9   5   9  ar  
 10   6  10  ar  
 11   6  28  1   
 12   7  11  ar  
 13   7  29  1   
 14   8  12  1   
 15   8  13  ar  
 16   9  14  ar  
 17   9  30  1   
 18  10  15  ar  
 19  10  31  1   
 20  11  15  ar  
 21  11  32  1   
 22  12  16  1   
 23  13  17  ar  
 24  13  33  1   
 25  14  17  ar  
 26  14  18  1   
 27  15  34  1   
 28  16  19  1   
 29  16  35  1   
 30  16  36  1   
 31  17  20  1   
 32  18  21  1   
 33  19  37  1   
 34  19  38  1   
 35  19  39  1   
 36  20  22  am  
 37  20  40  1   
 38  21  23  1   
 39  21  41  1   
 40  21  42  1   
 41  22  24  2   
 42  22  25  1   
 43  23  43  1   
 44  23  44  1   
 45  23  45  1   
 46  25  26  1   
 47  25  46  1   
 48  25  47  1   
 49  26  48  1   
 50  26  49  1   
 51  26  50  1   
@<TRIPOS>SUBSTRUCTURE
  1 ****   5 GROUP 4 **** **** 0

# MOE 2024.06 (io_trps.svl 2023.06)
