@<TRIPOS>MOLECULE
NONAME
51 53 1 0 0 
SMALL
USER_CHARGES


@<TRIPOS>ATOM
  1 BR      -1.6790     2.3210    -2.4750 Br    1 <1>  -0.1110 
  2 C       -0.7990     3.5080    -1.2450 C.ar  1 <1>   0.1110 
  3 C       -0.1690     2.9730    -0.1380 C.ar  1 <1>  -0.1500 
  4 C       -0.8190     4.8660    -1.4980 C.ar  1 <1>  -0.1500 
  5 C        0.4660     3.8320     0.7440 C.ar  1 <1>  -0.1500 
  6 C       -0.1820     5.7160    -0.6100 C.ar  1 <1>  -0.1500 
  7 C        0.4660     5.2030     0.5100 C.ar  1 <1>  -0.1430 
  8 C        1.1760     6.1360     1.4740 C.3   1 <1>   0.4870 
  9 N        2.4040     6.6590     0.8260 N.4   1 <1>  -0.9590 
 10 C        3.3550     5.6000     0.3460 C.3   1 <1>   0.3430 
 11 C        3.1250     7.7030     1.6210 C.3   1 <1>   0.3430 
 12 C        4.5580     6.2270    -0.4020 C.3   1 <1>   0.1100 
 13 C        4.2650     8.3350     0.7890 C.3   1 <1>   0.1100 
 14 N        4.4230     7.6950    -0.5450 N.3   1 <1>  -0.8100 
 15 C        5.5690     8.2690    -1.2810 C.3   1 <1>   0.2530 
 16 C        5.3550     9.7560    -1.5370 C.ar  1 <1>  -0.1430 
 17 C        6.0070    10.7240    -0.7790 C.ar  1 <1>   0.0830 
 18 C        4.4940    10.1480    -2.5520 C.ar  1 <1>  -0.1500 
 19 O        6.8570    10.3160     0.2020 O.3   1 <1>  -0.3630 
 20 C        5.7690    12.0810    -1.0330 C.ar  1 <1>   0.0830 
 21 C        4.2820    11.4890    -2.8190 C.ar  1 <1>  -0.1500 
 22 C        8.2160    10.6680     0.0460 C.3   1 <1>   0.0400 
 23 O        6.3380    13.0740    -0.3070 O.3   1 <1>  -0.3630 
 24 C        4.9210    12.4540    -2.0610 C.ar  1 <1>  -0.1500 
 25 C        5.8670    13.2300     1.0120 C.3   1 <1>   0.0400 
 26 H       -0.1820     1.9100     0.0260 H     1 <1>   0.1500 
 27 H       -1.3250     5.2430    -2.3700 H     1 <1>   0.1500 
 28 H        0.9520     3.4160     1.6110 H     1 <1>   0.1500 
 29 H       -0.2020     6.7760    -0.8030 H     1 <1>   0.1500 
 30 H        1.4300     5.6040     2.3760 H     1 <1>   0.0800 
 31 H        0.5180     6.9500     1.7310 H     1 <1>   0.0800 
 32 H        2.1440     7.1450    -0.0460 H     1 <1>   0.4500 
 33 H        2.8440     4.9290    -0.3250 H     1 <1>   0.0800 
 34 H        3.7170     5.0190     1.1780 H     1 <1>   0.0800 
 35 H        3.5400     7.2660     2.5150 H     1 <1>   0.0800 
 36 H        2.4430     8.4810     1.9200 H     1 <1>   0.0800 
 37 H        4.6300     5.7770    -1.3780 H     1 <1>   0.0800 
 38 H        5.4650     5.9940     0.1300 H     1 <1>   0.0800 
 39 H        5.1880     8.2720     1.3410 H     1 <1>   0.0800 
 40 H        4.0440     9.3810     0.6610 H     1 <1>   0.0800 
 41 H        5.6650     7.7730    -2.2320 H     1 <1>   0.0800 
 42 H        6.4820     8.1040    -0.7350 H     1 <1>   0.0800 
 43 H        3.9850     9.4040    -3.1410 H     1 <1>   0.1500 
 44 H        3.6190    11.7830    -3.6150 H     1 <1>   0.1500 
 45 H        8.7920    10.1230     0.7710 H     1 <1>   0.0800 
 46 H        8.3340    11.7230     0.2080 H     1 <1>   0.0800 
 47 H        8.5330    10.4070    -0.9490 H     1 <1>   0.0800 
 48 H        4.7620    13.4980    -2.2610 H     1 <1>   0.1500 
 49 H        6.3600    14.0810     1.4460 H     1 <1>   0.0800 
 50 H        6.0970    12.3450     1.5780 H     1 <1>   0.0800 
 51 H        4.8040    13.3930     0.9840 H     1 <1>   0.0800 
@<TRIPOS>BOND
  1   1   2  1   
  2   2   3  ar  
  3   2   4  ar  
  4   3   5  ar  
  5   3  26  1   
  6   4   6  ar  
  7   4  27  1   
  8   5   7  ar  
  9   5  28  1   
 10   6   7  ar  
 11   6  29  1   
 12   7   8  1   
 13   8   9  1   
 14   8  30  1   
 15   8  31  1   
 16   9  10  1   
 17   9  11  1   
 18   9  32  1   
 19  10  12  1   
 20  10  33  1   
 21  10  34  1   
 22  11  13  1   
 23  11  35  1   
 24  11  36  1   
 25  12  14  1   
 26  12  37  1   
 27  12  38  1   
 28  13  14  1   
 29  13  39  1   
 30  13  40  1   
 31  14  15  1   
 32  15  16  1   
 33  15  41  1   
 34  15  42  1   
 35  16  17  ar  
 36  16  18  ar  
 37  17  19  1   
 38  17  20  ar  
 39  18  21  ar  
 40  18  43  1   
 41  19  22  1   
 42  20  23  1   
 43  20  24  ar  
 44  21  24  ar  
 45  21  44  1   
 46  22  45  1   
 47  22  46  1   
 48  22  47  1   
 49  23  25  1   
 50  24  48  1   
 51  25  49  1   
 52  25  50  1   
 53  25  51  1   
@<TRIPOS>SUBSTRUCTURE
  1 ****  14 GROUP 4 **** **** 0

# MOE 2024.06 (io_trps.svl 2023.06)
