@<TRIPOS>MOLECULE
NONAME
26 26 1 0 0 
SMALL
USER_CHARGES


@<TRIPOS>ATOM
  1 F       -0.2030    -1.0170    -0.6670 F     1 <1>  -0.3400 
  2 C        0.5550    -1.2550     0.3960 C.3   1 <1>   1.1640 
  3 F        0.2280    -0.3410     1.3000 F     1 <1>  -0.3400 
  4 F        0.1570    -2.4220     0.8860 F     1 <1>  -0.3400 
  5 C        2.0470    -1.2460     0.0870 C.ar  1 <1>  -0.1440 
  6 C        2.9380    -1.4240     1.1320 C.ar  1 <1>   0.1600 
  7 C        2.5570    -1.0700    -1.1920 C.ar  1 <1>  -0.1500 
  8 N        4.2540    -1.4380     1.0170 N.ar  1 <1>  -0.6200 
  9 C        3.9250    -1.0830    -1.3230 C.ar  1 <1>  -0.1500 
 10 C        4.7340    -1.2650    -0.2070 C.ar  1 <1>   0.4100 
 11 N        6.1040    -1.2840    -0.3590 N.pl3 1 <1>  -0.8380 
 12 C        6.9160    -0.4860     0.6060 C.3   1 <1>   0.2090 
 13 C        6.6980    -2.6000    -0.7090 C.3   1 <1>   0.1290 
 14 C        7.9070     0.4000    -0.1540 C.3   1 <1>   0.1200 
 15 O        8.6120     1.1980     0.7390 O.3   1 <1>  -0.6800 
 16 H        2.5510    -1.5640     2.1290 H     1 <1>   0.1500 
 17 H        1.9220    -0.9270    -2.0510 H     1 <1>   0.1500 
 18 H        4.3950    -0.9510    -2.2800 H     1 <1>   0.1500 
 19 H        7.4460    -1.1460     1.2710 H     1 <1>   0.0800 
 20 H        6.2670     0.1420     1.1910 H     1 <1>   0.0800 
 21 H        6.0470    -3.1310    -1.3820 H     1 <1>   0.0800 
 22 H        6.8280    -3.1900     0.1820 H     1 <1>   0.0800 
 23 H        7.6510    -2.4590    -1.1870 H     1 <1>   0.0800 
 24 H        7.3870     1.0400    -0.8440 H     1 <1>   0.0800 
 25 H        8.6180    -0.2070    -0.6860 H     1 <1>   0.0800 
 26 H        8.0150     1.8420     1.1700 H     1 <1>   0.4000 
@<TRIPOS>BOND
  1   1   2  1   
  2   2   3  1   
  3   2   4  1   
  4   2   5  1   
  5   5   6  ar  
  6   5   7  ar  
  7   6   8  ar  
  8   6  16  1   
  9   7   9  ar  
 10   7  17  1   
 11   8  10  ar  
 12   9  10  ar  
 13   9  18  1   
 14  10  11  1   
 15  11  12  1   
 16  11  13  1   
 17  12  14  1   
 18  12  19  1   
 19  12  20  1   
 20  13  21  1   
 21  13  22  1   
 22  13  23  1   
 23  14  15  1   
 24  14  24  1   
 25  14  25  1   
 26  15  26  1   
@<TRIPOS>SUBSTRUCTURE
  1 ****  10 GROUP 4 **** **** 0

# MOE 2024.06 (io_trps.svl 2023.06)
