@<TRIPOS>MOLECULE
NONAME
38 38 1 0 0 
SMALL
USER_CHARGES


@<TRIPOS>ATOM
  1 O        0.2540     2.0460     1.4670 O.2   1 <1>  -0.5700 
  2 C        0.0070     2.1900     0.2910 C.2   1 <1>   0.6160 
  3 N        1.0130     2.1220    -0.6270 N.am  1 <1>  -0.7300 
  4 C       -1.3350     2.4440    -0.1510 C.2   1 <1>  -0.1360 
  5 C        2.4420     1.6860    -0.4090 C.3   1 <1>   0.2810 
  6 C       -2.4390     2.5410     0.6250 C.2   1 <1>  -0.1780 
  7 C        3.0470     1.8520     1.0200 C.2   1 <1>   0.6590 
  8 C        2.6130     0.2890    -1.0710 C.3   1 <1>  -0.0800 
  9 C       -3.8060     2.7960     0.2390 C.ar  1 <1>   0.0280 
 10 O        3.3530     0.9150     1.7130 O.2   1 <1>  -0.5700 
 11 O        3.3500     3.0800     1.4460 O.3   1 <1>  -0.4300 
 12 C        1.7940    -0.8300    -0.4010 C.3   1 <1>  -0.2400 
 13 C        4.0870    -0.1380    -1.1790 C.3   1 <1>  -0.2400 
 14 C       -4.2050     2.9440    -1.0900 C.ar  1 <1>  -0.1500 
 15 C       -4.7910     2.9050     1.2190 C.ar  1 <1>  -0.1500 
 16 C        2.6930     4.2680     1.0590 C.3   1 <1>   0.0400 
 17 C       -5.5250     3.1900    -1.4220 C.ar  1 <1>  -0.1500 
 18 C       -6.1120     3.1500     0.8940 C.ar  1 <1>  -0.1500 
 19 C       -6.4830     3.2940    -0.4300 C.ar  1 <1>  -0.1500 
 20 H        0.7480     2.1560    -1.6090 H     1 <1>   0.3700 
 21 H       -1.4170     2.5630    -1.2110 H     1 <1>   0.1500 
 22 H        3.0370     2.3490    -1.0100 H     1 <1>   0.0800 
 23 H       -2.3090     2.4150     1.6880 H     1 <1>   0.1500 
 24 H        2.2550     0.3790    -2.0820 H     1 <1>   0.0800 
 25 H        2.1270    -1.0050     0.6060 H     1 <1>   0.0800 
 26 H        1.8980    -1.7490    -0.9510 H     1 <1>   0.0800 
 27 H        0.7490    -0.5770    -0.3690 H     1 <1>   0.0800 
 28 H        4.5080    -0.3320    -0.2080 H     1 <1>   0.0800 
 29 H        4.6720     0.6260    -1.6600 H     1 <1>   0.0800 
 30 H        4.1700    -1.0390    -1.7600 H     1 <1>   0.0800 
 31 H       -3.4860     2.8670    -1.8810 H     1 <1>   0.1500 
 32 H       -4.5200     2.7950     2.2540 H     1 <1>   0.1500 
 33 H        3.1620     5.0890     1.5700 H     1 <1>   0.0800 
 34 H        1.6600     4.2060     1.3540 H     1 <1>   0.0800 
 35 H        2.7810     4.4020    -0.0040 H     1 <1>   0.0800 
 36 H       -5.8110     3.3010    -2.4540 H     1 <1>   0.1500 
 37 H       -6.8530     3.2290     1.6710 H     1 <1>   0.1500 
 38 H       -7.5110     3.4850    -0.6870 H     1 <1>   0.1500 
@<TRIPOS>BOND
  1   1   2  2   
  2   2   3  am  
  3   2   4  1   
  4   3   5  1   
  5   3  20  1   
  6   4   6  2   
  7   4  21  1   
  8   5   7  1   
  9   5   8  1   
 10   5  22  1   
 11   6   9  1   
 12   6  23  1   
 13   7  10  2   
 14   7  11  1   
 15   8  12  1   
 16   8  13  1   
 17   8  24  1   
 18   9  14  ar  
 19   9  15  ar  
 20  11  16  1   
 21  12  25  1   
 22  12  26  1   
 23  12  27  1   
 24  13  28  1   
 25  13  29  1   
 26  13  30  1   
 27  14  17  ar  
 28  14  31  1   
 29  15  18  ar  
 30  15  32  1   
 31  16  33  1   
 32  16  34  1   
 33  16  35  1   
 34  17  19  ar  
 35  17  36  1   
 36  18  19  ar  
 37  18  37  1   
 38  19  38  1   
@<TRIPOS>SUBSTRUCTURE
  1 ****   2 GROUP 4 **** **** 0

# MOE 2024.06 (io_trps.svl 2023.06)
