@<TRIPOS>MOLECULE
NONAME
32 33 1 0 0 
SMALL
USER_CHARGES


@<TRIPOS>ATOM
  1 O        0.1800     0.6350     1.7470 O.2   1 <1>  -0.5700 
  2 C        0.1860     1.5690     0.9920 C.2   1 <1>   0.6590 
  3 O       -0.8810     1.9830     0.3360 O.3   1 <1>  -0.4300 
  4 C        1.3890     2.4330     0.6710 C.3   1 <1>  -0.0190 
  5 C       -0.6430     3.1320    -0.4380 C.3   1 <1>   0.1200 
  6 C        0.8810     3.2410    -0.5280 C.3   1 <1>  -0.1600 
  7 C        2.6740     1.6280     0.3770 C.3   1 <1>  -0.1600 
  8 C        3.8960     2.4970     0.0020 C.3   1 <1>  -0.0800 
  9 C        5.1010     1.6320    -0.4220 C.3   1 <1>   0.2000 
 10 C        4.2690     3.4940     1.1300 C.3   1 <1>  -0.1600 
 11 O        5.5270     0.8970     0.6660 O.3   1 <1>  -0.6800 
 12 C        6.2810     2.4910    -0.9140 C.3   1 <1>  -0.1600 
 13 C        5.7310     3.9800     1.0830 C.3   1 <1>  -0.1600 
 14 C        6.3140     3.9190    -0.3330 C.3   1 <1>  -0.1600 
 15 H        1.5360     3.0820     1.5150 H     1 <1>   0.0800 
 16 H       -1.0700     3.9740     0.0800 H     1 <1>   0.0800 
 17 H       -1.1070     3.0110    -1.4020 H     1 <1>   0.0800 
 18 H        1.2000     2.7930    -1.4530 H     1 <1>   0.0800 
 19 H        1.2120     4.2640    -0.5030 H     1 <1>   0.0800 
 20 H        2.4750     0.9360    -0.4240 H     1 <1>   0.0800 
 21 H        2.9120     1.0360     1.2450 H     1 <1>   0.0800 
 22 H        3.6330     3.0750    -0.8670 H     1 <1>   0.0800 
 23 H        4.8170     0.9280    -1.1870 H     1 <1>   0.0800 
 24 H        4.0950     3.0430     2.0920 H     1 <1>   0.0800 
 25 H        3.6190     4.3480     1.0560 H     1 <1>   0.0800 
 26 H        5.7360     1.5150     1.3900 H     1 <1>   0.4000 
 27 H        6.2140     2.5750    -1.9840 H     1 <1>   0.0800 
 28 H        7.2050     1.9820    -0.6990 H     1 <1>   0.0800 
 29 H        6.3360     3.3670     1.7300 H     1 <1>   0.0800 
 30 H        5.7870     4.9880     1.4580 H     1 <1>   0.0800 
 31 H        5.7380     4.5720    -0.9670 H     1 <1>   0.0800 
 32 H        7.3270     4.2830    -0.3300 H     1 <1>   0.0800 
@<TRIPOS>BOND
  1   1   2  2   
  2   2   3  1   
  3   2   4  1   
  4   3   5  1   
  5   4   6  1   
  6   4   7  1   
  7   4  15  1   
  8   5   6  1   
  9   5  16  1   
 10   5  17  1   
 11   6  18  1   
 12   6  19  1   
 13   7   8  1   
 14   7  20  1   
 15   7  21  1   
 16   8   9  1   
 17   8  10  1   
 18   8  22  1   
 19   9  11  1   
 20   9  12  1   
 21   9  23  1   
 22  10  13  1   
 23  10  24  1   
 24  10  25  1   
 25  11  26  1   
 26  12  14  1   
 27  12  27  1   
 28  12  28  1   
 29  13  14  1   
 30  13  29  1   
 31  13  30  1   
 32  14  31  1   
 33  14  32  1   
@<TRIPOS>SUBSTRUCTURE
  1 ****   7 GROUP 4 **** **** 0

# MOE 2024.06 (io_trps.svl 2023.06)
