@<TRIPOS>MOLECULE
NONAME
36 36 1 0 0 
SMALL
USER_CHARGES


@<TRIPOS>ATOM
  1 S       -0.1390     0.1850     0.2630 S.3   1 <1>  -0.3320 
  2 C       -1.6590    -0.6200    -0.2650 C.ar  1 <1>   0.1020 
  3 C        0.6090    -0.8790     1.5760 C.3   1 <1>  -0.0100 
  4 C       -2.1360    -1.7710     0.3400 C.ar  1 <1>  -0.1500 
  5 C       -2.3440    -0.0370    -1.3140 C.ar  1 <1>  -0.1500 
  6 C       -3.3190    -2.3340    -0.1100 C.ar  1 <1>  -0.1500 
  7 C       -3.5250    -0.6020    -1.7620 C.ar  1 <1>  -0.1500 
  8 C       -4.0230    -1.7470    -1.1540 C.ar  1 <1>  -0.1430 
  9 C       -5.3330    -2.3450    -1.6250 C.3   1 <1>   0.4860 
 10 N       -6.3880    -2.0760    -0.6040 N.4   1 <1>  -0.9590 
 11 C       -7.5920    -2.9210    -0.8930 C.3   1 <1>   0.3430 
 12 C       -6.7380    -0.6130    -0.5290 C.3   1 <1>   0.3430 
 13 C       -8.5990    -2.9460     0.2680 C.3   1 <1>   0.1200 
 14 C       -5.9880     0.1290     0.5880 C.3   1 <1>   0.1200 
 15 O       -9.5930    -3.8450    -0.0680 O.3   1 <1>  -0.6800 
 16 O       -6.5900     1.3640     0.7400 O.3   1 <1>  -0.6800 
 17 H        1.5380    -0.4240     1.8690 H     1 <1>   0.0800 
 18 H        0.7790    -1.8540     1.1570 H     1 <1>   0.0800 
 19 H       -0.0730    -0.9160     2.4050 H     1 <1>   0.0800 
 20 H       -1.6010    -2.2320     1.1480 H     1 <1>   0.1500 
 21 H       -1.9470     0.8530    -1.7730 H     1 <1>   0.1500 
 22 H       -3.6730    -3.2350     0.3640 H     1 <1>   0.1500 
 23 H       -4.0420    -0.1340    -2.5840 H     1 <1>   0.1500 
 24 H       -5.2040    -3.4070    -1.7550 H     1 <1>   0.0800 
 25 H       -5.6140    -1.9190    -2.5750 H     1 <1>   0.0800 
 26 H       -5.9930    -2.3610     0.3010 H     1 <1>   0.4500 
 27 H       -7.2810    -3.9360    -1.0760 H     1 <1>   0.0800 
 28 H       -8.0910    -2.5570    -1.7760 H     1 <1>   0.0800 
 29 H       -7.7910    -0.5060    -0.3300 H     1 <1>   0.0800 
 30 H       -6.5310    -0.1330    -1.4720 H     1 <1>   0.0800 
 31 H       -9.0580    -1.9840     0.4180 H     1 <1>   0.0800 
 32 H       -8.1360    -3.2900     1.1780 H     1 <1>   0.0800 
 33 H       -4.9540     0.2910     0.3390 H     1 <1>   0.0800 
 34 H       -6.0690    -0.3920     1.5260 H     1 <1>   0.0800 
 35 H      -10.2830    -3.9050     0.6280 H     1 <1>   0.4000 
 36 H       -6.1110     1.9210     1.3910 H     1 <1>   0.4000 
@<TRIPOS>BOND
  1   1   2  1   
  2   1   3  1   
  3   2   4  ar  
  4   2   5  ar  
  5   3  17  1   
  6   3  18  1   
  7   3  19  1   
  8   4   6  ar  
  9   4  20  1   
 10   5   7  ar  
 11   5  21  1   
 12   6   8  ar  
 13   6  22  1   
 14   7   8  ar  
 15   7  23  1   
 16   8   9  1   
 17   9  10  1   
 18   9  24  1   
 19   9  25  1   
 20  10  11  1   
 21  10  12  1   
 22  10  26  1   
 23  11  13  1   
 24  11  27  1   
 25  11  28  1   
 26  12  14  1   
 27  12  29  1   
 28  12  30  1   
 29  13  15  1   
 30  13  31  1   
 31  13  32  1   
 32  14  16  1   
 33  14  33  1   
 34  14  34  1   
 35  15  35  1   
 36  16  36  1   
@<TRIPOS>SUBSTRUCTURE
  1 ****   8 GROUP 4 **** **** 0

# MOE 2024.06 (io_trps.svl 2023.06)
