@<TRIPOS>MOLECULE
NONAME
37 38 1 0 0 
SMALL
USER_CHARGES


@<TRIPOS>ATOM
  1 CL      -2.8050     0.6240     1.5880 Cl    1 <1>  -0.1770 
  2 C       -1.6210     1.8490     1.1900 C.ar  1 <1>   0.1770 
  3 C       -1.6850     2.5250    -0.0210 C.ar  1 <1>  -0.1440 
  4 C       -0.6310     2.1140     2.1210 C.ar  1 <1>  -0.1500 
  5 C       -0.7150     3.4870    -0.2650 C.ar  1 <1>   0.1770 
  6 C       -2.7780     2.2080    -1.0310 C.3   1 <1>   0.2540 
  7 C        0.3270     3.0760     1.8530 C.ar  1 <1>  -0.1500 
  8 CL      -0.7270     4.4050    -1.7540 Cl    1 <1>  -0.1770 
  9 C        0.2840     3.7660     0.6530 C.ar  1 <1>  -0.1500 
 10 N       -4.0560     2.8130    -0.6130 N.3   1 <1>  -0.8100 
 11 C       -4.0460     4.2950    -0.6680 C.3   1 <1>   0.1100 
 12 C       -5.1980     2.2660    -1.3850 C.3   1 <1>   0.1100 
 13 C       -5.3730     4.9060    -0.1530 C.3   1 <1>   0.3430 
 14 C       -6.5490     2.9110    -0.9890 C.3   1 <1>   0.3430 
 15 N       -6.3760     3.8410     0.1770 N.4   1 <1>  -0.9590 
 16 C       -7.6630     4.3660     0.7350 C.3   1 <1>   0.3430 
 17 C       -8.3620     3.3740     1.6900 C.3   1 <1>   0.1200 
 18 O       -8.5430     2.1340     1.0870 O.3   1 <1>  -0.6800 
 19 H       -0.6140     1.5680     3.0480 H     1 <1>   0.1500 
 20 H       -2.8910     1.1380    -1.0850 H     1 <1>   0.0800 
 21 H       -2.5130     2.5480    -2.0170 H     1 <1>   0.0800 
 22 H        1.1020     3.2860     2.5720 H     1 <1>   0.1500 
 23 H        1.0200     4.5170     0.4270 H     1 <1>   0.1500 
 24 H       -3.8690     4.6230    -1.6780 H     1 <1>   0.0800 
 25 H       -3.2430     4.6780    -0.0610 H     1 <1>   0.0800 
 26 H       -5.2630     1.2050    -1.2110 H     1 <1>   0.0800 
 27 H       -5.0350     2.4120    -2.4400 H     1 <1>   0.0800 
 28 H       -5.7700     5.5690    -0.9040 H     1 <1>   0.0800 
 29 H       -5.1640     5.4930     0.7250 H     1 <1>   0.0800 
 30 H       -7.2450     2.1260    -0.7470 H     1 <1>   0.0800 
 31 H       -6.9480     3.4490    -1.8320 H     1 <1>   0.0800 
 32 H       -5.9090     3.2440     0.8770 H     1 <1>   0.4500 
 33 H       -8.3360     4.6140    -0.0700 H     1 <1>   0.0800 
 34 H       -7.4690     5.2710     1.2850 H     1 <1>   0.0800 
 35 H       -9.3300     3.7560     1.9700 H     1 <1>   0.0800 
 36 H       -7.7740     3.2350     2.5810 H     1 <1>   0.0800 
 37 H       -9.0250     1.5190     1.6830 H     1 <1>   0.4000 
@<TRIPOS>BOND
  1   1   2  1   
  2   2   3  ar  
  3   2   4  ar  
  4   3   5  ar  
  5   3   6  1   
  6   4   7  ar  
  7   4  19  1   
  8   5   8  1   
  9   5   9  ar  
 10   6  10  1   
 11   6  20  1   
 12   6  21  1   
 13   7   9  ar  
 14   7  22  1   
 15   9  23  1   
 16  10  11  1   
 17  10  12  1   
 18  11  13  1   
 19  11  24  1   
 20  11  25  1   
 21  12  14  1   
 22  12  26  1   
 23  12  27  1   
 24  13  15  1   
 25  13  28  1   
 26  13  29  1   
 27  14  15  1   
 28  14  30  1   
 29  14  31  1   
 30  15  16  1   
 31  15  32  1   
 32  16  17  1   
 33  16  33  1   
 34  16  34  1   
 35  17  18  1   
 36  17  35  1   
 37  17  36  1   
 38  18  37  1   
@<TRIPOS>SUBSTRUCTURE
  1 ****  10 GROUP 4 **** **** 0

# MOE 2024.06 (io_trps.svl 2023.06)
