@<TRIPOS>MOLECULE
NONAME
39 41 1 0 0 
SMALL
USER_CHARGES


@<TRIPOS>ATOM
  1 O        0.4190     0.4930     0.3920 O.2   1 <1>  -0.5700 
  2 C        1.5140     0.9660     0.1400 C.2   1 <1>   0.6900 
  3 N        1.6090     2.1560    -0.5730 N.am  1 <1>  -0.4200 
  4 N        2.6670     0.3140     0.5680 N.am  1 <1>  -0.4240 
  5 C        2.8480     2.7040    -0.9020 C.2   1 <1>   0.7160 
  6 C        0.3620     2.8420    -1.0290 C.3   1 <1>   0.0600 
  7 C        3.9100     0.8790     0.2750 C.2   1 <1>  -0.0880 
  8 C        2.5930    -0.9550     1.3410 C.3   1 <1>   0.0600 
  9 O        2.8850     3.7270    -1.5730 O.2   1 <1>  -0.5700 
 10 C        4.0310     2.0320    -0.4350 C.2   1 <1>   0.1410 
 11 N        5.1530     0.4720     0.5870 N.pl3 1 <1>   0.0330 
 12 N        5.3610     2.3490    -0.5740 N.2   1 <1>  -0.5650 
 13 C        5.9820     1.3990     0.0470 C.2   1 <1>   0.2700 
 14 N        7.3540     1.3030     0.1680 N.pl3 1 <1>  -0.8220 
 15 C        7.9510     2.4210     0.9450 C.3   1 <1>   0.2090 
 16 C        8.0450     1.1280    -1.1370 C.3   1 <1>   0.2090 
 17 C        9.4250     2.1210     1.2340 C.3   1 <1>  -0.1600 
 18 C        9.5210     0.7950    -0.9000 C.3   1 <1>  -0.1600 
 19 C       10.2130     1.8830    -0.0630 C.3   1 <1>  -0.0800 
 20 C       11.6630     1.4930     0.2440 C.3   1 <1>  -0.2400 
 21 H       -0.4580     2.6200    -0.3690 H     1 <1>   0.0800 
 22 H        0.1150     2.5100    -2.0220 H     1 <1>   0.0800 
 23 H        0.5030     3.9090    -1.0400 H     1 <1>   0.0800 
 24 H        1.6360    -1.4290     1.2040 H     1 <1>   0.0800 
 25 H        2.7300    -0.7460     2.3870 H     1 <1>   0.0800 
 26 H        3.3560    -1.6340     1.0060 H     1 <1>   0.0800 
 27 H        5.4720    -0.3410     1.1110 H     1 <1>   0.2700 
 28 H        7.4140     2.5410     1.8710 H     1 <1>   0.0800 
 29 H        7.8610     3.3360     0.3830 H     1 <1>   0.0800 
 30 H        7.9550     2.0340    -1.7140 H     1 <1>   0.0800 
 31 H        7.5750     0.3310    -1.6880 H     1 <1>   0.0800 
 32 H        9.4790     1.2510     1.8650 H     1 <1>   0.0800 
 33 H        9.8520     2.9480     1.7720 H     1 <1>   0.0800 
 34 H       10.0150     0.6990    -1.8500 H     1 <1>   0.0800 
 35 H        9.5810    -0.1530    -0.3970 H     1 <1>   0.0800 
 36 H       10.2170     2.7980    -0.6320 H     1 <1>   0.0800 
 37 H       11.6980     0.5800     0.8120 H     1 <1>   0.0800 
 38 H       12.1450     2.2700     0.8110 H     1 <1>   0.0800 
 39 H       12.2120     1.3500    -0.6700 H     1 <1>   0.0800 
@<TRIPOS>BOND
  1   1   2  2   
  2   2   3  am  
  3   2   4  am  
  4   3   5  am  
  5   3   6  1   
  6   4   7  1   
  7   4   8  1   
  8   5   9  2   
  9   5  10  1   
 10   6  21  1   
 11   6  22  1   
 12   6  23  1   
 13   7  10  2   
 14   7  11  1   
 15   8  24  1   
 16   8  25  1   
 17   8  26  1   
 18  10  12  1   
 19  11  13  1   
 20  11  27  1   
 21  12  13  2   
 22  13  14  1   
 23  14  15  1   
 24  14  16  1   
 25  15  17  1   
 26  15  28  1   
 27  15  29  1   
 28  16  18  1   
 29  16  30  1   
 30  16  31  1   
 31  17  19  1   
 32  17  32  1   
 33  17  33  1   
 34  18  19  1   
 35  18  34  1   
 36  18  35  1   
 37  19  20  1   
 38  19  36  1   
 39  20  37  1   
 40  20  38  1   
 41  20  39  1   
@<TRIPOS>SUBSTRUCTURE
  1 ****  13 GROUP 4 **** **** 0

# MOE 2024.06 (io_trps.svl 2023.06)
