@<TRIPOS>MOLECULE
NONAME
37 39 1 0 0 
SMALL
USER_CHARGES


@<TRIPOS>ATOM
  1 S       -1.5510     1.1120    -1.8790 S.3   1 <1>  -0.0800 
  2 C       -1.7010     0.8120    -0.1530 C.2   1 <1>  -0.1400 
  3 C       -0.0700     2.0200    -1.6370 C.2   1 <1>  -0.1100 
  4 C       -0.6770     1.3780     0.5150 C.2   1 <1>  -0.1500 
  5 C       -2.9000     0.0080     0.2990 C.3   1 <1>   0.5230 
  6 C        0.2500     2.0660    -0.3310 C.2   1 <1>  -0.1500 
  7 N       -4.1280     0.7330    -0.1140 N.4   1 <1>  -0.9590 
  8 C       -4.2390     2.0770     0.5670 C.3   1 <1>   0.3430 
  9 C       -5.3740    -0.0900     0.0940 C.3   1 <1>   0.3430 
 10 C       -5.5130     2.8420     0.1550 C.3   1 <1>   0.2090 
 11 C       -6.6540     0.6650    -0.3210 C.3   1 <1>   0.2090 
 12 N       -6.7320     1.9980     0.3480 N.pl3 1 <1>  -0.8380 
 13 C       -7.9510     2.6730     0.1880 C.ar  1 <1>   0.1000 
 14 C       -8.4240     3.1810    -1.0280 C.ar  1 <1>   0.1900 
 15 C       -8.7590     2.8600     1.3020 C.ar  1 <1>  -0.1500 
 16 F       -7.7010     3.0340    -2.1150 F     1 <1>  -0.1900 
 17 C       -9.6310     3.8410    -1.1470 C.ar  1 <1>  -0.1500 
 18 C       -9.9740     3.5190     1.2040 C.ar  1 <1>  -0.1500 
 19 C      -10.4130     4.0100    -0.0160 C.ar  1 <1>  -0.1500 
 20 H        0.4140     2.4280    -2.5090 H     1 <1>   0.1500 
 21 H       -0.5130     1.3500     1.5800 H     1 <1>   0.1500 
 22 H       -2.8790    -0.1160     1.3700 H     1 <1>   0.0800 
 23 H       -2.8670    -0.9650    -0.1640 H     1 <1>   0.0800 
 24 H        1.1150     2.5610     0.0800 H     1 <1>   0.1500 
 25 H       -4.0260     0.9200    -1.1210 H     1 <1>   0.4500 
 26 H       -3.3790     2.6820     0.3300 H     1 <1>   0.0800 
 27 H       -4.2640     1.9410     1.6350 H     1 <1>   0.0800 
 28 H       -5.4660    -0.3480     1.1360 H     1 <1>   0.0800 
 29 H       -5.3110    -1.0050    -0.4700 H     1 <1>   0.0800 
 30 H       -5.4360     3.1440    -0.8760 H     1 <1>   0.0800 
 31 H       -5.6030     3.7330     0.7530 H     1 <1>   0.0800 
 32 H       -7.5170     0.0830    -0.0460 H     1 <1>   0.0800 
 33 H       -6.6690     0.7910    -1.3900 H     1 <1>   0.0800 
 34 H       -8.4290     2.4840     2.2530 H     1 <1>   0.1500 
 35 H       -9.9530     4.2140    -2.1020 H     1 <1>   0.1500 
 36 H      -10.5840     3.6520     2.0820 H     1 <1>   0.1500 
 37 H      -11.3580     4.5210    -0.0850 H     1 <1>   0.1500 
@<TRIPOS>BOND
  1   1   2  1   
  2   1   3  1   
  3   2   4  2   
  4   2   5  1   
  5   3   6  2   
  6   3  20  1   
  7   4   6  1   
  8   4  21  1   
  9   5   7  1   
 10   5  22  1   
 11   5  23  1   
 12   6  24  1   
 13   7   8  1   
 14   7   9  1   
 15   7  25  1   
 16   8  10  1   
 17   8  26  1   
 18   8  27  1   
 19   9  11  1   
 20   9  28  1   
 21   9  29  1   
 22  10  12  1   
 23  10  30  1   
 24  10  31  1   
 25  11  12  1   
 26  11  32  1   
 27  11  33  1   
 28  12  13  1   
 29  13  14  ar  
 30  13  15  ar  
 31  14  16  1   
 32  14  17  ar  
 33  15  18  ar  
 34  15  34  1   
 35  17  19  ar  
 36  17  35  1   
 37  18  19  ar  
 38  18  36  1   
 39  19  37  1   
@<TRIPOS>SUBSTRUCTURE
  1 ****  10 GROUP 4 **** **** 0

# MOE 2024.06 (io_trps.svl 2023.06)
