@<TRIPOS>MOLECULE
NONAME
46 49 1 0 0 
SMALL
USER_CHARGES


@<TRIPOS>ATOM
  1 CL      -4.9520     2.6540    -4.0350 Cl    1 <1>  -0.1770 
  2 C       -4.3840     2.1510    -2.4640 C.ar  1 <1>   0.1770 
  3 C       -5.2160     1.4030    -1.6530 C.ar  1 <1>  -0.1500 
  4 C       -3.1150     2.5110    -2.0530 C.ar  1 <1>  -0.1500 
  5 C       -4.7780     1.0070    -0.3980 C.ar  1 <1>  -0.1440 
  6 C       -2.6740     2.1130    -0.8030 C.ar  1 <1>  -0.1500 
  7 C       -3.5030     1.3650     0.0190 C.ar  1 <1>  -0.1500 
  8 C       -5.6940     0.1940     0.5050 C.3   1 <1>   0.2540 
  9 N       -6.9370     0.9410     0.7810 N.3   1 <1>  -0.8100 
 10 C       -7.9300     0.1110     1.5030 C.3   1 <1>   0.1100 
 11 C       -6.6850     2.2110     1.5110 C.3   1 <1>   0.1100 
 12 C       -9.2420     0.8830     1.7930 C.3   1 <1>   0.3430 
 13 C       -7.9860     3.0150     1.7550 C.3   1 <1>   0.3430 
 14 N       -9.1810     2.2760     1.2340 N.4   1 <1>  -0.9590 
 15 C      -10.4550     3.0310     1.3250 C.3   1 <1>   0.4860 
 16 C      -11.5400     2.2410     0.6190 C.ar  1 <1>  -0.1430 
 17 C      -11.5100     2.1050    -0.7670 C.ar  1 <1>  -0.1500 
 18 C      -12.5620     1.6400     1.3580 C.ar  1 <1>  -0.1500 
 19 C      -12.5010     1.3570    -1.3690 C.ar  1 <1>   0.0830 
 20 C      -13.5510     0.8940     0.7300 C.ar  1 <1>  -0.1500 
 21 O      -12.6590     1.0920    -2.6680 O.3   1 <1>  -0.3620 
 22 C      -13.4920     0.7670    -0.6430 C.ar  1 <1>   0.0830 
 23 C      -13.8380     0.2940    -2.7820 C.3   1 <1>   0.4000 
 24 O      -14.3220     0.1030    -1.4530 O.3   1 <1>  -0.3620 
 25 H       -6.1980     1.1370    -2.0020 H     1 <1>   0.1500 
 26 H       -2.4860     3.0920    -2.7040 H     1 <1>   0.1500 
 27 H       -1.6860     2.3840    -0.4710 H     1 <1>   0.1500 
 28 H       -3.1420     1.0630     0.9870 H     1 <1>   0.1500 
 29 H       -5.1930    -0.0460     1.4280 H     1 <1>   0.0800 
 30 H       -5.9330    -0.7300     0.0040 H     1 <1>   0.0800 
 31 H       -7.5130    -0.2360     2.4340 H     1 <1>   0.0800 
 32 H       -8.1660    -0.7570     0.9110 H     1 <1>   0.0800 
 33 H       -6.0090     2.8300     0.9450 H     1 <1>   0.0800 
 34 H       -6.2120     2.0020     2.4560 H     1 <1>   0.0800 
 35 H       -9.4090     0.9170     2.8560 H     1 <1>   0.0800 
 36 H      -10.0640     0.3440     1.3490 H     1 <1>   0.0800 
 37 H       -7.8990     3.9680     1.2590 H     1 <1>   0.0800 
 38 H       -8.0940     3.2010     2.8100 H     1 <1>   0.0800 
 39 H       -8.9640     2.1140     0.2390 H     1 <1>   0.4500 
 40 H      -10.3500     3.9940     0.8500 H     1 <1>   0.0800 
 41 H      -10.7250     3.1850     2.3560 H     1 <1>   0.0800 
 42 H      -10.7520     2.5570    -1.3820 H     1 <1>   0.1500 
 43 H      -12.6030     1.7460     2.4290 H     1 <1>   0.1500 
 44 H      -14.3480     0.4240     1.2800 H     1 <1>   0.1500 
 45 H      -13.5910    -0.6580    -3.2170 H     1 <1>   0.0800 
 46 H      -14.5750     0.8180    -3.3620 H     1 <1>   0.0800 
@<TRIPOS>BOND
  1   1   2  1   
  2   2   3  ar  
  3   2   4  ar  
  4   3   5  ar  
  5   3  25  1   
  6   4   6  ar  
  7   4  26  1   
  8   5   7  ar  
  9   5   8  1   
 10   6   7  ar  
 11   6  27  1   
 12   7  28  1   
 13   8   9  1   
 14   8  29  1   
 15   8  30  1   
 16   9  10  1   
 17   9  11  1   
 18  10  12  1   
 19  10  31  1   
 20  10  32  1   
 21  11  13  1   
 22  11  33  1   
 23  11  34  1   
 24  12  14  1   
 25  12  35  1   
 26  12  36  1   
 27  13  14  1   
 28  13  37  1   
 29  13  38  1   
 30  14  15  1   
 31  14  39  1   
 32  15  16  1   
 33  15  40  1   
 34  15  41  1   
 35  16  17  ar  
 36  16  18  ar  
 37  17  19  ar  
 38  17  42  1   
 39  18  20  ar  
 40  18  43  1   
 41  19  21  1   
 42  19  22  ar  
 43  20  22  ar  
 44  20  44  1   
 45  21  23  1   
 46  22  24  1   
 47  23  24  1   
 48  23  45  1   
 49  23  46  1   
@<TRIPOS>SUBSTRUCTURE
  1 ****  14 GROUP 4 **** **** 0

# MOE 2024.06 (io_trps.svl 2023.06)
