@<TRIPOS>MOLECULE
NONAME
34 34 1 0 0 
SMALL
USER_CHARGES


@<TRIPOS>ATOM
  1 CL       0.0090     0.3150    -0.3450 Cl    1 <1>  -0.1770 
  2 C       -1.7260     0.1380    -0.2460 C.ar  1 <1>   0.1770 
  3 C       -2.5050     1.2470     0.0240 C.ar  1 <1>  -0.1500 
  4 C       -2.2910    -1.1070    -0.4390 C.ar  1 <1>  -0.1500 
  5 C       -3.8830     1.1140     0.1050 C.ar  1 <1>  -0.1440 
  6 C       -3.6650    -1.2460    -0.3600 C.ar  1 <1>  -0.1500 
  7 C       -4.4680    -0.1370    -0.0880 C.ar  1 <1>   0.0830 
  8 C       -4.7390     2.3370     0.4030 C.3   1 <1>  -0.0960 
  9 O       -5.8230    -0.2140     0.0000 O.3   1 <1>  -0.3630 
 10 C       -6.5120    -1.4260    -0.1740 C.3   1 <1>   0.1200 
 11 C       -8.0010    -1.1250    -0.0080 C.3   1 <1>  -0.1600 
 12 C       -8.8340    -2.3910    -0.1890 C.3   1 <1>   0.3430 
 13 N      -10.2760    -2.1090     0.0730 N.4   1 <1>  -0.9590 
 14 C      -11.0400    -3.3850     0.2330 C.3   1 <1>   0.2630 
 15 C      -10.8960    -1.2660    -1.0000 C.3   1 <1>   0.2630 
 16 H       -2.0280     2.1990     0.1690 H     1 <1>   0.1500 
 17 H       -1.6590    -1.9510    -0.6470 H     1 <1>   0.1500 
 18 H       -4.0830    -2.2220    -0.5130 H     1 <1>   0.1500 
 19 H       -4.1320     3.2160     0.5280 H     1 <1>   0.0800 
 20 H       -5.3000     2.1780     1.3060 H     1 <1>   0.0800 
 21 H       -5.4250     2.5080    -0.4070 H     1 <1>   0.0800 
 22 H       -6.1660    -2.1190     0.5740 H     1 <1>   0.0800 
 23 H       -6.2950    -1.7960    -1.1620 H     1 <1>   0.0800 
 24 H       -8.2750    -0.3890    -0.7420 H     1 <1>   0.0800 
 25 H       -8.1570    -0.7250     0.9790 H     1 <1>   0.0800 
 26 H       -8.4830    -3.1380     0.5060 H     1 <1>   0.0800 
 27 H       -8.7080    -2.7770    -1.1880 H     1 <1>   0.0800 
 28 H      -10.3340    -1.5890     0.9630 H     1 <1>   0.4500 
 29 H      -11.0020    -3.9630    -0.6760 H     1 <1>   0.0800 
 30 H      -12.0730    -3.1760     0.4650 H     1 <1>   0.0800 
 31 H      -10.6240    -3.9740     1.0350 H     1 <1>   0.0800 
 32 H      -10.8260    -1.7620    -1.9550 H     1 <1>   0.0800 
 33 H      -10.3970    -0.3140    -1.0690 H     1 <1>   0.0800 
 34 H      -11.9370    -1.0880    -0.7800 H     1 <1>   0.0800 
@<TRIPOS>BOND
  1   1   2  1   
  2   2   3  ar  
  3   2   4  ar  
  4   3   5  ar  
  5   3  16  1   
  6   4   6  ar  
  7   4  17  1   
  8   5   7  ar  
  9   5   8  1   
 10   6   7  ar  
 11   6  18  1   
 12   7   9  1   
 13   8  19  1   
 14   8  20  1   
 15   8  21  1   
 16   9  10  1   
 17  10  11  1   
 18  10  22  1   
 19  10  23  1   
 20  11  12  1   
 21  11  24  1   
 22  11  25  1   
 23  12  13  1   
 24  12  26  1   
 25  12  27  1   
 26  13  14  1   
 27  13  15  1   
 28  13  28  1   
 29  14  29  1   
 30  14  30  1   
 31  14  31  1   
 32  15  32  1   
 33  15  33  1   
 34  15  34  1   
@<TRIPOS>SUBSTRUCTURE
  1 ****   9 GROUP 4 **** **** 0

# MOE 2024.06 (io_trps.svl 2023.06)
