@<TRIPOS>MOLECULE
NONAME
31 31 1 0 0 
SMALL
USER_CHARGES


@<TRIPOS>ATOM
  1 S       -0.2050     0.0930    -0.9560 S.3   1 <1>  -0.3710 
  2 C        1.1780     0.2730     0.1220 C.2   1 <1>   0.6510 
  3 C       -1.3040     1.0240     0.1480 C.3   1 <1>   0.2910 
  4 N        0.9560     0.9260     1.1880 N.2   1 <1>  -0.6610 
  5 N        2.3880    -0.2560    -0.1870 N.am  1 <1>  -0.4900 
  6 C       -0.3360     1.3700     1.2970 C.2   1 <1>   0.7200 
  7 C       -1.8070     2.2430    -0.6360 C.3   1 <1>  -0.2400 
  8 C       -2.4460     0.0820     0.5520 C.3   1 <1>  -0.2400 
  9 C        2.8430    -1.0010    -1.2360 C.2   1 <1>   0.5690 
 10 O       -0.7070     2.0050     2.2500 O.2   1 <1>  -0.5700 
 11 O        2.1640    -1.3450    -2.1650 O.2   1 <1>  -0.5700 
 12 C        4.3030    -1.4130    -1.2120 C.3   1 <1>  -0.0990 
 13 C        4.5980    -2.4610    -0.1260 C.3   1 <1>  -0.1600 
 14 C        6.0770    -2.8660    -0.1290 C.3   1 <1>  -0.1600 
 15 C        6.3630    -3.9050     0.9580 C.3   1 <1>  -0.2400 
 16 H        3.0770    -0.0590     0.5320 H     1 <1>   0.3700 
 17 H       -0.9780     2.8460    -0.9610 H     1 <1>   0.0800 
 18 H       -2.4400     2.8450    -0.0080 H     1 <1>   0.0800 
 19 H       -2.3700     1.9300    -1.4970 H     1 <1>   0.0800 
 20 H       -2.0530    -0.7930     1.0380 H     1 <1>   0.0800 
 21 H       -3.0060    -0.2230    -0.3140 H     1 <1>   0.0800 
 22 H       -3.1080     0.5830     1.2350 H     1 <1>   0.0800 
 23 H        4.9100    -0.5390    -1.0590 H     1 <1>   0.0800 
 24 H        4.5560    -1.8200    -2.1760 H     1 <1>   0.0800 
 25 H        3.9890    -3.3320    -0.3040 H     1 <1>   0.0800 
 26 H        4.3410    -2.0690     0.8430 H     1 <1>   0.0800 
 27 H        6.6940    -2.0000     0.0390 H     1 <1>   0.0800 
 28 H        6.3380    -3.2800    -1.0890 H     1 <1>   0.0800 
 29 H        6.1310    -3.5090     1.9310 H     1 <1>   0.0800 
 30 H        7.4030    -4.1780     0.9410 H     1 <1>   0.0800 
 31 H        5.7760    -4.7920     0.7950 H     1 <1>   0.0800 
@<TRIPOS>BOND
  1   1   2  1   
  2   1   3  1   
  3   2   4  2   
  4   2   5  1   
  5   3   6  1   
  6   3   7  1   
  7   3   8  1   
  8   4   6  1   
  9   5   9  am  
 10   5  16  1   
 11   6  10  2   
 12   7  17  1   
 13   7  18  1   
 14   7  19  1   
 15   8  20  1   
 16   8  21  1   
 17   8  22  1   
 18   9  11  2   
 19   9  12  1   
 20  12  13  1   
 21  12  23  1   
 22  12  24  1   
 23  13  14  1   
 24  13  25  1   
 25  13  26  1   
 26  14  15  1   
 27  14  27  1   
 28  14  28  1   
 29  15  29  1   
 30  15  30  1   
 31  15  31  1   
@<TRIPOS>SUBSTRUCTURE
  1 ****   2 GROUP 4 **** **** 0

# MOE 2024.06 (io_trps.svl 2023.06)
