@<TRIPOS>MOLECULE
NONAME
27 26 1 0 0 
SMALL
USER_CHARGES


@<TRIPOS>ATOM
  1 S       -0.0630     0.4180    -0.6570 S.3   1 <1>  -0.4600 
  2 C        1.3910    -0.6860    -0.5830 C.3   1 <1>   0.0700 
  3 C       -1.4420    -0.6740    -0.2250 C.3   1 <1>   0.0700 
  4 C        2.7180     0.0320    -0.8990 C.3   1 <1>   0.6800 
  5 C       -2.7230     0.1600    -0.2540 C.3   1 <1>  -0.1600 
  6 F        2.6130     0.6890    -2.0530 F     1 <1>  -0.3400 
  7 F        3.6210    -0.9120    -1.1650 F     1 <1>  -0.3400 
  8 C        3.2910     0.9680     0.1970 C.3   1 <1>   0.6000 
  9 C       -3.9480    -0.6920     0.1020 C.3   1 <1>  -0.1600 
 10 F        3.4370     0.3190     1.3540 F     1 <1>  -0.3400 
 11 F        2.4790     1.9820     0.4890 F     1 <1>  -0.3400 
 12 C       -5.2310     0.1460     0.0720 C.3   1 <1>  -0.1600 
 13 C       -6.4530    -0.7050     0.4280 C.3   1 <1>  -0.2400 
 14 H        1.2190    -1.4680    -1.2980 H     1 <1>   0.0800 
 15 H        1.4170    -1.0980     0.4090 H     1 <1>   0.0800 
 16 H       -1.2500    -1.0680     0.7570 H     1 <1>   0.0800 
 17 H       -1.4690    -1.4670    -0.9510 H     1 <1>   0.0800 
 18 H       -2.8480     0.5780    -1.2380 H     1 <1>   0.0800 
 19 H       -2.6310     0.9710     0.4470 H     1 <1>   0.0800 
 20 H        4.2440     1.3790    -0.0760 H     1 <1>   0.0800 
 21 H       -3.8190    -1.1110     1.0860 H     1 <1>   0.0800 
 22 H       -4.0360    -1.5040    -0.6000 H     1 <1>   0.0800 
 23 H       -5.3660     0.5660    -0.9100 H     1 <1>   0.0800 
 24 H       -5.1490     0.9590     0.7730 H     1 <1>   0.0800 
 25 H       -6.5680    -1.5110    -0.2740 H     1 <1>   0.0800 
 26 H       -7.3420    -0.0990     0.4020 H     1 <1>   0.0800 
 27 H       -6.3500    -1.1170     1.4170 H     1 <1>   0.0800 
@<TRIPOS>BOND
  1   1   2  1   
  2   1   3  1   
  3   2   4  1   
  4   2  14  1   
  5   2  15  1   
  6   3   5  1   
  7   3  16  1   
  8   3  17  1   
  9   4   6  1   
 10   4   7  1   
 11   4   8  1   
 12   5   9  1   
 13   5  18  1   
 14   5  19  1   
 15   8  10  1   
 16   8  11  1   
 17   8  20  1   
 18   9  12  1   
 19   9  21  1   
 20   9  22  1   
 21  12  13  1   
 22  12  23  1   
 23  12  24  1   
 24  13  25  1   
 25  13  26  1   
 26  13  27  1   
@<TRIPOS>SUBSTRUCTURE
  1 ****   1 GROUP 4 **** **** 0

# MOE 2024.06 (io_trps.svl 2023.06)
