@<TRIPOS>MOLECULE
NONAME
44 45 1 0 0 
SMALL
USER_CHARGES


@<TRIPOS>ATOM
  1 O       -0.5790    -0.2840     0.7520 O.3   1 <1>  -0.3630 
  2 C       -1.8910    -0.4730     0.4610 C.ar  1 <1>   0.0830 
  3 C        0.4350    -0.8240    -0.0630 C.3   1 <1>   0.1200 
  4 C       -2.3470    -1.1950    -0.6380 C.ar  1 <1>  -0.1500 
  5 C       -2.8100     0.0990     1.3260 C.ar  1 <1>  -0.1500 
  6 C        1.7860    -0.4330     0.5350 C.3   1 <1>  -0.1600 
  7 C       -3.7060    -1.3380    -0.8580 C.ar  1 <1>  -0.1500 
  8 C       -4.1680    -0.0460     1.1030 C.ar  1 <1>  -0.1500 
  9 C        2.9470    -0.9810    -0.3060 C.3   1 <1>  -0.1600 
 10 C       -4.6240    -0.7660     0.0100 C.ar  1 <1>  -0.1430 
 11 C        4.2990    -0.5820     0.3000 C.3   1 <1>  -0.1600 
 12 C       -6.1130    -0.9240    -0.2360 C.3   1 <1>  -0.0970 
 13 C        5.4710    -1.1140    -0.5310 C.3   1 <1>   0.0210 
 14 C        6.7920    -0.6910     0.0880 C.2   1 <1>  -0.1810 
 15 C        7.4920     0.4870    -0.1690 C.2   1 <1>   0.1080 
 16 C        7.5470    -1.3470     0.9970 C.2   1 <1>  -0.3320 
 17 N        8.5900     0.5660     0.5120 N.2   1 <1>  -0.7070 
 18 C        7.0660     1.5790    -1.1250 C.3   1 <1>  -0.0590 
 19 N        8.6240    -0.5680     1.2330 N.pl3 1 <1>   0.3000 
 20 C        7.3260    -2.6840     1.6830 C.3   1 <1>  -0.0600 
 21 H        0.3250    -0.4170    -1.0540 H     1 <1>   0.0800 
 22 H        0.3210    -1.8940    -0.0810 H     1 <1>   0.0800 
 23 H       -1.6650    -1.6510    -1.3290 H     1 <1>   0.1500 
 24 H       -2.4550     0.6560     2.1720 H     1 <1>   0.1500 
 25 H        1.8510    -0.8240     1.5360 H     1 <1>   0.0800 
 26 H        1.8500     0.6410     0.5800 H     1 <1>   0.0800 
 27 H       -4.0490    -1.8970    -1.7100 H     1 <1>   0.1500 
 28 H       -4.8680     0.4060     1.7840 H     1 <1>   0.1500 
 29 H        2.8760    -0.5940    -1.3080 H     1 <1>   0.0800 
 30 H        2.8790    -2.0550    -0.3530 H     1 <1>   0.0800 
 31 H        4.3780    -0.9700     1.3010 H     1 <1>   0.0800 
 32 H        4.3670     0.4910     0.3580 H     1 <1>   0.0800 
 33 H       -6.3160    -1.8570    -0.7300 H     1 <1>   0.0800 
 34 H       -6.4660    -0.1190    -0.8540 H     1 <1>   0.0800 
 35 H       -6.6510    -0.9100     0.6950 H     1 <1>   0.0800 
 36 H        5.4120    -0.7400    -1.5380 H     1 <1>   0.0800 
 37 H        5.4270    -2.1870    -0.5790 H     1 <1>   0.0800 
 38 H        6.0520     1.8680    -0.9250 H     1 <1>   0.0800 
 39 H        7.1470     1.2250    -2.1350 H     1 <1>   0.0800 
 40 H        7.7030     2.4360    -1.0040 H     1 <1>   0.0800 
 41 H        9.3940    -0.7790     1.8770 H     1 <1>   0.2700 
 42 H        6.3880    -3.1140     1.3820 H     1 <1>   0.0800 
 43 H        7.3100    -2.5530     2.7510 H     1 <1>   0.0800 
 44 H        8.1150    -3.3670     1.4250 H     1 <1>   0.0800 
@<TRIPOS>BOND
  1   1   2  1   
  2   1   3  1   
  3   2   4  ar  
  4   2   5  ar  
  5   3   6  1   
  6   3  21  1   
  7   3  22  1   
  8   4   7  ar  
  9   4  23  1   
 10   5   8  ar  
 11   5  24  1   
 12   6   9  1   
 13   6  25  1   
 14   6  26  1   
 15   7  10  ar  
 16   7  27  1   
 17   8  10  ar  
 18   8  28  1   
 19   9  11  1   
 20   9  29  1   
 21   9  30  1   
 22  10  12  1   
 23  11  13  1   
 24  11  31  1   
 25  11  32  1   
 26  12  33  1   
 27  12  34  1   
 28  12  35  1   
 29  13  14  1   
 30  13  36  1   
 31  13  37  1   
 32  14  15  1   
 33  14  16  2   
 34  15  17  2   
 35  15  18  1   
 36  16  19  1   
 37  16  20  1   
 38  17  19  1   
 39  18  38  1   
 40  18  39  1   
 41  18  40  1   
 42  19  41  1   
 43  20  42  1   
 44  20  43  1   
 45  20  44  1   
@<TRIPOS>SUBSTRUCTURE
  1 ****   6 GROUP 4 **** **** 0

# MOE 2024.06 (io_trps.svl 2023.06)
