@<TRIPOS>MOLECULE
NONAME
40 42 1 0 0 
SMALL
USER_CHARGES


@<TRIPOS>ATOM
  1 CL      -1.6020     1.7230     2.5770 Cl    1 <1>  -0.1770 
  2 C       -0.7240     2.4580     1.2570 C.ar  1 <1>   0.1770 
  3 C       -1.2180     2.3430    -0.0310 C.ar  1 <1>  -0.1440 
  4 C        0.4420     3.1530     1.5300 C.ar  1 <1>  -0.1500 
  5 C       -0.5010     2.9610    -1.0390 C.ar  1 <1>   0.1900 
  6 C       -2.4830     1.5690    -0.3310 C.3   1 <1>   0.4860 
  7 C        1.1410     3.7590     0.4960 C.ar  1 <1>  -0.1500 
  8 F       -0.9510     2.8890    -2.2630 F     1 <1>  -0.1900 
  9 C        0.6670     3.6650    -0.8030 C.ar  1 <1>  -0.1500 
 10 N       -3.6590     2.3300     0.1720 N.4   1 <1>  -0.9590 
 11 C       -4.9160     1.4960     0.1270 C.3   1 <1>   0.3430 
 12 C       -3.8460     3.6320    -0.5760 C.3   1 <1>   0.3430 
 13 C       -6.1570     2.2690     0.6230 C.3   1 <1>   0.2090 
 14 C       -5.0800     4.4220    -0.0940 C.3   1 <1>   0.2090 
 15 N       -6.2990     3.5620    -0.1090 N.pl3 1 <1>  -0.8380 
 16 C       -7.5170     4.2160     0.0290 C.ar  1 <1>   0.1000 
 17 C       -7.8940     4.8040     1.2340 C.ar  1 <1>  -0.1500 
 18 C       -8.3800     4.2880    -1.0590 C.ar  1 <1>  -0.1500 
 19 C       -9.1120     5.4510     1.3510 C.ar  1 <1>  -0.1500 
 20 C       -9.6000     4.9330    -0.9520 C.ar  1 <1>  -0.1500 
 21 C       -9.9540     5.5090     0.2550 C.ar  1 <1>   0.1770 
 22 CL     -11.4920     6.3250     0.3980 Cl    1 <1>  -0.1770 
 23 H        0.8020     3.2220     2.5430 H     1 <1>   0.1500 
 24 H       -2.4300     0.6100     0.1590 H     1 <1>   0.0800 
 25 H       -2.5750     1.4010    -1.3920 H     1 <1>   0.0800 
 26 H        2.0510     4.3000     0.7020 H     1 <1>   0.1500 
 27 H        1.1960     4.1280    -1.6190 H     1 <1>   0.1500 
 28 H       -3.4690     2.5580     1.1580 H     1 <1>   0.4500 
 29 H       -4.7930     0.6110     0.7300 H     1 <1>   0.0800 
 30 H       -5.1050     1.1830    -0.8870 H     1 <1>   0.0800 
 31 H       -3.9710     3.4280    -1.6270 H     1 <1>   0.0800 
 32 H       -2.9710     4.2510    -0.4650 H     1 <1>   0.0800 
 33 H       -6.0750     2.4570     1.6800 H     1 <1>   0.0800 
 34 H       -7.0380     1.6730     0.4600 H     1 <1>   0.0800 
 35 H       -5.2380     5.2690    -0.7410 H     1 <1>   0.0800 
 36 H       -4.9110     4.7950     0.9020 H     1 <1>   0.0800 
 37 H       -7.2350     4.7550     2.0810 H     1 <1>   0.1500 
 38 H       -8.0890     3.8350    -1.9890 H     1 <1>   0.1500 
 39 H       -9.4130     5.9070     2.2770 H     1 <1>   0.1500 
 40 H      -10.2720     4.9920    -1.7890 H     1 <1>   0.1500 
@<TRIPOS>BOND
  1   1   2  1   
  2   2   3  ar  
  3   2   4  ar  
  4   3   5  ar  
  5   3   6  1   
  6   4   7  ar  
  7   4  23  1   
  8   5   8  1   
  9   5   9  ar  
 10   6  10  1   
 11   6  24  1   
 12   6  25  1   
 13   7   9  ar  
 14   7  26  1   
 15   9  27  1   
 16  10  11  1   
 17  10  12  1   
 18  10  28  1   
 19  11  13  1   
 20  11  29  1   
 21  11  30  1   
 22  12  14  1   
 23  12  31  1   
 24  12  32  1   
 25  13  15  1   
 26  13  33  1   
 27  13  34  1   
 28  14  15  1   
 29  14  35  1   
 30  14  36  1   
 31  15  16  1   
 32  16  17  ar  
 33  16  18  ar  
 34  17  19  ar  
 35  17  37  1   
 36  18  20  ar  
 37  18  38  1   
 38  19  21  ar  
 39  19  39  1   
 40  20  21  ar  
 41  20  40  1   
 42  21  22  1   
@<TRIPOS>SUBSTRUCTURE
  1 ****  12 GROUP 4 **** **** 0

# MOE 2024.06 (io_trps.svl 2023.06)
