@<TRIPOS>MOLECULE
NONAME
52 54 1 0 0 
SMALL
USER_CHARGES


@<TRIPOS>ATOM
  1 S        0.1270     0.3560     0.9100 S.o2  1 <1>   1.5760 
  2 O        0.4400     0.4730     2.3170 O.2   1 <1>  -0.6500 
  3 O        0.1460    -0.9340     0.2570 O.2   1 <1>  -0.6500 
  4 N       -1.3830     1.0580     0.6690 N.am  1 <1>  -0.8490 
  5 N        1.0960     1.4210     0.0330 N.am  1 <1>  -0.8490 
  6 C       -1.5210     2.3530     1.3470 C.3   1 <1>   0.1960 
  7 C       -2.4740     0.1400     1.0460 C.3   1 <1>   0.1960 
  8 C        0.8310     1.3200    -1.4060 C.3   1 <1>   0.1960 
  9 C        2.5110     1.1900     0.3240 C.3   1 <1>   0.1960 
 10 C       -2.8650     3.0460     1.0180 C.3   1 <1>   0.1960 
 11 C       -3.8220     0.8380     1.3490 C.3   1 <1>   0.1960 
 12 C        1.6260     2.3880    -2.1650 C.3   1 <1>  -0.1600 
 13 C        3.3740     2.2480    -0.3720 C.3   1 <1>  -0.1600 
 14 N       -3.9530     2.1210     0.6470 N.am  1 <1>  -0.8490 
 15 C        3.1290     2.2670    -1.8850 C.3   1 <1>  -0.1600 
 16 S       -5.4650     2.8280     0.8620 S.o2  1 <1>   1.5760 
 17 O       -5.7910     2.7350     2.2670 O.2   1 <1>  -0.6500 
 18 O       -5.4780     4.1050     0.1850 O.2   1 <1>  -0.6500 
 19 N       -6.4260     1.7470    -0.0060 N.am  1 <1>  -0.8490 
 20 C       -7.8430     1.9830     0.2670 C.3   1 <1>   0.1960 
 21 C       -6.1470     1.8220    -1.4440 C.3   1 <1>   0.1960 
 22 C       -8.7000     0.9120    -0.4180 C.3   1 <1>  -0.1600 
 23 C       -6.9350     0.7410    -2.1910 C.3   1 <1>  -0.1600 
 24 C       -8.4400     0.8670    -1.9290 C.3   1 <1>  -0.1600 
 25 H       -0.7150     3.0080     1.0600 H     1 <1>   0.0800 
 26 H       -1.4540     2.2090     2.4120 H     1 <1>   0.0800 
 27 H       -2.1930    -0.4320     1.9150 H     1 <1>   0.0800 
 28 H       -2.6190    -0.5580     0.2390 H     1 <1>   0.0800 
 29 H       -0.2190     1.4680    -1.5960 H     1 <1>   0.0800 
 30 H        1.1010     0.3390    -1.7640 H     1 <1>   0.0800 
 31 H        2.7970     0.2040    -0.0040 H     1 <1>   0.0800 
 32 H        2.6760     1.2530     1.3880 H     1 <1>   0.0800 
 33 H       -2.7130     3.7300     0.2000 H     1 <1>   0.0800 
 34 H       -3.1550     3.6330     1.8740 H     1 <1>   0.0800 
 35 H       -3.8990     1.0010     2.4110 H     1 <1>   0.0800 
 36 H       -4.6250     0.1780     1.0660 H     1 <1>   0.0800 
 37 H        1.2750     3.3590    -1.8610 H     1 <1>   0.0800 
 38 H        1.4430     2.2860    -3.2190 H     1 <1>   0.0800 
 39 H        4.4120     2.0470    -0.1750 H     1 <1>   0.0800 
 40 H        3.1410     3.2120     0.0460 H     1 <1>   0.0800 
 41 H        3.6550     3.0900    -2.3350 H     1 <1>   0.0800 
 42 H        3.4990     1.3530    -2.3180 H     1 <1>   0.0800 
 43 H       -8.1260     2.9630    -0.0820 H     1 <1>   0.0800 
 44 H       -8.0190     1.9390     1.3300 H     1 <1>   0.0800 
 45 H       -5.0950     1.6710    -1.6210 H     1 <1>   0.0800 
 46 H       -6.4130     2.7960    -1.8220 H     1 <1>   0.0800 
 47 H       -9.7390     1.1170    -0.2350 H     1 <1>   0.0800 
 48 H       -8.4710    -0.0440     0.0190 H     1 <1>   0.0800 
 49 H       -6.5870    -0.2250    -1.8670 H     1 <1>   0.0800 
 50 H       -6.7420     0.8240    -3.2460 H     1 <1>   0.0800 
 51 H       -8.8060     1.7730    -2.3810 H     1 <1>   0.0800 
 52 H       -8.9630     0.0360    -2.3690 H     1 <1>   0.0800 
@<TRIPOS>BOND
  1   1   2  2   
  2   1   3  2   
  3   1   4  am  
  4   1   5  am  
  5   4   6  1   
  6   4   7  1   
  7   5   8  1   
  8   5   9  1   
  9   6  10  1   
 10   6  25  1   
 11   6  26  1   
 12   7  11  1   
 13   7  27  1   
 14   7  28  1   
 15   8  12  1   
 16   8  29  1   
 17   8  30  1   
 18   9  13  1   
 19   9  31  1   
 20   9  32  1   
 21  10  14  1   
 22  10  33  1   
 23  10  34  1   
 24  11  14  1   
 25  11  35  1   
 26  11  36  1   
 27  12  15  1   
 28  12  37  1   
 29  12  38  1   
 30  13  15  1   
 31  13  39  1   
 32  13  40  1   
 33  14  16  am  
 34  15  41  1   
 35  15  42  1   
 36  16  17  2   
 37  16  18  2   
 38  16  19  am  
 39  19  20  1   
 40  19  21  1   
 41  20  22  1   
 42  20  43  1   
 43  20  44  1   
 44  21  23  1   
 45  21  45  1   
 46  21  46  1   
 47  22  24  1   
 48  22  47  1   
 49  22  48  1   
 50  23  24  1   
 51  23  49  1   
 52  23  50  1   
 53  24  51  1   
 54  24  52  1   
@<TRIPOS>SUBSTRUCTURE
  1 ****  14 GROUP 4 **** **** 0

# MOE 2024.06 (io_trps.svl 2023.06)
