@<TRIPOS>MOLECULE
NONAME
46 48 1 0 0 
SMALL
USER_CHARGES


@<TRIPOS>ATOM
  1 O        1.7910     1.3910    -2.0470 O.2   1 <1>  -0.5700 
  2 C        0.8160     1.3410    -1.3220 C.2   1 <1>   0.5440 
  3 N        0.9160     0.5070    -0.2410 N.am  1 <1>  -0.7300 
  4 C       -0.3540     2.1720    -1.5830 C.ar  1 <1>   0.0860 
  5 C        1.9050    -0.5990    -0.0860 C.3   1 <1>   0.1400 
  6 C       -1.6470     1.8810    -1.1010 C.ar  1 <1>   0.0000 
  7 C       -0.1950     3.3290    -2.3500 C.ar  1 <1>  -0.1500 
  8 C        3.2050    -0.1190     0.5900 C.3   1 <1>   0.3430 
  9 C       -1.9460     0.7090    -0.3130 C.ar  1 <1>   0.0000 
 10 C       -2.6970     2.7470    -1.3900 C.ar  1 <1>  -0.1500 
 11 C       -1.2480     4.1780    -2.6300 C.ar  1 <1>  -0.1500 
 12 N        3.8230     1.0110    -0.1620 N.4   1 <1>  -0.9590 
 13 C       -2.0510    -0.5460    -0.9050 C.ar  1 <1>  -0.1500 
 14 C       -2.1090     0.8040     1.0660 C.ar  1 <1>  -0.1500 
 15 C       -2.5080     3.8860    -2.1450 C.ar  1 <1>  -0.1500 
 16 C        4.6410     0.6060    -1.3490 C.3   1 <1>   0.3430 
 17 C        4.5360     2.0100     0.7020 C.3   1 <1>   0.3430 
 18 C       -2.2930    -1.6740    -0.1430 C.ar  1 <1>  -0.1500 
 19 C       -2.3500    -0.3220     1.8320 C.ar  1 <1>  -0.1500 
 20 C        5.0690     1.8460    -2.1720 C.3   1 <1>   0.1200 
 21 C        5.4600     2.9420    -0.1110 C.3   1 <1>   0.1200 
 22 C       -2.4400    -1.5630     1.2280 C.ar  1 <1>  -0.1500 
 23 O        5.0170     3.0420    -1.4330 O.3   1 <1>  -0.5600 
 24 H        0.0480     0.3740     0.2990 H     1 <1>   0.3700 
 25 H        2.1310    -1.0160    -1.0530 H     1 <1>   0.0800 
 26 H        1.4620    -1.3800     0.5090 H     1 <1>   0.0800 
 27 H        0.7780     3.5750    -2.7400 H     1 <1>   0.1500 
 28 H        3.9020    -0.9370     0.6670 H     1 <1>   0.0800 
 29 H        2.9580     0.2040     1.5870 H     1 <1>   0.0800 
 30 H       -3.6820     2.5200    -1.0180 H     1 <1>   0.1500 
 31 H       -1.0910     5.0620    -3.2240 H     1 <1>   0.1500 
 32 H        3.0270     1.5160    -0.6110 H     1 <1>   0.4500 
 33 H       -1.9420    -0.6360    -1.9730 H     1 <1>   0.1500 
 34 H       -2.0480     1.7690     1.5400 H     1 <1>   0.1500 
 35 H       -3.3340     4.5430    -2.3580 H     1 <1>   0.1500 
 36 H        4.0730    -0.0530    -1.9860 H     1 <1>   0.0800 
 37 H        5.5210     0.0790    -1.0230 H     1 <1>   0.0800 
 38 H        5.1270     1.5040     1.4460 H     1 <1>   0.0800 
 39 H        3.8070     2.6120     1.2210 H     1 <1>   0.0800 
 40 H       -2.3740    -2.6380    -0.6160 H     1 <1>   0.1500 
 41 H       -2.4770    -0.2330     2.8980 H     1 <1>   0.1500 
 42 H        4.4070     1.9660    -3.0130 H     1 <1>   0.0800 
 43 H        6.0690     1.7200    -2.5490 H     1 <1>   0.0800 
 44 H        6.4710     2.5710    -0.1180 H     1 <1>   0.0800 
 45 H        5.4640     3.9300     0.3160 H     1 <1>   0.0800 
 46 H       -2.6340    -2.4410     1.8230 H     1 <1>   0.1500 
@<TRIPOS>BOND
  1   1   2  2   
  2   2   3  am  
  3   2   4  1   
  4   3   5  1   
  5   3  24  1   
  6   4   6  ar  
  7   4   7  ar  
  8   5   8  1   
  9   5  25  1   
 10   5  26  1   
 11   6   9  1   
 12   6  10  ar  
 13   7  11  ar  
 14   7  27  1   
 15   8  12  1   
 16   8  28  1   
 17   8  29  1   
 18   9  13  ar  
 19   9  14  ar  
 20  10  15  ar  
 21  10  30  1   
 22  11  15  ar  
 23  11  31  1   
 24  12  16  1   
 25  12  17  1   
 26  12  32  1   
 27  13  18  ar  
 28  13  33  1   
 29  14  19  ar  
 30  14  34  1   
 31  15  35  1   
 32  16  20  1   
 33  16  36  1   
 34  16  37  1   
 35  17  21  1   
 36  17  38  1   
 37  17  39  1   
 38  18  22  ar  
 39  18  40  1   
 40  19  22  ar  
 41  19  41  1   
 42  20  23  1   
 43  20  42  1   
 44  20  43  1   
 45  21  23  1   
 46  21  44  1   
 47  21  45  1   
 48  22  46  1   
@<TRIPOS>SUBSTRUCTURE
  1 ****   2 GROUP 4 **** **** 0

# MOE 2024.06 (io_trps.svl 2023.06)
