@<TRIPOS>MOLECULE
NONAME
50 52 1 0 0 
SMALL
USER_CHARGES


@<TRIPOS>ATOM
  1 S        0.2930     0.1410     0.0780 S.3   1 <1>  -0.2860 
  2 C       -1.2280    -0.7800     0.3140 C.2   1 <1>   0.2420 
  3 C        1.5580    -0.9370     0.9180 C.3   1 <1>   0.1310 
  4 N       -1.2750    -1.9260     0.8940 N.2   1 <1>  -0.3380 
  5 N       -2.4140    -0.3370    -0.0880 N.pl3 1 <1>   0.0480 
  6 C        2.9580    -0.3530     0.8080 C.2   1 <1>   0.5690 
  7 N       -2.5590    -2.2790     0.8930 N.2   1 <1>  -0.3380 
  8 C       -3.2360    -1.3310     0.3040 C.2   1 <1>   0.1330 
  9 C       -2.7490     0.9580    -0.7250 C.3   1 <1>   0.0960 
 10 O        3.7720    -0.6770     1.6380 O.2   1 <1>  -0.5700 
 11 N        3.2470     0.4990    -0.2160 N.am  1 <1>  -0.7300 
 12 C       -4.6640    -1.3330     0.1220 C.ar  1 <1>   0.0530 
 13 C       -3.2160     1.9710     0.3240 C.3   1 <1>  -0.2400 
 14 C        4.5290     1.1750    -0.5110 C.3   1 <1>   0.2200 
 15 C       -5.5340    -1.3770     1.1990 C.ar  1 <1>  -0.1500 
 16 C       -5.2710    -1.2960    -1.1240 C.ar  1 <1>  -0.1500 
 17 C        5.6350     0.1320    -0.7360 C.3   1 <1>  -0.1600 
 18 C        4.8160     2.2110     0.5840 C.3   1 <1>  -0.1600 
 19 C       -6.9000    -1.3560     0.9920 C.ar  1 <1>   0.1600 
 20 C       -6.6490    -1.2790    -1.2260 C.ar  1 <1>   0.1600 
 21 C        6.8580     0.7200    -1.4590 C.3   1 <1>  -0.1600 
 22 C        6.1180     3.0080     0.3930 C.3   1 <1>  -0.1600 
 23 N       -7.4800    -1.2980    -0.1960 N.ar  1 <1>  -0.6200 
 24 C        7.9010     1.3740    -0.5390 C.3   1 <1>  -0.1600 
 25 C        7.3670     2.1590     0.6700 C.3   1 <1>  -0.1600 
 26 H        1.5190    -1.9020     0.4510 H     1 <1>   0.0800 
 27 H        1.2690    -1.0210     1.9500 H     1 <1>   0.0800 
 28 H       -3.5220     0.8030    -1.4550 H     1 <1>   0.0800 
 29 H       -1.8810     1.3350    -1.2360 H     1 <1>   0.0800 
 30 H        2.4770     0.7650    -0.8330 H     1 <1>   0.3700 
 31 H       -4.1040     1.6190     0.8200 H     1 <1>   0.0800 
 32 H       -3.4440     2.9080    -0.1510 H     1 <1>   0.0800 
 33 H       -2.4430     2.1400     1.0530 H     1 <1>   0.0800 
 34 H        4.3950     1.7090    -1.4360 H     1 <1>   0.0800 
 35 H       -5.1390    -1.4310     2.1970 H     1 <1>   0.1500 
 36 H       -4.6710    -1.2910    -2.0150 H     1 <1>   0.1500 
 37 H        5.2320    -0.6470    -1.3590 H     1 <1>   0.0800 
 38 H        5.9320    -0.3160     0.1970 H     1 <1>   0.0800 
 39 H        4.8460     1.7220     1.5420 H     1 <1>   0.0800 
 40 H        3.9980     2.9090     0.6030 H     1 <1>   0.0800 
 41 H       -7.5530    -1.3880     1.8480 H     1 <1>   0.1500 
 42 H       -7.0970    -1.2490    -2.2050 H     1 <1>   0.1500 
 43 H        6.5300     1.4360    -2.1920 H     1 <1>   0.0800 
 44 H        7.3490    -0.0710    -1.9990 H     1 <1>   0.0800 
 45 H        6.1080     3.8170     1.1020 H     1 <1>   0.0800 
 46 H        6.1630     3.4450    -0.5900 H     1 <1>   0.0800 
 47 H        8.5050     2.0320    -1.1390 H     1 <1>   0.0800 
 48 H        8.5560     0.6060    -0.1640 H     1 <1>   0.0800 
 49 H        7.1620     1.4740     1.4760 H     1 <1>   0.0800 
 50 H        8.1550     2.8070     1.0120 H     1 <1>   0.0800 
@<TRIPOS>BOND
  1   1   2  1   
  2   1   3  1   
  3   2   4  2   
  4   2   5  1   
  5   3   6  1   
  6   3  26  1   
  7   3  27  1   
  8   4   7  1   
  9   5   8  1   
 10   5   9  1   
 11   6  10  2   
 12   6  11  am  
 13   7   8  2   
 14   8  12  1   
 15   9  13  1   
 16   9  28  1   
 17   9  29  1   
 18  11  14  1   
 19  11  30  1   
 20  12  15  ar  
 21  12  16  ar  
 22  13  31  1   
 23  13  32  1   
 24  13  33  1   
 25  14  17  1   
 26  14  18  1   
 27  14  34  1   
 28  15  19  ar  
 29  15  35  1   
 30  16  20  ar  
 31  16  36  1   
 32  17  21  1   
 33  17  37  1   
 34  17  38  1   
 35  18  22  1   
 36  18  39  1   
 37  18  40  1   
 38  19  23  ar  
 39  19  41  1   
 40  20  23  ar  
 41  20  42  1   
 42  21  24  1   
 43  21  43  1   
 44  21  44  1   
 45  22  25  1   
 46  22  45  1   
 47  22  46  1   
 48  24  25  1   
 49  24  47  1   
 50  24  48  1   
 51  25  49  1   
 52  25  50  1   
@<TRIPOS>SUBSTRUCTURE
  1 ****   1 GROUP 4 **** **** 0

# MOE 2024.06 (io_trps.svl 2023.06)
