@<TRIPOS>MOLECULE
NONAME
34 34 1 0 0 
SMALL
USER_CHARGES


@<TRIPOS>ATOM
  1 O        0.2680    -0.7210    -0.2260 O.2   1 <1>  -0.5700 
  2 C        0.0590    -1.5790     0.6090 C.2   1 <1>   0.6160 
  3 N        1.0930    -2.0040     1.3900 N.am  1 <1>  -0.7300 
  4 C       -1.2450    -2.1530     0.7760 C.2   1 <1>  -0.1360 
  5 C        2.4690    -1.4430     1.3550 C.3   1 <1>   0.1400 
  6 C       -2.3640    -1.8490     0.0770 C.2   1 <1>  -0.1780 
  7 C        3.2270    -1.9470     0.1270 C.3   1 <1>   0.1200 
  8 C       -3.6920    -2.3940     0.2050 C.ar  1 <1>   0.0280 
  9 O        4.5670    -1.5920     0.2580 O.3   1 <1>  -0.5600 
 10 C       -4.7120    -1.9330    -0.6270 C.ar  1 <1>  -0.1500 
 11 C       -4.0230    -3.3810     1.1340 C.ar  1 <1>  -0.1500 
 12 C        5.3440    -1.9170    -0.8490 C.3   1 <1>   0.0400 
 13 C       -6.0010    -2.4260    -0.5410 C.ar  1 <1>  -0.1500 
 14 C       -5.3090    -3.8800     1.2260 C.ar  1 <1>  -0.1500 
 15 C       -6.3100    -3.4100     0.3920 C.ar  1 <1>   0.0830 
 16 O       -7.5410    -3.9490     0.5450 O.3   1 <1>  -0.3620 
 17 C       -8.6310    -3.5430    -0.2520 C.3   1 <1>   0.0400 
 18 H        0.9310    -2.7330     2.0840 H     1 <1>   0.3700 
 19 H       -1.2810    -2.8940     1.5480 H     1 <1>   0.1500 
 20 H        2.4160    -0.3680     1.3190 H     1 <1>   0.0800 
 21 H        2.9940    -1.7380     2.2470 H     1 <1>   0.0800 
 22 H       -2.2770    -1.0960    -0.6890 H     1 <1>   0.1500 
 23 H        2.8280    -1.4920    -0.7640 H     1 <1>   0.0800 
 24 H        3.1650    -3.0190     0.0600 H     1 <1>   0.0800 
 25 H       -4.4920    -1.1720    -1.3550 H     1 <1>   0.1500 
 26 H       -3.2760    -3.7700     1.7980 H     1 <1>   0.1500 
 27 H        6.3560    -1.6100    -0.6490 H     1 <1>   0.0800 
 28 H        4.9700    -1.3920    -1.7110 H     1 <1>   0.0800 
 29 H        5.3110    -2.9800    -1.0080 H     1 <1>   0.0800 
 30 H       -6.7490    -2.0370    -1.2050 H     1 <1>   0.1500 
 31 H       -5.5490    -4.6400     1.9470 H     1 <1>   0.1500 
 32 H       -9.4950    -4.1070     0.0510 H     1 <1>   0.0800 
 33 H       -8.4040    -3.7470    -1.2830 H     1 <1>   0.0800 
 34 H       -8.8060    -2.4930    -0.0950 H     1 <1>   0.0800 
@<TRIPOS>BOND
  1   1   2  2   
  2   2   3  am  
  3   2   4  1   
  4   3   5  1   
  5   3  18  1   
  6   4   6  2   
  7   4  19  1   
  8   5   7  1   
  9   5  20  1   
 10   5  21  1   
 11   6   8  1   
 12   6  22  1   
 13   7   9  1   
 14   7  23  1   
 15   7  24  1   
 16   8  10  ar  
 17   8  11  ar  
 18   9  12  1   
 19  10  13  ar  
 20  10  25  1   
 21  11  14  ar  
 22  11  26  1   
 23  12  27  1   
 24  12  28  1   
 25  12  29  1   
 26  13  15  ar  
 27  13  30  1   
 28  14  15  ar  
 29  14  31  1   
 30  15  16  1   
 31  16  17  1   
 32  17  32  1   
 33  17  33  1   
 34  17  34  1   
@<TRIPOS>SUBSTRUCTURE
  1 ****   6 GROUP 4 **** **** 0

# MOE 2024.06 (io_trps.svl 2023.06)
