@<TRIPOS>MOLECULE
NONAME
41 42 1 0 0 
SMALL
USER_CHARGES


@<TRIPOS>ATOM
  1 S       -0.1520    -0.7560     0.5880 S.3   1 <1>  -0.3710 
  2 C       -0.9700    -0.6510    -0.9650 C.2   1 <1>   0.7320 
  3 C        1.3540    -1.4660    -0.1670 C.3   1 <1>   0.0700 
  4 S       -2.6340     0.0090    -0.9760 S.3   1 <1>  -0.3710 
  5 N       -0.3280    -1.0470    -1.9660 N.2   1 <1>  -0.6960 
  6 C        1.0300    -1.5470    -1.6750 C.3   1 <1>   0.0860 
  7 C       -3.0570     0.4710     0.7800 C.3   1 <1>   0.2110 
  8 C       -4.5750     0.3890     0.9740 C.2   1 <1>   0.5690 
  9 C       -2.4840     1.8810     1.0260 C.3   1 <1>  -0.1600 
 10 O       -4.9980     0.0470     2.0530 O.2   1 <1>  -0.5700 
 11 N       -5.3870     0.6980    -0.0860 N.am  1 <1>  -0.5470 
 12 C       -2.6240     2.3290     2.4880 C.3   1 <1>  -0.2400 
 13 C       -6.7860     0.7580    -0.1920 C.ar  1 <1>   0.1170 
 14 C       -7.3700     0.6150    -1.4450 C.ar  1 <1>  -0.1500 
 15 C       -7.6180     0.9730     0.9020 C.ar  1 <1>  -0.1500 
 16 C       -8.7440     0.6720    -1.6000 C.ar  1 <1>  -0.1500 
 17 C       -8.9910     1.0310     0.7480 C.ar  1 <1>  -0.1500 
 18 C       -9.5720     0.8730    -0.5040 C.ar  1 <1>   0.1170 
 19 N      -10.9600     0.9250    -0.6800 N.am  1 <1>  -0.5470 
 20 C      -11.9510     0.2300    -0.0680 C.2   1 <1>   0.5690 
 21 O      -13.1000     0.4450    -0.3550 O.2   1 <1>  -0.5700 
 22 C      -11.6410    -0.8310     0.9620 C.3   1 <1>  -0.1790 
 23 H        1.5220    -2.4360     0.2660 H     1 <1>   0.0800 
 24 H        2.1780    -0.8060     0.0380 H     1 <1>   0.0800 
 25 H        1.1050    -2.5680    -2.0080 H     1 <1>   0.0800 
 26 H        1.7430    -0.9630    -2.2310 H     1 <1>   0.0800 
 27 H       -2.6000    -0.2520     1.4290 H     1 <1>   0.0800 
 28 H       -2.9900     2.5880     0.3910 H     1 <1>   0.0800 
 29 H       -1.4410     1.8920     0.7670 H     1 <1>   0.0800 
 30 H       -4.8810     0.8180    -0.9660 H     1 <1>   0.3700 
 31 H       -3.6600     2.3910     2.7730 H     1 <1>   0.0800 
 32 H       -2.1790     3.2990     2.6200 H     1 <1>   0.0800 
 33 H       -2.1280     1.6340     3.1430 H     1 <1>   0.0800 
 34 H       -6.7480     0.4510    -2.3060 H     1 <1>   0.1500 
 35 H       -7.1940     1.1000     1.8810 H     1 <1>   0.1500 
 36 H       -9.1790     0.5540    -2.5760 H     1 <1>   0.1500 
 37 H       -9.6140     1.2070     1.6060 H     1 <1>   0.1500 
 38 H      -11.3070     1.5400    -1.4170 H     1 <1>   0.3700 
 39 H      -10.7660    -1.3840     0.6770 H     1 <1>   0.0800 
 40 H      -12.4690    -1.5100     1.0380 H     1 <1>   0.0800 
 41 H      -11.4810    -0.3700     1.9180 H     1 <1>   0.0800 
@<TRIPOS>BOND
  1   1   2  1   
  2   1   3  1   
  3   2   4  1   
  4   2   5  2   
  5   3   6  1   
  6   3  23  1   
  7   3  24  1   
  8   4   7  1   
  9   5   6  1   
 10   6  25  1   
 11   6  26  1   
 12   7   8  1   
 13   7   9  1   
 14   7  27  1   
 15   8  10  2   
 16   8  11  am  
 17   9  12  1   
 18   9  28  1   
 19   9  29  1   
 20  11  13  1   
 21  11  30  1   
 22  12  31  1   
 23  12  32  1   
 24  12  33  1   
 25  13  14  ar  
 26  13  15  ar  
 27  14  16  ar  
 28  14  34  1   
 29  15  17  ar  
 30  15  35  1   
 31  16  18  ar  
 32  16  36  1   
 33  17  18  ar  
 34  17  37  1   
 35  18  19  1   
 36  19  20  am  
 37  19  38  1   
 38  20  21  2   
 39  20  22  1   
 40  22  39  1   
 41  22  40  1   
 42  22  41  1   
@<TRIPOS>SUBSTRUCTURE
  1 ****  11 GROUP 4 **** **** 0

# MOE 2024.06 (io_trps.svl 2023.06)
