@<TRIPOS>MOLECULE
NONAME
43 44 1 0 0 
SMALL
USER_CHARGES


@<TRIPOS>ATOM
  1 O       -2.2010    -2.1190     0.9470 O.2   1 <1>  -0.5700 
  2 C       -1.9590    -1.2350     0.1490 C.2   1 <1>   0.7800 
  3 O       -1.0760    -1.4020    -0.8340 O.3   1 <1>  -0.4300 
  4 N       -2.5400    -0.0230     0.2000 N.am  1 <1>  -0.7300 
  5 C       -0.2930    -2.5450    -1.0940 C.3   1 <1>   0.2800 
  6 C       -3.3310     0.4690     1.3330 C.3   1 <1>   0.3640 
  7 C        0.6390    -2.8300     0.0900 C.3   1 <1>  -0.2400 
  8 C        0.5470    -2.1810    -2.3190 C.3   1 <1>  -0.2400 
  9 C       -1.1940    -3.7380    -1.4340 C.3   1 <1>  -0.2400 
 10 C       -4.7160    -0.1940     1.3990 C.ar  1 <1>  -0.1440 
 11 C       -3.4390     1.9870     1.2880 C.3   1 <1>  -0.2660 
 12 C       -5.6550    -0.1750     0.3260 C.ar  1 <1>   0.0000 
 13 C       -5.0380    -0.8210     2.5760 C.ar  1 <1>  -0.1500 
 14 C       -2.0710     2.5850     1.2340 C.2   1 <1>   0.9060 
 15 C       -6.9180    -0.7840     0.5250 C.ar  1 <1>   0.0000 
 16 C       -5.4230     0.4090    -0.9440 C.ar  1 <1>  -0.1500 
 17 C       -6.2800    -1.4330     2.7610 C.ar  1 <1>  -0.1500 
 18 O       -1.4730     2.5600     0.1530 O.co2 1 <1>  -0.9000 
 19 O       -1.5840     3.0450     2.2680 O.co2 1 <1>  -0.9000 
 20 C       -7.2000    -1.4090     1.7550 C.ar  1 <1>  -0.1500 
 21 C       -7.8770    -0.7620    -0.5090 C.ar  1 <1>  -0.1500 
 22 C       -6.3680     0.4150    -1.9320 C.ar  1 <1>  -0.1500 
 23 C       -7.6150    -0.1750    -1.7130 C.ar  1 <1>  -0.1500 
 24 H       -2.0070     0.7490    -0.2370 H     1 <1>   0.3700 
 25 H       -2.7830     0.2200     2.2280 H     1 <1>   0.0800 
 26 H        1.1930    -1.9450     0.3460 H     1 <1>   0.0800 
 27 H        1.3330    -3.6090    -0.1670 H     1 <1>   0.0800 
 28 H        0.0830    -3.1580     0.9480 H     1 <1>   0.0800 
 29 H       -0.0940    -1.9510    -3.1520 H     1 <1>   0.0800 
 30 H        1.1860    -2.9990    -2.5940 H     1 <1>   0.0800 
 31 H        1.1600    -1.3240    -2.1050 H     1 <1>   0.0800 
 32 H       -1.8830    -3.4730    -2.2150 H     1 <1>   0.0800 
 33 H       -1.7480    -4.0610    -0.5720 H     1 <1>   0.0800 
 34 H       -0.5970    -4.5660    -1.7680 H     1 <1>   0.0800 
 35 H       -3.9290     2.3370     2.1750 H     1 <1>   0.0800 
 36 H       -3.9960     2.3260     0.4400 H     1 <1>   0.0800 
 37 H       -4.3350    -0.8560     3.3900 H     1 <1>   0.1500 
 38 H       -4.4720     0.8600    -1.1480 H     1 <1>   0.1500 
 39 H       -6.4910    -1.9150     3.6980 H     1 <1>   0.1500 
 40 H       -8.1590    -1.8740     1.8880 H     1 <1>   0.1500 
 41 H       -8.8310    -1.2220    -0.3300 H     1 <1>   0.1500 
 42 H       -6.1600     0.8690    -2.8850 H     1 <1>   0.1500 
 43 H       -8.3490    -0.1600    -2.4990 H     1 <1>   0.1500 
@<TRIPOS>BOND
  1   1   2  2   
  2   2   3  1   
  3   2   4  am  
  4   3   5  1   
  5   4   6  1   
  6   4  24  1   
  7   5   7  1   
  8   5   8  1   
  9   5   9  1   
 10   6  10  1   
 11   6  11  1   
 12   6  25  1   
 13   7  26  1   
 14   7  27  1   
 15   7  28  1   
 16   8  29  1   
 17   8  30  1   
 18   8  31  1   
 19   9  32  1   
 20   9  33  1   
 21   9  34  1   
 22  10  12  ar  
 23  10  13  ar  
 24  11  14  1   
 25  11  35  1   
 26  11  36  1   
 27  12  15  ar  
 28  12  16  ar  
 29  13  17  ar  
 30  13  37  1   
 31  14  18  ar  
 32  14  19  ar  
 33  15  20  ar  
 34  15  21  ar  
 35  16  22  ar  
 36  16  38  1   
 37  17  20  ar  
 38  17  39  1   
 39  20  40  1   
 40  21  23  ar  
 41  21  41  1   
 42  22  23  ar  
 43  22  42  1   
 44  23  43  1   
@<TRIPOS>SUBSTRUCTURE
  1 ****   4 GROUP 4 **** **** 0

# MOE 2024.06 (io_trps.svl 2023.06)
