@<TRIPOS>MOLECULE
NONAME
38 40 1 0 0 
SMALL
USER_CHARGES


@<TRIPOS>ATOM
  1 S        0.2080     0.6080     1.3610 S.o2  1 <1>   1.4470 
  2 O       -0.1930    -0.2470     2.4570 O.2   1 <1>  -0.6500 
  3 O        1.1360     1.6910     1.6100 O.2   1 <1>  -0.6500 
  4 N        0.9240    -0.3930     0.1960 N.am  1 <1>  -0.8490 
  5 C       -1.2570     1.2530     0.5060 C.ar  1 <1>  -0.0090 
  6 C        0.1490    -1.6210    -0.0680 C.3   1 <1>   0.1960 
  7 C        2.2950    -0.7610     0.5810 C.3   1 <1>   0.1960 
  8 C       -2.4480     0.5420     0.5190 C.ar  1 <1>  -0.1500 
  9 C       -1.2150     2.4380    -0.2190 C.ar  1 <1>  -0.1500 
 10 C        0.8520    -2.5110    -1.1080 C.3   1 <1>   0.1200 
 11 C        2.9450    -1.6750    -0.4740 C.3   1 <1>   0.1200 
 12 C       -3.5690     0.9590    -0.1890 C.ar  1 <1>   0.1170 
 13 C       -2.3260     2.8920    -0.9080 C.ar  1 <1>  -0.1500 
 14 O        2.1570    -2.8100    -0.6980 O.3   1 <1>  -0.5600 
 15 N       -4.7370     0.1650    -0.2050 N.am  1 <1>  -0.2370 
 16 C       -3.4950     2.1540    -0.8950 C.ar  1 <1>  -0.1500 
 17 C       -6.0160     0.6230    -0.0270 C.2   1 <1>   0.5690 
 18 C       -4.7520    -1.1880    -0.4210 C.2   1 <1>   0.5690 
 19 O       -6.3510     1.7620     0.1650 O.2   1 <1>  -0.5700 
 20 C       -7.0230    -0.5020    -0.1080 C.3   1 <1>  -0.0990 
 21 O       -3.7940    -1.8920    -0.6200 O.2   1 <1>  -0.5700 
 22 C       -6.1580    -1.7410    -0.3850 C.3   1 <1>  -0.0990 
 23 H       -0.8260    -1.3680    -0.4450 H     1 <1>   0.0800 
 24 H        0.0200    -2.1870     0.8400 H     1 <1>   0.0800 
 25 H        2.2890    -1.2680     1.5320 H     1 <1>   0.0800 
 26 H        2.8930     0.1290     0.6830 H     1 <1>   0.0800 
 27 H       -2.4990    -0.3710     1.0870 H     1 <1>   0.1500 
 28 H       -0.3020     3.0100    -0.2430 H     1 <1>   0.1500 
 29 H        0.8940    -2.0150    -2.0620 H     1 <1>   0.0800 
 30 H        0.3220    -3.4400    -1.2210 H     1 <1>   0.0800 
 31 H        3.9100    -2.0060    -0.1360 H     1 <1>   0.0800 
 32 H        3.0630    -1.1480    -1.4050 H     1 <1>   0.0800 
 33 H       -2.2790     3.8170    -1.4570 H     1 <1>   0.1500 
 34 H       -4.3540     2.5100    -1.4380 H     1 <1>   0.1500 
 35 H       -7.7180    -0.3160    -0.9070 H     1 <1>   0.0800 
 36 H       -7.5500    -0.5870     0.8250 H     1 <1>   0.0800 
 37 H       -6.2460    -2.4690     0.4010 H     1 <1>   0.0800 
 38 H       -6.4000    -2.1890    -1.3320 H     1 <1>   0.0800 
@<TRIPOS>BOND
  1   1   2  2   
  2   1   3  2   
  3   1   4  am  
  4   1   5  1   
  5   4   6  1   
  6   4   7  1   
  7   5   8  ar  
  8   5   9  ar  
  9   6  10  1   
 10   6  23  1   
 11   6  24  1   
 12   7  11  1   
 13   7  25  1   
 14   7  26  1   
 15   8  12  ar  
 16   8  27  1   
 17   9  13  ar  
 18   9  28  1   
 19  10  14  1   
 20  10  29  1   
 21  10  30  1   
 22  11  14  1   
 23  11  31  1   
 24  11  32  1   
 25  12  15  1   
 26  12  16  ar  
 27  13  16  ar  
 28  13  33  1   
 29  15  17  am  
 30  15  18  am  
 31  16  34  1   
 32  17  19  2   
 33  17  20  1   
 34  18  21  2   
 35  18  22  1   
 36  20  22  1   
 37  20  35  1   
 38  20  36  1   
 39  22  37  1   
 40  22  38  1   
@<TRIPOS>SUBSTRUCTURE
  1 ****   8 GROUP 4 **** **** 0

# MOE 2024.06 (io_trps.svl 2023.06)
