@<TRIPOS>MOLECULE
NONAME
34 34 1 0 0 
SMALL
USER_CHARGES


@<TRIPOS>ATOM
  1 CL       1.4020    -2.3500     3.2180 Cl    1 <1>  -0.1770 
  2 C        2.3700    -2.2400     1.7810 C.ar  1 <1>   0.7970 
  3 N        2.1210    -3.1310     0.8680 N.ar  1 <1>  -0.6200 
  4 N        3.2500    -1.2850     1.7630 N.ar  1 <1>  -0.6200 
  5 C        2.8850    -2.9860    -0.1810 C.ar  1 <1>   0.7200 
  6 C        3.9400    -1.2690     0.6570 C.ar  1 <1>   0.7200 
  7 N        3.8090    -2.0900    -0.3500 N.ar  1 <1>  -0.6200 
  8 N        2.7360    -3.8520    -1.2030 N.pl3 1 <1>  -0.8690 
  9 N        4.8740    -0.2960     0.5930 N.pl3 1 <1>  -0.8690 
 10 C        1.7030    -4.9370    -1.3410 C.3   1 <1>   0.2700 
 11 C        5.8590    -0.0620    -0.4840 C.3   1 <1>   0.2090 
 12 C        2.2690    -6.3600    -1.4730 C.2   1 <1>   0.6590 
 13 C        7.2570    -0.3560     0.0580 C.3   1 <1>  -0.1600 
 14 O        2.1970    -6.9390    -2.5250 O.2   1 <1>  -0.5700 
 15 O        2.8160    -6.9670    -0.4220 O.3   1 <1>  -0.4300 
 16 C        8.3310    -0.1480    -1.0160 C.3   1 <1>  -0.2400 
 17 C        3.1170    -6.3440     0.8060 C.3   1 <1>   0.1200 
 18 C        3.6950    -7.4020     1.7380 C.3   1 <1>  -0.2400 
 19 H        3.3610    -3.6990    -1.9970 H     1 <1>   0.4000 
 20 H        4.9480     0.2880     1.4250 H     1 <1>   0.4000 
 21 H        1.1220    -4.7350    -2.2230 H     1 <1>   0.0800 
 22 H        1.0230    -4.9190    -0.5090 H     1 <1>   0.0800 
 23 H        5.7930     0.9630    -0.8060 H     1 <1>   0.0800 
 24 H        5.6530    -0.6950    -1.3310 H     1 <1>   0.0800 
 25 H        7.2930    -1.3770     0.3980 H     1 <1>   0.0800 
 26 H        7.4610     0.2910     0.8930 H     1 <1>   0.0800 
 27 H        8.1590    -0.8020    -1.8520 H     1 <1>   0.0800 
 28 H        9.3030    -0.3630    -0.6090 H     1 <1>   0.0800 
 29 H        8.3250     0.8710    -1.3640 H     1 <1>   0.0800 
 30 H        2.2140    -5.9290     1.2200 H     1 <1>   0.0800 
 31 H        3.8380    -5.5650     0.6270 H     1 <1>   0.0800 
 32 H        2.9770    -8.1860     1.9020 H     1 <1>   0.0800 
 33 H        3.9390    -6.9570     2.6860 H     1 <1>   0.0800 
 34 H        4.5910    -7.8200     1.3140 H     1 <1>   0.0800 
@<TRIPOS>BOND
  1   1   2  1   
  2   2   3  ar  
  3   2   4  ar  
  4   3   5  ar  
  5   4   6  ar  
  6   5   7  ar  
  7   5   8  1   
  8   6   7  ar  
  9   6   9  1   
 10   8  10  1   
 11   8  19  1   
 12   9  11  1   
 13   9  20  1   
 14  10  12  1   
 15  10  21  1   
 16  10  22  1   
 17  11  13  1   
 18  11  23  1   
 19  11  24  1   
 20  12  14  2   
 21  12  15  1   
 22  13  16  1   
 23  13  25  1   
 24  13  26  1   
 25  15  17  1   
 26  16  27  1   
 27  16  28  1   
 28  16  29  1   
 29  17  18  1   
 30  17  30  1   
 31  17  31  1   
 32  18  32  1   
 33  18  33  1   
 34  18  34  1   
@<TRIPOS>SUBSTRUCTURE
  1 ****   5 GROUP 4 **** **** 0

# MOE 2024.06 (io_trps.svl 2023.06)
