@<TRIPOS>MOLECULE
NONAME
47 50 1 0 0 
SMALL
USER_CHARGES


@<TRIPOS>ATOM
  1 O       -0.5920    -1.7770    -1.1410 O.2   1 <1>  -0.5700 
  2 C       -0.5700    -2.8410    -0.5580 C.2   1 <1>   0.6340 
  3 O        0.6220    -3.3500    -0.2200 O.3   1 <1>  -0.4300 
  4 C       -1.7640    -3.5880    -0.2100 C.ar  1 <1>   0.0860 
  5 C        1.8180    -2.6670    -0.5330 C.3   1 <1>   0.1200 
  6 C       -3.0310    -3.1000    -0.5580 C.ar  1 <1>  -0.1500 
  7 C       -1.7010    -4.8130     0.4780 C.ar  1 <1>  -0.1500 
  8 C        3.0220    -3.4970    -0.0570 C.3   1 <1>  -0.0800 
  9 C       -4.1530    -3.8250    -0.2190 C.ar  1 <1>   0.0830 
 10 C       -2.8400    -5.5330     0.8130 C.ar  1 <1>  -0.1500 
 11 C        4.3350    -2.7280    -0.3420 C.3   1 <1>   0.4230 
 12 C        3.0390    -4.8840    -0.7290 C.3   1 <1>  -0.1600 
 13 O       -5.4350    -3.5310    -0.4590 O.3   1 <1>  -0.3630 
 14 C       -4.0640    -5.0110     0.4490 C.ar  1 <1>   0.0830 
 15 N        5.5350    -3.6420    -0.4640 N.4   1 <1>  -0.9590 
 16 C        4.6060    -1.6220     0.6900 C.3   1 <1>  -0.1600 
 17 C        4.2310    -5.7270    -0.2400 C.3   1 <1>  -0.1600 
 18 C       -6.2110    -4.5950     0.0910 C.3   1 <1>   0.4000 
 19 O       -5.2800    -5.5140     0.6580 O.3   1 <1>  -0.3620 
 20 C        5.3890    -4.8970     0.3220 C.3   1 <1>   0.3430 
 21 C        6.8560    -3.0020    -0.1570 C.3   1 <1>   0.3430 
 22 C        5.8000    -0.7420     0.2780 C.3   1 <1>  -0.1600 
 23 C        6.8430    -1.5230    -0.5390 C.3   1 <1>  -0.1600 
 24 H        1.7800    -1.7080    -0.0460 H     1 <1>   0.0800 
 25 H        1.8470    -2.5200    -1.6000 H     1 <1>   0.0800 
 26 H       -3.1370    -2.1680    -1.0840 H     1 <1>   0.1500 
 27 H       -0.7420    -5.2130     0.7590 H     1 <1>   0.1500 
 28 H        2.9220    -3.6260     1.0080 H     1 <1>   0.0800 
 29 H       -2.7880    -6.4700     1.3390 H     1 <1>   0.1500 
 30 H        4.2130    -2.2380    -1.2950 H     1 <1>   0.0800 
 31 H        3.1040    -4.7590    -1.7970 H     1 <1>   0.0800 
 32 H        2.1250    -5.4170    -0.5250 H     1 <1>   0.0800 
 33 H        5.5590    -3.9270    -1.4510 H     1 <1>   0.4500 
 34 H        4.7970    -2.0740     1.6480 H     1 <1>   0.0800 
 35 H        3.7430    -0.9910     0.8040 H     1 <1>   0.0800 
 36 H        4.5870    -6.3450    -1.0460 H     1 <1>   0.0800 
 37 H        3.8990    -6.3930     0.5370 H     1 <1>   0.0800 
 38 H       -6.7660    -5.0800    -0.6930 H     1 <1>   0.0800 
 39 H       -6.8560    -4.2120     0.8610 H     1 <1>   0.0800 
 40 H        5.1850    -4.6480     1.3510 H     1 <1>   0.0800 
 41 H        6.2970    -5.4770     0.2870 H     1 <1>   0.0800 
 42 H        7.6460    -3.5140    -0.6840 H     1 <1>   0.0800 
 43 H        7.0560    -3.0760     0.9010 H     1 <1>   0.0800 
 44 H        6.2570    -0.3400     1.1670 H     1 <1>   0.0800 
 45 H        5.4560     0.0940    -0.3090 H     1 <1>   0.0800 
 46 H        6.6380    -1.4320    -1.5920 H     1 <1>   0.0800 
 47 H        7.8180    -1.1000    -0.3670 H     1 <1>   0.0800 
@<TRIPOS>BOND
  1   1   2  2   
  2   2   3  1   
  3   2   4  1   
  4   3   5  1   
  5   4   6  ar  
  6   4   7  ar  
  7   5   8  1   
  8   5  24  1   
  9   5  25  1   
 10   6   9  ar  
 11   6  26  1   
 12   7  10  ar  
 13   7  27  1   
 14   8  11  1   
 15   8  12  1   
 16   8  28  1   
 17   9  13  1   
 18   9  14  ar  
 19  10  14  ar  
 20  10  29  1   
 21  11  15  1   
 22  11  16  1   
 23  11  30  1   
 24  12  17  1   
 25  12  31  1   
 26  12  32  1   
 27  13  18  1   
 28  14  19  1   
 29  15  20  1   
 30  15  21  1   
 31  15  33  1   
 32  16  22  1   
 33  16  34  1   
 34  16  35  1   
 35  17  20  1   
 36  17  36  1   
 37  17  37  1   
 38  18  19  1   
 39  18  38  1   
 40  18  39  1   
 41  20  40  1   
 42  20  41  1   
 43  21  23  1   
 44  21  42  1   
 45  21  43  1   
 46  22  23  1   
 47  22  44  1   
 48  22  45  1   
 49  23  46  1   
 50  23  47  1   
@<TRIPOS>SUBSTRUCTURE
  1 ****   3 GROUP 4 **** **** 0

# MOE 2024.06 (io_trps.svl 2023.06)
