@<TRIPOS>MOLECULE
NONAME
40 41 1 0 0 
SMALL
USER_CHARGES


@<TRIPOS>ATOM
  1 S       -0.0070     0.0860     0.0010 S.o2  1 <1>   1.3330 
  2 O        1.0980    -0.7970    -0.2910 O.2   1 <1>  -0.6500 
  3 O       -0.0960     0.7290     1.2910 O.2   1 <1>  -0.6500 
  4 N       -1.4480    -0.7690    -0.2540 N.am  1 <1>  -0.8490 
  5 C       -0.0490     1.3270    -1.2760 C.3   1 <1>  -0.1350 
  6 C       -2.6230    -0.0600     0.2830 C.3   1 <1>   0.1960 
  7 C       -1.3640    -2.1190     0.3160 C.3   1 <1>   0.1960 
  8 C       -3.9160    -0.7810    -0.1260 C.3   1 <1>  -0.0190 
  9 C       -2.6120    -2.9330    -0.0470 C.3   1 <1>  -0.1600 
 10 C       -5.1460    -0.0260     0.3630 C.2   1 <1>   0.5690 
 11 C       -3.9020    -2.2290     0.3960 C.3   1 <1>  -0.1600 
 12 O       -5.0460     0.6960     1.3240 O.2   1 <1>  -0.5700 
 13 N       -6.3150    -0.2230    -0.3210 N.am  1 <1>  -0.5470 
 14 C       -7.5960     0.3250    -0.1480 C.ar  1 <1>   0.1170 
 15 C       -7.8350     1.5020     0.5550 C.ar  1 <1>  -0.1500 
 16 C       -8.6820    -0.3290    -0.7190 C.ar  1 <1>  -0.1500 
 17 C       -9.1180     2.0040     0.6860 C.ar  1 <1>  -0.1500 
 18 C       -9.9650     0.1720    -0.5910 C.ar  1 <1>  -0.1500 
 19 C      -10.1910     1.3430     0.1120 C.ar  1 <1>  -0.1440 
 20 C      -11.5980     1.8950     0.2580 C.3   1 <1>  -0.0970 
 21 H        0.8470     1.9130    -1.2420 H     1 <1>   0.0800 
 22 H       -0.8900     1.9770    -1.1420 H     1 <1>   0.0800 
 23 H       -0.1180     0.8590    -2.2380 H     1 <1>   0.0800 
 24 H       -2.6500     0.9460    -0.0970 H     1 <1>   0.0800 
 25 H       -2.5580    -0.0040     1.3590 H     1 <1>   0.0800 
 26 H       -1.2580    -2.0560     1.3880 H     1 <1>   0.0800 
 27 H       -0.4990    -2.6300    -0.0750 H     1 <1>   0.0800 
 28 H       -3.9470    -0.7950    -1.2010 H     1 <1>   0.0800 
 29 H       -2.5500    -3.9010     0.4190 H     1 <1>   0.0800 
 30 H       -2.6240    -3.0840    -1.1120 H     1 <1>   0.0800 
 31 H       -4.7570    -2.7700     0.0310 H     1 <1>   0.0800 
 32 H       -3.9490    -2.2180     1.4720 H     1 <1>   0.0800 
 33 H       -6.2630    -0.9190    -1.0620 H     1 <1>   0.3700 
 34 H       -7.0220     2.0380     1.0060 H     1 <1>   0.1500 
 35 H       -8.5300    -1.2400    -1.2670 H     1 <1>   0.1500 
 36 H       -9.2740     2.9130     1.2380 H     1 <1>   0.1500 
 37 H      -10.7890    -0.3540    -1.0400 H     1 <1>   0.1500 
 38 H      -11.5750     2.9690     0.3140 H     1 <1>   0.0800 
 39 H      -12.0470     1.5090     1.1550 H     1 <1>   0.0800 
 40 H      -12.2030     1.6130    -0.5840 H     1 <1>   0.0800 
@<TRIPOS>BOND
  1   1   2  2   
  2   1   3  2   
  3   1   4  am  
  4   1   5  1   
  5   4   6  1   
  6   4   7  1   
  7   5  21  1   
  8   5  22  1   
  9   5  23  1   
 10   6   8  1   
 11   6  24  1   
 12   6  25  1   
 13   7   9  1   
 14   7  26  1   
 15   7  27  1   
 16   8  10  1   
 17   8  11  1   
 18   8  28  1   
 19   9  11  1   
 20   9  29  1   
 21   9  30  1   
 22  10  12  2   
 23  10  13  am  
 24  11  31  1   
 25  11  32  1   
 26  13  14  1   
 27  13  33  1   
 28  14  15  ar  
 29  14  16  ar  
 30  15  17  ar  
 31  15  34  1   
 32  16  18  ar  
 33  16  35  1   
 34  17  19  ar  
 35  17  36  1   
 36  18  19  ar  
 37  18  37  1   
 38  19  20  1   
 39  20  38  1   
 40  20  39  1   
 41  20  40  1   
@<TRIPOS>SUBSTRUCTURE
  1 ****  10 GROUP 4 **** **** 0

# MOE 2024.06 (io_trps.svl 2023.06)
