@<TRIPOS>MOLECULE
NONAME
34 35 1 0 0 
SMALL
USER_CHARGES


@<TRIPOS>ATOM
  1 S        0.1670     0.8660     0.6190 S.3   1 <1>  -0.0800 
  2 C        1.6800     0.0890     0.2800 C.2   1 <1>   0.4420 
  3 C       -0.5870    -0.6740     0.4030 C.2   1 <1>   0.2280 
  4 N        1.5350    -1.1650     0.0430 N.2   1 <1>  -0.3380 
  5 N        2.7990     0.8940     0.2950 N.am  1 <1>  -0.4940 
  6 N        0.2380    -1.5950     0.1150 N.2   1 <1>  -0.3380 
  7 C        4.1270     0.5590     0.1850 C.2   1 <1>   0.5440 
  8 O        4.4680    -0.6020     0.2440 O.2   1 <1>  -0.5700 
  9 C        5.1160     1.6090     0.0430 C.ar  1 <1>   0.0860 
 10 C        6.3940     1.4650     0.5870 C.ar  1 <1>  -0.1500 
 11 C        4.8420     2.8020    -0.6340 C.ar  1 <1>  -0.1500 
 12 C        7.3470     2.4610     0.4850 C.ar  1 <1>  -0.1500 
 13 C        5.7890     3.8030    -0.7380 C.ar  1 <1>  -0.1500 
 14 C        7.0460     3.6460    -0.1790 C.ar  1 <1>   0.0830 
 15 O        7.9110     4.6730    -0.3220 O.3   1 <1>  -0.3630 
 16 C        9.2210     4.6240     0.2020 C.3   1 <1>   0.1200 
 17 C        9.9440     5.9450    -0.1040 C.3   1 <1>  -0.0800 
 18 C       11.3970     5.8790     0.3820 C.3   1 <1>  -0.2400 
 19 C        9.2350     7.1450     0.5430 C.3   1 <1>  -0.2400 
 20 H       -1.6530    -0.7390     0.5220 H     1 <1>   0.1500 
 21 H        2.6150     1.8810     0.4480 H     1 <1>   0.3700 
 22 H        6.6370     0.5490     1.1000 H     1 <1>   0.1500 
 23 H        3.8820     2.9500    -1.0960 H     1 <1>   0.1500 
 24 H        8.3140     2.2990     0.9240 H     1 <1>   0.1500 
 25 H        5.5660     4.7170    -1.2600 H     1 <1>   0.1500 
 26 H        9.7350     3.8000    -0.2610 H     1 <1>   0.0800 
 27 H        9.1560     4.4690     1.2650 H     1 <1>   0.0800 
 28 H        9.9540     6.0810    -1.1730 H     1 <1>   0.0800 
 29 H       11.4350     5.7430     1.4490 H     1 <1>   0.0800 
 30 H       11.9140     6.7890     0.1350 H     1 <1>   0.0800 
 31 H       11.9130     5.0610    -0.0890 H     1 <1>   0.0800 
 32 H        9.1980     7.0330     1.6120 H     1 <1>   0.0800 
 33 H        8.2290     7.2290     0.1720 H     1 <1>   0.0800 
 34 H        9.7550     8.0570     0.3090 H     1 <1>   0.0800 
@<TRIPOS>BOND
  1   1   2  1   
  2   1   3  1   
  3   2   4  2   
  4   2   5  1   
  5   3   6  2   
  6   3  20  1   
  7   4   6  1   
  8   5   7  am  
  9   5  21  1   
 10   7   8  2   
 11   7   9  1   
 12   9  10  ar  
 13   9  11  ar  
 14  10  12  ar  
 15  10  22  1   
 16  11  13  ar  
 17  11  23  1   
 18  12  14  ar  
 19  12  24  1   
 20  13  14  ar  
 21  13  25  1   
 22  14  15  1   
 23  15  16  1   
 24  16  17  1   
 25  16  26  1   
 26  16  27  1   
 27  17  18  1   
 28  17  19  1   
 29  17  28  1   
 30  18  29  1   
 31  18  30  1   
 32  18  31  1   
 33  19  32  1   
 34  19  33  1   
 35  19  34  1   
@<TRIPOS>SUBSTRUCTURE
  1 ****   9 GROUP 4 **** **** 0

# MOE 2024.06 (io_trps.svl 2023.06)
