@<TRIPOS>MOLECULE
NONAME
47 49 1 0 0 
SMALL
USER_CHARGES


@<TRIPOS>ATOM
  1 CL       0.3770     0.7170    -1.7880 Cl    1 <1>  -0.1770 
  2 C        1.8530     1.0930    -0.9340 C.ar  1 <1>   0.1770 
  3 C        3.0100     0.4130    -1.2530 C.ar  1 <1>  -0.1500 
  4 C        1.8350     2.0680     0.0460 C.ar  1 <1>  -0.1500 
  5 C        4.1910     0.6990    -0.5800 C.ar  1 <1>   0.1000 
  6 C        3.0080     2.3620     0.7200 C.ar  1 <1>  -0.1500 
  7 N        5.3530    -0.0020    -0.9000 N.pl3 1 <1>  -0.8380 
  8 C        4.1730     1.6820     0.4080 C.ar  1 <1>  -0.1500 
  9 C        6.6640     0.7020    -1.0490 C.3   1 <1>   0.2090 
 10 C        5.4020    -1.4730    -0.6530 C.3   1 <1>   0.2090 
 11 C        7.6500     0.3020     0.0700 C.3   1 <1>   0.3430 
 12 C        6.4080    -1.8190     0.4660 C.3   1 <1>   0.3430 
 13 N        7.7630    -1.1950     0.2440 N.4   1 <1>  -0.9590 
 14 C        8.7220    -1.5550     1.3240 C.3   1 <1>   0.4860 
 15 C       10.0930    -1.0270     0.9510 C.ar  1 <1>  -0.1430 
 16 C       10.8540    -1.6630    -0.0210 C.ar  1 <1>  -0.1500 
 17 C       10.5960     0.1050     1.5780 C.ar  1 <1>  -0.1500 
 18 C       12.0980    -1.1670    -0.3730 C.ar  1 <1>  -0.1500 
 19 C       11.8380     0.6000     1.2240 C.ar  1 <1>  -0.1500 
 20 C       12.5950    -0.0250     0.2490 C.ar  1 <1>   0.0830 
 21 O       13.7970     0.5300    -0.0360 O.3   1 <1>  -0.3620 
 22 C       14.6950    -0.0700    -0.9400 C.3   1 <1>   0.1200 
 23 C       15.9580     0.7850    -0.9880 C.3   1 <1>  -0.2400 
 24 H        2.9950    -0.3300    -2.0260 H     1 <1>   0.1500 
 25 H        0.9190     2.5830     0.2730 H     1 <1>   0.1500 
 26 H        3.0090     3.1200     1.4860 H     1 <1>   0.1500 
 27 H        5.0720     1.9190     0.9430 H     1 <1>   0.1500 
 28 H        6.5110     1.7680    -1.0340 H     1 <1>   0.0800 
 29 H        7.0870     0.4530    -2.0070 H     1 <1>   0.0800 
 30 H        5.6810    -1.9750    -1.5640 H     1 <1>   0.0800 
 31 H        4.4250    -1.8270    -0.3710 H     1 <1>   0.0800 
 32 H        7.3080     0.7450     0.9900 H     1 <1>   0.0800 
 33 H        8.6170     0.7210    -0.1560 H     1 <1>   0.0800 
 34 H        6.5000    -2.8900     0.5320 H     1 <1>   0.0800 
 35 H        5.9980    -1.4650     1.3980 H     1 <1>   0.0800 
 36 H        8.1500    -1.5610    -0.6340 H     1 <1>   0.4500 
 37 H        8.7730    -2.6260     1.4370 H     1 <1>   0.0800 
 38 H        8.4060    -1.1270     2.2620 H     1 <1>   0.0800 
 39 H       10.4970    -2.5520    -0.5120 H     1 <1>   0.1500 
 40 H       10.0390     0.6120     2.3470 H     1 <1>   0.1500 
 41 H       12.6670    -1.6770    -1.1280 H     1 <1>   0.1500 
 42 H       12.2370     1.4770     1.7050 H     1 <1>   0.1500 
 43 H       14.2290    -0.1130    -1.9080 H     1 <1>   0.0800 
 44 H       14.9230    -1.0620    -0.5880 H     1 <1>   0.0800 
 45 H       15.7180     1.7780    -1.3250 H     1 <1>   0.0800 
 46 H       16.6660     0.3520    -1.6710 H     1 <1>   0.0800 
 47 H       16.4070     0.8350    -0.0130 H     1 <1>   0.0800 
@<TRIPOS>BOND
  1   1   2  1   
  2   2   3  ar  
  3   2   4  ar  
  4   3   5  ar  
  5   3  24  1   
  6   4   6  ar  
  7   4  25  1   
  8   5   7  1   
  9   5   8  ar  
 10   6   8  ar  
 11   6  26  1   
 12   7   9  1   
 13   7  10  1   
 14   8  27  1   
 15   9  11  1   
 16   9  28  1   
 17   9  29  1   
 18  10  12  1   
 19  10  30  1   
 20  10  31  1   
 21  11  13  1   
 22  11  32  1   
 23  11  33  1   
 24  12  13  1   
 25  12  34  1   
 26  12  35  1   
 27  13  14  1   
 28  13  36  1   
 29  14  15  1   
 30  14  37  1   
 31  14  38  1   
 32  15  16  ar  
 33  15  17  ar  
 34  16  18  ar  
 35  16  39  1   
 36  17  19  ar  
 37  17  40  1   
 38  18  20  ar  
 39  18  41  1   
 40  19  20  ar  
 41  19  42  1   
 42  20  21  1   
 43  21  22  1   
 44  22  23  1   
 45  22  43  1   
 46  22  44  1   
 47  23  45  1   
 48  23  46  1   
 49  23  47  1   
@<TRIPOS>SUBSTRUCTURE
  1 ****  11 GROUP 4 **** **** 0

# MOE 2024.06 (io_trps.svl 2023.06)
