@<TRIPOS>MOLECULE
NONAME
32 33 1 0 0 
SMALL
USER_CHARGES


@<TRIPOS>ATOM
  1 S       -1.0090    -0.1600    -1.2380 S.3   1 <1>  -0.0800 
  2 C       -2.2240     1.0020    -0.7380 C.2   1 <1>  -0.1100 
  3 C       -1.1420    -1.0150     0.2860 C.2   1 <1>  -0.1100 
  4 C       -2.6730     0.7290     0.5050 C.2   1 <1>  -0.1810 
  5 C       -2.0510    -0.4270     1.0850 C.2   1 <1>  -0.1500 
  6 C       -3.7290     1.5150     1.2720 C.3   1 <1>   0.5390 
  7 N       -5.0040     0.8310     1.0600 N.am  1 <1>  -0.7300 
  8 C       -3.7820     2.9750     0.8390 C.2   1 <1>  -0.1240 
  9 C       -5.9760     1.2950     0.2590 C.2   1 <1>   0.6900 
 10 C       -4.8580     3.4460     0.1460 C.2   1 <1>  -0.0290 
 11 C       -2.6000     3.6650     1.2510 C.2   1 <1>   0.7060 
 12 O       -6.8840     0.5410    -0.0230 O.2   1 <1>  -0.5700 
 13 N       -5.9070     2.5950    -0.2190 N.am  1 <1>  -0.4690 
 14 C       -5.0050     4.9160    -0.2520 C.3   1 <1>  -0.1020 
 15 O       -2.0080     3.4050     2.2810 O.2   1 <1>  -0.5700 
 16 O       -2.0970     4.6130     0.4520 O.3   1 <1>  -0.4300 
 17 C       -6.9870     3.0430    -1.1540 C.3   1 <1>   0.0600 
 18 C       -0.8960     5.2910     0.7680 C.3   1 <1>   0.0400 
 19 H       -2.4810     1.7760    -1.4400 H     1 <1>   0.1500 
 20 H       -0.5150    -1.8790     0.4240 H     1 <1>   0.1500 
 21 H       -2.3100    -0.7640     2.0740 H     1 <1>   0.1500 
 22 H       -3.5080     1.4700     2.3250 H     1 <1>   0.0800 
 23 H       -4.9990    -0.1750     1.2010 H     1 <1>   0.3700 
 24 H       -5.9980     5.2660    -0.0380 H     1 <1>   0.0800 
 25 H       -4.8060     5.0370    -1.3020 H     1 <1>   0.0800 
 26 H       -4.3370     5.5530     0.2950 H     1 <1>   0.0800 
 27 H       -7.4810     2.2000    -1.6050 H     1 <1>   0.0800 
 28 H       -6.5720     3.6370    -1.9480 H     1 <1>   0.0800 
 29 H       -7.7150     3.6190    -0.6120 H     1 <1>   0.0800 
 30 H       -0.6880     5.9990    -0.0150 H     1 <1>   0.0800 
 31 H       -0.0980     4.5720     0.8370 H     1 <1>   0.0800 
 32 H       -1.0200     5.8010     1.7070 H     1 <1>   0.0800 
@<TRIPOS>BOND
  1   1   2  1   
  2   1   3  1   
  3   2   4  2   
  4   2  19  1   
  5   3   5  2   
  6   3  20  1   
  7   4   5  1   
  8   4   6  1   
  9   5  21  1   
 10   6   7  1   
 11   6   8  1   
 12   6  22  1   
 13   7   9  am  
 14   7  23  1   
 15   8  10  2   
 16   8  11  1   
 17   9  12  2   
 18   9  13  am  
 19  10  13  1   
 20  10  14  1   
 21  11  15  2   
 22  11  16  1   
 23  13  17  1   
 24  14  24  1   
 25  14  25  1   
 26  14  26  1   
 27  16  18  1   
 28  17  27  1   
 29  17  28  1   
 30  17  29  1   
 31  18  30  1   
 32  18  31  1   
 33  18  32  1   
@<TRIPOS>SUBSTRUCTURE
  1 ****   8 GROUP 4 **** **** 0

# MOE 2024.06 (io_trps.svl 2023.06)
