@<TRIPOS>MOLECULE
NONAME
63 65 1 0 0 
SMALL
USER_CHARGES


@<TRIPOS>ATOM
  1 S       -1.1620     0.1170    -0.4450 S.o2  1 <1>   1.4470 
  2 O       -2.2890     0.2870    -1.3420 O.2   1 <1>  -0.6500 
  3 O       -0.4310    -1.1290    -0.5350 O.2   1 <1>  -0.6500 
  4 N       -1.7750     0.2030     1.1410 N.am  1 <1>  -0.8490 
  5 C        0.0380     1.4780    -0.5190 C.ar  1 <1>  -0.0090 
  6 C       -2.5850     1.4050     1.4010 C.3   1 <1>   0.1960 
  7 C       -2.3010    -1.0650     1.6700 C.3   1 <1>   0.1960 
  8 C       -0.3290     2.7890    -0.8250 C.ar  1 <1>   0.0830 
  9 C        1.3750     1.2230    -0.2340 C.ar  1 <1>  -0.1500 
 10 C       -3.6430     1.1820     2.4860 C.3   1 <1>  -0.1600 
 11 C       -3.8110    -1.1590     1.4530 C.3   1 <1>  -0.1600 
 12 O       -1.6360     3.0520    -1.0880 O.3   1 <1>  -0.3620 
 13 C        0.6350     3.7950    -0.8500 C.ar  1 <1>  -0.1500 
 14 C        2.3410     2.2160    -0.2570 C.ar  1 <1>  -0.1430 
 15 C       -4.5670    -0.0200     2.1730 C.3   1 <1>  -0.0190 
 16 C       -2.0450     4.2700    -1.6720 C.3   1 <1>   0.0400 
 17 C        1.9560     3.5080    -0.5700 C.ar  1 <1>  -0.1500 
 18 C        3.7960     1.8740     0.0610 C.3   1 <1>   0.0630 
 19 C       -5.8620     0.3380     1.4340 C.2   1 <1>   0.5690 
 20 C        4.2780     2.6320     1.3010 C.3   1 <1>  -0.2400 
 21 C        4.7000     2.1650    -1.1410 C.3   1 <1>  -0.2400 
 22 O       -6.8280    -0.3780     1.5750 O.2   1 <1>  -0.5700 
 23 N       -5.9490     1.4020     0.5790 N.am  1 <1>  -0.6600 
 24 C       -7.2300     2.1850     0.5630 C.3   1 <1>   0.1400 
 25 C       -5.4060     1.2150    -0.8030 C.3   1 <1>   0.1400 
 26 C       -8.2370     1.6440    -0.4850 C.3   1 <1>   0.3430 
 27 C       -6.4210     0.4900    -1.7210 C.3   1 <1>   0.3430 
 28 N       -7.7690     0.3410    -1.0630 N.4   1 <1>  -0.9590 
 29 C       -8.7810    -0.3300    -1.9270 C.3   1 <1>   0.2630 
 30 H       -3.0870     1.7160     0.5040 H     1 <1>   0.0800 
 31 H       -1.9290     2.2080     1.6940 H     1 <1>   0.0800 
 32 H       -2.0930    -1.1090     2.7260 H     1 <1>   0.0800 
 33 H       -1.8100    -1.9120     1.2200 H     1 <1>   0.0800 
 34 H        1.6650     0.2150     0.0130 H     1 <1>   0.1500 
 35 H       -4.2230     2.0770     2.6170 H     1 <1>   0.0800 
 36 H       -3.1290     1.0050     3.4150 H     1 <1>   0.0800 
 37 H       -4.1640    -2.1050     1.8240 H     1 <1>   0.0800 
 38 H       -4.0000    -1.1480     0.3960 H     1 <1>   0.0800 
 39 H        0.3810     4.8120    -1.0810 H     1 <1>   0.1500 
 40 H       -4.8800    -0.4020     3.1290 H     1 <1>   0.0800 
 41 H       -3.0920     4.1990    -1.8990 H     1 <1>   0.0800 
 42 H       -1.4860     4.4280    -2.5780 H     1 <1>   0.0800 
 43 H       -1.8770     5.0700    -0.9720 H     1 <1>   0.0800 
 44 H        2.6850     4.2990    -0.5950 H     1 <1>   0.1500 
 45 H        3.8660     0.8200     0.2740 H     1 <1>   0.0800 
 46 H        4.2780     3.6930     1.1270 H     1 <1>   0.0800 
 47 H        5.2760     2.3260     1.5590 H     1 <1>   0.0800 
 48 H        3.6300     2.4210     2.1330 H     1 <1>   0.0800 
 49 H        4.7100     3.2150    -1.3700 H     1 <1>   0.0800 
 50 H        4.3440     1.6290    -2.0040 H     1 <1>   0.0800 
 51 H        5.7070     1.8490    -0.9350 H     1 <1>   0.0800 
 52 H       -7.0170     3.2210     0.3620 H     1 <1>   0.0800 
 53 H       -7.6860     2.1380     1.5390 H     1 <1>   0.0800 
 54 H       -4.5140     0.6270    -0.7670 H     1 <1>   0.0800 
 55 H       -5.1430     2.1700    -1.2240 H     1 <1>   0.0800 
 56 H       -8.3550     2.3710    -1.2710 H     1 <1>   0.0800 
 57 H       -9.1960     1.5140    -0.0100 H     1 <1>   0.0800 
 58 H       -6.0290    -0.4840    -1.9630 H     1 <1>   0.0800 
 59 H       -6.5150     1.0390    -2.6430 H     1 <1>   0.0800 
 60 H       -7.5890    -0.2450    -0.2160 H     1 <1>   0.4500 
 61 H       -8.9870     0.2680    -2.8000 H     1 <1>   0.0800 
 62 H       -9.6990    -0.4760    -1.3810 H     1 <1>   0.0800 
 63 H       -8.4170    -1.2940    -2.2460 H     1 <1>   0.0800 
@<TRIPOS>BOND
  1   1   2  2   
  2   1   3  2   
  3   1   4  am  
  4   1   5  1   
  5   4   6  1   
  6   4   7  1   
  7   5   8  ar  
  8   5   9  ar  
  9   6  10  1   
 10   6  30  1   
 11   6  31  1   
 12   7  11  1   
 13   7  32  1   
 14   7  33  1   
 15   8  12  1   
 16   8  13  ar  
 17   9  14  ar  
 18   9  34  1   
 19  10  15  1   
 20  10  35  1   
 21  10  36  1   
 22  11  15  1   
 23  11  37  1   
 24  11  38  1   
 25  12  16  1   
 26  13  17  ar  
 27  13  39  1   
 28  14  17  ar  
 29  14  18  1   
 30  15  19  1   
 31  15  40  1   
 32  16  41  1   
 33  16  42  1   
 34  16  43  1   
 35  17  44  1   
 36  18  20  1   
 37  18  21  1   
 38  18  45  1   
 39  19  22  2   
 40  19  23  am  
 41  20  46  1   
 42  20  47  1   
 43  20  48  1   
 44  21  49  1   
 45  21  50  1   
 46  21  51  1   
 47  23  24  1   
 48  23  25  1   
 49  24  26  1   
 50  24  52  1   
 51  24  53  1   
 52  25  27  1   
 53  25  54  1   
 54  25  55  1   
 55  26  28  1   
 56  26  56  1   
 57  26  57  1   
 58  27  28  1   
 59  27  58  1   
 60  27  59  1   
 61  28  29  1   
 62  28  60  1   
 63  29  61  1   
 64  29  62  1   
 65  29  63  1   
@<TRIPOS>SUBSTRUCTURE
  1 ****   6 GROUP 4 **** **** 0

# MOE 2024.06 (io_trps.svl 2023.06)
