@<TRIPOS>MOLECULE
NONAME
53 54 1 0 0 
SMALL
USER_CHARGES


@<TRIPOS>ATOM
  1 S        0.1310     1.2030     2.8320 S.o2  1 <1>   1.3330 
  2 O        1.2180     1.5560     3.7140 O.2   1 <1>  -0.6500 
  3 O       -1.2220     1.1500     3.3270 O.2   1 <1>  -0.6500 
  4 N        0.1650     2.2960     1.4960 N.am  1 <1>  -0.6930 
  5 C        0.5240    -0.3400     2.0380 C.3   1 <1>  -0.1350 
  6 C       -0.8880     2.3880     0.5970 C.ar  1 <1>   0.1990 
  7 C        1.3250     3.1980     1.3620 C.3   1 <1>   0.3390 
  8 C       -0.8070     1.7890    -0.6530 C.ar  1 <1>  -0.1500 
  9 C       -2.0410     3.0810     0.9280 C.ar  1 <1>  -0.1500 
 10 C        2.4910     2.4680     0.7080 C.ar  1 <1>  -0.1430 
 11 C       -1.8420     1.8890    -1.5690 C.ar  1 <1>  -0.1430 
 12 C       -3.0810     3.1870     0.0250 C.ar  1 <1>  -0.1500 
 13 C        2.5870     2.3940    -0.6720 C.ar  1 <1>  -0.1500 
 14 C        3.4800     1.8740     1.4770 C.ar  1 <1>  -0.1500 
 15 C       -2.9900     2.5970    -1.2280 C.ar  1 <1>  -0.1430 
 16 C       -1.6970     1.2180    -2.9270 C.3   1 <1>  -0.0970 
 17 C        3.6380     1.7220    -1.2670 C.ar  1 <1>  -0.1500 
 18 C        4.5310     1.2060     0.8770 C.ar  1 <1>  -0.1500 
 19 C       -4.1570     2.7370    -2.1960 C.3   1 <1>  -0.0970 
 20 C        4.6350     1.1020    -0.5120 C.ar  1 <1>   0.0860 
 21 C        5.7240     0.3880    -1.1610 C.2   1 <1>   0.5440 
 22 O        6.0010     0.6040    -2.3240 O.2   1 <1>  -0.5700 
 23 N        6.4580    -0.5480    -0.4850 N.am  1 <1>  -0.7300 
 24 C        7.5480    -1.3670    -1.0800 C.3   1 <1>   0.1400 
 25 C        8.8130    -0.5290    -1.2680 C.3   1 <1>   0.1200 
 26 O        9.8670    -1.3830    -1.5890 O.3   1 <1>  -0.5600 
 27 C       11.0550    -0.7200    -1.8770 C.3   1 <1>   0.0400 
 28 H        0.5570    -1.1280     2.7640 H     1 <1>   0.0800 
 29 H        1.4770    -0.2750     1.5520 H     1 <1>   0.0800 
 30 H       -0.2240    -0.5760     1.3060 H     1 <1>   0.0800 
 31 H        1.6110     3.5740     2.3300 H     1 <1>   0.0800 
 32 H        1.0470     4.0430     0.7570 H     1 <1>   0.0800 
 33 H        0.0790     1.2370    -0.9000 H     1 <1>   0.1500 
 34 H       -2.1210     3.5310     1.9020 H     1 <1>   0.1500 
 35 H       -3.9660     3.7300     0.3070 H     1 <1>   0.1500 
 36 H        1.8400     2.8630    -1.2910 H     1 <1>   0.1500 
 37 H        3.4370     1.9340     2.5530 H     1 <1>   0.1500 
 38 H       -0.7470     0.7220    -3.0150 H     1 <1>   0.0800 
 39 H       -1.7670     1.9510    -3.7110 H     1 <1>   0.0800 
 40 H       -2.4730     0.4860    -3.0610 H     1 <1>   0.0800 
 41 H        3.6960     1.6740    -2.3410 H     1 <1>   0.1500 
 42 H        5.2860     0.7680     1.5040 H     1 <1>   0.1500 
 43 H       -4.5450     1.7660    -2.4460 H     1 <1>   0.0800 
 44 H       -3.8330     3.2300    -3.0950 H     1 <1>   0.0800 
 45 H       -4.9510     3.3160    -1.7610 H     1 <1>   0.0800 
 46 H        6.1920    -0.8010     0.4660 H     1 <1>   0.3700 
 47 H        7.2300    -1.7450    -2.0370 H     1 <1>   0.0800 
 48 H        7.7620    -2.1970    -0.4290 H     1 <1>   0.0800 
 49 H        9.0610    -0.0130    -0.3570 H     1 <1>   0.0800 
 50 H        8.6720     0.1730    -2.0720 H     1 <1>   0.0800 
 51 H       11.8030    -1.4590    -2.1050 H     1 <1>   0.0800 
 52 H       11.3600    -0.1460    -1.0190 H     1 <1>   0.0800 
 53 H       10.9060    -0.0800    -2.7300 H     1 <1>   0.0800 
@<TRIPOS>BOND
  1   1   2  2   
  2   1   3  2   
  3   1   4  am  
  4   1   5  1   
  5   4   6  1   
  6   4   7  1   
  7   5  28  1   
  8   5  29  1   
  9   5  30  1   
 10   6   8  ar  
 11   6   9  ar  
 12   7  10  1   
 13   7  31  1   
 14   7  32  1   
 15   8  11  ar  
 16   8  33  1   
 17   9  12  ar  
 18   9  34  1   
 19  10  13  ar  
 20  10  14  ar  
 21  11  15  ar  
 22  11  16  1   
 23  12  15  ar  
 24  12  35  1   
 25  13  17  ar  
 26  13  36  1   
 27  14  18  ar  
 28  14  37  1   
 29  15  19  1   
 30  16  38  1   
 31  16  39  1   
 32  16  40  1   
 33  17  20  ar  
 34  17  41  1   
 35  18  20  ar  
 36  18  42  1   
 37  19  43  1   
 38  19  44  1   
 39  19  45  1   
 40  20  21  1   
 41  21  22  2   
 42  21  23  am  
 43  23  24  1   
 44  23  46  1   
 45  24  25  1   
 46  24  47  1   
 47  24  48  1   
 48  25  26  1   
 49  25  49  1   
 50  25  50  1   
 51  26  27  1   
 52  27  51  1   
 53  27  52  1   
 54  27  53  1   
@<TRIPOS>SUBSTRUCTURE
  1 ****  13 GROUP 4 **** **** 0

# MOE 2024.06 (io_trps.svl 2023.06)
