@<TRIPOS>MOLECULE
NONAME
50 51 1 0 0 
SMALL
USER_CHARGES


@<TRIPOS>ATOM
  1 S       -0.2730     0.1570    -1.3870 S.o2  1 <1>   1.4470 
  2 O       -0.7500     0.2300    -2.7520 O.2   1 <1>  -0.6500 
  3 O        0.4080    -1.0370    -0.9370 O.2   1 <1>  -0.6500 
  4 N       -1.6350     0.3390    -0.3960 N.am  1 <1>  -0.8490 
  5 C        0.7200     1.6200    -0.9850 C.ar  1 <1>  -0.0090 
  6 C       -2.4240    -0.9030    -0.3370 C.3   1 <1>   0.1960 
  7 C       -2.4980     1.4530    -0.8240 C.3   1 <1>   0.1960 
  8 C        1.0080     1.9440     0.3340 C.ar  1 <1>  -0.1500 
  9 C        1.2100     2.4570    -1.9780 C.ar  1 <1>  -0.1500 
 10 C       -3.6610    -0.7550     0.5700 C.3   1 <1>   0.1960 
 11 C       -3.7160     1.6070     0.1070 C.3   1 <1>   0.1960 
 12 C        1.7500     3.0660     0.6680 C.ar  1 <1>  -0.1440 
 13 C        1.9540     3.5790    -1.6620 C.ar  1 <1>  -0.1500 
 14 N       -4.5210     0.3710     0.1560 N.am  1 <1>  -0.8490 
 15 C        2.2290     3.8930    -0.3410 C.ar  1 <1>  -0.1430 
 16 C        2.0240     3.3600     2.1360 C.3   1 <1>  -0.0970 
 17 S       -5.8870     0.5140     1.1480 S.o2  1 <1>   1.3330 
 18 C        3.0520     5.1350    -0.0310 C.3   1 <1>  -0.0960 
 19 O       -6.3190    -0.8200     1.4970 O.2   1 <1>  -0.6500 
 20 O       -5.5710     1.4650     2.1910 O.2   1 <1>  -0.6500 
 21 C       -7.1040     1.2260     0.0360 C.3   1 <1>  -0.0550 
 22 C       -8.4750     1.4640     0.6900 C.3   1 <1>  -0.1600 
 23 C       -9.4680     2.0730    -0.3060 C.3   1 <1>  -0.1600 
 24 C      -10.8300     2.3050     0.3520 C.3   1 <1>  -0.2400 
 25 H       -1.8110    -1.7000     0.0490 H     1 <1>   0.0800 
 26 H       -2.7440    -1.1820    -1.3270 H     1 <1>   0.0800 
 27 H       -2.8490     1.2890    -1.8300 H     1 <1>   0.0800 
 28 H       -1.9360     2.3710    -0.8110 H     1 <1>   0.0800 
 29 H        0.6380     1.2960     1.1110 H     1 <1>   0.1500 
 30 H        1.0090     2.2290    -3.0120 H     1 <1>   0.1500 
 31 H       -3.3390    -0.6150     1.5890 H     1 <1>   0.0800 
 32 H       -4.2230    -1.6730     0.5250 H     1 <1>   0.0800 
 33 H       -4.3260     2.4200    -0.2460 H     1 <1>   0.0800 
 34 H       -3.3630     1.8600     1.0930 H     1 <1>   0.0800 
 35 H        2.3190     4.2070    -2.4560 H     1 <1>   0.1500 
 36 H        1.5320     2.6470     2.7730 H     1 <1>   0.0800 
 37 H        1.6660     4.3410     2.3920 H     1 <1>   0.0800 
 38 H        3.0810     3.3110     2.3290 H     1 <1>   0.0800 
 39 H        3.9330     4.8650     0.5240 H     1 <1>   0.0800 
 40 H        2.4700     5.8270     0.5500 H     1 <1>   0.0800 
 41 H        3.3620     5.6290    -0.9340 H     1 <1>   0.0800 
 42 H       -7.2290     0.5680    -0.8010 H     1 <1>   0.0800 
 43 H       -6.7330     2.1620    -0.3350 H     1 <1>   0.0800 
 44 H       -8.3550     2.1240     1.5340 H     1 <1>   0.0800 
 45 H       -8.8580     0.5250     1.0570 H     1 <1>   0.0800 
 46 H       -9.5910     1.4120    -1.1470 H     1 <1>   0.0800 
 47 H       -9.0890     3.0130    -0.6710 H     1 <1>   0.0800 
 48 H      -11.2410     1.3750     0.7060 H     1 <1>   0.0800 
 49 H      -11.5160     2.7320    -0.3590 H     1 <1>   0.0800 
 50 H      -10.7370     2.9810     1.1850 H     1 <1>   0.0800 
@<TRIPOS>BOND
  1   1   2  2   
  2   1   3  2   
  3   1   4  am  
  4   1   5  1   
  5   4   6  1   
  6   4   7  1   
  7   5   8  ar  
  8   5   9  ar  
  9   6  10  1   
 10   6  25  1   
 11   6  26  1   
 12   7  11  1   
 13   7  27  1   
 14   7  28  1   
 15   8  12  ar  
 16   8  29  1   
 17   9  13  ar  
 18   9  30  1   
 19  10  14  1   
 20  10  31  1   
 21  10  32  1   
 22  11  14  1   
 23  11  33  1   
 24  11  34  1   
 25  12  15  ar  
 26  12  16  1   
 27  13  15  ar  
 28  13  35  1   
 29  14  17  am  
 30  15  18  1   
 31  16  36  1   
 32  16  37  1   
 33  16  38  1   
 34  17  19  2   
 35  17  20  2   
 36  17  21  1   
 37  18  39  1   
 38  18  40  1   
 39  18  41  1   
 40  21  22  1   
 41  21  42  1   
 42  21  43  1   
 43  22  23  1   
 44  22  44  1   
 45  22  45  1   
 46  23  24  1   
 47  23  46  1   
 48  23  47  1   
 49  24  48  1   
 50  24  49  1   
 51  24  50  1   
@<TRIPOS>SUBSTRUCTURE
  1 ****   7 GROUP 4 **** **** 0

# MOE 2024.06 (io_trps.svl 2023.06)
