@<TRIPOS>MOLECULE
NONAME
45 46 1 0 0 
SMALL
USER_CHARGES


@<TRIPOS>ATOM
  1 S       -0.3740    -0.4910    -0.6240 S.3   1 <1>  -0.2860 
  2 C        1.2910    -0.9970    -0.1850 C.2   1 <1>   0.2420 
  3 C       -1.4100    -1.9470    -0.1030 C.3   1 <1>   0.1310 
  4 N        1.5750    -2.1360     0.3390 N.2   1 <1>  -0.3380 
  5 N        2.3520    -0.2120    -0.3670 N.pl3 1 <1>   0.0480 
  6 C       -2.8870    -1.5870    -0.0710 C.2   1 <1>   0.5690 
  7 N        2.8990    -2.1270     0.5250 N.2   1 <1>  -0.3380 
  8 C        3.3400    -0.9870     0.1060 C.2   1 <1>   0.0060 
  9 C        2.4040     1.1520    -0.9340 C.3   1 <1>   0.0960 
 10 O       -3.6920    -2.4700    -0.2360 O.2   1 <1>  -0.5700 
 11 N       -3.2250    -0.2820     0.1550 N.am  1 <1>  -0.5470 
 12 C        4.8000    -0.5810     0.1480 C.3   1 <1>  -0.0600 
 13 C        2.1380     2.2000     0.1540 C.3   1 <1>  -0.1600 
 14 C       -4.4430     0.4120     0.2680 C.ar  1 <1>   0.1170 
 15 C        2.2110     3.6220    -0.4140 C.3   1 <1>  -0.2400 
 16 C       -4.3900     1.8040     0.3980 C.ar  1 <1>   0.0830 
 17 C       -5.6830    -0.2160     0.2590 C.ar  1 <1>  -0.1500 
 18 O       -3.1490     2.3790     0.4030 O.3   1 <1>  -0.3630 
 19 C       -5.5660     2.5390     0.5140 C.ar  1 <1>  -0.1500 
 20 C       -6.8490     0.5200     0.3740 C.ar  1 <1>  -0.1500 
 21 C       -2.9850     3.7760     0.4650 C.3   1 <1>   0.1200 
 22 C       -6.7920     1.8960     0.5010 C.ar  1 <1>  -0.1500 
 23 C       -1.4900     4.0730     0.4020 C.3   1 <1>  -0.2400 
 24 H       -1.0810    -2.2440     0.8750 H     1 <1>   0.0800 
 25 H       -1.2250    -2.7380    -0.8060 H     1 <1>   0.0800 
 26 H        1.6650     1.2330    -1.7120 H     1 <1>   0.0800 
 27 H        3.3720     1.3110    -1.3730 H     1 <1>   0.0800 
 28 H       -2.4290     0.3600     0.2050 H     1 <1>   0.3700 
 29 H        5.1690    -0.4190    -0.8480 H     1 <1>   0.0800 
 30 H        5.3810    -1.3630     0.6050 H     1 <1>   0.0800 
 31 H        4.9200     0.3170     0.7260 H     1 <1>   0.0800 
 32 H        2.8660     2.0980     0.9410 H     1 <1>   0.0800 
 33 H        1.1590     2.0410     0.5740 H     1 <1>   0.0800 
 34 H        3.1900     3.8220    -0.8130 H     1 <1>   0.0800 
 35 H        2.0080     4.3380     0.3630 H     1 <1>   0.0800 
 36 H        1.4840     3.7550    -1.1960 H     1 <1>   0.0800 
 37 H       -5.7490    -1.2830     0.1620 H     1 <1>   0.1500 
 38 H       -5.5540     3.6070     0.6160 H     1 <1>   0.1500 
 39 H       -7.8020     0.0180     0.3640 H     1 <1>   0.1500 
 40 H       -3.4060     4.1290     1.3910 H     1 <1>   0.0800 
 41 H       -3.4970     4.2180    -0.3730 H     1 <1>   0.0800 
 42 H       -7.7010     2.4650     0.5910 H     1 <1>   0.1500 
 43 H       -0.9870     3.6170     1.2360 H     1 <1>   0.0800 
 44 H       -1.3280     5.1350     0.4410 H     1 <1>   0.0800 
 45 H       -1.0790     3.6970    -0.5180 H     1 <1>   0.0800 
@<TRIPOS>BOND
  1   1   2  1   
  2   1   3  1   
  3   2   4  2   
  4   2   5  1   
  5   3   6  1   
  6   3  24  1   
  7   3  25  1   
  8   4   7  1   
  9   5   8  1   
 10   5   9  1   
 11   6  10  2   
 12   6  11  am  
 13   7   8  2   
 14   8  12  1   
 15   9  13  1   
 16   9  26  1   
 17   9  27  1   
 18  11  14  1   
 19  11  28  1   
 20  12  29  1   
 21  12  30  1   
 22  12  31  1   
 23  13  15  1   
 24  13  32  1   
 25  13  33  1   
 26  14  16  ar  
 27  14  17  ar  
 28  15  34  1   
 29  15  35  1   
 30  15  36  1   
 31  16  18  1   
 32  16  19  ar  
 33  17  20  ar  
 34  17  37  1   
 35  18  21  1   
 36  19  22  ar  
 37  19  38  1   
 38  20  22  ar  
 39  20  39  1   
 40  21  23  1   
 41  21  40  1   
 42  21  41  1   
 43  22  42  1   
 44  23  43  1   
 45  23  44  1   
 46  23  45  1   
@<TRIPOS>SUBSTRUCTURE
  1 ****   1 GROUP 4 **** **** 0

# MOE 2024.06 (io_trps.svl 2023.06)
