@<TRIPOS>MOLECULE
NONAME
41 43 1 0 0 
SMALL
USER_CHARGES


@<TRIPOS>ATOM
  1 CL      -3.3700     3.1490     1.1480 Cl    1 <1>  -0.1770 
  2 C       -1.8210     3.4340     0.3960 C.ar  1 <1>   0.1770 
  3 C       -0.8410     4.1020     1.0980 C.ar  1 <1>  -0.1500 
  4 C       -1.6090     2.9820    -0.8970 C.ar  1 <1>  -0.1500 
  5 C        0.4010     4.3350     0.5070 C.ar  1 <1>   0.0280 
  6 C       -0.3830     3.2070    -1.4960 C.ar  1 <1>  -0.1500 
  7 C        0.6140     3.8770    -0.8000 C.ar  1 <1>   0.0830 
  8 C        1.4670     5.0190     1.1570 C.2   1 <1>  -0.1780 
  9 O        1.8050     4.0850    -1.4020 O.3   1 <1>  -0.2330 
 10 C        2.6590     5.2020     0.5270 C.2   1 <1>   0.0290 
 11 C        2.8300     4.7060    -0.8090 C.2   1 <1>   0.7060 
 12 C        3.7540     5.9210     1.1190 C.2   1 <1>   0.6160 
 13 O        3.8740     4.7710    -1.4310 O.2   1 <1>  -0.5700 
 14 O        3.5670     7.0790     1.4310 O.2   1 <1>  -0.5700 
 15 N        5.0040     5.3770     1.3690 N.am  1 <1>  -0.6600 
 16 C        5.4220     3.9780     1.0450 C.3   1 <1>   0.1400 
 17 C        6.1560     6.2470     1.7630 C.3   1 <1>   0.1400 
 18 C        6.4920     3.9810    -0.0710 C.3   1 <1>   0.3430 
 19 C        7.2010     6.2730     0.6320 C.3   1 <1>   0.3430 
 20 N        7.6550     4.8870     0.2450 N.4   1 <1>  -0.9590 
 21 C        8.6080     4.9200    -0.8840 C.3   1 <1>   0.4810 
 22 C        9.9180     5.4450    -0.3440 C.2   1 <1>  -0.2880 
 23 C       10.9960     4.6990    -0.0790 C.2   1 <1>  -0.3000 
 24 H       -1.0400     4.4410     2.0990 H     1 <1>   0.1500 
 25 H       -2.3960     2.4650    -1.4170 H     1 <1>   0.1500 
 26 H       -0.1960     2.8660    -2.5000 H     1 <1>   0.1500 
 27 H        1.2950     5.3970     2.1510 H     1 <1>   0.1500 
 28 H        4.5810     3.3850     0.7360 H     1 <1>   0.0800 
 29 H        5.8270     3.5170     1.9300 H     1 <1>   0.0800 
 30 H        6.6000     5.8690     2.6670 H     1 <1>   0.0800 
 31 H        5.8340     7.2550     1.9620 H     1 <1>   0.0800 
 32 H        6.0290     4.3050    -0.9870 H     1 <1>   0.0800 
 33 H        6.8430     2.9740    -0.2230 H     1 <1>   0.0800 
 34 H        8.0450     6.8620     0.9510 H     1 <1>   0.0800 
 35 H        6.7590     6.7620    -0.2210 H     1 <1>   0.0800 
 36 H        8.1760     4.4930     1.0390 H     1 <1>   0.4500 
 37 H        8.2420     5.5410    -1.6870 H     1 <1>   0.0800 
 38 H        8.7600     3.9220    -1.2630 H     1 <1>   0.0800 
 39 H        9.9150     6.5110    -0.1920 H     1 <1>   0.1500 
 40 H       11.9220     5.1000     0.3010 H     1 <1>   0.1500 
 41 H       11.0630     3.6310    -0.2180 H     1 <1>   0.1500 
@<TRIPOS>BOND
  1   1   2  1   
  2   2   3  ar  
  3   2   4  ar  
  4   3   5  ar  
  5   3  24  1   
  6   4   6  ar  
  7   4  25  1   
  8   5   7  ar  
  9   5   8  1   
 10   6   7  ar  
 11   6  26  1   
 12   7   9  1   
 13   8  10  2   
 14   8  27  1   
 15   9  11  1   
 16  10  11  1   
 17  10  12  1   
 18  11  13  2   
 19  12  14  2   
 20  12  15  am  
 21  15  16  1   
 22  15  17  1   
 23  16  18  1   
 24  16  28  1   
 25  16  29  1   
 26  17  19  1   
 27  17  30  1   
 28  17  31  1   
 29  18  20  1   
 30  18  32  1   
 31  18  33  1   
 32  19  20  1   
 33  19  34  1   
 34  19  35  1   
 35  20  21  1   
 36  20  36  1   
 37  21  22  1   
 38  21  37  1   
 39  21  38  1   
 40  22  23  2   
 41  22  39  1   
 42  23  40  1   
 43  23  41  1   
@<TRIPOS>SUBSTRUCTURE
  1 ****  10 GROUP 4 **** **** 0

# MOE 2024.06 (io_trps.svl 2023.06)
