@<TRIPOS>MOLECULE
NONAME
37 38 1 0 0 
SMALL
USER_CHARGES


@<TRIPOS>ATOM
  1 O       -2.4640     2.9780    -1.0260 O.3   1 <1>  -0.5600 
  2 C       -3.7810     2.9100    -1.4930 C.3   1 <1>   0.1200 
  3 C       -2.3710     2.8900     0.3670 C.3   1 <1>   0.1200 
  4 C       -4.4420     1.5910    -1.0570 C.3   1 <1>   0.1100 
  5 C       -2.9790     1.5650     0.8630 C.3   1 <1>   0.1100 
  6 N       -4.3760     1.4190     0.4110 N.3   1 <1>  -0.8100 
  7 C       -4.9360     0.1320     0.8470 C.3   1 <1>   0.3100 
  8 C       -6.4070     0.0870     0.6050 C.1   1 <1>  -0.2000 
  9 C       -7.5830     0.0510     0.4100 C.1   1 <1>   0.0000 
 10 C       -8.9260     0.0090     0.1850 C.1   1 <1>   0.0000 
 11 C      -10.1050    -0.0290    -0.0110 C.1   1 <1>  -0.0730 
 12 C      -11.5130    -0.0730    -0.2450 C.ar  1 <1>   0.0730 
 13 C      -12.3630     0.8310     0.3800 C.ar  1 <1>  -0.1500 
 14 C      -12.0560    -1.0220    -1.1010 C.ar  1 <1>  -0.1500 
 15 C      -13.7360     0.7970     0.1600 C.ar  1 <1>   0.0820 
 16 C      -13.4190    -1.0730    -1.3330 C.ar  1 <1>  -0.1500 
 17 O      -14.6010     1.6680     0.7560 O.3   1 <1>  -0.3630 
 18 C      -14.2580    -0.1670    -0.7060 C.ar  1 <1>   0.0820 
 19 C      -14.1530     2.6670     1.6440 C.3   1 <1>   0.0400 
 20 O      -15.5830    -0.2380    -0.9500 O.3   1 <1>  -0.5320 
 21 H       -3.7530     2.9780    -2.5660 H     1 <1>   0.0800 
 22 H       -4.3300     3.7510    -1.1050 H     1 <1>   0.0800 
 23 H       -2.8890     3.7280     0.8020 H     1 <1>   0.0800 
 24 H       -1.3310     2.9460     0.6320 H     1 <1>   0.0800 
 25 H       -3.9450     0.7730    -1.5490 H     1 <1>   0.0800 
 26 H       -5.4700     1.6010    -1.3770 H     1 <1>   0.0800 
 27 H       -2.9470     1.5480     1.9380 H     1 <1>   0.0800 
 28 H       -2.3820     0.7500     0.4920 H     1 <1>   0.0800 
 29 H       -4.7640     0.0070     1.9020 H     1 <1>   0.0800 
 30 H       -4.4550    -0.6780     0.3250 H     1 <1>   0.0800 
 31 H      -11.9250     1.5560     1.0380 H     1 <1>   0.1500 
 32 H      -11.4040    -1.7260    -1.5890 H     1 <1>   0.1500 
 33 H      -13.8180    -1.8150    -2.0000 H     1 <1>   0.1500 
 34 H      -15.0100     3.2210     1.9800 H     1 <1>   0.0800 
 35 H      -13.4770     3.3200     1.1220 H     1 <1>   0.0800 
 36 H      -13.6700     2.1970     2.4820 H     1 <1>   0.0800 
 37 H      -15.8250    -0.9470    -1.5670 H     1 <1>   0.4500 
@<TRIPOS>BOND
  1   1   2  1   
  2   1   3  1   
  3   2   4  1   
  4   2  21  1   
  5   2  22  1   
  6   3   5  1   
  7   3  23  1   
  8   3  24  1   
  9   4   6  1   
 10   4  25  1   
 11   4  26  1   
 12   5   6  1   
 13   5  27  1   
 14   5  28  1   
 15   6   7  1   
 16   7   8  1   
 17   7  29  1   
 18   7  30  1   
 19   8   9  3   
 20   9  10  1   
 21  10  11  3   
 22  11  12  1   
 23  12  13  ar  
 24  12  14  ar  
 25  13  15  ar  
 26  13  31  1   
 27  14  16  ar  
 28  14  32  1   
 29  15  17  1   
 30  15  18  ar  
 31  16  18  ar  
 32  16  33  1   
 33  17  19  1   
 34  18  20  1   
 35  19  34  1   
 36  19  35  1   
 37  19  36  1   
 38  20  37  1   
@<TRIPOS>SUBSTRUCTURE
  1 ****  10 GROUP 4 **** **** 0

# MOE 2024.06 (io_trps.svl 2023.06)
