@<TRIPOS>MOLECULE
NONAME
49 51 1 0 0 
SMALL
USER_CHARGES


@<TRIPOS>ATOM
  1 CL      -0.9980    -0.5460     2.0290 Cl    1 <1>  -0.1770 
  2 C       -0.8060    -1.3780     0.5030 C.ar  1 <1>   0.1770 
  3 C        0.3380    -2.1200     0.2400 C.ar  1 <1>  -0.1440 
  4 C       -1.8200    -1.2590    -0.4300 C.ar  1 <1>  -0.1500 
  5 C        0.4510    -2.7440    -0.9950 C.ar  1 <1>  -0.1500 
  6 C        1.4590    -2.2690     1.2600 C.3   1 <1>   0.2540 
  7 C       -1.6960    -1.8890    -1.6560 C.ar  1 <1>  -0.1500 
  8 C       -0.5600    -2.6290    -1.9360 C.ar  1 <1>  -0.1500 
  9 N        2.6190    -1.4350     0.8840 N.3   1 <1>  -0.8100 
 10 C        2.2830     0.0140     0.8830 C.3   1 <1>   0.1100 
 11 C        3.7760    -1.6930     1.7720 C.3   1 <1>   0.1100 
 12 C        3.5040     0.9100     0.5660 C.3   1 <1>   0.3430 
 13 C        5.0200    -0.8610     1.3690 C.3   1 <1>   0.3430 
 14 N        4.7050     0.0760     0.2370 N.4   1 <1>  -0.9590 
 15 C        5.8450     0.8540    -0.3130 C.3   1 <1>   0.4230 
 16 C        6.7410    -0.0980    -1.1160 C.3   1 <1>  -0.1600 
 17 C        6.5740     1.6290     0.7990 C.3   1 <1>  -0.1600 
 18 C        7.9340     0.5790    -1.8120 C.3   1 <1>  -0.1600 
 19 C        7.4270     2.7710     0.2260 C.3   1 <1>  -0.1600 
 20 C        9.0360     0.9880    -0.8250 C.3   1 <1>  -0.1600 
 21 C        8.8540     2.3700    -0.1800 C.3   1 <1>  -0.1600 
 22 H       -2.6960    -0.6810    -0.1980 H     1 <1>   0.1500 
 23 H        1.3290    -3.3210    -1.2270 H     1 <1>   0.1500 
 24 H        1.7590    -3.3030     1.2800 H     1 <1>   0.0800 
 25 H        1.1210    -2.0120     2.2490 H     1 <1>   0.0800 
 26 H       -2.4800    -1.8050    -2.3900 H     1 <1>   0.1500 
 27 H       -0.4620    -3.1190    -2.8900 H     1 <1>   0.1500 
 28 H        1.8740     0.3000     1.8380 H     1 <1>   0.0800 
 29 H        1.5260     0.2070     0.1410 H     1 <1>   0.0800 
 30 H        4.0330    -2.7380     1.7330 H     1 <1>   0.0800 
 31 H        3.5140    -1.4620     2.7910 H     1 <1>   0.0800 
 32 H        3.7120     1.5380     1.4160 H     1 <1>   0.0800 
 33 H        3.2590     1.5510    -0.2640 H     1 <1>   0.0800 
 34 H        5.8070    -1.5360     1.0770 H     1 <1>   0.0800 
 35 H        5.3660    -0.3060     2.2250 H     1 <1>   0.0800 
 36 H        4.3490    -0.5540    -0.4990 H     1 <1>   0.4500 
 37 H        5.4490     1.5770    -1.0080 H     1 <1>   0.0800 
 38 H        6.1410    -0.5550    -1.8830 H     1 <1>   0.0800 
 39 H        7.1170    -0.8830    -0.4840 H     1 <1>   0.0800 
 40 H        7.1880     0.9760     1.3940 H     1 <1>   0.0800 
 41 H        5.8450     2.0810     1.4460 H     1 <1>   0.0800 
 42 H        7.6160     1.4250    -2.3980 H     1 <1>   0.0800 
 43 H        8.3590    -0.1360    -2.4970 H     1 <1>   0.0800 
 44 H        7.5100     3.5490     0.9680 H     1 <1>   0.0800 
 45 H        6.9270     3.2090    -0.6210 H     1 <1>   0.0800 
 46 H        9.9760     1.0000    -1.3520 H     1 <1>   0.0800 
 47 H        9.1330     0.2400    -0.0560 H     1 <1>   0.0800 
 48 H        9.4860     2.4100     0.6920 H     1 <1>   0.0800 
 49 H        9.2250     3.1180    -0.8600 H     1 <1>   0.0800 
@<TRIPOS>BOND
  1   1   2  1   
  2   2   3  ar  
  3   2   4  ar  
  4   3   5  ar  
  5   3   6  1   
  6   4   7  ar  
  7   4  22  1   
  8   5   8  ar  
  9   5  23  1   
 10   6   9  1   
 11   6  24  1   
 12   6  25  1   
 13   7   8  ar  
 14   7  26  1   
 15   8  27  1   
 16   9  10  1   
 17   9  11  1   
 18  10  12  1   
 19  10  28  1   
 20  10  29  1   
 21  11  13  1   
 22  11  30  1   
 23  11  31  1   
 24  12  14  1   
 25  12  32  1   
 26  12  33  1   
 27  13  14  1   
 28  13  34  1   
 29  13  35  1   
 30  14  15  1   
 31  14  36  1   
 32  15  16  1   
 33  15  17  1   
 34  15  37  1   
 35  16  18  1   
 36  16  38  1   
 37  16  39  1   
 38  17  19  1   
 39  17  40  1   
 40  17  41  1   
 41  18  20  1   
 42  18  42  1   
 43  18  43  1   
 44  19  21  1   
 45  19  44  1   
 46  19  45  1   
 47  20  21  1   
 48  20  46  1   
 49  20  47  1   
 50  21  48  1   
 51  21  49  1   
@<TRIPOS>SUBSTRUCTURE
  1 ****  10 GROUP 4 **** **** 0

# MOE 2024.06 (io_trps.svl 2023.06)
