@<TRIPOS>MOLECULE
NONAME
54 55 1 0 0 
SMALL
USER_CHARGES


@<TRIPOS>ATOM
  1 O        0.2560    -0.6460    -0.2620 O.2   1 <1>  -0.5700 
  2 C        0.0830    -1.7990    -0.6110 C.2   1 <1>   0.6160 
  3 N        1.1750    -2.5450    -1.0110 N.am  1 <1>  -0.6600 
  4 C       -1.2500    -2.3390    -0.6060 C.2   1 <1>  -0.1360 
  5 C        2.4670    -1.8900    -1.3600 C.3   1 <1>   0.1400 
  6 C        1.2300    -4.0330    -0.9660 C.3   1 <1>   0.1400 
  7 C       -2.3330    -1.8300     0.0290 C.2   1 <1>  -0.1780 
  8 C        3.5510    -2.3190    -0.3690 C.3   1 <1>  -0.1600 
  9 C        2.3140    -4.4810     0.0180 C.3   1 <1>  -0.1600 
 10 C       -3.6860    -2.3280     0.0590 C.ar  1 <1>   0.0280 
 11 C        3.6840    -3.8540    -0.3050 C.3   1 <1>  -0.0190 
 12 C       -4.6510    -1.6670     0.8140 C.ar  1 <1>  -0.1500 
 13 C       -4.0930    -3.4600    -0.6460 C.ar  1 <1>  -0.1500 
 14 C        4.7510    -4.3210     0.6850 C.2   1 <1>   0.6590 
 15 C       -5.9590    -2.1110     0.8740 C.ar  1 <1>   0.0830 
 16 C       -5.3950    -3.9270    -0.6000 C.ar  1 <1>   0.0830 
 17 O        5.2730    -3.5830     1.4810 O.2   1 <1>  -0.5700 
 18 O        5.0700    -5.6070     0.6080 O.3   1 <1>  -0.4300 
 19 O       -6.8260    -1.3900     1.6290 O.3   1 <1>  -0.3630 
 20 C       -6.3440    -3.2670     0.1880 C.ar  1 <1>   0.0830 
 21 O       -5.6500    -5.0410    -1.3420 O.3   1 <1>  -0.3630 
 22 C        6.0340    -6.1750     1.4630 C.3   1 <1>   0.1200 
 23 C       -7.8580    -0.7230     0.9360 C.3   1 <1>   0.0400 
 24 O       -7.6090    -3.7480     0.3090 O.3   1 <1>  -0.3630 
 25 C       -6.8410    -5.1150    -2.0950 C.3   1 <1>   0.0400 
 26 C        6.1500    -7.6580     1.1250 C.3   1 <1>  -0.2400 
 27 C       -7.9000    -4.3970     1.5260 C.3   1 <1>   0.0400 
 28 H       -1.3520    -3.2280    -1.1890 H     1 <1>   0.1500 
 29 H        2.7470    -2.1790    -2.3580 H     1 <1>   0.0800 
 30 H        2.3690    -0.8170    -1.3450 H     1 <1>   0.0800 
 31 H        0.2910    -4.4490    -0.6510 H     1 <1>   0.0800 
 32 H        1.4510    -4.4050    -1.9530 H     1 <1>   0.0800 
 33 H       -2.1910    -0.9270     0.5990 H     1 <1>   0.1500 
 34 H        4.4900    -1.8850    -0.6610 H     1 <1>   0.0800 
 35 H        3.3010    -1.9300     0.6040 H     1 <1>   0.0800 
 36 H        2.0160    -4.2010     1.0140 H     1 <1>   0.0800 
 37 H        2.3900    -5.5540    -0.0100 H     1 <1>   0.0800 
 38 H        3.9920    -4.2000    -1.2760 H     1 <1>   0.0800 
 39 H       -4.3840    -0.7860     1.3680 H     1 <1>   0.1500 
 40 H       -3.3940    -4.0020    -1.2510 H     1 <1>   0.1500 
 41 H        6.9710    -5.6670     1.3060 H     1 <1>   0.0800 
 42 H        5.7130    -6.0340     2.4820 H     1 <1>   0.0800 
 43 H       -8.3800    -0.0960     1.6350 H     1 <1>   0.0800 
 44 H       -8.5340    -1.4480     0.5200 H     1 <1>   0.0800 
 45 H       -7.4230    -0.1250     0.1560 H     1 <1>   0.0800 
 46 H       -6.6870    -5.8110    -2.8990 H     1 <1>   0.0800 
 47 H       -7.0720    -4.1410    -2.4890 H     1 <1>   0.0800 
 48 H       -7.6350    -5.4650    -1.4600 H     1 <1>   0.0800 
 49 H        6.4630    -7.7830     0.1040 H     1 <1>   0.0800 
 50 H        5.2050    -8.1490     1.2770 H     1 <1>   0.0800 
 51 H        6.8810    -8.1190     1.7650 H     1 <1>   0.0800 
 52 H       -8.9090    -4.7650     1.4790 H     1 <1>   0.0800 
 53 H       -7.8010    -3.6950     2.3340 H     1 <1>   0.0800 
 54 H       -7.2130    -5.2150     1.6530 H     1 <1>   0.0800 
@<TRIPOS>BOND
  1   1   2  2   
  2   2   3  am  
  3   2   4  1   
  4   3   5  1   
  5   3   6  1   
  6   4   7  2   
  7   4  28  1   
  8   5   8  1   
  9   5  29  1   
 10   5  30  1   
 11   6   9  1   
 12   6  31  1   
 13   6  32  1   
 14   7  10  1   
 15   7  33  1   
 16   8  11  1   
 17   8  34  1   
 18   8  35  1   
 19   9  11  1   
 20   9  36  1   
 21   9  37  1   
 22  10  12  ar  
 23  10  13  ar  
 24  11  14  1   
 25  11  38  1   
 26  12  15  ar  
 27  12  39  1   
 28  13  16  ar  
 29  13  40  1   
 30  14  17  2   
 31  14  18  1   
 32  15  19  1   
 33  15  20  ar  
 34  16  20  ar  
 35  16  21  1   
 36  18  22  1   
 37  19  23  1   
 38  20  24  1   
 39  21  25  1   
 40  22  26  1   
 41  22  41  1   
 42  22  42  1   
 43  23  43  1   
 44  23  44  1   
 45  23  45  1   
 46  24  27  1   
 47  25  46  1   
 48  25  47  1   
 49  25  48  1   
 50  26  49  1   
 51  26  50  1   
 52  26  51  1   
 53  27  52  1   
 54  27  53  1   
 55  27  54  1   
@<TRIPOS>SUBSTRUCTURE
  1 ****   4 GROUP 4 **** **** 0

# MOE 2024.06 (io_trps.svl 2023.06)
