@<TRIPOS>MOLECULE
NONAME
47 50 1 0 0 
SMALL
USER_CHARGES


@<TRIPOS>ATOM
  1 F       -0.8490     2.6940     1.0970 F     1 <1>  -0.1900 
  2 C       -1.8310     2.2700     0.3500 C.ar  1 <1>   0.1900 
  3 C       -2.7670     1.4190     0.9050 C.ar  1 <1>  -0.1500 
  4 C       -1.8950     2.6870    -0.9650 C.ar  1 <1>  -0.1500 
  5 C       -3.8150     0.9620     0.1180 C.ar  1 <1>  -0.1440 
  6 C       -2.9410     2.2310    -1.7490 C.ar  1 <1>  -0.1500 
  7 C       -3.8910     1.3770    -1.2090 C.ar  1 <1>  -0.1500 
  8 C       -4.8580     0.0160     0.7240 C.3   1 <1>   0.3640 
  9 N       -5.3210    -1.0000    -0.2540 N.am  1 <1>  -0.2980 
 10 C       -6.1630     0.7080     1.1390 C.3   1 <1>  -0.0190 
 11 N       -6.6470    -0.7940    -0.5690 N.2   1 <1>  -0.5120 
 12 C       -4.5080    -1.9910    -0.7950 C.2   1 <1>   0.5690 
 13 C       -7.1350     0.1490     0.1310 C.2   1 <1>   0.3030 
 14 C       -6.2360     2.2460     1.1370 C.3   1 <1>  -0.1600 
 15 O       -4.9090    -2.7750    -1.6240 O.2   1 <1>  -0.5700 
 16 C       -3.0480    -2.1130    -0.3470 C.3   1 <1>  -0.0990 
 17 C       -8.4500     0.7320     0.0610 C.ar  1 <1>   0.0860 
 18 C       -7.6610     2.6910     1.5010 C.3   1 <1>  -0.0170 
 19 C       -2.3660    -3.4420    -0.7210 C.3   1 <1>  -0.2400 
 20 C       -8.7320     1.9480     0.7010 C.ar  1 <1>  -0.1430 
 21 C       -9.4750     0.1160    -0.6580 C.ar  1 <1>  -0.1500 
 22 C      -10.0000     2.4980     0.6200 C.ar  1 <1>  -0.1500 
 23 C      -10.7380     0.6690    -0.7370 C.ar  1 <1>  -0.1500 
 24 C      -11.0090     1.8710    -0.0920 C.ar  1 <1>   0.0830 
 25 O      -12.2170     2.4850    -0.1130 O.3   1 <1>  -0.3630 
 26 C      -13.3100     1.9330    -0.8120 C.3   1 <1>   0.0400 
 27 H       -2.6630     1.1290     1.9360 H     1 <1>   0.1500 
 28 H       -1.1470     3.3490    -1.3610 H     1 <1>   0.1500 
 29 H       -3.0180     2.5370    -2.7790 H     1 <1>   0.1500 
 30 H       -4.6980     1.0330    -1.8380 H     1 <1>   0.1500 
 31 H       -4.4440    -0.4880     1.5790 H     1 <1>   0.0800 
 32 H       -6.4430     0.3430     2.1100 H     1 <1>   0.0800 
 33 H       -5.9990     2.6230     0.1570 H     1 <1>   0.0800 
 34 H       -5.5310     2.6590     1.8380 H     1 <1>   0.0800 
 35 H       -2.9950    -2.0080     0.7200 H     1 <1>   0.0800 
 36 H       -2.4930    -1.3090    -0.7940 H     1 <1>   0.0800 
 37 H       -7.7520     3.7500     1.3320 H     1 <1>   0.0800 
 38 H       -7.8340     2.5110     2.5480 H     1 <1>   0.0800 
 39 H       -2.9050    -4.2690    -0.2920 H     1 <1>   0.0800 
 40 H       -1.3540    -3.4600    -0.3590 H     1 <1>   0.0800 
 41 H       -2.3530    -3.5630    -1.7900 H     1 <1>   0.0800 
 42 H       -9.2670    -0.8140    -1.1620 H     1 <1>   0.1500 
 43 H      -10.2270     3.4270     1.1100 H     1 <1>   0.1500 
 44 H      -11.4930     0.1550    -1.3010 H     1 <1>   0.1500 
 45 H      -14.1520     2.5900    -0.6870 H     1 <1>   0.0800 
 46 H      -13.5370     0.9660    -0.3980 H     1 <1>   0.0800 
 47 H      -13.0560     1.8580    -1.8540 H     1 <1>   0.0800 
@<TRIPOS>BOND
  1   1   2  1   
  2   2   3  ar  
  3   2   4  ar  
  4   3   5  ar  
  5   3  27  1   
  6   4   6  ar  
  7   4  28  1   
  8   5   7  ar  
  9   5   8  1   
 10   6   7  ar  
 11   6  29  1   
 12   7  30  1   
 13   8   9  1   
 14   8  10  1   
 15   8  31  1   
 16   9  11  1   
 17   9  12  am  
 18  10  13  1   
 19  10  14  1   
 20  10  32  1   
 21  11  13  2   
 22  12  15  2   
 23  12  16  1   
 24  13  17  1   
 25  14  18  1   
 26  14  33  1   
 27  14  34  1   
 28  16  19  1   
 29  16  35  1   
 30  16  36  1   
 31  17  20  ar  
 32  17  21  ar  
 33  18  20  1   
 34  18  37  1   
 35  18  38  1   
 36  19  39  1   
 37  19  40  1   
 38  19  41  1   
 39  20  22  ar  
 40  21  23  ar  
 41  21  42  1   
 42  22  24  ar  
 43  22  43  1   
 44  23  24  ar  
 45  23  44  1   
 46  24  25  1   
 47  25  26  1   
 48  26  45  1   
 49  26  46  1   
 50  26  47  1   
@<TRIPOS>SUBSTRUCTURE
  1 ****  13 GROUP 4 **** **** 0

# MOE 2024.06 (io_trps.svl 2023.06)
