@<TRIPOS>MOLECULE
NONAME
45 46 1 0 0 
SMALL
USER_CHARGES


@<TRIPOS>ATOM
  1 O        0.6390     0.4190     0.2220 O.3   1 <1>  -0.3630 
  2 C       -0.5930     0.9680     0.0590 C.ar  1 <1>   0.0830 
  3 C        1.8040     1.1570    -0.0580 C.3   1 <1>   0.1200 
  4 C       -0.8120     2.2690    -0.3860 C.ar  1 <1>  -0.1500 
  5 C       -1.6780     0.1610     0.3620 C.ar  1 <1>  -0.1500 
  6 C        3.0080     0.2580     0.2260 C.3   1 <1>  -0.1600 
  7 C       -2.1050     2.7440    -0.5210 C.ar  1 <1>  -0.1500 
  8 C       -2.9720     0.6350     0.2260 C.ar  1 <1>  -0.1500 
  9 C        4.3320     0.9820    -0.0560 C.3   1 <1>  -0.1600 
 10 C       -3.1900     1.9360    -0.2190 C.ar  1 <1>   0.0830 
 11 C        5.5290     0.0660     0.2360 C.3   1 <1>  -0.1600 
 12 O       -4.4220     2.4850    -0.3820 O.3   1 <1>  -0.3630 
 13 C        6.8490     0.7860    -0.0440 C.3   1 <1>   0.3430 
 14 C       -5.5890     1.7440    -0.1010 C.3   1 <1>   0.0400 
 15 N        7.9980    -0.0850     0.3230 N.4   1 <1>  -0.9590 
 16 C        9.2940     0.6350     0.2930 C.3   1 <1>   0.3430 
 17 C        8.1750    -1.2680    -0.5570 C.3   1 <1>   0.3430 
 18 C       10.3390    -0.4700     0.2330 C.3   1 <1>  -0.1600 
 19 C        9.6180    -1.6970    -0.3320 C.3   1 <1>  -0.1600 
 20 H        1.8150     2.0260     0.5770 H     1 <1>   0.0800 
 21 H        1.7780     1.4490    -1.0940 H     1 <1>   0.0800 
 22 H        0.0020     2.9240    -0.6290 H     1 <1>   0.1500 
 23 H       -1.5010    -0.8430     0.7040 H     1 <1>   0.1500 
 24 H        2.9350    -0.6200    -0.3930 H     1 <1>   0.0800 
 25 H        2.9730    -0.0450     1.2580 H     1 <1>   0.0800 
 26 H       -2.2830     3.7470    -0.8640 H     1 <1>   0.1500 
 27 H       -3.7870    -0.0180     0.4690 H     1 <1>   0.1500 
 28 H        4.3890     1.8650     0.5590 H     1 <1>   0.0800 
 29 H        4.3520     1.2910    -1.0890 H     1 <1>   0.0800 
 30 H        5.4480    -0.8110    -0.3810 H     1 <1>   0.0800 
 31 H        5.4930    -0.2310     1.2700 H     1 <1>   0.0800 
 32 H        6.8830     1.6920     0.5400 H     1 <1>   0.0800 
 33 H        6.9060     1.0540    -1.0870 H     1 <1>   0.0800 
 34 H       -6.4390     2.3720    -0.2990 H     1 <1>   0.0800 
 35 H       -5.5800     1.4590     0.9360 H     1 <1>   0.0800 
 36 H       -5.6160     0.8800    -0.7400 H     1 <1>   0.0800 
 37 H        7.8620    -0.4310     1.2820 H     1 <1>   0.4500 
 38 H        9.4250     1.2630     1.1600 H     1 <1>   0.0800 
 39 H        9.3570     1.2370    -0.6000 H     1 <1>   0.0800 
 40 H        8.0420    -0.9790    -1.5880 H     1 <1>   0.0800 
 41 H        7.4810    -2.0560    -0.3130 H     1 <1>   0.0800 
 42 H       10.7090    -0.6750     1.2230 H     1 <1>   0.0800 
 43 H       11.1670    -0.1710    -0.3860 H     1 <1>   0.0800 
 44 H       10.0580    -2.0290    -1.2570 H     1 <1>   0.0800 
 45 H        9.6520    -2.5110     0.3720 H     1 <1>   0.0800 
@<TRIPOS>BOND
  1   1   2  1   
  2   1   3  1   
  3   2   4  ar  
  4   2   5  ar  
  5   3   6  1   
  6   3  20  1   
  7   3  21  1   
  8   4   7  ar  
  9   4  22  1   
 10   5   8  ar  
 11   5  23  1   
 12   6   9  1   
 13   6  24  1   
 14   6  25  1   
 15   7  10  ar  
 16   7  26  1   
 17   8  10  ar  
 18   8  27  1   
 19   9  11  1   
 20   9  28  1   
 21   9  29  1   
 22  10  12  1   
 23  11  13  1   
 24  11  30  1   
 25  11  31  1   
 26  12  14  1   
 27  13  15  1   
 28  13  32  1   
 29  13  33  1   
 30  14  34  1   
 31  14  35  1   
 32  14  36  1   
 33  15  16  1   
 34  15  17  1   
 35  15  37  1   
 36  16  18  1   
 37  16  38  1   
 38  16  39  1   
 39  17  19  1   
 40  17  40  1   
 41  17  41  1   
 42  18  19  1   
 43  18  42  1   
 44  18  43  1   
 45  19  44  1   
 46  19  45  1   
@<TRIPOS>SUBSTRUCTURE
  1 ****   3 GROUP 4 **** **** 0

# MOE 2024.06 (io_trps.svl 2023.06)
