@<TRIPOS>MOLECULE
NONAME
50 51 1 0 0 
SMALL
USER_CHARGES


@<TRIPOS>ATOM
  1 O       -0.1980    -0.5910    -1.1090 O.2   1 <1>  -0.5700 
  2 C       -0.3060    -1.7730    -0.8600 C.2   1 <1>   0.6160 
  3 N        0.8540    -2.4690    -0.7570 N.am  1 <1>  -0.7300 
  4 C       -1.5980    -2.3810    -0.6950 C.2   1 <1>  -0.1360 
  5 C        1.0890    -3.8070    -0.1940 C.3   1 <1>   0.2200 
  6 C       -2.7960    -1.7480    -0.6730 C.2   1 <1>  -0.1780 
  7 C        2.3810    -3.7770     0.6270 C.3   1 <1>  -0.1600 
  8 C        1.1820    -4.8220    -1.3380 C.3   1 <1>  -0.1600 
  9 C       -4.1160    -2.3070    -0.5150 C.ar  1 <1>   0.0280 
 10 C        2.7280    -5.1740     1.1630 C.3   1 <1>  -0.1600 
 11 C        1.5250    -6.2230    -0.8090 C.3   1 <1>  -0.1600 
 12 C       -5.2200    -1.4620    -0.4170 C.ar  1 <1>  -0.1500 
 13 C       -4.3540    -3.6770    -0.4550 C.ar  1 <1>  -0.1500 
 14 C        2.8140    -6.2000     0.0240 C.3   1 <1>  -0.1600 
 15 C       -6.5190    -1.9410    -0.2620 C.ar  1 <1>   0.0830 
 16 C       -5.6320    -4.1740    -0.3010 C.ar  1 <1>  -0.1500 
 17 O       -7.5780    -1.0820    -0.1690 O.3   1 <1>  -0.3620 
 18 C       -6.7270    -3.3320    -0.2020 C.ar  1 <1>   0.0830 
 19 C       -7.4280     0.3200    -0.2390 C.3   1 <1>   0.0400 
 20 O       -7.9150    -3.9830    -0.0520 O.3   1 <1>  -0.3630 
 21 C       -9.1590    -3.3370     0.0780 C.3   1 <1>   0.1200 
 22 C      -10.2400    -4.4070     0.2320 C.3   1 <1>  -0.1600 
 23 C      -11.6300    -3.7780     0.3790 C.3   1 <1>  -0.2400 
 24 H        1.6930    -1.9210    -0.9480 H     1 <1>   0.3700 
 25 H       -1.5610    -3.4430    -0.5870 H     1 <1>   0.1500 
 26 H        0.2750    -4.0760     0.4580 H     1 <1>   0.0800 
 27 H       -2.7870    -0.6770    -0.7860 H     1 <1>   0.1500 
 28 H        3.1930    -3.4310     0.0100 H     1 <1>   0.0800 
 29 H        2.2660    -3.0980     1.4530 H     1 <1>   0.0800 
 30 H        0.2460    -4.8600    -1.8650 H     1 <1>   0.0800 
 31 H        1.9470    -4.5120    -2.0290 H     1 <1>   0.0800 
 32 H        3.6680    -5.1370     1.6860 H     1 <1>   0.0800 
 33 H        1.9730    -5.4850     1.8660 H     1 <1>   0.0800 
 34 H        0.7140    -6.5850    -0.2010 H     1 <1>   0.0800 
 35 H        1.6440    -6.9010    -1.6370 H     1 <1>   0.0800 
 36 H       -5.0300    -0.4090    -0.4640 H     1 <1>   0.1500 
 37 H       -3.5400    -4.3730    -0.5320 H     1 <1>   0.1500 
 38 H        2.9960    -7.1790     0.4340 H     1 <1>   0.0800 
 39 H        3.6460    -5.9530    -0.6140 H     1 <1>   0.0800 
 40 H       -5.7950    -5.2360    -0.2570 H     1 <1>   0.1500 
 41 H       -8.4040     0.7640    -0.1490 H     1 <1>   0.0800 
 42 H       -6.9960     0.5790    -1.1900 H     1 <1>   0.0800 
 43 H       -6.8040     0.6460     0.5730 H     1 <1>   0.0800 
 44 H       -9.1230    -2.7040     0.9470 H     1 <1>   0.0800 
 45 H       -9.3290    -2.7480    -0.8070 H     1 <1>   0.0800 
 46 H      -10.2290    -5.0460    -0.6340 H     1 <1>   0.0800 
 47 H      -10.0250    -5.0020     1.1020 H     1 <1>   0.0800 
 48 H      -11.8710    -3.1890    -0.4890 H     1 <1>   0.0800 
 49 H      -11.6660    -3.1460     1.2490 H     1 <1>   0.0800 
 50 H      -12.3730    -4.5490     0.4860 H     1 <1>   0.0800 
@<TRIPOS>BOND
  1   1   2  2   
  2   2   3  am  
  3   2   4  1   
  4   3   5  1   
  5   3  24  1   
  6   4   6  2   
  7   4  25  1   
  8   5   7  1   
  9   5   8  1   
 10   5  26  1   
 11   6   9  1   
 12   6  27  1   
 13   7  10  1   
 14   7  28  1   
 15   7  29  1   
 16   8  11  1   
 17   8  30  1   
 18   8  31  1   
 19   9  12  ar  
 20   9  13  ar  
 21  10  14  1   
 22  10  32  1   
 23  10  33  1   
 24  11  14  1   
 25  11  34  1   
 26  11  35  1   
 27  12  15  ar  
 28  12  36  1   
 29  13  16  ar  
 30  13  37  1   
 31  14  38  1   
 32  14  39  1   
 33  15  17  1   
 34  15  18  ar  
 35  16  18  ar  
 36  16  40  1   
 37  17  19  1   
 38  18  20  1   
 39  19  41  1   
 40  19  42  1   
 41  19  43  1   
 42  20  21  1   
 43  21  22  1   
 44  21  44  1   
 45  21  45  1   
 46  22  23  1   
 47  22  46  1   
 48  22  47  1   
 49  23  48  1   
 50  23  49  1   
 51  23  50  1   
@<TRIPOS>SUBSTRUCTURE
  1 ****  13 GROUP 4 **** **** 0

# MOE 2024.06 (io_trps.svl 2023.06)
