@<TRIPOS>MOLECULE
NONAME
44 46 1 0 0 
SMALL
USER_CHARGES


@<TRIPOS>ATOM
  1 S       -0.5200     0.3420     0.0370 S.3   1 <1>  -0.0800 
  2 C        0.9440     0.3030     0.9730 C.2   1 <1>   0.4420 
  3 C       -0.9900    -1.1100     0.8520 C.2   1 <1>   0.1980 
  4 N        0.9850    -0.7060     1.7640 N.2   1 <1>  -0.3380 
  5 N        1.9250     1.2630     0.8570 N.am  1 <1>  -0.4940 
  6 N       -0.1180    -1.5100     1.6890 N.2   1 <1>  -0.3380 
  7 C       -2.3200    -1.7400     0.4900 C.3   1 <1>   0.3000 
  8 C        2.0560     2.3380     0.0250 C.2   1 <1>   0.5690 
  9 O       -3.3720    -0.8330     0.7540 O.3   1 <1>  -0.3630 
 10 O        1.2550     2.6110    -0.8320 O.2   1 <1>  -0.5700 
 11 C        3.2940     3.2200     0.2010 C.3   1 <1>  -0.0190 
 12 C       -4.6650    -1.1510     0.5060 C.ar  1 <1>   0.0820 
 13 C        2.9070     4.6770     0.5230 C.3   1 <1>  -0.1600 
 14 C        4.2010     3.1640    -1.0440 C.3   1 <1>  -0.1600 
 15 C       -5.0830    -2.3890     0.0230 C.ar  1 <1>  -0.1500 
 16 C       -5.6040    -0.1660     0.7570 C.ar  1 <1>  -0.1500 
 17 C        4.1480     5.5660     0.6900 C.3   1 <1>  -0.1600 
 18 C        5.4420     4.0530    -0.8790 C.3   1 <1>  -0.1600 
 19 C       -6.4320    -2.6430    -0.2120 C.ar  1 <1>  -0.1440 
 20 C       -6.9460    -0.4050     0.5310 C.ar  1 <1>  -0.1500 
 21 C        5.0480     5.4990    -0.5510 C.3   1 <1>  -0.1600 
 22 C       -7.3570    -1.6360     0.0500 C.ar  1 <1>  -0.1500 
 23 C       -6.8890    -4.0120    -0.7420 C.3   1 <1>   1.1630 
 24 F       -5.9960    -4.5660    -1.5550 F     1 <1>  -0.3400 
 25 F       -8.0250    -3.9530    -1.4260 F     1 <1>  -0.3400 
 26 F       -7.0860    -4.8810     0.2400 F     1 <1>  -0.3400 
 27 H        2.6870     1.1170     1.5130 H     1 <1>   0.3700 
 28 H       -2.4760    -2.6230     1.0830 H     1 <1>   0.0800 
 29 H       -2.3370    -1.9850    -0.5570 H     1 <1>   0.0800 
 30 H        3.8610     2.8450     1.0340 H     1 <1>   0.0800 
 31 H        2.3200     4.7070     1.4240 H     1 <1>   0.0800 
 32 H        2.2990     5.0670    -0.2760 H     1 <1>   0.0800 
 33 H        3.6420     3.4950    -1.9040 H     1 <1>   0.0800 
 34 H        4.5080     2.1490    -1.2260 H     1 <1>   0.0800 
 35 H       -4.3700    -3.1690    -0.1720 H     1 <1>   0.1500 
 36 H       -5.2760     0.7890     1.1300 H     1 <1>   0.1500 
 37 H        4.7060     5.2470     1.5530 H     1 <1>   0.0800 
 38 H        3.8400     6.5850     0.8550 H     1 <1>   0.0800 
 39 H        6.0200     4.0360    -1.7870 H     1 <1>   0.0800 
 40 H        6.0600     3.6640    -0.0880 H     1 <1>   0.0800 
 41 H       -7.6700     0.3670     0.7300 H     1 <1>   0.1500 
 42 H        5.9350     6.0870    -0.3860 H     1 <1>   0.0800 
 43 H        4.5250     5.9230    -1.3920 H     1 <1>   0.0800 
 44 H       -8.4090    -1.8010    -0.1160 H     1 <1>   0.1500 
@<TRIPOS>BOND
  1   1   2  1   
  2   1   3  1   
  3   2   4  2   
  4   2   5  1   
  5   3   6  2   
  6   3   7  1   
  7   4   6  1   
  8   5   8  am  
  9   5  27  1   
 10   7   9  1   
 11   7  28  1   
 12   7  29  1   
 13   8  10  2   
 14   8  11  1   
 15   9  12  1   
 16  11  13  1   
 17  11  14  1   
 18  11  30  1   
 19  12  15  ar  
 20  12  16  ar  
 21  13  17  1   
 22  13  31  1   
 23  13  32  1   
 24  14  18  1   
 25  14  33  1   
 26  14  34  1   
 27  15  19  ar  
 28  15  35  1   
 29  16  20  ar  
 30  16  36  1   
 31  17  21  1   
 32  17  37  1   
 33  17  38  1   
 34  18  21  1   
 35  18  39  1   
 36  18  40  1   
 37  19  22  ar  
 38  19  23  1   
 39  20  22  ar  
 40  20  41  1   
 41  21  42  1   
 42  21  43  1   
 43  22  44  1   
 44  23  24  1   
 45  23  25  1   
 46  23  26  1   
@<TRIPOS>SUBSTRUCTURE
  1 ****   1 GROUP 4 **** **** 0

# MOE 2024.06 (io_trps.svl 2023.06)
