@<TRIPOS>MOLECULE
NONAME
51 54 1 0 0 
SMALL
USER_CHARGES


@<TRIPOS>ATOM
  1 BR       2.8470     4.2830    -4.2690 Br    1 <1>  -0.1110 
  2 C        2.9130     4.5850    -2.3690 C.ar  1 <1>   0.1110 
  3 C        3.8190     3.8680    -1.6130 C.ar  1 <1>  -0.1500 
  4 C        2.0560     5.5130    -1.8120 C.ar  1 <1>  -0.1500 
  5 C        3.8750     4.0830    -0.2450 C.ar  1 <1>  -0.1440 
  6 C        2.1140     5.7300    -0.4460 C.ar  1 <1>  -0.1500 
  7 C        3.0220     5.0200     0.3430 C.ar  1 <1>   0.0820 
  8 C        4.8770     3.2880     0.5820 C.3   1 <1>   0.2540 
  9 O        3.1240     5.2100     1.6870 O.3   1 <1>  -0.3630 
 10 N        6.2480     3.7860     0.3490 N.3   1 <1>  -0.8100 
 11 C        2.1860     5.9930     2.3940 C.3   1 <1>   0.0400 
 12 C        6.3810     5.2090     0.7680 C.3   1 <1>   0.1100 
 13 C        7.2550     2.9490     1.0350 C.3   1 <1>   0.1100 
 14 C        7.8350     5.7280     0.6860 C.3   1 <1>   0.3430 
 15 C        8.7010     3.4090     0.7190 C.3   1 <1>   0.3430 
 16 N        8.7150     4.7240     0.0020 N.4   1 <1>  -0.9590 
 17 C       10.0650     5.2260    -0.3430 C.3   1 <1>   0.5240 
 18 C        9.8960     6.4340    -1.2330 C.2   1 <1>  -0.1810 
 19 C        9.9720     7.7670    -0.7690 C.ar  1 <1>   0.0000 
 20 C        9.6310     6.4740    -2.5630 C.2   1 <1>  -0.3020 
 21 C        9.7250     8.5760    -1.8720 C.ar  1 <1>  -0.1520 
 22 C       10.2220     8.3570     0.4760 C.ar  1 <1>  -0.1500 
 23 N        9.5270     7.7750    -2.9670 N.pl3 1 <1>   0.0330 
 24 C        9.7080     9.9680    -1.7550 C.ar  1 <1>  -0.1500 
 25 C       10.2050     9.7280     0.5910 C.ar  1 <1>  -0.1500 
 26 C        9.9460    10.5330    -0.5240 C.ar  1 <1>  -0.1500 
 27 H        4.4690     3.1570    -2.0890 H     1 <1>   0.1500 
 28 H        1.3630     6.0510    -2.4330 H     1 <1>   0.1500 
 29 H        1.4480     6.4560    -0.0190 H     1 <1>   0.1500 
 30 H        4.8180     2.2550     0.2840 H     1 <1>   0.0800 
 31 H        4.6380     3.3370     1.6310 H     1 <1>   0.0800 
 32 H        2.4190     5.9310     3.4420 H     1 <1>   0.0800 
 33 H        1.1990     5.6020     2.2170 H     1 <1>   0.0800 
 34 H        2.2610     7.0140     2.0640 H     1 <1>   0.0800 
 35 H        6.0160     5.3360     1.7740 H     1 <1>   0.0800 
 36 H        5.7710     5.8250     0.1290 H     1 <1>   0.0800 
 37 H        7.1430     1.9220     0.7270 H     1 <1>   0.0800 
 38 H        7.0950     2.9880     2.0990 H     1 <1>   0.0800 
 39 H        8.2010     5.9240     1.6790 H     1 <1>   0.0800 
 40 H        7.8360     6.6610     0.1450 H     1 <1>   0.0800 
 41 H        9.1750     2.6590     0.1080 H     1 <1>   0.0800 
 42 H        9.2550     3.4800     1.6400 H     1 <1>   0.0800 
 43 H        8.2120     4.5520    -0.8810 H     1 <1>   0.4500 
 44 H       10.6160     4.4680    -0.8750 H     1 <1>   0.0800 
 45 H       10.6110     5.4940     0.5460 H     1 <1>   0.0800 
 46 H        9.5050     5.6620    -3.2600 H     1 <1>   0.1500 
 47 H       10.4310     7.7450     1.3340 H     1 <1>   0.1500 
 48 H        9.3390     8.1130    -3.9180 H     1 <1>   0.2700 
 49 H        9.5120    10.5810    -2.6170 H     1 <1>   0.1500 
 50 H       10.3960    10.2010     1.5390 H     1 <1>   0.1500 
 51 H        9.9390    11.6030    -0.4080 H     1 <1>   0.1500 
@<TRIPOS>BOND
  1   1   2  1   
  2   2   3  ar  
  3   2   4  ar  
  4   3   5  ar  
  5   3  27  1   
  6   4   6  ar  
  7   4  28  1   
  8   5   7  ar  
  9   5   8  1   
 10   6   7  ar  
 11   6  29  1   
 12   7   9  1   
 13   8  10  1   
 14   8  30  1   
 15   8  31  1   
 16   9  11  1   
 17  10  12  1   
 18  10  13  1   
 19  11  32  1   
 20  11  33  1   
 21  11  34  1   
 22  12  14  1   
 23  12  35  1   
 24  12  36  1   
 25  13  15  1   
 26  13  37  1   
 27  13  38  1   
 28  14  16  1   
 29  14  39  1   
 30  14  40  1   
 31  15  16  1   
 32  15  41  1   
 33  15  42  1   
 34  16  17  1   
 35  16  43  1   
 36  17  18  1   
 37  17  44  1   
 38  17  45  1   
 39  18  19  1   
 40  18  20  2   
 41  19  21  ar  
 42  19  22  ar  
 43  20  23  1   
 44  20  46  1   
 45  21  23  1   
 46  21  24  ar  
 47  22  25  ar  
 48  22  47  1   
 49  23  48  1   
 50  24  26  ar  
 51  24  49  1   
 52  25  26  ar  
 53  25  50  1   
 54  26  51  1   
@<TRIPOS>SUBSTRUCTURE
  1 ****  12 GROUP 4 **** **** 0

# MOE 2024.06 (io_trps.svl 2023.06)
