@<TRIPOS>MOLECULE
NONAME
33 34 1 0 0 
SMALL
USER_CHARGES


@<TRIPOS>ATOM
  1 F       -0.9190    -0.3420    -0.3690 F     1 <1>  -0.1900 
  2 C       -0.5690    -1.6030    -0.3080 C.ar  1 <1>   0.1900 
  3 C       -1.5510    -2.5860    -0.4570 C.ar  1 <1>   0.1000 
  4 C        0.7650    -1.8930    -0.1030 C.ar  1 <1>  -0.1500 
  5 N       -2.8990    -2.2400    -0.6660 N.pl3 1 <1>  -0.6000 
  6 C       -1.1400    -3.9180    -0.4220 C.ar  1 <1>  -0.1500 
  7 C        1.1170    -3.2280    -0.0590 C.ar  1 <1>   0.1900 
  8 C       -4.0480    -2.8090    -0.1560 C.2   1 <1>  -0.0380 
  9 C        0.1920    -4.2450    -0.2170 C.ar  1 <1>  -0.1500 
 10 F        2.3710    -3.5410     0.1350 F     1 <1>  -0.1900 
 11 C       -4.1000    -3.7570     0.8140 C.2   1 <1>  -0.1360 
 12 C       -5.3450    -2.2880    -0.7690 C.3   1 <1>  -0.0220 
 13 C       -5.2870    -4.3520     1.3070 C.2   1 <1>   0.4950 
 14 C       -6.5730    -2.4800     0.1550 C.3   1 <1>   0.0000 
 15 O       -5.2990    -5.1950     2.1720 O.2   1 <1>  -0.5700 
 16 C       -6.6110    -3.9260     0.6970 C.3   1 <1>  -0.0990 
 17 C       -6.5070    -1.4830     1.3280 C.3   1 <1>  -0.2400 
 18 C       -7.8600    -2.2000    -0.6370 C.3   1 <1>  -0.2400 
 19 H        1.4980    -1.1170     0.0150 H     1 <1>   0.1500 
 20 H       -3.0120    -1.3660    -1.1940 H     1 <1>   0.4000 
 21 H       -1.8650    -4.6990    -0.5640 H     1 <1>   0.1500 
 22 H        0.5120    -5.2710    -0.1830 H     1 <1>   0.1500 
 23 H       -3.2050    -4.1150     1.2820 H     1 <1>   0.1500 
 24 H       -5.5020    -2.8110    -1.6960 H     1 <1>   0.0800 
 25 H       -5.2430    -1.2430    -1.0000 H     1 <1>   0.0800 
 26 H       -7.3840    -4.0230     1.4380 H     1 <1>   0.0800 
 27 H       -6.8340    -4.6110    -0.1000 H     1 <1>   0.0800 
 28 H       -5.6120    -1.6200     1.9100 H     1 <1>   0.0800 
 29 H       -7.3520    -1.6100     1.9810 H     1 <1>   0.0800 
 30 H       -6.5140    -0.4700     0.9660 H     1 <1>   0.0800 
 31 H       -7.9530    -2.8770    -1.4670 H     1 <1>   0.0800 
 32 H       -7.8590    -1.1940    -1.0190 H     1 <1>   0.0800 
 33 H       -8.7240    -2.3190    -0.0060 H     1 <1>   0.0800 
@<TRIPOS>BOND
  1   1   2  1   
  2   2   3  ar  
  3   2   4  ar  
  4   3   5  1   
  5   3   6  ar  
  6   4   7  ar  
  7   4  19  1   
  8   5   8  1   
  9   5  20  1   
 10   6   9  ar  
 11   6  21  1   
 12   7   9  ar  
 13   7  10  1   
 14   8  11  2   
 15   8  12  1   
 16   9  22  1   
 17  11  13  1   
 18  11  23  1   
 19  12  14  1   
 20  12  24  1   
 21  12  25  1   
 22  13  15  2   
 23  13  16  1   
 24  14  16  1   
 25  14  17  1   
 26  14  18  1   
 27  16  26  1   
 28  16  27  1   
 29  17  28  1   
 30  17  29  1   
 31  17  30  1   
 32  18  31  1   
 33  18  32  1   
 34  18  33  1   
@<TRIPOS>SUBSTRUCTURE
  1 ****   5 GROUP 4 **** **** 0

# MOE 2024.06 (io_trps.svl 2023.06)
