@<TRIPOS>MOLECULE
NONAME
55 57 1 0 0 
SMALL
USER_CHARGES


@<TRIPOS>ATOM
  1 S        0.5510     0.5140    -0.4860 S.o2  1 <1>   1.4470 
  2 O        0.4150     1.2000     0.7810 O.2   1 <1>  -0.6500 
  3 O        1.0190     1.2480    -1.6410 O.2   1 <1>  -0.6500 
  4 N        1.6420    -0.7530    -0.2320 N.am  1 <1>  -0.8490 
  5 C       -0.9890    -0.3500    -0.9020 C.ar  1 <1>  -0.0090 
  6 C        1.3030    -1.6100     0.9280 C.3   1 <1>   0.1960 
  7 C        3.0280    -0.2800    -0.1460 C.3   1 <1>   0.1960 
  8 C       -1.9930    -0.5250     0.0380 C.ar  1 <1>  -0.1500 
  9 C       -1.1890    -0.8880    -2.1670 C.ar  1 <1>  -0.1500 
 10 C        2.5240    -2.2870     1.6020 C.3   1 <1>   0.2000 
 11 C        4.0330    -1.4550    -0.0280 C.3   1 <1>   0.2000 
 12 C       -3.1770    -1.2110    -0.2310 C.ar  1 <1>   0.0860 
 13 C       -2.3470    -1.5790    -2.4670 C.ar  1 <1>  -0.1500 
 14 O        3.5210    -2.5620     0.6660 O.3   1 <1>  -0.5600 
 15 C        2.1600    -3.6100     2.2720 C.3   1 <1>  -0.2400 
 16 C        5.3350    -1.0420     0.6580 C.3   1 <1>  -0.2400 
 17 C       -3.3360    -1.7610    -1.5140 C.ar  1 <1>   0.0830 
 18 C       -4.1580    -1.2960     0.8260 C.2   1 <1>   0.5440 
 19 O       -4.4100    -2.4740    -1.9260 O.3   1 <1>  -0.3630 
 20 O       -3.9740    -2.0900     1.7310 O.2   1 <1>  -0.5700 
 21 N       -5.2750    -0.4880     0.8530 N.am  1 <1>  -0.6600 
 22 C       -5.1080    -3.3550    -1.0700 C.3   1 <1>   0.0400 
 23 C       -6.2020    -0.5160     2.0270 C.3   1 <1>   0.1400 
 24 C       -5.6120     0.4520    -0.2600 C.3   1 <1>   0.1400 
 25 C       -6.8960     0.8380     2.2010 C.3   1 <1>  -0.1600 
 26 C       -7.1270     0.6660    -0.3430 C.3   1 <1>  -0.1600 
 27 C       -7.7090     1.2440     0.9600 C.3   1 <1>  -0.1600 
 28 H        0.6190    -2.3710     0.5920 H     1 <1>   0.0800 
 29 H        0.7940    -1.0410     1.6870 H     1 <1>   0.0800 
 30 H        3.1290     0.3720     0.7060 H     1 <1>   0.0800 
 31 H        3.2760     0.2950    -1.0220 H     1 <1>   0.0800 
 32 H       -1.8620    -0.1140     1.0260 H     1 <1>   0.1500 
 33 H       -0.4270    -0.7660    -2.9190 H     1 <1>   0.1500 
 34 H        2.9410    -1.6230     2.3400 H     1 <1>   0.0800 
 35 H        4.2610    -1.8050    -1.0210 H     1 <1>   0.0800 
 36 H       -2.4880    -1.9920    -3.4510 H     1 <1>   0.1500 
 37 H        1.7840    -4.3050     1.5430 H     1 <1>   0.0800 
 38 H        1.4070    -3.4520     3.0220 H     1 <1>   0.0800 
 39 H        3.0300    -4.0300     2.7440 H     1 <1>   0.0800 
 40 H        5.1470    -0.7070     1.6610 H     1 <1>   0.0800 
 41 H        5.8020    -0.2440     0.1090 H     1 <1>   0.0800 
 42 H        6.0120    -1.8770     0.6830 H     1 <1>   0.0800 
 43 H       -5.6030    -4.0900    -1.6790 H     1 <1>   0.0800 
 44 H       -5.8400    -2.7990    -0.5130 H     1 <1>   0.0800 
 45 H       -4.4100    -3.8390    -0.4090 H     1 <1>   0.0800 
 46 H       -5.6510    -0.7520     2.9220 H     1 <1>   0.0800 
 47 H       -6.9360    -1.2880     1.8720 H     1 <1>   0.0800 
 48 H       -5.2670     0.0590    -1.2000 H     1 <1>   0.0800 
 49 H       -5.1220     1.3940    -0.0840 H     1 <1>   0.0800 
 50 H       -6.1380     1.5780     2.3960 H     1 <1>   0.0800 
 51 H       -7.5410     0.8050     3.0610 H     1 <1>   0.0800 
 52 H       -7.5880    -0.2830    -0.5540 H     1 <1>   0.0800 
 53 H       -7.3550     1.3240    -1.1620 H     1 <1>   0.0800 
 54 H       -7.7340     2.3180     0.9010 H     1 <1>   0.0800 
 55 H       -8.7240     0.9000     1.0640 H     1 <1>   0.0800 
@<TRIPOS>BOND
  1   1   2  2   
  2   1   3  2   
  3   1   4  am  
  4   1   5  1   
  5   4   6  1   
  6   4   7  1   
  7   5   8  ar  
  8   5   9  ar  
  9   6  10  1   
 10   6  28  1   
 11   6  29  1   
 12   7  11  1   
 13   7  30  1   
 14   7  31  1   
 15   8  12  ar  
 16   8  32  1   
 17   9  13  ar  
 18   9  33  1   
 19  10  14  1   
 20  10  15  1   
 21  10  34  1   
 22  11  14  1   
 23  11  16  1   
 24  11  35  1   
 25  12  17  ar  
 26  12  18  1   
 27  13  17  ar  
 28  13  36  1   
 29  15  37  1   
 30  15  38  1   
 31  15  39  1   
 32  16  40  1   
 33  16  41  1   
 34  16  42  1   
 35  17  19  1   
 36  18  20  2   
 37  18  21  am  
 38  19  22  1   
 39  21  23  1   
 40  21  24  1   
 41  22  43  1   
 42  22  44  1   
 43  22  45  1   
 44  23  25  1   
 45  23  46  1   
 46  23  47  1   
 47  24  26  1   
 48  24  48  1   
 49  24  49  1   
 50  25  27  1   
 51  25  50  1   
 52  25  51  1   
 53  26  27  1   
 54  26  52  1   
 55  26  53  1   
 56  27  54  1   
 57  27  55  1   
@<TRIPOS>SUBSTRUCTURE
  1 ****   8 GROUP 4 **** **** 0

# MOE 2024.06 (io_trps.svl 2023.06)
