@<TRIPOS>MOLECULE
NONAME
50 53 1 0 0 
SMALL
USER_CHARGES


@<TRIPOS>ATOM
  1 O       -1.1760     2.6720     2.1300 O.co2 1 <1>  -0.9000 
  2 C       -0.6080     2.9630     1.0740 C.2   1 <1>   0.9060 
  3 O        0.6220     2.8870     0.9600 O.co2 1 <1>  -0.9000 
  4 C       -1.3870     3.4360    -0.1520 C.3   1 <1>  -0.1860 
  5 C       -2.0970     4.7800     0.0940 C.3   1 <1>  -0.0190 
  6 C       -2.3380     2.4010    -0.8010 C.3   1 <1>   0.0580 
  7 C       -1.1030     5.8520     0.5770 C.2   1 <1>   0.4230 
  8 C       -3.3600     4.6280     0.9820 C.3   1 <1>   0.0580 
  9 C       -3.7780     2.4530    -0.2670 C.2   1 <1>  -0.2760 
 10 C       -1.7340     0.9820    -0.6950 C.3   1 <1>  -0.1600 
 11 O       -1.2490     6.4160     1.6330 O.2   1 <1>  -0.5700 
 12 C       -0.0260     6.2020    -0.3170 C.ar  1 <1>   0.0860 
 13 C       -4.2010     3.3950     0.5970 C.2   1 <1>  -0.2760 
 14 C       -4.2140     5.9170     0.8410 C.3   1 <1>  -0.1600 
 15 C       -4.6360     1.3220    -0.8520 C.3   1 <1>  -0.0220 
 16 C       -2.6190    -0.0940    -1.3250 C.3   1 <1>  -0.1600 
 17 C        1.2900     5.8520    -0.0260 C.ar  1 <1>  -0.1500 
 18 C       -0.2630     6.9020    -1.5010 C.ar  1 <1>  -0.1500 
 19 C       -5.5360     3.3710     1.3500 C.3   1 <1>  -0.0220 
 20 C       -5.5450     5.8560     1.5930 C.3   1 <1>  -0.1600 
 21 C       -4.0000    -0.0570    -0.6700 C.3   1 <1>  -0.1600 
 22 C        2.3280     6.1820    -0.8780 C.ar  1 <1>  -0.1500 
 23 C        0.7700     7.2370    -2.3570 C.ar  1 <1>  -0.1500 
 24 C       -6.3500     4.6440     1.1290 C.3   1 <1>  -0.1600 
 25 C        2.0700     6.8770    -2.0460 C.ar  1 <1>  -0.1500 
 26 H       -0.6280     3.6140    -0.8900 H     1 <1>   0.0800 
 27 H       -2.4440     5.1010    -0.8700 H     1 <1>   0.0800 
 28 H       -2.3980     2.6440    -1.8480 H     1 <1>   0.0800 
 29 H       -3.0530     4.5130     2.0090 H     1 <1>   0.0800 
 30 H       -1.6090     0.7260     0.3440 H     1 <1>   0.0800 
 31 H       -0.7600     0.9690    -1.1520 H     1 <1>   0.0800 
 32 H       -4.4240     6.0840    -0.2000 H     1 <1>   0.0800 
 33 H       -3.6660     6.7660     1.2040 H     1 <1>   0.0800 
 34 H       -4.7500     1.5070    -1.9050 H     1 <1>   0.0800 
 35 H       -5.6230     1.2940    -0.4430 H     1 <1>   0.0800 
 36 H       -2.1700    -1.0600    -1.1740 H     1 <1>   0.0800 
 37 H       -2.7060     0.0790    -2.3840 H     1 <1>   0.0800 
 38 H        1.4880     5.2990     0.8800 H     1 <1>   0.1500 
 39 H       -1.2710     7.1880    -1.7430 H     1 <1>   0.1500 
 40 H       -5.3130     3.2790     2.3990 H     1 <1>   0.0800 
 41 H       -6.1430     2.5270     1.1020 H     1 <1>   0.0800 
 42 H       -6.1040     6.7570     1.4150 H     1 <1>   0.0800 
 43 H       -5.3520     5.7830     2.6500 H     1 <1>   0.0800 
 44 H       -4.6310    -0.8100    -1.1070 H     1 <1>   0.0800 
 45 H       -3.9060    -0.2630     0.3830 H     1 <1>   0.0800 
 46 H        3.3330     5.8890    -0.6270 H     1 <1>   0.1500 
 47 H        0.5660     7.7770    -3.2650 H     1 <1>   0.1500 
 48 H       -7.2700     4.5860     1.6830 H     1 <1>   0.0800 
 49 H       -6.5870     4.7370     0.0840 H     1 <1>   0.0800 
 50 H        2.8770     7.1330    -2.7090 H     1 <1>   0.1500 
@<TRIPOS>BOND
  1   1   2  ar  
  2   2   3  ar  
  3   2   4  1   
  4   4   5  1   
  5   4   6  1   
  6   4  26  1   
  7   5   7  1   
  8   5   8  1   
  9   5  27  1   
 10   6   9  1   
 11   6  10  1   
 12   6  28  1   
 13   7  11  2   
 14   7  12  1   
 15   8  13  1   
 16   8  14  1   
 17   8  29  1   
 18   9  13  2   
 19   9  15  1   
 20  10  16  1   
 21  10  30  1   
 22  10  31  1   
 23  12  17  ar  
 24  12  18  ar  
 25  13  19  1   
 26  14  20  1   
 27  14  32  1   
 28  14  33  1   
 29  15  21  1   
 30  15  34  1   
 31  15  35  1   
 32  16  21  1   
 33  16  36  1   
 34  16  37  1   
 35  17  22  ar  
 36  17  38  1   
 37  18  23  ar  
 38  18  39  1   
 39  19  24  1   
 40  19  40  1   
 41  19  41  1   
 42  20  24  1   
 43  20  42  1   
 44  20  43  1   
 45  21  44  1   
 46  21  45  1   
 47  22  25  ar  
 48  22  46  1   
 49  23  25  ar  
 50  23  47  1   
 51  24  48  1   
 52  24  49  1   
 53  25  50  1   
@<TRIPOS>SUBSTRUCTURE
  1 ****   5 GROUP 4 **** **** 0

# MOE 2024.06 (io_trps.svl 2023.06)
