@<TRIPOS>MOLECULE
NONAME
44 46 1 0 0 
SMALL
USER_CHARGES


@<TRIPOS>ATOM
  1 CL      -0.0520     0.5930    -1.3140 Cl    1 <1>  -0.1770 
  2 C       -0.3020     2.2560    -0.8440 C.ar  1 <1>   0.1770 
  3 C       -0.0210     3.2640    -1.7490 C.ar  1 <1>  -0.1500 
  4 C       -0.7750     2.5360     0.4250 C.ar  1 <1>  -0.1500 
  5 C       -0.2230     4.5830    -1.3760 C.ar  1 <1>  -0.1500 
  6 C       -0.9760     3.8560     0.7960 C.ar  1 <1>  -0.1500 
  7 C       -0.7070     4.8790    -0.1090 C.ar  1 <1>   0.0830 
  8 O       -0.8950     6.1820     0.2170 O.3   1 <1>  -0.1650 
  9 C       -1.9810     6.5870     0.9210 C.ar  1 <1>   0.0830 
 10 C       -3.2310     6.0030     0.7480 C.ar  1 <1>  -0.1500 
 11 C       -1.8260     7.6280     1.8230 C.ar  1 <1>  -0.1500 
 12 C       -4.3200     6.4490     1.4800 C.ar  1 <1>  -0.1430 
 13 C       -2.9090     8.0750     2.5570 C.ar  1 <1>  -0.1500 
 14 C       -4.1510     7.4860     2.3860 C.ar  1 <1>  -0.1500 
 15 C       -5.6910     5.8180     1.2870 C.3   1 <1>   0.2530 
 16 N       -6.6130     6.7740     0.6420 N.3   1 <1>  -0.8100 
 17 C       -6.1250     7.2100    -0.6940 C.3   1 <1>   0.1100 
 18 C       -7.9870     6.2310     0.5450 C.3   1 <1>   0.1100 
 19 C       -7.1130     8.1660    -1.4060 C.3   1 <1>   0.3430 
 20 C       -8.9760     7.2500    -0.0770 C.3   1 <1>   0.3430 
 21 N       -8.2710     8.5010    -0.5140 N.4   1 <1>  -0.9590 
 22 C       -9.1830     9.5350    -1.0810 C.3   1 <1>   0.2630 
 23 H        0.3510     3.0170    -2.7270 H     1 <1>   0.1500 
 24 H       -0.9790     1.7330     1.1100 H     1 <1>   0.1500 
 25 H       -0.0080     5.3830    -2.0610 H     1 <1>   0.1500 
 26 H       -1.3340     4.0900     1.7840 H     1 <1>   0.1500 
 27 H       -3.3480     5.2050     0.0370 H     1 <1>   0.1500 
 28 H       -0.8580     8.0810     1.9470 H     1 <1>   0.1500 
 29 H       -2.7870     8.8800     3.2610 H     1 <1>   0.1500 
 30 H       -4.9910     7.8400     2.9580 H     1 <1>   0.1500 
 31 H       -6.0790     5.5400     2.2530 H     1 <1>   0.0800 
 32 H       -5.6070     4.9240     0.6920 H     1 <1>   0.0800 
 33 H       -5.9480     6.3530    -1.3210 H     1 <1>   0.0800 
 34 H       -5.1860     7.7250    -0.5830 H     1 <1>   0.0800 
 35 H       -8.3380     5.9660     1.5290 H     1 <1>   0.0800 
 36 H       -7.9840     5.3330    -0.0500 H     1 <1>   0.0800 
 37 H       -7.4670     7.7000    -2.3100 H     1 <1>   0.0800 
 38 H       -6.5870     9.0650    -1.6830 H     1 <1>   0.0800 
 39 H       -9.7290     7.4940     0.6550 H     1 <1>   0.0800 
 40 H       -9.4730     6.7920    -0.9160 H     1 <1>   0.0800 
 41 H       -7.8170     8.8420     0.3510 H     1 <1>   0.4500 
 42 H       -9.6480     9.1710    -1.9830 H     1 <1>   0.0800 
 43 H       -8.6310    10.4310    -1.3140 H     1 <1>   0.0800 
 44 H       -9.9530     9.7830    -0.3700 H     1 <1>   0.0800 
@<TRIPOS>BOND
  1   1   2  1   
  2   2   3  ar  
  3   2   4  ar  
  4   3   5  ar  
  5   3  23  1   
  6   4   6  ar  
  7   4  24  1   
  8   5   7  ar  
  9   5  25  1   
 10   6   7  ar  
 11   6  26  1   
 12   7   8  1   
 13   8   9  1   
 14   9  10  ar  
 15   9  11  ar  
 16  10  12  ar  
 17  10  27  1   
 18  11  13  ar  
 19  11  28  1   
 20  12  14  ar  
 21  12  15  1   
 22  13  14  ar  
 23  13  29  1   
 24  14  30  1   
 25  15  16  1   
 26  15  31  1   
 27  15  32  1   
 28  16  17  1   
 29  16  18  1   
 30  17  19  1   
 31  17  33  1   
 32  17  34  1   
 33  18  20  1   
 34  18  35  1   
 35  18  36  1   
 36  19  21  1   
 37  19  37  1   
 38  19  38  1   
 39  20  21  1   
 40  20  39  1   
 41  20  40  1   
 42  21  22  1   
 43  21  41  1   
 44  22  42  1   
 45  22  43  1   
 46  22  44  1   
@<TRIPOS>SUBSTRUCTURE
  1 ****  10 GROUP 4 **** **** 0

# MOE 2024.06 (io_trps.svl 2023.06)
