@<TRIPOS>MOLECULE
NONAME
40 42 1 0 0 
SMALL
USER_CHARGES


@<TRIPOS>ATOM
  1 O       -1.0490    -1.0410    -1.5870 O.3   1 <1>  -0.3630 
  2 C       -0.5970    -1.7090    -0.4920 C.ar  1 <1>   0.0830 
  3 C       -0.2070    -0.7610    -2.6860 C.3   1 <1>   0.0400 
  4 C       -1.4570    -1.7490     0.6120 C.ar  1 <1>   0.0280 
  5 C        0.6460    -2.3310    -0.4430 C.ar  1 <1>  -0.1500 
  6 C       -2.7500    -1.1150     0.5580 C.2   1 <1>  -0.0410 
  7 C       -1.0360    -2.4200     1.7570 C.ar  1 <1>  -0.1500 
  8 C        1.0450    -2.9990     0.7090 C.ar  1 <1>   0.0830 
  9 N       -3.6760    -1.6000    -0.3540 N.2   1 <1>   1.5900 
 10 C       -3.1240    -0.0460     1.3350 C.2   1 <1>  -0.0380 
 11 C        0.1980    -3.0370     1.8040 C.ar  1 <1>  -0.1500 
 12 O        2.2340    -3.6340     0.8420 O.3   1 <1>  -0.3630 
 13 O       -3.4740    -2.6990    -0.9870 O.2   1 <1>  -0.5640 
 14 C       -4.8950    -0.9980    -0.5320 C.2   1 <1>  -0.1510 
 15 N       -4.3810     0.4830     1.1960 N.pl3 1 <1>  -0.5080 
 16 C       -2.2140     0.6320     2.3550 C.3   1 <1>  -0.1020 
 17 C        3.1790    -3.6800    -0.2050 C.3   1 <1>   0.0400 
 18 C       -5.2370     0.0280     0.2410 C.2   1 <1>  -0.0380 
 19 C       -5.9890    -1.3600    -1.5150 C.3   1 <1>  -0.0220 
 20 O       -4.7840     1.3980     1.9570 O.3   1 <1>  -0.6920 
 21 C       -6.6070     0.5710    -0.0530 C.3   1 <1>  -0.0220 
 22 C       -7.0750    -0.2910    -1.2480 C.3   1 <1>  -0.1600 
 23 H       -0.7550    -0.1530    -3.3840 H     1 <1>   0.0800 
 24 H        0.0790    -1.6860    -3.1550 H     1 <1>   0.0800 
 25 H        0.6570    -0.2220    -2.3370 H     1 <1>   0.0800 
 26 H        1.2980    -2.3020    -1.2910 H     1 <1>   0.1500 
 27 H       -1.6780    -2.4550     2.6220 H     1 <1>   0.1500 
 28 H        0.5180    -3.5530     2.6920 H     1 <1>   0.1500 
 29 H       -2.6290     0.5030     3.3380 H     1 <1>   0.0800 
 30 H       -2.1830     1.6870     2.1470 H     1 <1>   0.0800 
 31 H       -1.2110     0.2560     2.3400 H     1 <1>   0.0800 
 32 H        4.0310    -4.2380     0.1390 H     1 <1>   0.0800 
 33 H        3.4770    -2.6760    -0.4510 H     1 <1>   0.0800 
 34 H        2.7380    -4.1730    -1.0530 H     1 <1>   0.0800 
 35 H       -6.3700    -2.3470    -1.3170 H     1 <1>   0.0800 
 36 H       -5.6370    -1.3020    -2.5320 H     1 <1>   0.0800 
 37 H       -6.5420     1.6160    -0.3020 H     1 <1>   0.0800 
 38 H       -7.2360     0.4470     0.8110 H     1 <1>   0.0800 
 39 H       -8.0200    -0.7530    -1.0240 H     1 <1>   0.0800 
 40 H       -7.1950     0.3370    -2.1140 H     1 <1>   0.0800 
@<TRIPOS>BOND
  1   1   2  1   
  2   1   3  1   
  3   2   4  ar  
  4   2   5  ar  
  5   3  23  1   
  6   3  24  1   
  7   3  25  1   
  8   4   6  1   
  9   4   7  ar  
 10   5   8  ar  
 11   5  26  1   
 12   6   9  1   
 13   6  10  2   
 14   7  11  ar  
 15   7  27  1   
 16   8  11  ar  
 17   8  12  1   
 18   9  13  2   
 19   9  14  1   
 20  10  15  1   
 21  10  16  1   
 22  11  28  1   
 23  12  17  1   
 24  14  18  2   
 25  14  19  1   
 26  15  18  1   
 27  15  20  1   
 28  16  29  1   
 29  16  30  1   
 30  16  31  1   
 31  17  32  1   
 32  17  33  1   
 33  17  34  1   
 34  18  21  1   
 35  19  22  1   
 36  19  35  1   
 37  19  36  1   
 38  21  22  1   
 39  21  37  1   
 40  21  38  1   
 41  22  39  1   
 42  22  40  1   
@<TRIPOS>SUBSTRUCTURE
  1 ****   6 GROUP 4 **** **** 0

# MOE 2024.06 (io_trps.svl 2023.06)
