@<TRIPOS>MOLECULE
NONAME
51 53 1 0 0 
SMALL
USER_CHARGES


@<TRIPOS>ATOM
  1 O        0.6700    -3.5860     1.5860 O.2   1 <1>  -0.5700 
  2 C        0.0070    -2.6830     1.1360 C.2   1 <1>   0.5690 
  3 N        0.5820    -1.5190     0.7340 N.am  1 <1>  -0.7300 
  4 C       -1.4980    -2.8540     1.0070 C.3   1 <1>   0.0440 
  5 C        2.0120    -1.2210     0.8160 C.3   1 <1>   0.2200 
  6 C       -2.1590    -1.6560     0.3300 C.ar  1 <1>  -0.1440 
  7 C        2.2020     0.2380     1.2210 C.3   1 <1>  -0.1600 
  8 C        2.6540    -1.5010    -0.5400 C.3   1 <1>  -0.1600 
  9 C       -2.5980    -0.5790     1.0840 C.ar  1 <1>  -0.1500 
 10 C       -2.3000    -1.6210    -1.0480 C.ar  1 <1>  -0.1500 
 11 C        3.6840     0.6000     1.2200 C.3   1 <1>   0.3430 
 12 C        4.1310    -1.1230    -0.5160 C.3   1 <1>   0.3430 
 13 C       -3.1630     0.5220     0.4660 C.ar  1 <1>  -0.1500 
 14 C       -2.8660    -0.5190    -1.6650 C.ar  1 <1>  -0.1500 
 15 N        4.2780     0.3070    -0.1210 N.4   1 <1>  -0.9590 
 16 C       -3.2970     0.5600    -0.9110 C.ar  1 <1>  -0.1440 
 17 C        5.6990     0.7470    -0.1950 C.3   1 <1>   0.4860 
 18 C       -3.9220     1.7670    -1.5860 C.3   1 <1>  -0.0970 
 19 C        5.7450     2.2530    -0.0300 C.ar  1 <1>  -0.1440 
 20 C        6.2040     2.8110     1.1550 C.ar  1 <1>  -0.1500 
 21 C        5.3220     3.0840    -1.0580 C.ar  1 <1>  -0.1500 
 22 C        6.2270     4.1850     1.3140 C.ar  1 <1>  -0.1500 
 23 C        5.3460     4.4580    -0.8960 C.ar  1 <1>  -0.1500 
 24 C        5.7960     5.0090     0.2900 C.ar  1 <1>  -0.1500 
 25 H       -0.0380    -0.8090     0.3280 H     1 <1>   0.3700 
 26 H       -1.9100    -2.9940     1.9900 H     1 <1>   0.0800 
 27 H       -1.6940    -3.7480     0.4440 H     1 <1>   0.0800 
 28 H        2.4620    -1.8590     1.5610 H     1 <1>   0.0800 
 29 H        1.8080     0.3850     2.2120 H     1 <1>   0.0800 
 30 H        1.6730     0.8900     0.5490 H     1 <1>   0.0800 
 31 H        2.1510    -0.9520    -1.3170 H     1 <1>   0.0800 
 32 H        2.5660    -2.5510    -0.7590 H     1 <1>   0.0800 
 33 H       -2.5030    -0.5910     2.1570 H     1 <1>   0.1500 
 34 H       -1.9720    -2.4510    -1.6510 H     1 <1>   0.1500 
 35 H        4.1950     0.0300     1.9790 H     1 <1>   0.0800 
 36 H        3.7930     1.6480     1.4540 H     1 <1>   0.0800 
 37 H        4.5570    -1.2860    -1.4940 H     1 <1>   0.0800 
 38 H        4.6490    -1.7530     0.1890 H     1 <1>   0.0800 
 39 H       -3.5030     1.3500     1.0640 H     1 <1>   0.1500 
 40 H       -2.9740    -0.5070    -2.7360 H     1 <1>   0.1500 
 41 H        3.7680     0.8880    -0.7990 H     1 <1>   0.4500 
 42 H        6.1210     0.4840    -1.1520 H     1 <1>   0.0800 
 43 H        6.2800     0.2720     0.5780 H     1 <1>   0.0800 
 44 H       -4.9910     1.6500    -1.6210 H     1 <1>   0.0800 
 45 H       -3.5520     1.8740    -2.5900 H     1 <1>   0.0800 
 46 H       -3.6900     2.6650    -1.0420 H     1 <1>   0.0800 
 47 H        6.5510     2.1920     1.9660 H     1 <1>   0.1500 
 48 H        4.9760     2.6820    -1.9950 H     1 <1>   0.1500 
 49 H        6.5830     4.6200     2.2330 H     1 <1>   0.1500 
 50 H        5.0190     5.1050    -1.6940 H     1 <1>   0.1500 
 51 H        5.8160     6.0790     0.4140 H     1 <1>   0.1500 
@<TRIPOS>BOND
  1   1   2  2   
  2   2   3  am  
  3   2   4  1   
  4   3   5  1   
  5   3  25  1   
  6   4   6  1   
  7   4  26  1   
  8   4  27  1   
  9   5   7  1   
 10   5   8  1   
 11   5  28  1   
 12   6   9  ar  
 13   6  10  ar  
 14   7  11  1   
 15   7  29  1   
 16   7  30  1   
 17   8  12  1   
 18   8  31  1   
 19   8  32  1   
 20   9  13  ar  
 21   9  33  1   
 22  10  14  ar  
 23  10  34  1   
 24  11  15  1   
 25  11  35  1   
 26  11  36  1   
 27  12  15  1   
 28  12  37  1   
 29  12  38  1   
 30  13  16  ar  
 31  13  39  1   
 32  14  16  ar  
 33  14  40  1   
 34  15  17  1   
 35  15  41  1   
 36  16  18  1   
 37  17  19  1   
 38  17  42  1   
 39  17  43  1   
 40  18  44  1   
 41  18  45  1   
 42  18  46  1   
 43  19  20  ar  
 44  19  21  ar  
 45  20  22  ar  
 46  20  47  1   
 47  21  23  ar  
 48  21  48  1   
 49  22  24  ar  
 50  22  49  1   
 51  23  24  ar  
 52  23  50  1   
 53  24  51  1   
@<TRIPOS>SUBSTRUCTURE
  1 ****   7 GROUP 4 **** **** 0

# MOE 2024.06 (io_trps.svl 2023.06)
