@<TRIPOS>MOLECULE
NONAME
40 42 1 0 0 
SMALL
USER_CHARGES


@<TRIPOS>ATOM
  1 CL       0.0400    -0.3720     0.6760 Cl    1 <1>  -0.1770 
  2 C        1.5710    -1.1820     0.4470 C.ar  1 <1>   0.1770 
  3 C        1.9150    -1.6430    -0.8100 C.ar  1 <1>  -0.1500 
  4 C        2.4170    -1.3510     1.5280 C.ar  1 <1>  -0.1500 
  5 C        3.1290    -2.2840    -0.9850 C.ar  1 <1>  -0.1500 
  6 C        3.6290    -1.9930     1.3450 C.ar  1 <1>  -0.1500 
  7 C        3.9960    -2.4660     0.0870 C.ar  1 <1>   0.1000 
  8 N        5.2080    -3.1140    -0.1190 N.pl3 1 <1>  -0.8380 
  9 C        5.3330    -4.4800     0.4680 C.3   1 <1>   0.2090 
 10 C        6.4360    -2.2750     0.0040 C.3   1 <1>   0.2090 
 11 C        6.5660    -5.2110    -0.1060 C.3   1 <1>   0.3430 
 12 C        7.6630    -3.0170    -0.5660 C.3   1 <1>   0.3430 
 13 N        7.8310    -4.4000     0.0230 N.4   1 <1>  -0.9590 
 14 C        9.0080    -5.1090    -0.5450 C.3   1 <1>   0.4860 
 15 C       10.2640    -4.3340    -0.2030 C.ar  1 <1>  -0.1430 
 16 C       10.6650    -4.1890     1.1160 C.ar  1 <1>   0.1900 
 17 C       11.0450    -3.7510    -1.1910 C.ar  1 <1>  -0.1500 
 18 F        9.9330    -4.7210     2.0600 F     1 <1>  -0.1900 
 19 C       11.8000    -3.4900     1.4780 C.ar  1 <1>  -0.1500 
 20 C       12.1880    -3.0430    -0.8470 C.ar  1 <1>  -0.1500 
 21 C       12.5660    -2.9120     0.4810 C.ar  1 <1>  -0.1500 
 22 H        1.2400    -1.5000    -1.6340 H     1 <1>   0.1500 
 23 H        2.1240    -0.9820     2.4950 H     1 <1>   0.1500 
 24 H        3.4130    -2.6490    -1.9550 H     1 <1>   0.1500 
 25 H        4.2910    -2.1280     2.1790 H     1 <1>   0.1500 
 26 H        4.4440    -5.0450     0.2400 H     1 <1>   0.0800 
 27 H        5.4140    -4.4090     1.5390 H     1 <1>   0.0800 
 28 H        6.6060    -2.0280     1.0380 H     1 <1>   0.0800 
 29 H        6.2920    -1.3550    -0.5370 H     1 <1>   0.0800 
 30 H        6.3740    -5.4140    -1.1470 H     1 <1>   0.0800 
 31 H        6.6800    -6.1550     0.4000 H     1 <1>   0.0800 
 32 H        8.5460    -2.4270    -0.3800 H     1 <1>   0.0800 
 33 H        7.5380    -3.0940    -1.6330 H     1 <1>   0.0800 
 34 H        8.0320    -4.2800     1.0270 H     1 <1>   0.4500 
 35 H        8.9090    -5.1990    -1.6140 H     1 <1>   0.0800 
 36 H        9.0810    -6.0990    -0.1230 H     1 <1>   0.0800 
 37 H       10.7840    -3.8390    -2.2330 H     1 <1>   0.1500 
 38 H       12.0800    -3.4010     2.5140 H     1 <1>   0.1500 
 39 H       12.7940    -2.5930    -1.6160 H     1 <1>   0.1500 
 40 H       13.4570    -2.3620     0.7350 H     1 <1>   0.1500 
@<TRIPOS>BOND
  1   1   2  1   
  2   2   3  ar  
  3   2   4  ar  
  4   3   5  ar  
  5   3  22  1   
  6   4   6  ar  
  7   4  23  1   
  8   5   7  ar  
  9   5  24  1   
 10   6   7  ar  
 11   6  25  1   
 12   7   8  1   
 13   8   9  1   
 14   8  10  1   
 15   9  11  1   
 16   9  26  1   
 17   9  27  1   
 18  10  12  1   
 19  10  28  1   
 20  10  29  1   
 21  11  13  1   
 22  11  30  1   
 23  11  31  1   
 24  12  13  1   
 25  12  32  1   
 26  12  33  1   
 27  13  14  1   
 28  13  34  1   
 29  14  15  1   
 30  14  35  1   
 31  14  36  1   
 32  15  16  ar  
 33  15  17  ar  
 34  16  18  1   
 35  16  19  ar  
 36  17  20  ar  
 37  17  37  1   
 38  19  21  ar  
 39  19  38  1   
 40  20  21  ar  
 41  20  39  1   
 42  21  40  1   
@<TRIPOS>SUBSTRUCTURE
  1 ****  10 GROUP 4 **** **** 0

# MOE 2024.06 (io_trps.svl 2023.06)
