@<TRIPOS>MOLECULE
NONAME
31 31 1 0 0 
SMALL
USER_CHARGES


@<TRIPOS>ATOM
  1 O       -0.7230     0.4910    -1.2730 O.co2 1 <1>  -0.9000 
  2 C       -1.4280     0.7860    -0.3050 C.2   1 <1>   0.9060 
  3 O       -1.1810     1.7440     0.4350 O.co2 1 <1>  -0.9000 
  4 C       -2.6640    -0.0350    -0.0290 C.3   1 <1>  -0.2660 
  5 C       -3.9170     0.8600     0.0510 C.3   1 <1>  -0.0990 
  6 C       -5.2420     0.1390     0.2760 C.2   1 <1>   0.5690 
  7 O       -5.2490    -1.0470     0.5140 O.2   1 <1>  -0.5700 
  8 N       -6.4120     0.8520     0.2080 N.am  1 <1>  -0.6600 
  9 C       -7.7330     0.1730     0.3550 C.3   1 <1>   0.1400 
 10 C       -6.4860     2.3260    -0.0260 C.3   1 <1>   0.1400 
 11 C       -8.8250     0.9040    -0.4540 C.3   1 <1>   0.2000 
 12 C       -7.8320     2.9040     0.4590 C.3   1 <1>   0.2000 
 13 O       -8.9310     2.2680    -0.1350 O.3   1 <1>  -0.5600 
 14 C      -10.2070     0.2930    -0.2370 C.3   1 <1>  -0.2400 
 15 C       -7.9630     4.3930     0.1510 C.3   1 <1>  -0.2400 
 16 H       -2.5190    -0.5540     0.8980 H     1 <1>   0.0800 
 17 H       -2.7750    -0.7580    -0.8150 H     1 <1>   0.0800 
 18 H       -3.9820     1.4170    -0.8650 H     1 <1>   0.0800 
 19 H       -3.7750     1.5590     0.8550 H     1 <1>   0.0800 
 20 H       -8.0050     0.1490     1.3950 H     1 <1>   0.0800 
 21 H       -7.6590    -0.8430     0.0090 H     1 <1>   0.0800 
 22 H       -6.3690     2.5250    -1.0780 H     1 <1>   0.0800 
 23 H       -5.6880     2.8190     0.5000 H     1 <1>   0.0800 
 24 H       -8.5720     0.8430    -1.4990 H     1 <1>   0.0800 
 25 H       -7.9100     2.7540     1.5230 H     1 <1>   0.0800 
 26 H      -10.4910     0.3710     0.7970 H     1 <1>   0.0800 
 27 H      -10.2000    -0.7450    -0.5170 H     1 <1>   0.0800 
 28 H      -10.9310     0.8050    -0.8440 H     1 <1>   0.0800 
 29 H       -7.9170     4.5590    -0.9100 H     1 <1>   0.0800 
 30 H       -7.1670     4.9400     0.6230 H     1 <1>   0.0800 
 31 H       -8.9010     4.7610     0.5280 H     1 <1>   0.0800 
@<TRIPOS>BOND
  1   1   2  ar  
  2   2   3  ar  
  3   2   4  1   
  4   4   5  1   
  5   4  16  1   
  6   4  17  1   
  7   5   6  1   
  8   5  18  1   
  9   5  19  1   
 10   6   7  2   
 11   6   8  am  
 12   8   9  1   
 13   8  10  1   
 14   9  11  1   
 15   9  20  1   
 16   9  21  1   
 17  10  12  1   
 18  10  22  1   
 19  10  23  1   
 20  11  13  1   
 21  11  14  1   
 22  11  24  1   
 23  12  13  1   
 24  12  15  1   
 25  12  25  1   
 26  14  26  1   
 27  14  27  1   
 28  14  28  1   
 29  15  29  1   
 30  15  30  1   
 31  15  31  1   
@<TRIPOS>SUBSTRUCTURE
  1 ****   8 GROUP 4 **** **** 0

# MOE 2024.06 (io_trps.svl 2023.06)
