@<TRIPOS>MOLECULE
NONAME
24 24 1 0 0 
SMALL
USER_CHARGES


@<TRIPOS>ATOM
  1 CL      -0.2700    -0.6860     0.0220 Cl    1 <1>  -0.1770 
  2 C       -1.4020     0.6540     0.0130 C.ar  1 <1>   0.1770 
  3 C       -1.0270     2.0070     0.0140 C.ar  1 <1>   0.0820 
  4 C       -2.7390     0.2930     0.0070 C.ar  1 <1>  -0.1500 
  5 O        0.2330     2.5270     0.0200 O.3   1 <1>  -0.3630 
  6 C       -2.0340     2.9620     0.0080 C.ar  1 <1>  -0.1500 
  7 C       -3.7250     1.2630     0.0010 C.ar  1 <1>  -0.1500 
  8 C        1.4100     1.7590     0.0130 C.3   1 <1>   0.1200 
  9 C       -3.3700     2.6000     0.0020 C.ar  1 <1>  -0.1500 
 10 C        2.6000     2.7170     0.0100 C.3   1 <1>  -0.1600 
 11 C        3.9200     1.9440     0.0030 C.3   1 <1>   0.0700 
 12 S        5.3020     3.1660     0.0000 S.3   1 <1>  -0.2660 
 13 C        6.7650     2.1120    -0.0080 C.1   1 <1>   0.5930 
 14 N        7.6680     1.4200    -0.0120 N.1   1 <1>  -0.5570 
 15 H       -3.0050    -0.7490     0.0060 H     1 <1>   0.1500 
 16 H       -1.7630     4.0030     0.0090 H     1 <1>   0.1500 
 17 H       -4.7640     0.9790    -0.0040 H     1 <1>   0.1500 
 18 H        1.4120     1.1500    -0.8740 H     1 <1>   0.0800 
 19 H        1.4200     1.1470     0.8980 H     1 <1>   0.0800 
 20 H       -4.1330     3.3600    -0.0030 H     1 <1>   0.1500 
 21 H        2.5560     3.3380     0.8880 H     1 <1>   0.0800 
 22 H        2.5480     3.3410    -0.8650 H     1 <1>   0.0800 
 23 H        4.0240     1.3400    -0.8820 H     1 <1>   0.0800 
 24 H        4.0310     1.3370     0.8850 H     1 <1>   0.0800 
@<TRIPOS>BOND
  1   1   2  1   
  2   2   3  ar  
  3   2   4  ar  
  4   3   5  1   
  5   3   6  ar  
  6   4   7  ar  
  7   4  15  1   
  8   5   8  1   
  9   6   9  ar  
 10   6  16  1   
 11   7   9  ar  
 12   7  17  1   
 13   8  10  1   
 14   8  18  1   
 15   8  19  1   
 16   9  20  1   
 17  10  11  1   
 18  10  21  1   
 19  10  22  1   
 20  11  12  1   
 21  11  23  1   
 22  11  24  1   
 23  12  13  1   
 24  13  14  3   
@<TRIPOS>SUBSTRUCTURE
  1 ****   8 GROUP 4 **** **** 0

# MOE 2024.06 (io_trps.svl 2023.06)
