@<TRIPOS>MOLECULE
NONAME
46 48 1 0 0 
SMALL
USER_CHARGES


@<TRIPOS>ATOM
  1 O       -1.2040    -2.4150     2.6860 O.2   1 <1>  -0.5700 
  2 C       -1.1330    -2.6720     1.5110 C.2   1 <1>   0.5690 
  3 N        0.1060    -2.9070     1.0050 N.am  1 <1>  -0.7300 
  4 C       -2.4460    -2.7390     0.7400 C.3   1 <1>  -0.0990 
  5 C        0.7730    -3.4090    -0.2140 C.3   1 <1>   0.3000 
  6 C       -3.0140    -1.3860     0.2490 C.3   1 <1>   0.0000 
  7 C        1.9290    -4.3280     0.2560 C.3   1 <1>   0.1200 
  8 C        1.3400    -2.2050    -0.9730 C.3   1 <1>  -0.2400 
  9 C       -0.1520    -4.2120    -1.1300 C.3   1 <1>  -0.2400 
 10 C       -2.0280    -0.6590    -0.6920 C.3   1 <1>  -0.1600 
 11 C       -3.3370    -0.4450     1.4360 C.3   1 <1>  -0.1600 
 12 C       -4.3250    -1.6480    -0.5300 C.3   1 <1>  -0.1600 
 13 O        2.7560    -3.6920     1.1870 O.3   1 <1>  -0.6800 
 14 C       -2.6270     0.6650    -1.2020 C.3   1 <1>  -0.0800 
 15 C       -3.9460     0.8790     0.9370 C.3   1 <1>  -0.0800 
 16 C       -4.9380    -0.3300    -1.0400 C.3   1 <1>  -0.0800 
 17 C       -2.9420     1.5740     0.0000 C.3   1 <1>  -0.1600 
 18 C       -3.9290     0.3700    -1.9690 C.3   1 <1>  -0.1600 
 19 C       -5.2420     0.5820     0.1620 C.3   1 <1>  -0.1600 
 20 H        0.8150    -2.8360     1.7430 H     1 <1>   0.3700 
 21 H       -3.1670    -3.1770     1.4060 H     1 <1>   0.0800 
 22 H       -2.3670    -3.4140    -0.0800 H     1 <1>   0.0800 
 23 H        2.5360    -4.6340    -0.5780 H     1 <1>   0.0800 
 24 H        1.5280    -5.2080     0.7270 H     1 <1>   0.0800 
 25 H        1.9520    -2.5360    -1.7930 H     1 <1>   0.0800 
 26 H        1.9380    -1.5890    -0.3260 H     1 <1>   0.0800 
 27 H        0.5490    -1.6040    -1.3770 H     1 <1>   0.0800 
 28 H        0.4230    -4.6900    -1.9020 H     1 <1>   0.0800 
 29 H       -0.8620    -3.5720    -1.6180 H     1 <1>   0.0800 
 30 H       -0.6630    -4.9770    -0.5730 H     1 <1>   0.0800 
 31 H       -1.7950    -1.2890    -1.5310 H     1 <1>   0.0800 
 32 H       -1.1130    -0.4470    -0.1660 H     1 <1>   0.0800 
 33 H       -4.0240    -0.9270     2.1100 H     1 <1>   0.0800 
 34 H       -2.4420    -0.2270     1.9910 H     1 <1>   0.0800 
 35 H       -5.0360    -2.1450     0.1070 H     1 <1>   0.0800 
 36 H       -4.1310    -2.2940    -1.3680 H     1 <1>   0.0800 
 37 H        3.1790    -2.9050     0.7920 H     1 <1>   0.4000 
 38 H       -1.9240     1.1550    -1.8530 H     1 <1>   0.0800 
 39 H       -4.1620     1.5170     1.7770 H     1 <1>   0.0800 
 40 H       -5.8470    -0.5360    -1.5800 H     1 <1>   0.0800 
 41 H       -3.3510     2.5070    -0.3450 H     1 <1>   0.0800 
 42 H       -2.0360     1.7930     0.5380 H     1 <1>   0.0800 
 43 H       -3.7190    -0.2560    -2.8180 H     1 <1>   0.0800 
 44 H       -4.3510     1.2890    -2.3370 H     1 <1>   0.0800 
 45 H       -5.6800     1.5030    -0.1820 H     1 <1>   0.0800 
 46 H       -5.9540     0.1040     0.8120 H     1 <1>   0.0800 
@<TRIPOS>BOND
  1   1   2  2   
  2   2   3  am  
  3   2   4  1   
  4   3   5  1   
  5   3  20  1   
  6   4   6  1   
  7   4  21  1   
  8   4  22  1   
  9   5   7  1   
 10   5   8  1   
 11   5   9  1   
 12   6  10  1   
 13   6  11  1   
 14   6  12  1   
 15   7  13  1   
 16   7  23  1   
 17   7  24  1   
 18   8  25  1   
 19   8  26  1   
 20   8  27  1   
 21   9  28  1   
 22   9  29  1   
 23   9  30  1   
 24  10  14  1   
 25  10  31  1   
 26  10  32  1   
 27  11  15  1   
 28  11  33  1   
 29  11  34  1   
 30  12  16  1   
 31  12  35  1   
 32  12  36  1   
 33  13  37  1   
 34  14  17  1   
 35  14  18  1   
 36  14  38  1   
 37  15  17  1   
 38  15  19  1   
 39  15  39  1   
 40  16  18  1   
 41  16  19  1   
 42  16  40  1   
 43  17  41  1   
 44  17  42  1   
 45  18  43  1   
 46  18  44  1   
 47  19  45  1   
 48  19  46  1   
@<TRIPOS>SUBSTRUCTURE
  1 ****  10 GROUP 4 **** **** 0

# MOE 2024.06 (io_trps.svl 2023.06)
