@<TRIPOS>MOLECULE
NONAME
39 41 1 0 0 
SMALL
USER_CHARGES


@<TRIPOS>ATOM
  1 CL      -0.0400    -2.2440     2.2610 Cl    1 <1>  -0.1770 
  2 C       -0.7180    -2.4320     0.6580 C.ar  1 <1>   0.1770 
  3 C        0.0900    -2.5770    -0.4720 C.ar  1 <1>  -0.1440 
  4 C       -2.0970    -2.4300     0.5700 C.ar  1 <1>  -0.1500 
  5 C       -0.5340    -2.7220    -1.7080 C.ar  1 <1>  -0.1500 
  6 C        1.6190    -2.5860    -0.4640 C.3   1 <1>   0.5660 
  7 C       -2.6840    -2.5760    -0.6700 C.ar  1 <1>   0.1770 
  8 C       -1.9160    -2.7220    -1.8090 C.ar  1 <1>  -0.1500 
  9 N        2.1330    -3.3940     0.6590 N.4   1 <1>  -0.9060 
 10 C        2.2550    -1.1820    -0.5300 C.3   1 <1>  -0.0800 
 11 CL      -4.4220    -2.5770    -0.8000 Cl    1 <1>  -0.1770 
 12 C        3.6010    -3.5830     0.5830 C.3   1 <1>   0.3430 
 13 C        3.7950    -1.2970    -0.4900 C.3   1 <1>   0.2800 
 14 C        1.7710    -0.1220     0.4840 C.3   1 <1>  -0.1600 
 15 C        4.2820    -2.2220     0.6340 C.3   1 <1>  -0.1600 
 16 O        4.1570    -1.9000    -1.6730 O.3   1 <1>  -0.6800 
 17 C        4.5110     0.0700    -0.3980 C.3   1 <1>  -0.1600 
 18 C        2.3520     1.2720     0.1620 C.3   1 <1>  -0.1600 
 19 C        3.5940     1.2480    -0.7510 C.3   1 <1>  -0.1600 
 20 H       -2.7090    -2.3160     1.4470 H     1 <1>   0.1500 
 21 H        0.0430    -2.8340    -2.6120 H     1 <1>   0.1500 
 22 H        1.9260    -3.0850    -1.3700 H     1 <1>   0.0800 
 23 H       -2.4030    -2.8340    -2.7630 H     1 <1>   0.1500 
 24 H        1.6520    -4.2990     0.6520 H     1 <1>   0.4500 
 25 H        1.8680    -2.9210     1.5320 H     1 <1>   0.4500 
 26 H        1.9770    -0.7950    -1.4950 H     1 <1>   0.0800 
 27 H        3.8630    -4.0750    -0.3420 H     1 <1>   0.0800 
 28 H        3.9430    -4.1930     1.4040 H     1 <1>   0.0800 
 29 H        2.0700    -0.4020     1.4790 H     1 <1>   0.0800 
 30 H        0.6970    -0.0430     0.4740 H     1 <1>   0.0800 
 31 H        5.3460    -2.3560     0.5490 H     1 <1>   0.0800 
 32 H        4.0960    -1.7730     1.5930 H     1 <1>   0.0800 
 33 H        4.3860    -1.2130    -2.3340 H     1 <1>   0.4000 
 34 H        5.3960     0.0850    -1.0120 H     1 <1>   0.0800 
 35 H        4.8400     0.2340     0.6140 H     1 <1>   0.0800 
 36 H        2.6020     1.7620     1.0880 H     1 <1>   0.0800 
 37 H        1.5960     1.8750    -0.3140 H     1 <1>   0.0800 
 38 H        3.2880     1.1710    -1.7810 H     1 <1>   0.0800 
 39 H        4.1310     2.1760    -0.6470 H     1 <1>   0.0800 
@<TRIPOS>BOND
  1   1   2  1   
  2   2   3  ar  
  3   2   4  ar  
  4   3   5  ar  
  5   3   6  1   
  6   4   7  ar  
  7   4  20  1   
  8   5   8  ar  
  9   5  21  1   
 10   6   9  1   
 11   6  10  1   
 12   6  22  1   
 13   7   8  ar  
 14   7  11  1   
 15   8  23  1   
 16   9  12  1   
 17   9  24  1   
 18   9  25  1   
 19  10  13  1   
 20  10  14  1   
 21  10  26  1   
 22  12  15  1   
 23  12  27  1   
 24  12  28  1   
 25  13  15  1   
 26  13  16  1   
 27  13  17  1   
 28  14  18  1   
 29  14  29  1   
 30  14  30  1   
 31  15  31  1   
 32  15  32  1   
 33  16  33  1   
 34  17  19  1   
 35  17  34  1   
 36  17  35  1   
 37  18  19  1   
 38  18  36  1   
 39  18  37  1   
 40  19  38  1   
 41  19  39  1   
@<TRIPOS>SUBSTRUCTURE
  1 ****   6 GROUP 4 **** **** 0

# MOE 2024.06 (io_trps.svl 2023.06)
