@<TRIPOS>MOLECULE
NONAME
47 50 1 0 0 
SMALL
USER_CHARGES


@<TRIPOS>ATOM
  1 CL       2.9150     2.7900     2.3850 Cl    1 <1>  -0.1770 
  2 C        2.8840     1.1550     1.7600 C.ar  1 <1>   0.1770 
  3 C        3.0990     0.9070     0.4100 C.ar  1 <1>  -0.1440 
  4 C        2.6390     0.1270     2.6520 C.ar  1 <1>  -0.1500 
  5 C        3.0600    -0.4070    -0.0350 C.ar  1 <1>  -0.1500 
  6 C        3.3710     2.0390    -0.5680 C.3   1 <1>   0.2540 
  7 C        2.6060    -1.1790     2.1950 C.ar  1 <1>  -0.1500 
  8 C        2.8160    -1.4430     0.8520 C.ar  1 <1>  -0.1500 
  9 N        4.6960     2.6330    -0.3140 N.3   1 <1>  -0.8100 
 10 C        5.8250     1.6940    -0.5130 C.3   1 <1>   0.1100 
 11 C        4.9060     3.8900    -1.0690 C.3   1 <1>   0.1100 
 12 C        7.1760     2.3250    -0.0920 C.3   1 <1>   0.3430 
 13 C        6.2770     4.5380    -0.7560 C.3   1 <1>   0.3430 
 14 N        7.0060     3.7600     0.3020 N.4   1 <1>  -0.9590 
 15 C        8.2340     4.4130     0.8110 C.3   1 <1>   0.5240 
 16 C        7.8530     5.7790     1.3320 C.2   1 <1>  -0.1810 
 17 C        7.9980     6.9710     0.5870 C.ar  1 <1>   0.0000 
 18 C        7.3050     6.1030     2.5290 C.2   1 <1>  -0.3020 
 19 C        7.4960     7.9920     1.3870 C.ar  1 <1>  -0.1520 
 20 C        8.5000     7.2760    -0.6850 C.ar  1 <1>  -0.1500 
 21 N        7.0850     7.4510     2.5780 N.pl3 1 <1>   0.0330 
 22 C        7.4680     9.3130     0.9360 C.ar  1 <1>  -0.1500 
 23 C        8.4740     8.5780    -1.1280 C.ar  1 <1>  -0.1500 
 24 C        7.9550     9.5960    -0.3190 C.ar  1 <1>  -0.1500 
 25 H        2.4740     0.3490     3.6910 H     1 <1>   0.1500 
 26 H        3.2160    -0.6360    -1.0760 H     1 <1>   0.1500 
 27 H        2.6100     2.7910    -0.4400 H     1 <1>   0.0800 
 28 H        3.3160     1.6810    -1.5820 H     1 <1>   0.0800 
 29 H        2.4140    -1.9870     2.8810 H     1 <1>   0.1500 
 30 H        2.7850    -2.4600     0.4970 H     1 <1>   0.1500 
 31 H        5.8750     1.3940    -1.5460 H     1 <1>   0.0800 
 32 H        5.6720     0.8050     0.0750 H     1 <1>   0.0800 
 33 H        4.1300     4.5910    -0.8110 H     1 <1>   0.0800 
 34 H        4.8340     3.7030    -2.1280 H     1 <1>   0.0800 
 35 H        7.8740     2.2440    -0.9090 H     1 <1>   0.0800 
 36 H        7.5730     1.7640     0.7380 H     1 <1>   0.0800 
 37 H        6.1090     5.5500    -0.4240 H     1 <1>   0.0800 
 38 H        6.8670     4.5820    -1.6550 H     1 <1>   0.0800 
 39 H        6.3210     3.7380     1.0750 H     1 <1>   0.4500 
 40 H        8.9690     4.5080     0.0290 H     1 <1>   0.0800 
 41 H        8.6540     3.8320     1.6150 H     1 <1>   0.0800 
 42 H        7.0470     5.4660     3.3590 H     1 <1>   0.1500 
 43 H        8.9090     6.5020    -1.3060 H     1 <1>   0.1500 
 44 H        6.6880     7.9830     3.3610 H     1 <1>   0.2700 
 45 H        7.0730    10.0920     1.5640 H     1 <1>   0.1500 
 46 H        8.8550     8.8340    -2.1020 H     1 <1>   0.1500 
 47 H        7.9460    10.6070    -0.6900 H     1 <1>   0.1500 
@<TRIPOS>BOND
  1   1   2  1   
  2   2   3  ar  
  3   2   4  ar  
  4   3   5  ar  
  5   3   6  1   
  6   4   7  ar  
  7   4  25  1   
  8   5   8  ar  
  9   5  26  1   
 10   6   9  1   
 11   6  27  1   
 12   6  28  1   
 13   7   8  ar  
 14   7  29  1   
 15   8  30  1   
 16   9  10  1   
 17   9  11  1   
 18  10  12  1   
 19  10  31  1   
 20  10  32  1   
 21  11  13  1   
 22  11  33  1   
 23  11  34  1   
 24  12  14  1   
 25  12  35  1   
 26  12  36  1   
 27  13  14  1   
 28  13  37  1   
 29  13  38  1   
 30  14  15  1   
 31  14  39  1   
 32  15  16  1   
 33  15  40  1   
 34  15  41  1   
 35  16  17  1   
 36  16  18  2   
 37  17  19  ar  
 38  17  20  ar  
 39  18  21  1   
 40  18  42  1   
 41  19  21  1   
 42  19  22  ar  
 43  20  23  ar  
 44  20  43  1   
 45  21  44  1   
 46  22  24  ar  
 47  22  45  1   
 48  23  24  ar  
 49  23  46  1   
 50  24  47  1   
@<TRIPOS>SUBSTRUCTURE
  1 ****  14 GROUP 4 **** **** 0

# MOE 2024.06 (io_trps.svl 2023.06)
