@<TRIPOS>MOLECULE
NONAME
49 50 1 0 0 
SMALL
USER_CHARGES


@<TRIPOS>ATOM
  1 O       -0.7520     0.5820     0.6330 O.2   1 <1>  -0.5700 
  2 C       -0.6570     1.1620    -0.4210 C.2   1 <1>   0.5690 
  3 N       -1.5800     1.0650    -1.4150 N.am  1 <1>  -0.7300 
  4 C        0.5340     2.0890    -0.6640 C.3   1 <1>  -0.0190 
  5 C       -2.9230     0.4440    -1.4070 C.3   1 <1>   0.3640 
  6 C        1.7880     1.6790     0.1360 C.3   1 <1>  -0.1600 
  7 C        0.1570     3.5470    -0.3400 C.3   1 <1>  -0.1600 
  8 C       -3.9460     1.4980    -0.9990 C.ar  1 <1>  -0.1440 
  9 C       -3.0190    -0.8210    -0.5540 C.3   1 <1>  -0.2400 
 10 C        2.9480     2.6510    -0.0960 C.3   1 <1>   0.1400 
 11 C        1.3340     4.5000    -0.5620 C.3   1 <1>   0.1400 
 12 C       -4.9550     1.8690    -1.8780 C.ar  1 <1>  -0.1500 
 13 C       -3.8840     2.1080     0.2480 C.ar  1 <1>  -0.1500 
 14 N        2.5060     4.0350     0.2290 N.am  1 <1>  -0.6600 
 15 C       -5.8780     2.8350    -1.5170 C.ar  1 <1>  -0.1500 
 16 C       -4.8050     3.0740     0.6110 C.ar  1 <1>  -0.1500 
 17 C        3.0670     4.8370     1.1910 C.2   1 <1>   0.5690 
 18 C       -5.8110     3.4450    -0.2760 C.ar  1 <1>   0.0820 
 19 O        2.6790     5.9610     1.4000 O.2   1 <1>  -0.5700 
 20 C        4.2120     4.3380     2.0410 C.3   1 <1>  -0.1790 
 21 O       -6.7520     4.3830    -0.0040 O.3   1 <1>  -0.3620 
 22 C       -6.7870     5.0460     1.2380 C.3   1 <1>   0.1200 
 23 C       -7.9580     6.0240     1.2190 C.3   1 <1>  -0.2400 
 24 H       -1.4650     1.6900    -2.2100 H     1 <1>   0.3700 
 25 H        0.7820     2.0290    -1.7080 H     1 <1>   0.0800 
 26 H       -3.1320     0.1470    -2.4200 H     1 <1>   0.0800 
 27 H        2.0890     0.6870    -0.1490 H     1 <1>   0.0800 
 28 H        1.5610     1.6600     1.1880 H     1 <1>   0.0800 
 29 H       -0.1560     3.6190     0.6880 H     1 <1>   0.0800 
 30 H       -0.6700     3.8580    -0.9530 H     1 <1>   0.0800 
 31 H       -2.9540    -0.5900     0.4930 H     1 <1>   0.0800 
 32 H       -2.2370    -1.5080    -0.8180 H     1 <1>   0.0800 
 33 H       -3.9680    -1.2950    -0.7260 H     1 <1>   0.0800 
 34 H        3.2530     2.6160    -1.1280 H     1 <1>   0.0800 
 35 H        3.7880     2.3540     0.5050 H     1 <1>   0.0800 
 36 H        1.0470     5.4970    -0.2710 H     1 <1>   0.0800 
 37 H        1.6020     4.5250    -1.6040 H     1 <1>   0.0800 
 38 H       -5.0300     1.4120    -2.8480 H     1 <1>   0.1500 
 39 H       -3.1090     1.8290     0.9420 H     1 <1>   0.1500 
 40 H       -6.6590     3.1230    -2.1970 H     1 <1>   0.1500 
 41 H       -4.7210     3.5220     1.5830 H     1 <1>   0.1500 
 42 H        5.0580     4.1150     1.4190 H     1 <1>   0.0800 
 43 H        3.9100     3.4610     2.5800 H     1 <1>   0.0800 
 44 H        4.4950     5.0960     2.7480 H     1 <1>   0.0800 
 45 H       -5.8560     5.5690     1.3710 H     1 <1>   0.0800 
 46 H       -6.9180     4.3100     2.0130 H     1 <1>   0.0800 
 47 H       -7.8250     6.7420     0.4300 H     1 <1>   0.0800 
 48 H       -8.0110     6.5470     2.1560 H     1 <1>   0.0800 
 49 H       -8.8800     5.4910     1.0680 H     1 <1>   0.0800 
@<TRIPOS>BOND
  1   1   2  2   
  2   2   3  am  
  3   2   4  1   
  4   3   5  1   
  5   3  24  1   
  6   4   6  1   
  7   4   7  1   
  8   4  25  1   
  9   5   8  1   
 10   5   9  1   
 11   5  26  1   
 12   6  10  1   
 13   6  27  1   
 14   6  28  1   
 15   7  11  1   
 16   7  29  1   
 17   7  30  1   
 18   8  12  ar  
 19   8  13  ar  
 20   9  31  1   
 21   9  32  1   
 22   9  33  1   
 23  10  14  1   
 24  10  34  1   
 25  10  35  1   
 26  11  14  1   
 27  11  36  1   
 28  11  37  1   
 29  12  15  ar  
 30  12  38  1   
 31  13  16  ar  
 32  13  39  1   
 33  14  17  am  
 34  15  18  ar  
 35  15  40  1   
 36  16  18  ar  
 37  16  41  1   
 38  17  19  2   
 39  17  20  1   
 40  18  21  1   
 41  20  42  1   
 42  20  43  1   
 43  20  44  1   
 44  21  22  1   
 45  22  23  1   
 46  22  45  1   
 47  22  46  1   
 48  23  47  1   
 49  23  48  1   
 50  23  49  1   
@<TRIPOS>SUBSTRUCTURE
  1 ****   7 GROUP 4 **** **** 0

# MOE 2024.06 (io_trps.svl 2023.06)
