@<TRIPOS>MOLECULE
NONAME
25 25 1 0 0 
SMALL
USER_CHARGES


@<TRIPOS>ATOM
  1 O       -1.6040     1.8300     0.5930 O.3   1 <1>  -0.6800 
  2 C       -2.9230     2.2530     0.4960 C.3   1 <1>   0.1200 
  3 C       -3.7010     1.3660    -0.5100 C.3   1 <1>  -0.0800 
  4 C       -3.8610    -0.1530    -0.0260 C.3   1 <1>   0.5030 
  5 C       -5.0440     2.0570    -0.8040 C.3   1 <1>  -0.1600 
  6 N       -2.5190    -0.4470    -0.5560 N.4   1 <1>  -0.8530 
  7 C       -5.3250     0.1380     0.4940 C.3   1 <1>  -0.1600 
  8 C       -3.9380    -1.6470     0.4780 C.3   1 <1>  -0.2400 
  9 C       -6.0690     1.0200    -0.4860 C.3   1 <1>  -0.1600 
 10 H       -1.0860     2.4610     1.1440 H     1 <1>   0.4000 
 11 H       -3.3670     2.2150     1.4780 H     1 <1>   0.0800 
 12 H       -2.9100     3.2780     0.1600 H     1 <1>   0.0800 
 13 H       -3.1980     1.4610    -1.4630 H     1 <1>   0.0800 
 14 H       -5.2030     2.9200    -0.1760 H     1 <1>   0.0800 
 15 H       -5.1260     2.3680    -1.8330 H     1 <1>   0.0800 
 16 H       -2.5410    -0.6140    -1.5620 H     1 <1>   0.4500 
 17 H       -2.0730    -1.2240    -0.0740 H     1 <1>   0.4500 
 18 H       -1.9300     0.3820    -0.3570 H     1 <1>   0.4500 
 19 H       -5.9910    -0.6980     0.6520 H     1 <1>   0.0800 
 20 H       -5.2580     0.6450     1.4430 H     1 <1>   0.0800 
 21 H       -4.2760    -1.6880     1.5040 H     1 <1>   0.0800 
 22 H       -3.0660    -2.2850     0.5080 H     1 <1>   0.0800 
 23 H       -4.6500    -2.1910    -0.1230 H     1 <1>   0.0800 
 24 H       -6.3290     0.4620    -1.3700 H     1 <1>   0.0800 
 25 H       -6.9610     1.4490    -0.0580 H     1 <1>   0.0800 
@<TRIPOS>BOND
  1   1   2  1   
  2   1  10  1   
  3   2   3  1   
  4   2  11  1   
  5   2  12  1   
  6   3   4  1   
  7   3   5  1   
  8   3  13  1   
  9   4   6  1   
 10   4   7  1   
 11   4   8  1   
 12   5   9  1   
 13   5  14  1   
 14   5  15  1   
 15   6  16  1   
 16   6  17  1   
 17   6  18  1   
 18   7   9  1   
 19   7  19  1   
 20   7  20  1   
 21   8  21  1   
 22   8  22  1   
 23   8  23  1   
 24   9  24  1   
 25   9  25  1   
@<TRIPOS>SUBSTRUCTURE
  1 ****   3 GROUP 4 **** **** 0

# MOE 2024.06 (io_trps.svl 2023.06)
