@<TRIPOS>MOLECULE
NONAME
31 31 1 0 0 
SMALL
USER_CHARGES


@<TRIPOS>ATOM
  1 F       -1.0080     0.6890    -0.8170 F     1 <1>  -0.3400 
  2 C       -0.3860     1.3060     0.1790 C.3   1 <1>   1.1640 
  3 F       -1.0840     1.0240     1.2770 F     1 <1>  -0.3400 
  4 F        0.7800     0.6870     0.3240 F     1 <1>  -0.3400 
  5 C       -0.2560     2.8150    -0.0560 C.ar  1 <1>  -0.1440 
  6 C       -1.3930     3.6300    -0.0570 C.ar  1 <1>   0.1170 
  7 C        0.9940     3.3870    -0.2840 C.ar  1 <1>  -0.1500 
  8 N       -2.6750     3.1050     0.1890 N.am  1 <1>  -0.5470 
  9 C       -1.2410     4.9930    -0.2910 C.ar  1 <1>  -0.1500 
 10 C        1.1240     4.7440    -0.5120 C.ar  1 <1>  -0.1500 
 11 C       -3.8730     3.4200    -0.3880 C.2   1 <1>   0.5690 
 12 C        0.0020     5.5490    -0.5170 C.ar  1 <1>  -0.1500 
 13 O       -4.0040     4.2660    -1.2360 O.2   1 <1>  -0.5700 
 14 C       -5.0940     2.6450     0.0680 C.3   1 <1>  -0.0990 
 15 C       -5.0510     1.1730    -0.3740 C.3   1 <1>  -0.1600 
 16 C       -6.3020     0.4150     0.0860 C.3   1 <1>  -0.1600 
 17 C       -6.2500    -1.0490    -0.3560 C.3   1 <1>  -0.2400 
 18 H        1.8870     2.7830    -0.2920 H     1 <1>   0.1500 
 19 H       -2.7210     2.3370     0.8620 H     1 <1>   0.3700 
 20 H       -2.1080     5.6310    -0.2980 H     1 <1>   0.1500 
 21 H        2.0950     5.1740    -0.6890 H     1 <1>   0.1500 
 22 H        0.0940     6.6070    -0.6980 H     1 <1>   0.1500 
 23 H       -5.9680     3.1170    -0.3460 H     1 <1>   0.0800 
 24 H       -5.1640     2.7090     1.1390 H     1 <1>   0.0800 
 25 H       -4.1760     0.6940     0.0310 H     1 <1>   0.0800 
 26 H       -4.9820     1.1320    -1.4490 H     1 <1>   0.0800 
 27 H       -7.1800     0.8790    -0.3310 H     1 <1>   0.0800 
 28 H       -6.3800     0.4580     1.1600 H     1 <1>   0.0800 
 29 H       -6.1940    -1.1170    -1.4280 H     1 <1>   0.0800 
 30 H       -7.1360    -1.5650    -0.0280 H     1 <1>   0.0800 
 31 H       -5.3920    -1.5420     0.0670 H     1 <1>   0.0800 
@<TRIPOS>BOND
  1   1   2  1   
  2   2   3  1   
  3   2   4  1   
  4   2   5  1   
  5   5   6  ar  
  6   5   7  ar  
  7   6   8  1   
  8   6   9  ar  
  9   7  10  ar  
 10   7  18  1   
 11   8  11  am  
 12   8  19  1   
 13   9  12  ar  
 14   9  20  1   
 15  10  12  ar  
 16  10  21  1   
 17  11  13  2   
 18  11  14  1   
 19  12  22  1   
 20  14  15  1   
 21  14  23  1   
 22  14  24  1   
 23  15  16  1   
 24  15  25  1   
 25  15  26  1   
 26  16  17  1   
 27  16  27  1   
 28  16  28  1   
 29  17  29  1   
 30  17  30  1   
 31  17  31  1   
@<TRIPOS>SUBSTRUCTURE
  1 ****   8 GROUP 4 **** **** 0

# MOE 2024.06 (io_trps.svl 2023.06)
