@<TRIPOS>MOLECULE
NONAME
43 44 1 0 0 
SMALL
USER_CHARGES


@<TRIPOS>ATOM
  1 O       -0.7230     0.0100     0.7850 O.2   1 <1>  -0.5700 
  2 C       -0.1010    -0.7910     0.1100 C.2   1 <1>   0.5440 
  3 N        1.1850    -0.4860    -0.2400 N.am  1 <1>  -0.7300 
  4 C       -0.7010    -2.0350    -0.3340 C.ar  1 <1>   0.0860 
  5 C        1.9160     0.7370     0.1530 C.3   1 <1>   0.1400 
  6 C       -2.0330    -2.0990    -0.7860 C.ar  1 <1>   0.1170 
  7 C        0.0550    -3.2100    -0.3250 C.ar  1 <1>  -0.1500 
  8 C        3.3490     0.3620     0.5290 C.3   1 <1>  -0.1600 
  9 N       -2.8160    -0.9340    -0.7860 N.am  1 <1>  -0.5470 
 10 C       -2.5430    -3.3210    -1.2190 C.ar  1 <1>  -0.1500 
 11 C       -0.4670    -4.4120    -0.7580 C.ar  1 <1>  -0.1500 
 12 C        4.1540     1.5990     0.9490 C.3   1 <1>  -0.1600 
 13 C       -4.0880    -0.6170    -1.1820 C.2   1 <1>   0.5690 
 14 C       -1.7730    -4.4660    -1.2090 C.ar  1 <1>  -0.1500 
 15 C        5.5890     1.2230     1.3260 C.3   1 <1>  -0.2400 
 16 O       -4.8330    -1.3910    -1.7370 O.2   1 <1>  -0.5700 
 17 C       -4.5880     0.8030    -0.8720 C.3   1 <1>   0.2610 
 18 O       -3.5060     1.7050    -0.7700 O.3   1 <1>  -0.5600 
 19 C       -5.3140     0.8840     0.4700 C.3   1 <1>  -0.1600 
 20 C       -3.3390     2.1920     0.5280 C.3   1 <1>   0.1200 
 21 C       -4.2290     1.3440     1.4230 C.3   1 <1>  -0.1600 
 22 H        1.6660    -1.0830    -0.9150 H     1 <1>   0.3700 
 23 H        1.4270     1.2050     0.9920 H     1 <1>   0.0800 
 24 H        1.9150     1.4300    -0.6710 H     1 <1>   0.0800 
 25 H        1.0680    -3.1820     0.0350 H     1 <1>   0.1500 
 26 H        3.8300    -0.1030    -0.3130 H     1 <1>   0.0800 
 27 H        3.3250    -0.3380     1.3470 H     1 <1>   0.0800 
 28 H       -2.3430    -0.1210    -0.3600 H     1 <1>   0.3700 
 29 H       -3.5560    -3.3900    -1.5690 H     1 <1>   0.1500 
 30 H        0.1330    -5.3060    -0.7430 H     1 <1>   0.1500 
 31 H        3.6790     2.0700     1.7940 H     1 <1>   0.0800 
 32 H        4.1760     2.3110     0.1400 H     1 <1>   0.0800 
 33 H       -2.1890    -5.3990    -1.5490 H     1 <1>   0.1500 
 34 H        5.5930     0.5290     2.1490 H     1 <1>   0.0800 
 35 H        6.1350     2.1020     1.6190 H     1 <1>   0.0800 
 36 H        6.0930     0.7710     0.4890 H     1 <1>   0.0800 
 37 H       -5.2240     1.1310    -1.6750 H     1 <1>   0.0800 
 38 H       -5.7510    -0.0570     0.7570 H     1 <1>   0.0800 
 39 H       -6.0910     1.6250     0.4030 H     1 <1>   0.0800 
 40 H       -3.6560     3.2210     0.5330 H     1 <1>   0.0800 
 41 H       -2.2990     2.1260     0.8010 H     1 <1>   0.0800 
 42 H       -3.6640     0.5030     1.7890 H     1 <1>   0.0800 
 43 H       -4.6130     1.9030     2.2570 H     1 <1>   0.0800 
@<TRIPOS>BOND
  1   1   2  2   
  2   2   3  am  
  3   2   4  1   
  4   3   5  1   
  5   3  22  1   
  6   4   6  ar  
  7   4   7  ar  
  8   5   8  1   
  9   5  23  1   
 10   5  24  1   
 11   6   9  1   
 12   6  10  ar  
 13   7  11  ar  
 14   7  25  1   
 15   8  12  1   
 16   8  26  1   
 17   8  27  1   
 18   9  13  am  
 19   9  28  1   
 20  10  14  ar  
 21  10  29  1   
 22  11  14  ar  
 23  11  30  1   
 24  12  15  1   
 25  12  31  1   
 26  12  32  1   
 27  13  16  2   
 28  13  17  1   
 29  14  33  1   
 30  15  34  1   
 31  15  35  1   
 32  15  36  1   
 33  17  18  1   
 34  17  19  1   
 35  17  37  1   
 36  18  20  1   
 37  19  21  1   
 38  19  38  1   
 39  19  39  1   
 40  20  21  1   
 41  20  40  1   
 42  20  41  1   
 43  21  42  1   
 44  21  43  1   
@<TRIPOS>SUBSTRUCTURE
  1 ****   2 GROUP 4 **** **** 0

# MOE 2024.06 (io_trps.svl 2023.06)
