@<TRIPOS>MOLECULE
NONAME
58 60 1 0 0 
SMALL
USER_CHARGES


@<TRIPOS>ATOM
  1 O       -1.3630    -1.5720     2.3200 O.2   1 <1>  -0.5700 
  2 C       -1.5530    -1.9640     1.1940 C.2   1 <1>   0.5690 
  3 N       -0.6020    -2.6330     0.4960 N.am  1 <1>  -0.7300 
  4 C       -2.9010    -1.6880     0.5480 C.3   1 <1>  -0.0990 
  5 C        0.6450    -3.1750     1.0710 C.3   1 <1>   0.1400 
  6 C       -3.7220    -2.9260     0.0990 C.3   1 <1>   0.0000 
  7 C        0.5610    -4.7020     1.0680 C.3   1 <1>  -0.1600 
  8 C       -3.6560    -4.0690     1.1410 C.3   1 <1>  -0.1600 
  9 C       -3.2360    -3.4720    -1.2670 C.3   1 <1>  -0.1600 
 10 C       -5.2020    -2.5050    -0.0600 C.3   1 <1>  -0.1600 
 11 C        1.8390    -5.3330     1.6290 C.3   1 <1>  -0.2400 
 12 C       -4.5070    -5.2850     0.7090 C.3   1 <1>   0.0000 
 13 C       -4.0980    -4.6630    -1.7200 C.3   1 <1>  -0.0800 
 14 C       -6.0720    -3.6940    -0.5040 C.3   1 <1>  -0.0800 
 15 C       -4.0000    -5.7800    -0.6670 C.3   1 <1>  -0.1600 
 16 C       -5.9700    -4.8150     0.5460 C.3   1 <1>  -0.1600 
 17 C       -4.4510    -6.4060     1.7730 C.3   1 <1>  -0.0990 
 18 C       -5.5620    -4.2160    -1.8560 C.3   1 <1>  -0.1600 
 19 C       -3.0690    -6.9810     2.0290 C.2   1 <1>   0.5690 
 20 O       -2.3880    -6.5120     2.9080 O.2   1 <1>  -0.5700 
 21 N       -2.6460    -8.0220     1.2680 N.am  1 <1>  -0.7300 
 22 C       -1.3140    -8.6540     1.3560 C.3   1 <1>   0.1400 
 23 C       -0.6080    -8.5070     0.0080 C.3   1 <1>  -0.1600 
 24 C        0.7700    -9.1760     0.0240 C.3   1 <1>  -0.2400 
 25 H       -0.8200    -2.9480    -0.4480 H     1 <1>   0.3700 
 26 H       -2.7500    -1.0260    -0.2840 H     1 <1>   0.0800 
 27 H       -3.4760    -1.1430     1.2750 H     1 <1>   0.0800 
 28 H        0.7710    -2.8170     2.0790 H     1 <1>   0.0800 
 29 H        1.4820    -2.8420     0.4830 H     1 <1>   0.0800 
 30 H        0.4050    -5.0550     0.0640 H     1 <1>   0.0800 
 31 H       -0.2730    -5.0110     1.6760 H     1 <1>   0.0800 
 32 H       -2.6370    -4.3850     1.2670 H     1 <1>   0.0800 
 33 H       -3.9950    -3.7070     2.0970 H     1 <1>   0.0800 
 34 H       -2.2180    -3.8030    -1.2020 H     1 <1>   0.0800 
 35 H       -3.2830    -2.6960    -2.0110 H     1 <1>   0.0800 
 36 H       -5.2820    -1.7140    -0.7860 H     1 <1>   0.0800 
 37 H       -5.5790    -2.1270     0.8750 H     1 <1>   0.0800 
 38 H        2.6910    -5.0630     1.0300 H     1 <1>   0.0800 
 39 H        1.7460    -6.4040     1.6340 H     1 <1>   0.0800 
 40 H        2.0040    -5.0030     2.6400 H     1 <1>   0.0800 
 41 H       -3.7420    -5.0280    -2.6690 H     1 <1>   0.0800 
 42 H       -7.0970    -3.3780    -0.6000 H     1 <1>   0.0800 
 43 H       -4.5790    -6.6270    -0.9890 H     1 <1>   0.0800 
 44 H       -2.9720    -6.0900    -0.5940 H     1 <1>   0.0800 
 45 H       -6.3450    -4.4530     1.4880 H     1 <1>   0.0800 
 46 H       -6.5910    -5.6410     0.2450 H     1 <1>   0.0800 
 47 H       -5.1020    -7.2090     1.4840 H     1 <1>   0.0800 
 48 H       -4.8190    -6.0220     2.7070 H     1 <1>   0.0800 
 49 H       -5.6400    -3.4420    -2.6000 H     1 <1>   0.0800 
 50 H       -6.1690    -5.0430    -2.1810 H     1 <1>   0.0800 
 51 H       -3.2580    -8.3840     0.5380 H     1 <1>   0.3700 
 52 H       -1.4300    -9.6940     1.6070 H     1 <1>   0.0800 
 53 H       -0.7310    -8.1800     2.1290 H     1 <1>   0.0800 
 54 H       -0.4890    -7.4600    -0.2130 H     1 <1>   0.0800 
 55 H       -1.2070    -8.9570    -0.7640 H     1 <1>   0.0800 
 56 H        1.3920    -8.7410     0.7870 H     1 <1>   0.0800 
 57 H        1.2550    -9.0420    -0.9280 H     1 <1>   0.0800 
 58 H        0.6760   -10.2300     0.2140 H     1 <1>   0.0800 
@<TRIPOS>BOND
  1   1   2  2   
  2   2   3  am  
  3   2   4  1   
  4   3   5  1   
  5   3  25  1   
  6   4   6  1   
  7   4  26  1   
  8   4  27  1   
  9   5   7  1   
 10   5  28  1   
 11   5  29  1   
 12   6   8  1   
 13   6   9  1   
 14   6  10  1   
 15   7  11  1   
 16   7  30  1   
 17   7  31  1   
 18   8  12  1   
 19   8  32  1   
 20   8  33  1   
 21   9  13  1   
 22   9  34  1   
 23   9  35  1   
 24  10  14  1   
 25  10  36  1   
 26  10  37  1   
 27  11  38  1   
 28  11  39  1   
 29  11  40  1   
 30  12  15  1   
 31  12  16  1   
 32  12  17  1   
 33  13  15  1   
 34  13  18  1   
 35  13  41  1   
 36  14  16  1   
 37  14  18  1   
 38  14  42  1   
 39  15  43  1   
 40  15  44  1   
 41  16  45  1   
 42  16  46  1   
 43  17  19  1   
 44  17  47  1   
 45  17  48  1   
 46  18  49  1   
 47  18  50  1   
 48  19  20  2   
 49  19  21  am  
 50  21  22  1   
 51  21  51  1   
 52  22  23  1   
 53  22  52  1   
 54  22  53  1   
 55  23  24  1   
 56  23  54  1   
 57  23  55  1   
 58  24  56  1   
 59  24  57  1   
 60  24  58  1   
@<TRIPOS>SUBSTRUCTURE
  1 ****   8 GROUP 4 **** **** 0

# MOE 2024.06 (io_trps.svl 2023.06)
