@<TRIPOS>MOLECULE
NONAME
46 48 1 0 0 
SMALL
USER_CHARGES


@<TRIPOS>ATOM
  1 CL       4.9530     3.5880     0.0270 Cl    1 <1>  -0.1770 
  2 C        4.9450     1.9030     0.4790 C.ar  1 <1>   0.1770 
  3 C        4.3830     0.9750    -0.3770 C.ar  1 <1>  -0.1500 
  4 C        5.5060     1.5190     1.6820 C.ar  1 <1>  -0.1500 
  5 C        4.3810    -0.3620    -0.0180 C.ar  1 <1>  -0.1500 
  6 C        5.5040     0.1810     2.0360 C.ar  1 <1>  -0.1500 
  7 C        4.9390    -0.7630     1.1880 C.ar  1 <1>  -0.1430 
  8 C        4.9410    -2.2410     1.5650 C.3   1 <1>   0.0450 
  9 C        6.0550    -2.9990     0.8660 C.2   1 <1>   0.5690 
 10 O        5.7860    -4.0340     0.3090 O.2   1 <1>  -0.5700 
 11 N        7.3110    -2.4580     0.9090 N.am  1 <1>  -0.5470 
 12 C        8.5550    -2.8710     0.4100 C.ar  1 <1>   0.1170 
 13 C        9.5950    -1.9310     0.3140 C.ar  1 <1>   0.0860 
 14 C        8.7930    -4.1870     0.0220 C.ar  1 <1>  -0.1500 
 15 C        9.3930    -0.5450     0.6880 C.2   1 <1>   0.5440 
 16 C       10.8390    -2.3560    -0.1580 C.ar  1 <1>  -0.1500 
 17 C       10.0270    -4.5830    -0.4530 C.ar  1 <1>  -0.1500 
 18 O        8.8880    -0.2770     1.7670 O.2   1 <1>  -0.5700 
 19 N        9.7370     0.4850    -0.1630 N.am  1 <1>  -0.6600 
 20 C       11.0570    -3.6640    -0.5410 C.ar  1 <1>  -0.1500 
 21 C        9.7770     0.2970    -1.6460 C.3   1 <1>   0.1400 
 22 C        9.8030     1.8950     0.3080 C.3   1 <1>   0.1400 
 23 C        9.2910     1.5480    -2.3990 C.3   1 <1>  -0.1600 
 24 C        8.6180     2.7010    -0.2470 C.3   1 <1>  -0.1600 
 25 C        8.1530     2.2460    -1.6430 C.3   1 <1>  -0.1600 
 26 H        3.9540     1.2970    -1.3090 H     1 <1>   0.1500 
 27 H        5.9430     2.2580     2.3300 H     1 <1>   0.1500 
 28 H        3.9480    -1.0900    -0.6840 H     1 <1>   0.1500 
 29 H        5.9500    -0.1140     2.9710 H     1 <1>   0.1500 
 30 H        3.9980    -2.6800     1.2960 H     1 <1>   0.0800 
 31 H        5.0630    -2.3560     2.6250 H     1 <1>   0.0800 
 32 H        7.3530    -1.5290     1.3530 H     1 <1>   0.3700 
 33 H        8.0100    -4.9190     0.0920 H     1 <1>   0.1500 
 34 H       11.6430    -1.6440    -0.2190 H     1 <1>   0.1500 
 35 H       10.1880    -5.6050    -0.7490 H     1 <1>   0.1500 
 36 H       12.0230    -3.9720    -0.9050 H     1 <1>   0.1500 
 37 H        9.1370    -0.5280    -1.9100 H     1 <1>   0.0800 
 38 H       10.7800     0.0560    -1.9530 H     1 <1>   0.0800 
 39 H       10.7250     2.3250    -0.0420 H     1 <1>   0.0800 
 40 H        9.8080     1.9420     1.3840 H     1 <1>   0.0800 
 41 H        8.9600     1.2620    -3.3820 H     1 <1>   0.0800 
 42 H       10.1140     2.2310    -2.5220 H     1 <1>   0.0800 
 43 H        8.9040     3.7370    -0.2810 H     1 <1>   0.0800 
 44 H        7.7970     2.6240     0.4400 H     1 <1>   0.0800 
 45 H        7.3400     1.5490    -1.5290 H     1 <1>   0.0800 
 46 H        7.7870     3.0900    -2.2020 H     1 <1>   0.0800 
@<TRIPOS>BOND
  1   1   2  1   
  2   2   3  ar  
  3   2   4  ar  
  4   3   5  ar  
  5   3  26  1   
  6   4   6  ar  
  7   4  27  1   
  8   5   7  ar  
  9   5  28  1   
 10   6   7  ar  
 11   6  29  1   
 12   7   8  1   
 13   8   9  1   
 14   8  30  1   
 15   8  31  1   
 16   9  10  2   
 17   9  11  am  
 18  11  12  1   
 19  11  32  1   
 20  12  13  ar  
 21  12  14  ar  
 22  13  15  1   
 23  13  16  ar  
 24  14  17  ar  
 25  14  33  1   
 26  15  18  2   
 27  15  19  am  
 28  16  20  ar  
 29  16  34  1   
 30  17  20  ar  
 31  17  35  1   
 32  19  21  1   
 33  19  22  1   
 34  20  36  1   
 35  21  23  1   
 36  21  37  1   
 37  21  38  1   
 38  22  24  1   
 39  22  39  1   
 40  22  40  1   
 41  23  25  1   
 42  23  41  1   
 43  23  42  1   
 44  24  25  1   
 45  24  43  1   
 46  24  44  1   
 47  25  45  1   
 48  25  46  1   
@<TRIPOS>SUBSTRUCTURE
  1 ****  15 GROUP 4 **** **** 0

# MOE 2024.06 (io_trps.svl 2023.06)
