@<TRIPOS>MOLECULE
NONAME
49 50 1 0 0 
SMALL
USER_CHARGES


@<TRIPOS>ATOM
  1 S        0.8170     1.5070     1.5490 S.o2  1 <1>   1.3330 
  2 O        1.7850     2.1550     2.4030 O.2   1 <1>  -0.6500 
  3 O        1.2570     0.4390     0.6840 O.2   1 <1>  -0.6500 
  4 N        0.1610     2.7580     0.5580 N.am  1 <1>  -0.6930 
  5 C       -0.5740     0.9890     2.5320 C.3   1 <1>  -0.1350 
  6 C       -1.0390     2.5690    -0.1220 C.ar  1 <1>   0.1990 
  7 C        1.1410     3.7080    -0.0530 C.3   1 <1>   0.2570 
  8 C       -2.1670     3.3310     0.1910 C.ar  1 <1>  -0.1440 
  9 C       -1.1310     1.6040    -1.1190 C.ar  1 <1>  -0.1500 
 10 C        1.9830     3.0990    -1.1890 C.2   1 <1>   0.5690 
 11 C       -3.3530     3.1060    -0.4870 C.ar  1 <1>  -0.1500 
 12 C       -2.1180     4.4110     1.2650 C.3   1 <1>  -0.0970 
 13 C       -2.3170     1.3800    -1.7930 C.ar  1 <1>  -0.1440 
 14 O        1.5980     3.2830    -2.3200 O.2   1 <1>  -0.5700 
 15 N        3.1330     2.3730    -0.9700 N.am  1 <1>  -0.6600 
 16 C       -3.4300     2.1370    -1.4720 C.ar  1 <1>  -0.1500 
 17 C       -2.3950     0.3240    -2.8800 C.3   1 <1>  -0.0970 
 18 C        3.5800     1.3780    -1.9950 C.3   1 <1>   0.1400 
 19 C        3.9140     2.3340     0.3070 C.3   1 <1>   0.1400 
 20 C        5.0990     1.4500    -2.2260 C.3   1 <1>   0.3430 
 21 C        5.4300     2.3810     0.0450 C.3   1 <1>   0.3430 
 22 N        5.8670     1.3260    -0.9360 N.4   1 <1>  -0.9590 
 23 C        7.3400     1.3800    -1.1740 C.3   1 <1>   0.2630 
 24 H       -0.2760     0.2200     3.2170 H     1 <1>   0.0800 
 25 H       -1.3520     0.6040     1.9020 H     1 <1>   0.0800 
 26 H       -0.9620     1.8170     3.0920 H     1 <1>   0.0800 
 27 H        1.7770     4.1070     0.7120 H     1 <1>   0.0800 
 28 H        0.5930     4.5350    -0.4680 H     1 <1>   0.0800 
 29 H       -0.2580     1.0300    -1.3710 H     1 <1>   0.1500 
 30 H       -4.2300     3.6860    -0.2580 H     1 <1>   0.1500 
 31 H       -1.7400     4.0060     2.1860 H     1 <1>   0.0800 
 32 H       -3.0960     4.8160     1.4510 H     1 <1>   0.0800 
 33 H       -1.4730     5.2100     0.9480 H     1 <1>   0.0800 
 34 H       -4.3600     1.9780    -1.9900 H     1 <1>   0.1500 
 35 H       -1.6740    -0.4540    -2.7030 H     1 <1>   0.0800 
 36 H       -2.1910     0.7730    -3.8360 H     1 <1>   0.0800 
 37 H       -3.3740    -0.1190    -2.9050 H     1 <1>   0.0800 
 38 H        3.0810     1.5470    -2.9340 H     1 <1>   0.0800 
 39 H        3.3080     0.3910    -1.6630 H     1 <1>   0.0800 
 40 H        3.6830     1.4270     0.8380 H     1 <1>   0.0800 
 41 H        3.6510     3.1640     0.9380 H     1 <1>   0.0800 
 42 H        5.3260     2.3920    -2.6980 H     1 <1>   0.0800 
 43 H        5.3870     0.6620    -2.9020 H     1 <1>   0.0800 
 44 H        5.9500     2.2500     0.9800 H     1 <1>   0.0800 
 45 H        5.6800     3.3570    -0.3380 H     1 <1>   0.0800 
 46 H        5.6250     0.4120    -0.5250 H     1 <1>   0.4500 
 47 H        7.6160     2.3290    -1.6050 H     1 <1>   0.0800 
 48 H        7.6400     0.5950    -1.8490 H     1 <1>   0.0800 
 49 H        7.8750     1.2540    -0.2460 H     1 <1>   0.0800 
@<TRIPOS>BOND
  1   1   2  2   
  2   1   3  2   
  3   1   4  am  
  4   1   5  1   
  5   4   6  1   
  6   4   7  1   
  7   5  24  1   
  8   5  25  1   
  9   5  26  1   
 10   6   8  ar  
 11   6   9  ar  
 12   7  10  1   
 13   7  27  1   
 14   7  28  1   
 15   8  11  ar  
 16   8  12  1   
 17   9  13  ar  
 18   9  29  1   
 19  10  14  2   
 20  10  15  am  
 21  11  16  ar  
 22  11  30  1   
 23  12  31  1   
 24  12  32  1   
 25  12  33  1   
 26  13  16  ar  
 27  13  17  1   
 28  15  18  1   
 29  15  19  1   
 30  16  34  1   
 31  17  35  1   
 32  17  36  1   
 33  17  37  1   
 34  18  20  1   
 35  18  38  1   
 36  18  39  1   
 37  19  21  1   
 38  19  40  1   
 39  19  41  1   
 40  20  22  1   
 41  20  42  1   
 42  20  43  1   
 43  21  22  1   
 44  21  44  1   
 45  21  45  1   
 46  22  23  1   
 47  22  46  1   
 48  23  47  1   
 49  23  48  1   
 50  23  49  1   
@<TRIPOS>SUBSTRUCTURE
  1 ****   4 GROUP 4 **** **** 0

# MOE 2024.06 (io_trps.svl 2023.06)
