@<TRIPOS>MOLECULE
NONAME
29 29 1 0 0 
SMALL
USER_CHARGES


@<TRIPOS>ATOM
  1 I        0.4460    -0.0240     1.7010 I     1 <1>  -0.0810 
  2 C        2.0820    -1.0450     0.7940 C.ar  1 <1>   0.0810 
  3 C        1.9140    -1.5780    -0.4710 C.ar  1 <1>  -0.1500 
  4 C        3.2700    -1.1480     1.4930 C.ar  1 <1>  -0.1500 
  5 C        2.9820    -2.2380    -1.0510 C.ar  1 <1>  -0.1500 
  6 C        4.3260    -1.8140     0.8950 C.ar  1 <1>  -0.1500 
  7 C        4.1960    -2.3660    -0.3780 C.ar  1 <1>   0.1990 
  8 N        5.2700    -3.0300    -0.9610 N.am  1 <1>  -0.6930 
  9 S        5.2140    -4.6970    -1.4280 S.o2  1 <1>   1.3330 
 10 C        6.5540    -2.3000    -1.2150 C.3   1 <1>   0.2570 
 11 O        6.5240    -5.0260    -1.9350 O.2   1 <1>  -0.6500 
 12 O        4.0420    -4.8870    -2.2450 O.2   1 <1>  -0.6500 
 13 C        4.9840    -5.5250     0.1310 C.3   1 <1>  -0.1350 
 14 C        7.7390    -2.7050    -0.3320 C.2   1 <1>   0.6590 
 15 O        8.8660    -2.4080    -0.6340 O.2   1 <1>  -0.5700 
 16 O        7.4710    -3.3640     0.7950 O.3   1 <1>  -0.4300 
 17 C        8.5010    -3.7860     1.6660 C.3   1 <1>   0.0400 
 18 H        0.9760    -1.4810    -0.9900 H     1 <1>   0.1500 
 19 H        3.3670    -0.7220     2.4760 H     1 <1>   0.1500 
 20 H        2.8770    -2.6570    -2.0370 H     1 <1>   0.1500 
 21 H        5.2580    -1.9130     1.4220 H     1 <1>   0.1500 
 22 H        6.3900    -1.2470    -1.0800 H     1 <1>   0.0800 
 23 H        6.8400    -2.4500    -2.2410 H     1 <1>   0.0800 
 24 H        4.0730    -5.1980     0.5920 H     1 <1>   0.0800 
 25 H        5.8020    -5.3170     0.7900 H     1 <1>   0.0800 
 26 H        4.9300    -6.5850    -0.0240 H     1 <1>   0.0800 
 27 H        8.0560    -4.2910     2.5040 H     1 <1>   0.0800 
 28 H        9.0500    -2.9230     2.0010 H     1 <1>   0.0800 
 29 H        9.1540    -4.4550     1.1320 H     1 <1>   0.0800 
@<TRIPOS>BOND
  1   1   2  1   
  2   2   3  ar  
  3   2   4  ar  
  4   3   5  ar  
  5   3  18  1   
  6   4   6  ar  
  7   4  19  1   
  8   5   7  ar  
  9   5  20  1   
 10   6   7  ar  
 11   6  21  1   
 12   7   8  1   
 13   8   9  am  
 14   8  10  1   
 15   9  11  2   
 16   9  12  2   
 17   9  13  1   
 18  10  14  1   
 19  10  22  1   
 20  10  23  1   
 21  13  24  1   
 22  13  25  1   
 23  13  26  1   
 24  14  15  2   
 25  14  16  1   
 26  16  17  1   
 27  17  27  1   
 28  17  28  1   
 29  17  29  1   
@<TRIPOS>SUBSTRUCTURE
  1 ****   8 GROUP 4 **** **** 0

# MOE 2024.06 (io_trps.svl 2023.06)
