@<TRIPOS>MOLECULE
NONAME
53 54 1 0 0 
SMALL
USER_CHARGES


@<TRIPOS>ATOM
  1 O       -3.4820     3.5000    -1.2410 O.co2 1 <1>  -0.9000 
  2 C       -2.7290     3.0610    -0.3710 C.2   1 <1>   0.9060 
  3 O       -3.2500     2.4520     0.5730 O.co2 1 <1>  -0.9000 
  4 C       -1.2490     3.4250    -0.3270 C.3   1 <1>  -0.1860 
  5 C       -0.8260     3.9830     1.0570 C.3   1 <1>  -0.0190 
  6 C       -0.8820     4.4210    -1.4430 C.3   1 <1>  -0.0220 
  7 C       -1.6970     5.1630     1.5140 C.2   1 <1>   0.5690 
  8 C        0.6880     4.2710     1.0950 C.3   1 <1>  -0.0220 
  9 C        0.5420     4.9550    -1.3250 C.2   1 <1>  -0.2760 
 10 O       -1.2920     6.3020     1.5520 O.2   1 <1>  -0.5700 
 11 N       -2.9680     4.8560     1.8630 N.am  1 <1>  -0.7300 
 12 C        1.2520     4.8750    -0.1890 C.2   1 <1>  -0.2760 
 13 C        0.9930     5.5850    -2.6380 C.3   1 <1>  -0.1020 
 14 C       -4.1090     5.7750     1.8700 C.3   1 <1>   0.2200 
 15 C        2.6840     5.3560     0.0220 C.3   1 <1>  -0.1020 
 16 C       -5.2550     5.0740     2.5920 C.3   1 <1>  -0.1600 
 17 C       -4.5150     6.1080     0.4250 C.3   1 <1>  -0.1600 
 18 C       -5.6390     3.7660     1.8880 C.3   1 <1>   0.3430 
 19 C       -5.6910     5.2930    -0.1300 C.3   1 <1>   0.3430 
 20 N       -5.7220     3.9020     0.4010 N.4   1 <1>  -0.9590 
 21 C       -6.7540     3.0060    -0.1650 C.3   1 <1>   0.4230 
 22 C       -6.5320     2.7830    -1.6580 C.3   1 <1>  -0.2400 
 23 C       -8.1570     3.5630     0.0870 C.3   1 <1>  -0.2400 
 24 H       -0.7030     2.5180    -0.5020 H     1 <1>   0.0800 
 25 H       -0.9980     3.2060     1.7800 H     1 <1>   0.0800 
 26 H       -1.5580     5.2580    -1.4230 H     1 <1>   0.0800 
 27 H       -1.0110     3.9220    -2.3880 H     1 <1>   0.0800 
 28 H        1.2040     3.3440     1.2720 H     1 <1>   0.0800 
 29 H        0.8980     4.9200     1.9270 H     1 <1>   0.0800 
 30 H       -3.2200     3.8750     1.6440 H     1 <1>   0.3700 
 31 H        1.0650     4.8290    -3.3990 H     1 <1>   0.0800 
 32 H        1.9410     6.0770    -2.5610 H     1 <1>   0.0800 
 33 H        0.2720     6.3190    -2.9510 H     1 <1>   0.0800 
 34 H       -3.8200     6.6750     2.3880 H     1 <1>   0.0800 
 35 H        3.2820     4.5560     0.4190 H     1 <1>   0.0800 
 36 H        2.6900     6.1720     0.7220 H     1 <1>   0.0800 
 37 H        3.1500     5.6880    -0.8830 H     1 <1>   0.0800 
 38 H       -6.1100     5.7250     2.6330 H     1 <1>   0.0800 
 39 H       -4.9660     4.8630     3.6060 H     1 <1>   0.0800 
 40 H       -3.6710     6.0030    -0.2330 H     1 <1>   0.0800 
 41 H       -4.7980     7.1430     0.3840 H     1 <1>   0.0800 
 42 H       -6.5790     3.4230     2.2820 H     1 <1>   0.0800 
 43 H       -4.9000     3.0140     2.1160 H     1 <1>   0.0800 
 44 H       -5.6120     5.2670    -1.2050 H     1 <1>   0.0800 
 45 H       -6.6110     5.7860     0.1320 H     1 <1>   0.0800 
 46 H       -4.8140     3.4920     0.0360 H     1 <1>   0.4500 
 47 H       -6.6690     2.0460     0.3210 H     1 <1>   0.0800 
 48 H       -6.5690     3.7010    -2.2130 H     1 <1>   0.0800 
 49 H       -7.2890     2.1250    -2.0430 H     1 <1>   0.0800 
 50 H       -5.5820     2.3080    -1.8210 H     1 <1>   0.0800 
 51 H       -8.3150     4.4770    -0.4550 H     1 <1>   0.0800 
 52 H       -8.3280     3.7310     1.1340 H     1 <1>   0.0800 
 53 H       -8.8860     2.8500    -0.2530 H     1 <1>   0.0800 
@<TRIPOS>BOND
  1   1   2  ar  
  2   2   3  ar  
  3   2   4  1   
  4   4   5  1   
  5   4   6  1   
  6   4  24  1   
  7   5   7  1   
  8   5   8  1   
  9   5  25  1   
 10   6   9  1   
 11   6  26  1   
 12   6  27  1   
 13   7  10  2   
 14   7  11  am  
 15   8  12  1   
 16   8  28  1   
 17   8  29  1   
 18   9  12  2   
 19   9  13  1   
 20  11  14  1   
 21  11  30  1   
 22  12  15  1   
 23  13  31  1   
 24  13  32  1   
 25  13  33  1   
 26  14  16  1   
 27  14  17  1   
 28  14  34  1   
 29  15  35  1   
 30  15  36  1   
 31  15  37  1   
 32  16  18  1   
 33  16  38  1   
 34  16  39  1   
 35  17  19  1   
 36  17  40  1   
 37  17  41  1   
 38  18  20  1   
 39  18  42  1   
 40  18  43  1   
 41  19  20  1   
 42  19  44  1   
 43  19  45  1   
 44  20  21  1   
 45  20  46  1   
 46  21  22  1   
 47  21  23  1   
 48  21  47  1   
 49  22  48  1   
 50  22  49  1   
 51  22  50  1   
 52  23  51  1   
 53  23  52  1   
 54  23  53  1   
@<TRIPOS>SUBSTRUCTURE
  1 ****   2 GROUP 4 **** **** 0

# MOE 2024.06 (io_trps.svl 2023.06)
