@<TRIPOS>MOLECULE
NONAME
50 52 1 0 0 
SMALL
USER_CHARGES


@<TRIPOS>ATOM
  1 S        0.8200    -0.7570    -0.5360 S.o2  1 <1>   1.4470 
  2 O        0.2000     0.4420    -1.0560 O.2   1 <1>  -0.6500 
  3 O        2.0580    -1.2470    -1.0910 O.2   1 <1>  -0.6500 
  4 N        1.1350    -0.4950     1.0870 N.am  1 <1>  -0.9140 
  5 C       -0.4110    -2.0890    -0.4940 C.ar  1 <1>  -0.0090 
  6 C        1.6030     0.8490     1.3660 C.3   1 <1>   0.3760 
  7 C       -1.6840    -1.8600     0.0050 C.ar  1 <1>  -0.1500 
  8 C       -0.1140    -3.3670    -0.9450 C.ar  1 <1>  -0.1500 
  9 C        3.0360     0.9910     0.8930 C.2   1 <1>  -0.0400 
 10 C       -2.6640    -2.8510     0.0640 C.ar  1 <1>   0.0860 
 11 C       -1.0610    -4.3740    -0.8990 C.ar  1 <1>  -0.1500 
 12 O        3.9620     0.2280     1.4440 O.3   1 <1>  -0.2800 
 13 C        3.5790     1.7880    -0.0530 C.2   1 <1>  -0.1500 
 14 C       -2.3280    -4.1280    -0.4020 C.ar  1 <1>  -0.1430 
 15 C       -3.9750    -2.5170     0.5900 C.2   1 <1>   0.5440 
 16 C        5.1100     0.5180     0.8650 C.2   1 <1>  -0.0100 
 17 C        4.9440     1.4770    -0.0700 C.2   1 <1>  -0.1500 
 18 C       -3.3440    -5.2640    -0.3730 C.3   1 <1>  -0.0970 
 19 O       -4.4590    -3.1350     1.5160 O.2   1 <1>  -0.5700 
 20 N       -4.6760    -1.4840     0.0370 N.am  1 <1>  -0.7300 
 21 C       -6.0110    -1.0290     0.4600 C.3   1 <1>   0.2200 
 22 C       -7.0180    -1.3530    -0.6480 C.3   1 <1>  -0.1600 
 23 C       -5.9550     0.4760     0.7390 C.3   1 <1>  -0.1600 
 24 C       -8.4120    -0.8050    -0.3080 C.3   1 <1>  -0.1600 
 25 C       -7.3460     1.0280     1.0820 C.3   1 <1>  -0.1600 
 26 C       -8.3610     0.7030    -0.0230 C.3   1 <1>  -0.1600 
 27 H        1.9590    -1.0740     1.2560 H     1 <1>   0.4200 
 28 H        1.5810     1.0100     2.4300 H     1 <1>   0.0800 
 29 H        0.9700     1.5900     0.9090 H     1 <1>   0.0800 
 30 H       -1.9260    -0.8760     0.3700 H     1 <1>   0.1500 
 31 H        0.8670    -3.5800    -1.3370 H     1 <1>   0.1500 
 32 H       -0.7990    -5.3560    -1.2560 H     1 <1>   0.1500 
 33 H        3.0960     2.5110    -0.6870 H     1 <1>   0.1500 
 34 H        5.9970    -0.0060     1.1770 H     1 <1>   0.1500 
 35 H        5.6790     1.9270    -0.7130 H     1 <1>   0.1500 
 36 H       -4.2670    -4.9520    -0.8290 H     1 <1>   0.0800 
 37 H       -3.5450    -5.5470     0.6460 H     1 <1>   0.0800 
 38 H       -2.9810    -6.1270    -0.9000 H     1 <1>   0.0800 
 39 H       -4.2980    -1.0080    -0.7810 H     1 <1>   0.3700 
 40 H       -6.3040    -1.5420     1.3620 H     1 <1>   0.0800 
 41 H       -7.0760    -2.4200    -0.7710 H     1 <1>   0.0800 
 42 H       -6.6870    -0.9180    -1.5750 H     1 <1>   0.0800 
 43 H       -5.5790     0.9910    -0.1280 H     1 <1>   0.0800 
 44 H       -5.2880     0.6590     1.5630 H     1 <1>   0.0800 
 45 H       -8.7930    -1.3180     0.5590 H     1 <1>   0.0800 
 46 H       -9.0850    -0.9960    -1.1260 H     1 <1>   0.0800 
 47 H       -7.2890     2.0940     1.2180 H     1 <1>   0.0800 
 48 H       -7.6800     0.5960     2.0100 H     1 <1>   0.0800 
 49 H       -9.3380     1.0470     0.2720 H     1 <1>   0.0800 
 50 H       -8.0870     1.2260    -0.9230 H     1 <1>   0.0800 
@<TRIPOS>BOND
  1   1   2  2   
  2   1   3  2   
  3   1   4  am  
  4   1   5  1   
  5   4   6  1   
  6   4  27  1   
  7   5   7  ar  
  8   5   8  ar  
  9   6   9  1   
 10   6  28  1   
 11   6  29  1   
 12   7  10  ar  
 13   7  30  1   
 14   8  11  ar  
 15   8  31  1   
 16   9  12  1   
 17   9  13  2   
 18  10  14  ar  
 19  10  15  1   
 20  11  14  ar  
 21  11  32  1   
 22  12  16  1   
 23  13  17  1   
 24  13  33  1   
 25  14  18  1   
 26  15  19  2   
 27  15  20  am  
 28  16  17  2   
 29  16  34  1   
 30  17  35  1   
 31  18  36  1   
 32  18  37  1   
 33  18  38  1   
 34  20  21  1   
 35  20  39  1   
 36  21  22  1   
 37  21  23  1   
 38  21  40  1   
 39  22  24  1   
 40  22  41  1   
 41  22  42  1   
 42  23  25  1   
 43  23  43  1   
 44  23  44  1   
 45  24  26  1   
 46  24  45  1   
 47  24  46  1   
 48  25  26  1   
 49  25  47  1   
 50  25  48  1   
 51  26  49  1   
 52  26  50  1   
@<TRIPOS>SUBSTRUCTURE
  1 ****   7 GROUP 4 **** **** 0

# MOE 2024.06 (io_trps.svl 2023.06)
