@<TRIPOS>MOLECULE
NONAME
46 47 1 0 0 
SMALL
USER_CHARGES


@<TRIPOS>ATOM
  1 O        0.5470     0.7380    -0.9430 O.2   1 <1>  -0.5700 
  2 C        0.3950     1.7430    -0.2770 C.2   1 <1>   0.5440 
  3 N        1.4760     2.2690     0.3730 N.am  1 <1>  -0.7300 
  4 C       -0.8950     2.3990    -0.1670 C.ar  1 <1>   0.0860 
  5 C        2.8360     1.6800     0.3740 C.3   1 <1>   0.1400 
  6 C       -2.0490     1.7430     0.2840 C.ar  1 <1>  -0.1430 
  7 C       -1.0040     3.7470    -0.5090 C.ar  1 <1>  -0.1500 
  8 C        3.6460     2.2360    -0.7960 C.3   1 <1>  -0.0160 
  9 C       -3.2470     2.4300     0.3830 C.ar  1 <1>  -0.1500 
 10 C       -2.0110     0.2700     0.6730 C.3   1 <1>  -0.0970 
 11 C       -2.1990     4.4350    -0.4070 C.ar  1 <1>  -0.1430 
 12 C        5.0630     1.6840    -0.7650 C.ar  1 <1>  -0.1430 
 13 C       -3.3240     3.7680     0.0420 C.ar  1 <1>  -0.1500 
 14 C       -2.2940     5.9020    -0.7870 C.3   1 <1>  -0.0970 
 15 C        6.0970     2.4180    -0.2030 C.ar  1 <1>  -0.1500 
 16 C        5.3270     0.4350    -1.2990 C.ar  1 <1>  -0.1500 
 17 C        7.3970     1.9180    -0.1670 C.ar  1 <1>   0.0830 
 18 C        6.6100    -0.0780    -1.2600 C.ar  1 <1>  -0.1500 
 19 O        8.4190     2.6580     0.3540 O.3   1 <1>  -0.3630 
 20 C        7.6490     0.6390    -0.6920 C.ar  1 <1>   0.0830 
 21 C        8.3200     4.0590     0.4940 C.3   1 <1>   0.0400 
 22 O        8.8580     0.0090    -0.7070 O.3   1 <1>  -0.3630 
 23 C        9.7970     0.2070     0.3260 C.3   1 <1>   0.0400 
 24 H        1.3370     3.0870     0.9670 H     1 <1>   0.3700 
 25 H        2.7660     0.6080     0.2840 H     1 <1>   0.0800 
 26 H        3.3260     1.9070     1.3050 H     1 <1>   0.0800 
 27 H       -0.1280     4.2570    -0.8680 H     1 <1>   0.1500 
 28 H        3.6710     3.3100    -0.7430 H     1 <1>   0.0800 
 29 H        3.1720     1.9540    -1.7210 H     1 <1>   0.0800 
 30 H       -4.1340     1.9280     0.7270 H     1 <1>   0.1500 
 31 H       -1.2160     0.0900     1.3750 H     1 <1>   0.0800 
 32 H       -1.8400    -0.3330    -0.2010 H     1 <1>   0.0800 
 33 H       -2.9360    -0.0380     1.1240 H     1 <1>   0.0800 
 34 H       -4.2640     4.2860     0.1250 H     1 <1>   0.1500 
 35 H       -1.3200     6.3130    -0.9840 H     1 <1>   0.0800 
 36 H       -2.7450     6.4610     0.0130 H     1 <1>   0.0800 
 37 H       -2.8980     6.0110    -1.6700 H     1 <1>   0.0800 
 38 H        5.8710     3.3820     0.2080 H     1 <1>   0.1500 
 39 H        4.5350    -0.1440    -1.7430 H     1 <1>   0.1500 
 40 H        6.8140    -1.0500    -1.6730 H     1 <1>   0.1500 
 41 H        9.2940     4.4380     0.7470 H     1 <1>   0.0800 
 42 H        7.6260     4.2830     1.2840 H     1 <1>   0.0800 
 43 H        7.9940     4.4810    -0.4400 H     1 <1>   0.0800 
 44 H       10.4820    -0.6210     0.3210 H     1 <1>   0.0800 
 45 H        9.2780     0.2520     1.2680 H     1 <1>   0.0800 
 46 H       10.3300     1.1210     0.1400 H     1 <1>   0.0800 
@<TRIPOS>BOND
  1   1   2  2   
  2   2   3  am  
  3   2   4  1   
  4   3   5  1   
  5   3  24  1   
  6   4   6  ar  
  7   4   7  ar  
  8   5   8  1   
  9   5  25  1   
 10   5  26  1   
 11   6   9  ar  
 12   6  10  1   
 13   7  11  ar  
 14   7  27  1   
 15   8  12  1   
 16   8  28  1   
 17   8  29  1   
 18   9  13  ar  
 19   9  30  1   
 20  10  31  1   
 21  10  32  1   
 22  10  33  1   
 23  11  13  ar  
 24  11  14  1   
 25  12  15  ar  
 26  12  16  ar  
 27  13  34  1   
 28  14  35  1   
 29  14  36  1   
 30  14  37  1   
 31  15  17  ar  
 32  15  38  1   
 33  16  18  ar  
 34  16  39  1   
 35  17  19  1   
 36  17  20  ar  
 37  18  20  ar  
 38  18  40  1   
 39  19  21  1   
 40  20  22  1   
 41  21  41  1   
 42  21  42  1   
 43  21  43  1   
 44  22  23  1   
 45  23  44  1   
 46  23  45  1   
 47  23  46  1   
@<TRIPOS>SUBSTRUCTURE
  1 ****   5 GROUP 4 **** **** 0

# MOE 2024.06 (io_trps.svl 2023.06)
