@<TRIPOS>MOLECULE
NONAME
53 57 1 0 0 
SMALL
USER_CHARGES


@<TRIPOS>ATOM
  1 S       -0.0480     0.7450    -0.7000 S.3   1 <1>  -0.0800 
  2 C       -0.0410     1.3100     0.9580 C.2   1 <1>  -0.1400 
  3 C       -0.5010     2.3300    -1.2790 C.2   1 <1>  -0.1100 
  4 C       -0.3690     2.6120     1.0110 C.2   1 <1>  -0.1500 
  5 C        0.3170     0.3030     2.0300 C.3   1 <1>  -0.0600 
  6 C       -0.6430     3.2200    -0.2660 C.2   1 <1>  -0.0860 
  7 C       -1.0240     4.6100    -0.3930 C.2   1 <1>   0.7160 
  8 O       -1.0550     5.3640     0.5650 O.2   1 <1>  -0.5700 
  9 N       -1.4660     5.1180    -1.5880 N.am  1 <1>  -0.6600 
 10 C       -1.0410     6.5040    -1.9730 C.3   1 <1>   0.1400 
 11 C       -2.8920     4.8510    -1.9400 C.3   1 <1>   0.1400 
 12 C       -2.0920     7.5670    -1.5670 C.3   1 <1>   0.3430 
 13 C       -3.8340     5.8480    -1.2160 C.3   1 <1>   0.3430 
 14 N       -3.0880     7.0040    -0.5870 N.4   1 <1>  -0.9590 
 15 C       -3.9280     7.9990     0.1450 C.3   1 <1>   0.5030 
 16 C       -3.0140     8.9770     0.9180 C.3   1 <1>  -0.1600 
 17 C       -4.8270     7.2700     1.1710 C.3   1 <1>  -0.1600 
 18 C       -4.8200     8.8010    -0.8260 C.3   1 <1>  -0.1600 
 19 C       -3.8550     9.9980     1.7050 C.3   1 <1>  -0.0800 
 20 C       -5.6800     8.2810     1.9600 C.3   1 <1>  -0.0800 
 21 C       -5.6710     9.8210    -0.0430 C.3   1 <1>  -0.0800 
 22 C       -4.7510     9.2520     2.7080 C.3   1 <1>  -0.1600 
 23 C       -4.7410    10.7840     0.7200 C.3   1 <1>  -0.1600 
 24 C       -6.5570     9.0750     0.9730 C.3   1 <1>  -0.1600 
 25 H       -0.6170     2.4450    -2.3420 H     1 <1>   0.1500 
 26 H       -0.4300     3.1940     1.9160 H     1 <1>   0.1500 
 27 H        1.3060    -0.0810     1.8550 H     1 <1>   0.0800 
 28 H       -0.3820    -0.5130     2.0160 H     1 <1>   0.0800 
 29 H        0.2910     0.7670     3.0000 H     1 <1>   0.0800 
 30 H       -0.8680     6.5490    -3.0340 H     1 <1>   0.0800 
 31 H       -0.1070     6.7350    -1.4880 H     1 <1>   0.0800 
 32 H       -3.1590     3.8420    -1.6700 H     1 <1>   0.0800 
 33 H       -3.0180     4.9420    -3.0050 H     1 <1>   0.0800 
 34 H       -2.6070     7.9130    -2.4480 H     1 <1>   0.0800 
 35 H       -1.5700     8.4080    -1.1430 H     1 <1>   0.0800 
 36 H       -4.3630     5.3060    -0.4500 H     1 <1>   0.0800 
 37 H       -4.5650     6.2130    -1.9170 H     1 <1>   0.0800 
 38 H       -2.4860     6.5610     0.1370 H     1 <1>   0.4500 
 39 H       -2.3820     9.5320     0.2510 H     1 <1>   0.0800 
 40 H       -2.3880     8.4330     1.6040 H     1 <1>   0.0800 
 41 H       -4.2210     6.7080     1.8600 H     1 <1>   0.0800 
 42 H       -5.5050     6.5950     0.6830 H     1 <1>   0.0800 
 43 H       -4.2190     9.3360    -1.5380 H     1 <1>   0.0800 
 44 H       -5.4800     8.1450    -1.3620 H     1 <1>   0.0800 
 45 H       -3.2090    10.6790     2.2350 H     1 <1>   0.0800 
 46 H       -6.3060     7.7620     2.6670 H     1 <1>   0.0800 
 47 H       -6.2930    10.3810    -0.7220 H     1 <1>   0.0800 
 48 H       -4.1430     8.7120     3.4150 H     1 <1>   0.0800 
 49 H       -5.3390     9.9600     3.2670 H     1 <1>   0.0800 
 50 H       -4.1270    11.3320     0.0260 H     1 <1>   0.0800 
 51 H       -5.3310    11.5050     1.2610 H     1 <1>   0.0800 
 52 H       -7.1600     9.7830     1.5160 H     1 <1>   0.0800 
 53 H       -7.2300     8.4100     0.4590 H     1 <1>   0.0800 
@<TRIPOS>BOND
  1   1   2  1   
  2   1   3  1   
  3   2   4  2   
  4   2   5  1   
  5   3   6  2   
  6   3  25  1   
  7   4   6  1   
  8   4  26  1   
  9   5  27  1   
 10   5  28  1   
 11   5  29  1   
 12   6   7  1   
 13   7   8  2   
 14   7   9  am  
 15   9  10  1   
 16   9  11  1   
 17  10  12  1   
 18  10  30  1   
 19  10  31  1   
 20  11  13  1   
 21  11  32  1   
 22  11  33  1   
 23  12  14  1   
 24  12  34  1   
 25  12  35  1   
 26  13  14  1   
 27  13  36  1   
 28  13  37  1   
 29  14  15  1   
 30  14  38  1   
 31  15  16  1   
 32  15  17  1   
 33  15  18  1   
 34  16  19  1   
 35  16  39  1   
 36  16  40  1   
 37  17  20  1   
 38  17  41  1   
 39  17  42  1   
 40  18  21  1   
 41  18  43  1   
 42  18  44  1   
 43  19  22  1   
 44  19  23  1   
 45  19  45  1   
 46  20  22  1   
 47  20  24  1   
 48  20  46  1   
 49  21  23  1   
 50  21  24  1   
 51  21  47  1   
 52  22  48  1   
 53  22  49  1   
 54  23  50  1   
 55  23  51  1   
 56  24  52  1   
 57  24  53  1   
@<TRIPOS>SUBSTRUCTURE
  1 ****  14 GROUP 4 **** **** 0

# MOE 2024.06 (io_trps.svl 2023.06)
