@<TRIPOS>MOLECULE
NONAME
40 42 1 0 0 
SMALL
USER_CHARGES


@<TRIPOS>ATOM
  1 F       -0.1590    -2.4550     1.6160 F     1 <1>  -0.1900 
  2 C       -1.1820    -2.2510     0.8180 C.ar  1 <1>   0.1900 
  3 C       -1.1480    -2.7550    -0.4880 C.ar  1 <1>   0.1000 
  4 C       -2.2520    -1.5380     1.3200 C.ar  1 <1>  -0.1500 
  5 N       -0.0820    -3.4830    -1.0360 N.pl3 1 <1>  -0.8380 
  6 C       -2.2590    -2.5060    -1.2840 C.ar  1 <1>  -0.1500 
  7 C       -3.3450    -1.3070     0.5000 C.ar  1 <1>  -0.1500 
  8 C        1.1640    -2.7280    -1.3710 C.3   1 <1>   0.2090 
  9 C        0.1010    -4.8890    -0.5650 C.3   1 <1>   0.2090 
 10 C       -3.3440    -1.7920    -0.7990 C.ar  1 <1>  -0.1500 
 11 C        2.2580    -2.8980    -0.2940 C.3   1 <1>   0.3430 
 12 C        1.2190    -5.0100     0.4950 C.3   1 <1>   0.3430 
 13 N        2.5030    -4.3430     0.0740 N.4   1 <1>  -0.9590 
 14 C        3.5490    -4.4660     1.1230 C.3   1 <1>   0.4860 
 15 C        4.8620    -3.9460     0.5680 C.ar  1 <1>  -0.1430 
 16 C        5.5830    -4.7050    -0.3480 C.ar  1 <1>  -0.1500 
 17 C        5.3460    -2.7070     0.9760 C.ar  1 <1>  -0.1500 
 18 C        6.7750    -4.2260    -0.8660 C.ar  1 <1>  -0.1500 
 19 C        6.5370    -2.2200     0.4640 C.ar  1 <1>  -0.1500 
 20 C        7.2290    -2.9900    -0.4510 C.ar  1 <1>   0.1900 
 21 F        8.3500    -2.5340    -0.9390 F     1 <1>  -0.1900 
 22 H       -2.2360    -1.1690     2.3300 H     1 <1>   0.1500 
 23 H       -2.2680    -2.8770    -2.2930 H     1 <1>   0.1500 
 24 H       -4.1920    -0.7540     0.8690 H     1 <1>   0.1500 
 25 H        0.9310    -1.6820    -1.4750 H     1 <1>   0.0800 
 26 H        1.5360    -3.0710    -2.3210 H     1 <1>   0.0800 
 27 H        0.3350    -5.5120    -1.4100 H     1 <1>   0.0800 
 28 H       -0.8240    -5.2490    -0.1460 H     1 <1>   0.0800 
 29 H       -4.1930    -1.6130    -1.4360 H     1 <1>   0.1500 
 30 H        1.9530    -2.3500     0.5810 H     1 <1>   0.0800 
 31 H        3.1700    -2.4520    -0.6570 H     1 <1>   0.0800 
 32 H        1.3950    -6.0550     0.6940 H     1 <1>   0.0800 
 33 H        0.8620    -4.5600     1.4060 H     1 <1>   0.0800 
 34 H        2.8540    -4.8090    -0.7700 H     1 <1>   0.4500 
 35 H        3.6690    -5.4990     1.4090 H     1 <1>   0.0800 
 36 H        3.2680    -3.9010     1.9980 H     1 <1>   0.0800 
 37 H        5.2360    -5.6740    -0.6660 H     1 <1>   0.1500 
 38 H        4.8100    -2.1090     1.6950 H     1 <1>   0.1500 
 39 H        7.3500    -4.7950    -1.5760 H     1 <1>   0.1500 
 40 H        6.9320    -1.2650     0.7650 H     1 <1>   0.1500 
@<TRIPOS>BOND
  1   1   2  1   
  2   2   3  ar  
  3   2   4  ar  
  4   3   5  1   
  5   3   6  ar  
  6   4   7  ar  
  7   4  22  1   
  8   5   8  1   
  9   5   9  1   
 10   6  10  ar  
 11   6  23  1   
 12   7  10  ar  
 13   7  24  1   
 14   8  11  1   
 15   8  25  1   
 16   8  26  1   
 17   9  12  1   
 18   9  27  1   
 19   9  28  1   
 20  10  29  1   
 21  11  13  1   
 22  11  30  1   
 23  11  31  1   
 24  12  13  1   
 25  12  32  1   
 26  12  33  1   
 27  13  14  1   
 28  13  34  1   
 29  14  15  1   
 30  14  35  1   
 31  14  36  1   
 32  15  16  ar  
 33  15  17  ar  
 34  16  18  ar  
 35  16  37  1   
 36  17  19  ar  
 37  17  38  1   
 38  18  20  ar  
 39  18  39  1   
 40  19  20  ar  
 41  19  40  1   
 42  20  21  1   
@<TRIPOS>SUBSTRUCTURE
  1 ****  11 GROUP 4 **** **** 0

# MOE 2024.06 (io_trps.svl 2023.06)
