@<TRIPOS>MOLECULE
NONAME
34 34 1 0 0 
SMALL
USER_CHARGES


@<TRIPOS>ATOM
  1 S        0.2930     0.3230     1.5320 S.o2  1 <1>   1.3330 
  2 O       -0.1510    -0.5820     0.5030 O.2   1 <1>  -0.6500 
  3 O        1.6660     0.2840     1.9800 O.2   1 <1>  -0.6500 
  4 N        0.0010     1.9460     1.0070 N.am  1 <1>  -0.6930 
  5 C       -0.7700     0.1950     2.9530 C.3   1 <1>  -0.1350 
  6 C       -1.2350     2.3460     0.5140 C.ar  1 <1>   0.1990 
  7 C        1.1960     2.7630     0.6240 C.3   1 <1>   0.2570 
  8 C       -1.7680     1.8040    -0.6460 C.ar  1 <1>  -0.1500 
  9 C       -1.9580     3.3200     1.1920 C.ar  1 <1>  -0.1500 
 10 C        1.9330     2.2760    -0.6300 C.2   1 <1>   0.5690 
 11 C       -3.0030     2.2110    -1.1210 C.ar  1 <1>   0.0820 
 12 C       -3.1920     3.7370     0.7260 C.ar  1 <1>  -0.1500 
 13 O        1.8710     2.9430    -1.6350 O.2   1 <1>  -0.5700 
 14 N        2.6630     1.1260    -0.5770 N.am  1 <1>  -0.7300 
 15 O       -3.4450     1.6210    -2.2600 O.3   1 <1>  -0.3630 
 16 C       -3.7190     3.1840    -0.4280 C.ar  1 <1>  -0.1500 
 17 C        3.3570     0.4890    -1.7210 C.3   1 <1>   0.0600 
 18 C       -4.6600     2.0050    -2.8630 C.3   1 <1>   0.0400 
 19 H       -0.6650    -0.7720     3.4030 H     1 <1>   0.0800 
 20 H       -1.7930     0.3300     2.6610 H     1 <1>   0.0800 
 21 H       -0.5130     0.9430     3.6760 H     1 <1>   0.0800 
 22 H        1.8920     2.7800     1.4430 H     1 <1>   0.0800 
 23 H        0.8830     3.7760     0.4460 H     1 <1>   0.0800 
 24 H       -1.2180     1.0580    -1.1920 H     1 <1>   0.1500 
 25 H       -1.5480     3.7510     2.0870 H     1 <1>   0.1500 
 26 H       -3.7440     4.4910     1.2600 H     1 <1>   0.1500 
 27 H        2.6460     0.5790     0.2980 H     1 <1>   0.3700 
 28 H       -4.6790     3.5210    -0.7710 H     1 <1>   0.1500 
 29 H        3.2870     1.1130    -2.5960 H     1 <1>   0.0800 
 30 H        2.9000    -0.4620    -1.9350 H     1 <1>   0.0800 
 31 H        4.3940     0.3400    -1.4800 H     1 <1>   0.0800 
 32 H       -4.7870     1.4210    -3.7570 H     1 <1>   0.0800 
 33 H       -4.6110     3.0500    -3.1120 H     1 <1>   0.0800 
 34 H       -5.4670     1.8060    -2.1800 H     1 <1>   0.0800 
@<TRIPOS>BOND
  1   1   2  2   
  2   1   3  2   
  3   1   4  am  
  4   1   5  1   
  5   4   6  1   
  6   4   7  1   
  7   5  19  1   
  8   5  20  1   
  9   5  21  1   
 10   6   8  ar  
 11   6   9  ar  
 12   7  10  1   
 13   7  22  1   
 14   7  23  1   
 15   8  11  ar  
 16   8  24  1   
 17   9  12  ar  
 18   9  25  1   
 19  10  13  2   
 20  10  14  am  
 21  11  15  1   
 22  11  16  ar  
 23  12  16  ar  
 24  12  26  1   
 25  14  17  1   
 26  14  27  1   
 27  15  18  1   
 28  16  28  1   
 29  17  29  1   
 30  17  30  1   
 31  17  31  1   
 32  18  32  1   
 33  18  33  1   
 34  18  34  1   
@<TRIPOS>SUBSTRUCTURE
  1 ****   6 GROUP 4 **** **** 0

# MOE 2024.06 (io_trps.svl 2023.06)
