@<TRIPOS>MOLECULE
NONAME
46 49 1 0 0 
SMALL
USER_CHARGES


@<TRIPOS>ATOM
  1 O       -0.5660     1.5860     2.1870 O.2   1 <1>  -0.5700 
  2 C       -0.8270     1.8370     1.0330 C.2   1 <1>   0.5690 
  3 N        0.1490     2.0400     0.0900 N.am  1 <1>  -0.5470 
  4 C       -2.3090     1.9920     0.5950 C.3   1 <1>   0.0610 
  5 C        1.5500     1.9720     0.1580 C.ar  1 <1>   0.1170 
  6 C       -2.6250     3.5050     0.7170 C.3   1 <1>  -0.1600 
  7 C       -2.4880     1.4570    -0.8590 C.3   1 <1>  -0.1600 
  8 C       -3.2100     1.1880     1.5730 C.3   1 <1>  -0.1600 
  9 C        2.2930     2.6030    -0.8320 C.ar  1 <1>  -0.1500 
 10 C        2.2350     1.2880     1.1570 C.ar  1 <1>  -0.1500 
 11 C       -3.8900     4.0870     0.0660 C.3   1 <1>  -0.1600 
 12 C       -3.9250     1.0960    -1.2900 C.3   1 <1>  -0.0800 
 13 C       -4.6460     0.9470     1.0920 C.3   1 <1>  -0.0800 
 14 C        3.6760     2.5600    -0.8250 C.ar  1 <1>  -0.1500 
 15 C        3.6180     1.2440     1.1670 C.ar  1 <1>  -0.1500 
 16 C       -5.0600     3.1400    -0.2360 C.3   1 <1>  -0.0800 
 17 C       -4.8080     2.3280    -1.5180 C.3   1 <1>  -0.1600 
 18 C       -4.5920     0.2010    -0.2430 C.3   1 <1>  -0.1600 
 19 C       -5.4620     2.2480     0.9560 C.3   1 <1>  -0.1600 
 20 C        4.3480     1.8800     0.1770 C.ar  1 <1>  -0.1430 
 21 C        5.8650     1.8290     0.1900 C.3   1 <1>  -0.0970 
 22 H       -0.2100     2.3210    -0.8180 H     1 <1>   0.3700 
 23 H       -1.7930     4.0630     0.3220 H     1 <1>   0.0800 
 24 H       -2.6550     3.7460     1.7660 H     1 <1>   0.0800 
 25 H       -1.9140     0.5510    -0.9470 H     1 <1>   0.0800 
 26 H       -2.0820     2.1610    -1.5640 H     1 <1>   0.0800 
 27 H       -2.7600     0.2220     1.7290 H     1 <1>   0.0800 
 28 H       -3.2320     1.6680     2.5360 H     1 <1>   0.0800 
 29 H        1.7910     3.1380    -1.6170 H     1 <1>   0.1500 
 30 H        1.6930     0.7820     1.9330 H     1 <1>   0.1500 
 31 H       -3.6060     4.5740    -0.8500 H     1 <1>   0.0800 
 32 H       -4.2550     4.8670     0.7120 H     1 <1>   0.0800 
 33 H       -3.8720     0.5530    -2.2190 H     1 <1>   0.0800 
 34 H       -5.1360     0.3190     1.8170 H     1 <1>   0.0800 
 35 H        4.2290     3.0570    -1.6020 H     1 <1>   0.1500 
 36 H        4.1220     0.7090     1.9530 H     1 <1>   0.1500 
 37 H       -5.9010     3.7800    -0.4440 H     1 <1>   0.0800 
 38 H       -4.3790     2.9520    -2.2820 H     1 <1>   0.0800 
 39 H       -5.7600     1.9920    -1.8930 H     1 <1>   0.0800 
 40 H       -4.0360    -0.7140    -0.1330 H     1 <1>   0.0800 
 41 H       -5.5880    -0.0580    -0.5580 H     1 <1>   0.0800 
 42 H       -5.4110     2.8110     1.8710 H     1 <1>   0.0800 
 43 H       -6.4910     1.9670     0.8190 H     1 <1>   0.0800 
 44 H        6.2750     2.7100    -0.2700 H     1 <1>   0.0800 
 45 H        6.2040     0.9640    -0.3490 H     1 <1>   0.0800 
 46 H        6.2290     1.7750     1.2000 H     1 <1>   0.0800 
@<TRIPOS>BOND
  1   1   2  2   
  2   2   3  am  
  3   2   4  1   
  4   3   5  1   
  5   3  22  1   
  6   4   6  1   
  7   4   7  1   
  8   4   8  1   
  9   5   9  ar  
 10   5  10  ar  
 11   6  11  1   
 12   6  23  1   
 13   6  24  1   
 14   7  12  1   
 15   7  25  1   
 16   7  26  1   
 17   8  13  1   
 18   8  27  1   
 19   8  28  1   
 20   9  14  ar  
 21   9  29  1   
 22  10  15  ar  
 23  10  30  1   
 24  11  16  1   
 25  11  31  1   
 26  11  32  1   
 27  12  17  1   
 28  12  18  1   
 29  12  33  1   
 30  13  18  1   
 31  13  19  1   
 32  13  34  1   
 33  14  20  ar  
 34  14  35  1   
 35  15  20  ar  
 36  15  36  1   
 37  16  17  1   
 38  16  19  1   
 39  16  37  1   
 40  17  38  1   
 41  17  39  1   
 42  18  40  1   
 43  18  41  1   
 44  19  42  1   
 45  19  43  1   
 46  20  21  1   
 47  21  44  1   
 48  21  45  1   
 49  21  46  1   
@<TRIPOS>SUBSTRUCTURE
  1 ****   2 GROUP 4 **** **** 0

# MOE 2024.06 (io_trps.svl 2023.06)
