@<TRIPOS>MOLECULE
NONAME
34 35 1 0 0 
SMALL
USER_CHARGES


@<TRIPOS>ATOM
  1 S        0.2700    -0.7560    -1.3580 S.o2  1 <1>   1.4470 
  2 O        1.1030    -1.5030    -2.2740 O.2   1 <1>  -0.6500 
  3 O       -0.0120     0.6380    -1.6200 O.2   1 <1>  -0.6500 
  4 N        1.0150    -0.8420     0.1630 N.am  1 <1>  -0.8490 
  5 C       -1.3070    -1.6210    -1.1000 C.ar  1 <1>  -0.0090 
  6 C        2.1400     0.1090     0.2500 C.3   1 <1>   0.1960 
  7 C        1.4570    -2.2170     0.4720 C.3   1 <1>   0.1960 
  8 C       -2.0860    -1.3620     0.0220 C.ar  1 <1>  -0.1500 
  9 C       -1.7790    -2.5500    -2.0170 C.ar  1 <1>  -0.1500 
 10 C        2.6600     0.2770     1.6840 C.3   1 <1>   0.0700 
 11 C        1.8580    -2.3840     1.9430 C.3   1 <1>   0.0700 
 12 C       -3.2980    -2.0000     0.2530 C.ar  1 <1>  -0.0090 
 13 C       -2.9810    -3.2020    -1.8140 C.ar  1 <1>  -0.1500 
 14 S        3.2760    -1.3140     2.2930 S.3   1 <1>  -0.4600 
 15 S       -4.2890    -1.6110     1.7180 S.o2  1 <1>   1.2040 
 16 C       -3.7320    -2.9260    -0.6860 C.ar  1 <1>  -0.1500 
 17 O       -5.2610    -2.6580     1.9330 O.2   1 <1>  -0.6500 
 18 O       -3.4040    -1.2130     2.7890 O.2   1 <1>  -0.6500 
 19 C       -5.1800    -0.1580     1.1950 C.3   1 <1>  -0.1350 
 20 H        1.8180     1.0800    -0.0870 H     1 <1>   0.0800 
 21 H        2.9430    -0.2100    -0.3940 H     1 <1>   0.0800 
 22 H        2.2870    -2.4900    -0.1590 H     1 <1>   0.0800 
 23 H        0.6540    -2.9060     0.2730 H     1 <1>   0.0800 
 24 H       -1.7300    -0.6400     0.7400 H     1 <1>   0.1500 
 25 H       -1.1980    -2.7680    -2.8990 H     1 <1>   0.1500 
 26 H        1.8760     0.6010     2.3440 H     1 <1>   0.0800 
 27 H        3.4810     0.9710     1.7220 H     1 <1>   0.0800 
 28 H        2.1630    -3.3930     2.1540 H     1 <1>   0.0800 
 29 H        1.0570    -2.0970     2.6010 H     1 <1>   0.0800 
 30 H       -3.3320    -3.9230    -2.5330 H     1 <1>   0.1500 
 31 H       -4.6670    -3.4420    -0.5330 H     1 <1>   0.1500 
 32 H       -5.7900    -0.3800     0.3410 H     1 <1>   0.0800 
 33 H       -4.4970     0.6290     0.9410 H     1 <1>   0.0800 
 34 H       -5.8150     0.1850     1.9880 H     1 <1>   0.0800 
@<TRIPOS>BOND
  1   1   2  2   
  2   1   3  2   
  3   1   4  am  
  4   1   5  1   
  5   4   6  1   
  6   4   7  1   
  7   5   8  ar  
  8   5   9  ar  
  9   6  10  1   
 10   6  20  1   
 11   6  21  1   
 12   7  11  1   
 13   7  22  1   
 14   7  23  1   
 15   8  12  ar  
 16   8  24  1   
 17   9  13  ar  
 18   9  25  1   
 19  10  14  1   
 20  10  26  1   
 21  10  27  1   
 22  11  14  1   
 23  11  28  1   
 24  11  29  1   
 25  12  15  1   
 26  12  16  ar  
 27  13  16  ar  
 28  13  30  1   
 29  15  17  2   
 30  15  18  2   
 31  15  19  1   
 32  16  31  1   
 33  19  32  1   
 34  19  33  1   
 35  19  34  1   
@<TRIPOS>SUBSTRUCTURE
  1 ****   8 GROUP 4 **** **** 0

# MOE 2024.06 (io_trps.svl 2023.06)
