@<TRIPOS>MOLECULE
NONAME
26 27 1 0 0 
SMALL
USER_CHARGES


@<TRIPOS>ATOM
  1 CL      -0.8460    -0.7560    -2.6730 Cl    1 <1>  -0.1770 
  2 C       -1.7780    -1.2240    -1.2730 C.ar  1 <1>   0.1770 
  3 C       -1.3610    -2.2950    -0.4860 C.ar  1 <1>   0.0860 
  4 C       -2.9170    -0.4930    -0.9830 C.ar  1 <1>  -0.1500 
  5 C       -2.1560    -2.5810     0.6200 C.ar  1 <1>   0.1900 
  6 C       -0.1820    -3.0570    -0.7970 C.2   1 <1>   0.5440 
  7 C       -3.6860    -0.8160     0.1250 C.ar  1 <1>  -0.1500 
  8 F       -1.8150    -3.5560     1.4150 F     1 <1>  -0.1900 
  9 C       -3.3000    -1.8700     0.9360 C.ar  1 <1>  -0.1500 
 10 O       -0.2840    -4.0960    -1.4220 O.2   1 <1>  -0.5700 
 11 N        1.0640    -2.6320    -0.4050 N.am  1 <1>  -0.6600 
 12 C        2.3030    -3.3620    -0.7410 C.3   1 <1>   0.1400 
 13 C        1.3540    -1.3970     0.3540 C.3   1 <1>   0.1400 
 14 C        3.4280    -2.4010    -0.3730 C.3   1 <1>  -0.1600 
 15 C        2.8320    -1.5040     0.7100 C.3   1 <1>  -0.1600 
 16 H       -3.2010     0.3240    -1.6240 H     1 <1>   0.1500 
 17 H       -4.5750    -0.2510     0.3530 H     1 <1>   0.1500 
 18 H       -3.8770    -2.1400     1.8030 H     1 <1>   0.1500 
 19 H        2.3230    -3.6230    -1.7860 H     1 <1>   0.0800 
 20 H        2.3530    -4.2570    -0.1440 H     1 <1>   0.0800 
 21 H        0.7400    -1.3300     1.2360 H     1 <1>   0.0800 
 22 H        1.1830    -0.5450    -0.2820 H     1 <1>   0.0800 
 23 H        3.6780    -1.8130    -1.2390 H     1 <1>   0.0800 
 24 H        4.3060    -2.9240    -0.0380 H     1 <1>   0.0800 
 25 H        2.9260    -1.9820     1.6700 H     1 <1>   0.0800 
 26 H        3.3050    -0.5390     0.7510 H     1 <1>   0.0800 
@<TRIPOS>BOND
  1   1   2  1   
  2   2   3  ar  
  3   2   4  ar  
  4   3   5  ar  
  5   3   6  1   
  6   4   7  ar  
  7   4  16  1   
  8   5   8  1   
  9   5   9  ar  
 10   6  10  2   
 11   6  11  am  
 12   7   9  ar  
 13   7  17  1   
 14   9  18  1   
 15  11  12  1   
 16  11  13  1   
 17  12  14  1   
 18  12  19  1   
 19  12  20  1   
 20  13  15  1   
 21  13  21  1   
 22  13  22  1   
 23  14  15  1   
 24  14  23  1   
 25  14  24  1   
 26  15  25  1   
 27  15  26  1   
@<TRIPOS>SUBSTRUCTURE
  1 ****   3 GROUP 4 **** **** 0

# MOE 2024.06 (io_trps.svl 2023.06)
