@<TRIPOS>MOLECULE
NONAME
55 58 1 0 0 
SMALL
USER_CHARGES


@<TRIPOS>ATOM
  1 O        7.9430    -1.6920     1.4210 O.2   1 <1>  -0.5700 
  2 C        7.8280    -1.8610     0.2310 C.2   1 <1>   0.5690 
  3 N        6.7760    -1.3580    -0.4720 N.am  1 <1>  -0.7300 
  4 C        8.9420    -2.6390    -0.4950 C.3   1 <1>   0.4040 
  5 C        5.6480    -0.6030     0.1240 C.3   1 <1>   0.2200 
  6 N       10.3060    -1.9700    -0.4890 N.4   1 <1>  -0.9590 
  7 C        4.3100    -1.3950    -0.0170 C.3   1 <1>   0.0000 
  8 C        5.6690     0.7840    -0.5270 C.3   1 <1>  -0.2400 
  9 C       10.8610    -1.9360     0.9010 C.3   1 <1>   0.3430 
 10 C       10.2350    -0.5910    -1.0600 C.3   1 <1>   0.3430 
 11 C        3.9360    -1.6970    -1.4940 C.3   1 <1>  -0.1600 
 12 C        3.1370    -0.6040     0.6200 C.3   1 <1>  -0.1600 
 13 C        4.4260    -2.7460     0.7390 C.3   1 <1>  -0.1600 
 14 C       12.2850    -1.3780     0.8710 C.3   1 <1>  -0.1600 
 15 C       11.6430     0.0030    -1.1400 C.3   1 <1>  -0.1600 
 16 C        2.6210    -2.4970    -1.5780 C.3   1 <1>  -0.0800 
 17 C        1.8180    -1.3960     0.5430 C.3   1 <1>  -0.0800 
 18 C        3.1160    -3.5500     0.6600 C.3   1 <1>  -0.0800 
 19 C       12.3320     0.0150     0.2310 C.3   1 <1>  -0.1600 
 20 C        1.4870    -1.6810    -0.9330 C.3   1 <1>  -0.1600 
 21 C        2.7830    -3.8260    -0.8180 C.3   1 <1>  -0.1600 
 22 C        1.9810    -2.7280     1.2940 C.3   1 <1>  -0.1600 
 23 H        6.6280    -1.5640    -1.4610 H     1 <1>   0.3700 
 24 H        8.6290    -2.7950    -1.5120 H     1 <1>   0.0800 
 25 H        9.0200    -3.6050    -0.0270 H     1 <1>   0.0800 
 26 H        5.8350    -0.4680     1.1770 H     1 <1>   0.0800 
 27 H       10.9570    -2.5190    -1.0620 H     1 <1>   0.4500 
 28 H        5.4700     0.7290    -1.5810 H     1 <1>   0.0800 
 29 H        6.6290     1.2430    -0.3740 H     1 <1>   0.0800 
 30 H        4.9360     1.4240    -0.0730 H     1 <1>   0.0800 
 31 H       10.8700    -2.9280     1.3240 H     1 <1>   0.0800 
 32 H       10.2450    -1.3100     1.5280 H     1 <1>   0.0800 
 33 H        9.6190     0.0320    -0.4310 H     1 <1>   0.0800 
 34 H        9.8000    -0.6180    -2.0460 H     1 <1>   0.0800 
 35 H        4.7130    -2.2650    -1.9710 H     1 <1>   0.0800 
 36 H        3.8130    -0.7810    -2.0430 H     1 <1>   0.0800 
 37 H        2.9920     0.3320     0.1110 H     1 <1>   0.0800 
 38 H        3.3600    -0.3840     1.6500 H     1 <1>   0.0800 
 39 H        4.6700    -2.5650     1.7720 H     1 <1>   0.0800 
 40 H        5.2160    -3.3440     0.3230 H     1 <1>   0.0800 
 41 H       12.9250    -2.0550     0.3320 H     1 <1>   0.0800 
 42 H       12.6580    -1.3180     1.8790 H     1 <1>   0.0800 
 43 H       11.5770     1.0120    -1.5120 H     1 <1>   0.0800 
 44 H       12.2310    -0.5600    -1.8430 H     1 <1>   0.0800 
 45 H        2.3810    -2.6970    -2.6080 H     1 <1>   0.0800 
 46 H        1.0230    -0.8240     0.9900 H     1 <1>   0.0800 
 47 H        3.2270    -4.4820     1.1880 H     1 <1>   0.0800 
 48 H       13.3550     0.3370     0.1260 H     1 <1>   0.0800 
 49 H       11.8320     0.7210     0.8750 H     1 <1>   0.0800 
 50 H        0.5620    -2.2270    -0.9980 H     1 <1>   0.0800 
 51 H        1.3560    -0.7540    -1.4630 H     1 <1>   0.0800 
 52 H        3.5650    -4.4130    -1.2660 H     1 <1>   0.0800 
 53 H        1.8710    -4.3940    -0.8830 H     1 <1>   0.0800 
 54 H        2.2020    -2.5390     2.3300 H     1 <1>   0.0800 
 55 H        1.0610    -3.2850     1.2530 H     1 <1>   0.0800 
@<TRIPOS>BOND
  1   1   2  2   
  2   2   3  am  
  3   2   4  1   
  4   3   5  1   
  5   3  23  1   
  6   4   6  1   
  7   4  24  1   
  8   4  25  1   
  9   5   7  1   
 10   5   8  1   
 11   5  26  1   
 12   6   9  1   
 13   6  10  1   
 14   6  27  1   
 15   7  11  1   
 16   7  12  1   
 17   7  13  1   
 18   8  28  1   
 19   8  29  1   
 20   8  30  1   
 21   9  14  1   
 22   9  31  1   
 23   9  32  1   
 24  10  15  1   
 25  10  33  1   
 26  10  34  1   
 27  11  16  1   
 28  11  35  1   
 29  11  36  1   
 30  12  17  1   
 31  12  37  1   
 32  12  38  1   
 33  13  18  1   
 34  13  39  1   
 35  13  40  1   
 36  14  19  1   
 37  14  41  1   
 38  14  42  1   
 39  15  19  1   
 40  15  43  1   
 41  15  44  1   
 42  16  20  1   
 43  16  21  1   
 44  16  45  1   
 45  17  20  1   
 46  17  22  1   
 47  17  46  1   
 48  18  21  1   
 49  18  22  1   
 50  18  47  1   
 51  19  48  1   
 52  19  49  1   
 53  20  50  1   
 54  20  51  1   
 55  21  52  1   
 56  21  53  1   
 57  22  54  1   
 58  22  55  1   
@<TRIPOS>SUBSTRUCTURE
  1 ****   3 GROUP 4 **** **** 0

# MOE 2024.06 (io_trps.svl 2023.06)
