@<TRIPOS>MOLECULE
NONAME
37 37 1 0 0 
SMALL
USER_CHARGES


@<TRIPOS>ATOM
  1 O        1.9340    -4.9700    -0.0820 O.3   1 <1>  -0.3630 
  2 C        0.7280    -5.5830     0.0190 C.ar  1 <1>   0.0830 
  3 C        3.1300    -5.6770     0.1210 C.3   1 <1>   0.1200 
  4 C       -0.3920    -4.7970    -0.1960 C.ar  1 <1>  -0.1500 
  5 C        0.5650    -6.9310     0.3210 C.ar  1 <1>  -0.1500 
  6 C        4.2760    -4.6840    -0.0630 C.3   1 <1>  -0.1600 
  7 C       -1.6680    -5.3310    -0.1150 C.ar  1 <1>  -0.1440 
  8 C       -0.7070    -7.4680     0.4030 C.ar  1 <1>  -0.1500 
  9 C        5.6240    -5.3680     0.1520 C.3   1 <1>   0.3430 
 10 C       -1.8280    -6.6790     0.1880 C.ar  1 <1>  -0.1440 
 11 C       -2.8650    -4.4230    -0.3590 C.3   1 <1>  -0.0960 
 12 N        6.7420    -4.4190    -0.1300 N.4   1 <1>  -0.9590 
 13 C       -3.2080    -7.3130     0.2880 C.3   1 <1>  -0.0970 
 14 C        8.0380    -5.1540    -0.2550 C.3   1 <1>   0.2630 
 15 C        6.8540    -3.3450     0.9090 C.3   1 <1>   0.2630 
 16 H        3.1780    -6.4710    -0.6050 H     1 <1>   0.0800 
 17 H        3.1160    -6.0800     1.1210 H     1 <1>   0.0800 
 18 H       -0.2500    -3.7580    -0.4280 H     1 <1>   0.1500 
 19 H        1.4020    -7.5770     0.4940 H     1 <1>   0.1500 
 20 H        4.1440    -3.8880     0.6480 H     1 <1>   0.0800 
 21 H        4.2240    -4.2880    -1.0610 H     1 <1>   0.0800 
 22 H       -0.8200    -8.5120     0.6370 H     1 <1>   0.1500 
 23 H        5.6930    -6.2120    -0.5170 H     1 <1>   0.0800 
 24 H        5.6950    -5.7340     1.1640 H     1 <1>   0.0800 
 25 H       -2.5490    -3.4190    -0.5790 H     1 <1>   0.0800 
 26 H       -3.4910    -4.3960     0.5140 H     1 <1>   0.0800 
 27 H       -3.4380    -4.7860    -1.1930 H     1 <1>   0.0800 
 28 H        6.5420    -3.9670    -1.0370 H     1 <1>   0.4500 
 29 H       -3.7800    -6.8280     1.0580 H     1 <1>   0.0800 
 30 H       -3.1370    -8.3580     0.5290 H     1 <1>   0.0800 
 31 H       -3.7250    -7.2170    -0.6490 H     1 <1>   0.0800 
 32 H        8.2830    -5.6460     0.6730 H     1 <1>   0.0800 
 33 H        8.8340    -4.4700    -0.5020 H     1 <1>   0.0800 
 34 H        7.9750    -5.8980    -1.0330 H     1 <1>   0.0800 
 35 H        7.0300    -3.7790     1.8800 H     1 <1>   0.0800 
 36 H        5.9470    -2.7640     0.9510 H     1 <1>   0.0800 
 37 H        7.6700    -2.6820     0.6750 H     1 <1>   0.0800 
@<TRIPOS>BOND
  1   1   2  1   
  2   1   3  1   
  3   2   4  ar  
  4   2   5  ar  
  5   3   6  1   
  6   3  16  1   
  7   3  17  1   
  8   4   7  ar  
  9   4  18  1   
 10   5   8  ar  
 11   5  19  1   
 12   6   9  1   
 13   6  20  1   
 14   6  21  1   
 15   7  10  ar  
 16   7  11  1   
 17   8  10  ar  
 18   8  22  1   
 19   9  12  1   
 20   9  23  1   
 21   9  24  1   
 22  10  13  1   
 23  11  25  1   
 24  11  26  1   
 25  11  27  1   
 26  12  14  1   
 27  12  15  1   
 28  12  28  1   
 29  13  29  1   
 30  13  30  1   
 31  13  31  1   
 32  14  32  1   
 33  14  33  1   
 34  14  34  1   
 35  15  35  1   
 36  15  36  1   
 37  15  37  1   
@<TRIPOS>SUBSTRUCTURE
  1 ****   1 GROUP 4 **** **** 0

# MOE 2024.06 (io_trps.svl 2023.06)
