@<TRIPOS>MOLECULE
NONAME
49 52 1 0 0 
SMALL
USER_CHARGES


@<TRIPOS>ATOM
  1 O        0.4310    -0.3560     0.1150 O.3   1 <1>  -0.3630 
  2 C       -0.2260    -1.5180     0.0660 C.ar  1 <1>   0.0830 
  3 C        1.5100    -0.4570    -0.8150 C.3   1 <1>   0.4000 
  4 C        0.3500    -2.3470    -0.8500 C.ar  1 <1>   0.0830 
  5 C       -1.3310    -1.9030     0.7960 C.ar  1 <1>  -0.1500 
  6 O        1.3990    -1.7450    -1.4190 O.3   1 <1>  -0.3630 
  7 C       -0.1460    -3.6120    -1.0880 C.ar  1 <1>  -0.1500 
  8 C       -1.8600    -3.1710     0.5680 C.ar  1 <1>  -0.1440 
  9 C       -1.2620    -4.0200    -0.3660 C.ar  1 <1>  -0.1500 
 10 C       -3.0890    -3.6210     1.3320 C.3   1 <1>   0.4870 
 11 N       -4.2670    -3.5220     0.4300 N.4   1 <1>  -0.9590 
 12 C       -4.5290    -2.0970    -0.0010 C.3   1 <1>   0.3430 
 13 C       -5.5000    -4.1330     1.0470 C.3   1 <1>   0.3430 
 14 C       -5.7480    -1.9650    -0.9380 C.3   1 <1>   0.2090 
 15 C       -6.7220    -4.0720     0.1090 C.3   1 <1>   0.2090 
 16 N       -6.9390    -2.6920    -0.4090 N.pl3 1 <1>  -0.8380 
 17 C       -7.9890    -1.9610     0.1490 C.ar  1 <1>   0.1000 
 18 C       -9.2850    -2.0260    -0.3760 C.ar  1 <1>  -0.1430 
 19 C       -7.7490    -1.1670     1.2660 C.ar  1 <1>  -0.1500 
 20 C      -10.3160    -1.3180     0.2370 C.ar  1 <1>  -0.1430 
 21 C       -9.5670    -2.8750    -1.6180 C.3   1 <1>  -0.0970 
 22 C       -8.7690    -0.4560     1.8620 C.ar  1 <1>  -0.1500 
 23 C      -10.0490    -0.5350     1.3500 C.ar  1 <1>  -0.1500 
 24 C      -11.7510    -1.3690    -0.2720 C.3   1 <1>  -0.0970 
 25 H        2.4470    -0.3840    -0.2910 H     1 <1>   0.0800 
 26 H        1.4140     0.3060    -1.5670 H     1 <1>   0.0800 
 27 H       -1.7450    -1.2170     1.5150 H     1 <1>   0.1500 
 28 H        0.3310    -4.2500    -1.8110 H     1 <1>   0.1500 
 29 H       -1.6490    -5.0090    -0.5430 H     1 <1>   0.1500 
 30 H       -3.2300    -3.0010     2.2020 H     1 <1>   0.0800 
 31 H       -2.9520    -4.6400     1.6570 H     1 <1>   0.0800 
 32 H       -4.0400    -4.0460    -0.4240 H     1 <1>   0.4500 
 33 H       -3.6630    -1.6990    -0.5050 H     1 <1>   0.0800 
 34 H       -4.7090    -1.4870     0.8680 H     1 <1>   0.0800 
 35 H       -5.7510    -3.6040     1.9520 H     1 <1>   0.0800 
 36 H       -5.3130    -5.1620     1.3070 H     1 <1>   0.0800 
 37 H       -5.5030    -2.3570    -1.9090 H     1 <1>   0.0800 
 38 H       -5.9920    -0.9230    -1.0650 H     1 <1>   0.0800 
 39 H       -7.6000    -4.3950     0.6450 H     1 <1>   0.0800 
 40 H       -6.5840    -4.7420    -0.7210 H     1 <1>   0.0800 
 41 H       -6.7640    -1.1050     1.6770 H     1 <1>   0.1500 
 42 H       -8.6850    -2.9980    -2.2180 H     1 <1>   0.0800 
 43 H      -10.3050    -2.4110    -2.2440 H     1 <1>   0.0800 
 44 H       -9.9200    -3.8450    -1.3210 H     1 <1>   0.0800 
 45 H       -8.5760     0.1570     2.7250 H     1 <1>   0.1500 
 46 H      -10.8390     0.0210     1.8250 H     1 <1>   0.1500 
 47 H      -12.0590    -2.3890    -0.4180 H     1 <1>   0.0800 
 48 H      -11.8280    -0.8400    -1.2040 H     1 <1>   0.0800 
 49 H      -12.4270    -0.9170     0.4310 H     1 <1>   0.0800 
@<TRIPOS>BOND
  1   1   2  1   
  2   1   3  1   
  3   2   4  ar  
  4   2   5  ar  
  5   3   6  1   
  6   3  25  1   
  7   3  26  1   
  8   4   6  1   
  9   4   7  ar  
 10   5   8  ar  
 11   5  27  1   
 12   7   9  ar  
 13   7  28  1   
 14   8   9  ar  
 15   8  10  1   
 16   9  29  1   
 17  10  11  1   
 18  10  30  1   
 19  10  31  1   
 20  11  12  1   
 21  11  13  1   
 22  11  32  1   
 23  12  14  1   
 24  12  33  1   
 25  12  34  1   
 26  13  15  1   
 27  13  35  1   
 28  13  36  1   
 29  14  16  1   
 30  14  37  1   
 31  14  38  1   
 32  15  16  1   
 33  15  39  1   
 34  15  40  1   
 35  16  17  1   
 36  17  18  ar  
 37  17  19  ar  
 38  18  20  ar  
 39  18  21  1   
 40  19  22  ar  
 41  19  41  1   
 42  20  23  ar  
 43  20  24  1   
 44  21  42  1   
 45  21  43  1   
 46  21  44  1   
 47  22  23  ar  
 48  22  45  1   
 49  23  46  1   
 50  24  47  1   
 51  24  48  1   
 52  24  49  1   
@<TRIPOS>SUBSTRUCTURE
  1 ****  12 GROUP 4 **** **** 0

# MOE 2024.06 (io_trps.svl 2023.06)
