@<TRIPOS>MOLECULE
NONAME
55 58 1 0 0 
SMALL
USER_CHARGES


@<TRIPOS>ATOM
  1 S        0.3780    -0.2340     0.5160 S.3   1 <1>  -0.3320 
  2 C        1.2820     1.2920     0.2980 C.ar  1 <1>   0.7220 
  3 C       -1.4030     0.2570     0.4500 C.3   1 <1>   0.0700 
  4 N        0.5570     2.3970     0.1580 N.ar  1 <1>  -0.3100 
  5 N        2.5820     1.1770     0.3020 N.ar  1 <1>  -0.6200 
  6 C       -2.2490    -1.0050     0.6270 C.3   1 <1>  -0.1600 
  7 N        1.1720     3.5330    -0.0050 N.ar  1 <1>  -0.3100 
  8 C        3.2020     2.3300     0.1340 C.ar  1 <1>   0.3930 
  9 C       -3.7460    -0.6800     0.5840 C.3   1 <1>  -0.2400 
 10 C        2.5130     3.5560    -0.0250 C.ar  1 <1>   0.3100 
 11 O        4.5340     2.1530     0.1480 O.3   1 <1>  -0.3630 
 12 C        3.1000     4.8790    -0.2240 C.ar  1 <1>   0.0000 
 13 C        5.4570     3.1890     0.1710 C.3   1 <1>   0.7130 
 14 C        4.3770     5.0680    -0.7760 C.ar  1 <1>   0.1000 
 15 C        2.3820     6.0390     0.0970 C.ar  1 <1>  -0.1500 
 16 N        5.2020     3.9950    -1.0100 N.pl3 1 <1>  -0.8690 
 17 C        6.8740     2.6370     0.0930 C.ar  1 <1>  -0.1430 
 18 C        4.8580     6.3420    -1.0520 C.ar  1 <1>  -0.1500 
 19 C        2.8720     7.3060    -0.1560 C.ar  1 <1>  -0.1500 
 20 C        7.1900     1.5910    -0.7630 C.ar  1 <1>  -0.1500 
 21 C        7.8750     3.1950     0.8730 C.ar  1 <1>  -0.1500 
 22 C        4.1130     7.4600    -0.7440 C.ar  1 <1>  -0.1500 
 23 C        8.4880     1.0910    -0.8340 C.ar  1 <1>   0.0830 
 24 C        9.1760     2.7260     0.8120 C.ar  1 <1>   0.0830 
 25 O        8.8260     0.0620    -1.6650 O.3   1 <1>  -0.3630 
 26 C        9.4850     1.6530    -0.0320 C.ar  1 <1>   0.0830 
 27 O       10.0650     3.3740     1.6160 O.3   1 <1>  -0.3630 
 28 C        7.8740    -0.5670    -2.4950 C.3   1 <1>   0.0400 
 29 O       10.7460     1.1400    -0.0780 O.3   1 <1>  -0.3630 
 30 C       11.3820     3.6140     1.1670 C.3   1 <1>   0.0400 
 31 C       10.9410    -0.0470     0.6550 C.3   1 <1>   0.0400 
 32 H       -1.5740     0.7200    -0.5060 H     1 <1>   0.0800 
 33 H       -1.5720     0.9640     1.2430 H     1 <1>   0.0800 
 34 H       -2.0110    -1.4640     1.5710 H     1 <1>   0.0800 
 35 H       -2.0130    -1.7040    -0.1570 H     1 <1>   0.0800 
 36 H       -4.0050     0.0050     1.3720 H     1 <1>   0.0800 
 37 H       -4.3210    -1.5800     0.7100 H     1 <1>   0.0800 
 38 H       -4.0080    -0.2370    -0.3620 H     1 <1>   0.0800 
 39 H        5.3120     3.7550     1.0770 H     1 <1>   0.0800 
 40 H        1.4070     5.9610     0.5470 H     1 <1>   0.1500 
 41 H        6.0970     4.2040    -1.4590 H     1 <1>   0.4000 
 42 H        5.8260     6.4600    -1.5020 H     1 <1>   0.1500 
 43 H        2.2860     8.1730     0.0970 H     1 <1>   0.1500 
 44 H        6.4040     1.1760    -1.3680 H     1 <1>   0.1500 
 45 H        7.6610     4.0110     1.5400 H     1 <1>   0.1500 
 46 H        4.4920     8.4460    -0.9550 H     1 <1>   0.1500 
 47 H        8.3740    -1.3440    -3.0450 H     1 <1>   0.0800 
 48 H        7.4700     0.1600    -3.1760 H     1 <1>   0.0800 
 49 H        7.1010    -0.9940    -1.8800 H     1 <1>   0.0800 
 50 H       11.7780     4.4470     1.7180 H     1 <1>   0.0800 
 51 H       11.3620     3.8410     0.1160 H     1 <1>   0.0800 
 52 H       11.9780     2.7400     1.3540 H     1 <1>   0.0800 
 53 H       11.9760    -0.3250     0.5760 H     1 <1>   0.0800 
 54 H       10.3200    -0.8220     0.2420 H     1 <1>   0.0800 
 55 H       10.6820     0.1340     1.6830 H     1 <1>   0.0800 
@<TRIPOS>BOND
  1   1   2  1   
  2   1   3  1   
  3   2   4  ar  
  4   2   5  ar  
  5   3   6  1   
  6   3  32  1   
  7   3  33  1   
  8   4   7  ar  
  9   5   8  ar  
 10   6   9  1   
 11   6  34  1   
 12   6  35  1   
 13   7  10  ar  
 14   8  10  ar  
 15   8  11  1   
 16   9  36  1   
 17   9  37  1   
 18   9  38  1   
 19  10  12  1   
 20  11  13  1   
 21  12  14  ar  
 22  12  15  ar  
 23  13  16  1   
 24  13  17  1   
 25  13  39  1   
 26  14  16  1   
 27  14  18  ar  
 28  15  19  ar  
 29  15  40  1   
 30  16  41  1   
 31  17  20  ar  
 32  17  21  ar  
 33  18  22  ar  
 34  18  42  1   
 35  19  22  ar  
 36  19  43  1   
 37  20  23  ar  
 38  20  44  1   
 39  21  24  ar  
 40  21  45  1   
 41  22  46  1   
 42  23  25  1   
 43  23  26  ar  
 44  24  26  ar  
 45  24  27  1   
 46  25  28  1   
 47  26  29  1   
 48  27  30  1   
 49  28  47  1   
 50  28  48  1   
 51  28  49  1   
 52  29  31  1   
 53  30  50  1   
 54  30  51  1   
 55  30  52  1   
 56  31  53  1   
 57  31  54  1   
 58  31  55  1   
@<TRIPOS>SUBSTRUCTURE
  1 ****  11 GROUP 4 **** **** 0

# MOE 2024.06 (io_trps.svl 2023.06)
