@<TRIPOS>MOLECULE
NONAME
38 38 1 0 0 
SMALL
USER_CHARGES


@<TRIPOS>ATOM
  1 O       -0.0120    -0.2740    -0.1750 O.3   1 <1>  -0.5320 
  2 C       -0.0420    -1.5890     0.0590 C.ar  1 <1>   0.0830 
  3 C       -1.2860    -2.2320     0.1770 C.ar  1 <1>  -0.1430 
  4 C        1.1840    -2.2660     0.1750 C.ar  1 <1>  -0.1430 
  5 C       -1.2610    -3.6000     0.4200 C.ar  1 <1>  -0.1500 
  6 C       -2.6500    -1.4830     0.0490 C.3   1 <1>   0.1440 
  7 C        1.1210    -3.6340     0.4180 C.ar  1 <1>  -0.1500 
  8 C        2.5700    -1.5560     0.0440 C.3   1 <1>   0.1440 
  9 C       -0.0830    -4.3160     0.5430 C.ar  1 <1>   0.3020 
 10 C       -2.7880    -0.4060     1.1400 C.3   1 <1>  -0.2400 
 11 C       -3.8730    -2.4090     0.2180 C.3   1 <1>  -0.2400 
 12 C       -2.7970    -0.8480    -1.3450 C.3   1 <1>  -0.2400 
 13 C        3.7650    -2.5170     0.2100 C.3   1 <1>  -0.2400 
 14 C        2.7360    -0.9270    -1.3530 C.3   1 <1>  -0.2400 
 15 C        2.7440    -0.4850     1.1380 C.3   1 <1>  -0.2400 
 16 N       -0.1660    -5.6820     0.7860 N.2   1 <1>  -0.1400 
 17 O        0.8220    -6.3150     0.8950 O.2   1 <1>  -0.1620 
 18 H        0.8990     0.0600    -0.2370 H     1 <1>   0.4500 
 19 H       -2.1580    -4.1750     0.5250 H     1 <1>   0.1500 
 20 H        2.0070    -4.2260     0.5200 H     1 <1>   0.1500 
 21 H       -2.6370    -0.8450     2.1100 H     1 <1>   0.0800 
 22 H       -3.7660     0.0410     1.1140 H     1 <1>   0.0800 
 23 H       -2.0720     0.3820     1.0130 H     1 <1>   0.0800 
 24 H       -3.8710    -2.8680     1.1910 H     1 <1>   0.0800 
 25 H       -3.8770    -3.1750    -0.5370 H     1 <1>   0.0800 
 26 H       -4.7880    -1.8530     0.1220 H     1 <1>   0.0800 
 27 H       -2.0810    -0.0650    -1.5020 H     1 <1>   0.0800 
 28 H       -3.7750    -0.4180    -1.4680 H     1 <1>   0.0800 
 29 H       -2.6520    -1.5940    -2.1050 H     1 <1>   0.0800 
 30 H        3.7530    -2.9770     1.1830 H     1 <1>   0.0800 
 31 H        4.6980    -1.9900     0.1140 H     1 <1>   0.0800 
 32 H        3.7470    -3.2840    -0.5440 H     1 <1>   0.0800 
 33 H        2.5800    -1.6780    -2.1080 H     1 <1>   0.0800 
 34 H        3.7290    -0.5310    -1.4740 H     1 <1>   0.0800 
 35 H        2.0500    -0.1260    -1.5400 H     1 <1>   0.0800 
 36 H        2.5950    -0.9290     2.1060 H     1 <1>   0.0800 
 37 H        2.0580     0.3320     1.0420 H     1 <1>   0.0800 
 38 H        3.7370    -0.0720     1.1080 H     1 <1>   0.0800 
@<TRIPOS>BOND
  1   1   2  1   
  2   1  18  1   
  3   2   3  ar  
  4   2   4  ar  
  5   3   5  ar  
  6   3   6  1   
  7   4   7  ar  
  8   4   8  1   
  9   5   9  ar  
 10   5  19  1   
 11   6  10  1   
 12   6  11  1   
 13   6  12  1   
 14   7   9  ar  
 15   7  20  1   
 16   8  13  1   
 17   8  14  1   
 18   8  15  1   
 19   9  16  1   
 20  10  21  1   
 21  10  22  1   
 22  10  23  1   
 23  11  24  1   
 24  11  25  1   
 25  11  26  1   
 26  12  27  1   
 27  12  28  1   
 28  12  29  1   
 29  13  30  1   
 30  13  31  1   
 31  13  32  1   
 32  14  33  1   
 33  14  34  1   
 34  14  35  1   
 35  15  36  1   
 36  15  37  1   
 37  15  38  1   
 38  16  17  2   
@<TRIPOS>SUBSTRUCTURE
  1 ****   2 GROUP 4 **** **** 0

# MOE 2024.06 (io_trps.svl 2023.06)
