@<TRIPOS>MOLECULE
NONAME
42 43 1 0 0 
SMALL
USER_CHARGES


@<TRIPOS>ATOM
  1 S        0.0840    -0.5560     0.3470 S.o2  1 <1>   1.3330 
  2 O        1.2640    -1.3330     0.0380 O.2   1 <1>  -0.6500 
  3 O       -1.1990    -1.1980     0.4810 O.2   1 <1>  -0.6500 
  4 N       -0.0530     0.6400    -0.8920 N.am  1 <1>  -0.6930 
  5 C        0.4220     0.4100     1.8030 C.3   1 <1>  -0.1350 
  6 C       -1.1050     1.5580    -0.9040 C.ar  1 <1>   0.1990 
  7 C        1.0280     0.7610    -1.9190 C.3   1 <1>   0.2570 
  8 C       -0.9970     2.8160    -0.2980 C.ar  1 <1>   0.0830 
  9 C       -2.2900     1.2280    -1.5430 C.ar  1 <1>  -0.1500 
 10 C        2.3410     1.3680    -1.4100 C.2   1 <1>   0.5690 
 11 O        0.1510     3.1480     0.3540 O.3   1 <1>  -0.3630 
 12 C       -2.0570     3.7090    -0.3410 C.ar  1 <1>  -0.1500 
 13 C       -3.3480     2.1180    -1.5970 C.ar  1 <1>   0.0830 
 14 O        2.6620     2.4710    -1.7890 O.2   1 <1>  -0.5700 
 15 N        3.1220     0.6390    -0.5670 N.am  1 <1>  -0.5790 
 16 C        0.8100     4.3220    -0.0690 C.3   1 <1>   0.0400 
 17 C       -3.2300     3.3660    -0.9920 C.ar  1 <1>  -0.1500 
 18 O       -4.4620     1.7010    -2.2540 O.3   1 <1>  -0.3630 
 19 C        4.3830     1.0710     0.0450 C.3   1 <1>   0.0490 
 20 C       -5.6320     2.4880    -2.2800 C.3   1 <1>   0.0400 
 21 C        5.4170     0.0320     0.3230 C.3   1 <1>  -0.2000 
 22 C        4.6500     0.6530     1.4530 C.3   1 <1>  -0.2000 
 23 H        0.5780    -0.2340     2.6450 H     1 <1>   0.0800 
 24 H       -0.4060     1.0580     2.0160 H     1 <1>   0.0800 
 25 H        1.2980     1.0110     1.6580 H     1 <1>   0.0800 
 26 H        0.6720     1.3770    -2.7250 H     1 <1>   0.0800 
 27 H        1.2340    -0.2120    -2.3250 H     1 <1>   0.0800 
 28 H       -2.3920     0.2610    -2.0010 H     1 <1>   0.1500 
 29 H       -1.9740     4.6670     0.1380 H     1 <1>   0.1500 
 30 H        2.7990    -0.3030    -0.2970 H     1 <1>   0.3700 
 31 H        0.8620     4.3290    -1.1440 H     1 <1>   0.0800 
 32 H        1.8050     4.3130     0.3390 H     1 <1>   0.0800 
 33 H        0.2730     5.1810     0.2910 H     1 <1>   0.0800 
 34 H       -4.0340     4.0770    -1.0140 H     1 <1>   0.1500 
 35 H        4.7040     2.0490    -0.2780 H     1 <1>   0.1000 
 36 H       -6.3870     1.9440    -2.8170 H     1 <1>   0.0800 
 37 H       -5.4190     3.4140    -2.7840 H     1 <1>   0.0800 
 38 H       -5.9570     2.6630    -1.2690 H     1 <1>   0.0800 
 39 H        6.4540     0.2930     0.2080 H     1 <1>   0.1000 
 40 H        5.2130    -0.9890     0.0510 H     1 <1>   0.1000 
 41 H        3.9190     0.0570     1.9700 H     1 <1>   0.1000 
 42 H        5.1690     1.3330     2.1040 H     1 <1>   0.1000 
@<TRIPOS>BOND
  1   1   2  2   
  2   1   3  2   
  3   1   4  am  
  4   1   5  1   
  5   4   6  1   
  6   4   7  1   
  7   5  23  1   
  8   5  24  1   
  9   5  25  1   
 10   6   8  ar  
 11   6   9  ar  
 12   7  10  1   
 13   7  26  1   
 14   7  27  1   
 15   8  11  1   
 16   8  12  ar  
 17   9  13  ar  
 18   9  28  1   
 19  10  14  2   
 20  10  15  am  
 21  11  16  1   
 22  12  17  ar  
 23  12  29  1   
 24  13  17  ar  
 25  13  18  1   
 26  15  19  1   
 27  15  30  1   
 28  16  31  1   
 29  16  32  1   
 30  16  33  1   
 31  17  34  1   
 32  18  20  1   
 33  19  21  1   
 34  19  22  1   
 35  19  35  1   
 36  20  36  1   
 37  20  37  1   
 38  20  38  1   
 39  21  22  1   
 40  21  39  1   
 41  21  40  1   
 42  22  41  1   
 43  22  42  1   
@<TRIPOS>SUBSTRUCTURE
  1 ****   4 GROUP 4 **** **** 0

# MOE 2024.06 (io_trps.svl 2023.06)
