@<TRIPOS>MOLECULE
NONAME
51 52 1 0 0 
SMALL
USER_CHARGES


@<TRIPOS>ATOM
  1 O       -6.1840    -6.5020    -0.4100 O.3   1 <1>  -0.3630 
  2 C       -7.3120    -7.2520    -0.3360 C.ar  1 <1>   0.0830 
  3 C       -4.9100    -7.1130    -0.5090 C.3   1 <1>   0.1200 
  4 C       -7.3290    -8.6390    -0.4540 C.ar  1 <1>  -0.1500 
  5 C       -8.5020    -6.5750    -0.1260 C.ar  1 <1>  -0.1500 
  6 C       -3.8190    -6.0340    -0.5140 C.3   1 <1>   0.2000 
  7 C       -8.5260    -9.3270    -0.3590 C.ar  1 <1>  -0.1500 
  8 C       -9.6970    -7.2670    -0.0330 C.ar  1 <1>  -0.1500 
  9 O       -2.5780    -6.6620    -0.5190 O.3   1 <1>  -0.6800 
 10 C       -3.9000    -5.0640     0.6890 C.3   1 <1>   0.1100 
 11 C       -9.7160    -8.6480    -0.1490 C.ar  1 <1>  -0.1430 
 12 N       -4.0890    -3.6550     0.2680 N.3   1 <1>  -0.8100 
 13 C      -11.0280    -9.4090    -0.0440 C.3   1 <1>  -0.0170 
 14 C       -3.7790    -2.7230     1.3670 C.3   1 <1>   0.1100 
 15 C       -5.4430    -3.4150    -0.2770 C.3   1 <1>   0.1100 
 16 C      -11.3070    -9.8000     1.4080 C.3   1 <1>  -0.2400 
 17 C       -3.9210    -1.2570     0.9110 C.3   1 <1>   0.3430 
 18 C       -5.6080    -1.9560    -0.7450 C.3   1 <1>   0.3430 
 19 N       -5.2900    -0.9730     0.3530 N.4   1 <1>  -0.9590 
 20 C       -5.3680     0.4490    -0.1120 C.3   1 <1>   0.3430 
 21 C       -6.7950     0.8830    -0.4790 C.3   1 <1>   0.1200 
 22 O       -6.7470     2.2200    -0.8300 O.3   1 <1>  -0.6800 
 23 H       -4.8760    -7.6730    -1.4270 H     1 <1>   0.0800 
 24 H       -4.7910    -7.7650     0.3370 H     1 <1>   0.0800 
 25 H       -6.4310    -9.2010    -0.6210 H     1 <1>   0.1500 
 26 H       -8.4930    -5.5060    -0.0360 H     1 <1>   0.1500 
 27 H       -3.8770    -5.4830    -1.4360 H     1 <1>   0.0800 
 28 H       -8.5310   -10.4000    -0.4490 H     1 <1>   0.1500 
 29 H      -10.6140    -6.7290     0.1330 H     1 <1>   0.1500 
 30 H       -2.4250    -7.1560     0.3090 H     1 <1>   0.4000 
 31 H       -2.9830    -5.1380     1.2480 H     1 <1>   0.0800 
 32 H       -4.7050    -5.3510     1.3430 H     1 <1>   0.0800 
 33 H      -10.9840   -10.2940    -0.6550 H     1 <1>   0.0800 
 34 H      -11.8330    -8.7980    -0.4150 H     1 <1>   0.0800 
 35 H       -2.7630    -2.8840     1.6890 H     1 <1>   0.0800 
 36 H       -4.4260    -2.9100     2.2070 H     1 <1>   0.0800 
 37 H       -6.1880    -3.6510     0.4630 H     1 <1>   0.0800 
 38 H       -5.6100    -4.0580    -1.1240 H     1 <1>   0.0800 
 39 H      -10.5170   -10.4260     1.7830 H     1 <1>   0.0800 
 40 H      -12.2360   -10.3360     1.4760 H     1 <1>   0.0800 
 41 H      -11.3700    -8.9200     2.0240 H     1 <1>   0.0800 
 42 H       -3.1760    -1.0670     0.1560 H     1 <1>   0.0800 
 43 H       -3.7220    -0.6060     1.7470 H     1 <1>   0.0800 
 44 H       -6.6170    -1.8120    -1.0920 H     1 <1>   0.0800 
 45 H       -4.9440    -1.7940    -1.5780 H     1 <1>   0.0800 
 46 H       -5.9630    -1.1220     1.1150 H     1 <1>   0.4500 
 47 H       -4.7320     0.5840    -0.9710 H     1 <1>   0.0800 
 48 H       -5.0160     1.0990     0.6720 H     1 <1>   0.0800 
 49 H       -7.4590     0.7850     0.3630 H     1 <1>   0.0800 
 50 H       -7.1700     0.3330    -1.3240 H     1 <1>   0.0800 
 51 H       -7.6330     2.5700    -1.0660 H     1 <1>   0.4000 
@<TRIPOS>BOND
  1   1   2  1   
  2   1   3  1   
  3   2   4  ar  
  4   2   5  ar  
  5   3   6  1   
  6   3  23  1   
  7   3  24  1   
  8   4   7  ar  
  9   4  25  1   
 10   5   8  ar  
 11   5  26  1   
 12   6   9  1   
 13   6  10  1   
 14   6  27  1   
 15   7  11  ar  
 16   7  28  1   
 17   8  11  ar  
 18   8  29  1   
 19   9  30  1   
 20  10  12  1   
 21  10  31  1   
 22  10  32  1   
 23  11  13  1   
 24  12  14  1   
 25  12  15  1   
 26  13  16  1   
 27  13  33  1   
 28  13  34  1   
 29  14  17  1   
 30  14  35  1   
 31  14  36  1   
 32  15  18  1   
 33  15  37  1   
 34  15  38  1   
 35  16  39  1   
 36  16  40  1   
 37  16  41  1   
 38  17  19  1   
 39  17  42  1   
 40  17  43  1   
 41  18  19  1   
 42  18  44  1   
 43  18  45  1   
 44  19  20  1   
 45  19  46  1   
 46  20  21  1   
 47  20  47  1   
 48  20  48  1   
 49  21  22  1   
 50  21  49  1   
 51  21  50  1   
 52  22  51  1   
@<TRIPOS>SUBSTRUCTURE
  1 ****   1 GROUP 4 **** **** 0

# MOE 2024.06 (io_trps.svl 2023.06)
