@<TRIPOS>MOLECULE
NONAME
31 31 1 0 0 
SMALL
USER_CHARGES


@<TRIPOS>ATOM
  1 S        0.3310    -0.0740    -0.0900 S.3   1 <1>  -0.3710 
  2 C        1.8070     0.8910    -0.2790 C.2   1 <1>   0.6410 
  3 C       -1.0410     1.1580    -0.0040 C.3   1 <1>   0.1500 
  4 N        2.9390     0.1500    -0.3290 N.pl3 1 <1>  -0.5500 
  5 N        1.7440     2.1650    -0.3570 N.2   1 <1>  -0.6610 
  6 C       -1.1380     1.6490     1.4400 C.3   1 <1>  -0.2400 
  7 C       -2.3130     0.4440    -0.4570 C.3   1 <1>  -0.2400 
  8 C        4.1620     0.7420    -0.4690 C.2   1 <1>  -0.0380 
  9 C        2.9360     2.8130    -0.4990 C.2   1 <1>   0.7670 
 10 C        4.1790     2.0980    -0.5690 C.2   1 <1>  -0.1240 
 11 C        5.3530    -0.2030    -0.4850 C.3   1 <1>  -0.1020 
 12 O        2.8960     4.0330    -0.5670 O.2   1 <1>  -0.5700 
 13 C        5.4590     2.9110    -0.7490 C.3   1 <1>   0.1160 
 14 C        6.0750     3.2310     0.6020 C.2   1 <1>  -0.2880 
 15 C        7.2910     2.8550     1.0090 C.2   1 <1>  -0.3000 
 16 H       -0.8010     1.9660    -0.6760 H     1 <1>   0.0800 
 17 H        2.8240    -0.8610    -0.2450 H     1 <1>   0.4000 
 18 H       -1.3200     0.8250     2.1070 H     1 <1>   0.0800 
 19 H       -1.9420     2.3570     1.5340 H     1 <1>   0.0800 
 20 H       -0.2240     2.1360     1.7260 H     1 <1>   0.0800 
 21 H       -2.5230    -0.3920     0.1860 H     1 <1>   0.0800 
 22 H       -2.1940     0.0890    -1.4650 H     1 <1>   0.0800 
 23 H       -3.1460     1.1220    -0.4290 H     1 <1>   0.0800 
 24 H        5.3310    -0.8060    -1.3760 H     1 <1>   0.0800 
 25 H        5.3150    -0.8510     0.3720 H     1 <1>   0.0800 
 26 H        6.2870     0.3250    -0.4520 H     1 <1>   0.0800 
 27 H        5.2580     3.8300    -1.2740 H     1 <1>   0.0800 
 28 H        6.1610     2.3670    -1.3530 H     1 <1>   0.0800 
 29 H        5.4110     3.8130     1.2220 H     1 <1>   0.1500 
 30 H        7.6980     3.1000     1.9760 H     1 <1>   0.1500 
 31 H        7.9820     2.2780     0.4200 H     1 <1>   0.1500 
@<TRIPOS>BOND
  1   1   2  1   
  2   1   3  1   
  3   2   4  1   
  4   2   5  2   
  5   3   6  1   
  6   3   7  1   
  7   3  16  1   
  8   4   8  1   
  9   4  17  1   
 10   5   9  1   
 11   6  18  1   
 12   6  19  1   
 13   6  20  1   
 14   7  21  1   
 15   7  22  1   
 16   7  23  1   
 17   8  10  2   
 18   8  11  1   
 19   9  10  1   
 20   9  12  2   
 21  10  13  1   
 22  11  24  1   
 23  11  25  1   
 24  11  26  1   
 25  13  14  1   
 26  13  27  1   
 27  13  28  1   
 28  14  15  2   
 29  14  29  1   
 30  15  30  1   
 31  15  31  1   
@<TRIPOS>SUBSTRUCTURE
  1 ****   5 GROUP 4 **** **** 0

# MOE 2024.06 (io_trps.svl 2023.06)
