@<TRIPOS>MOLECULE
NONAME
49 50 1 0 0 
SMALL
USER_CHARGES


@<TRIPOS>ATOM
  1 O        0.1420     0.5190    -1.6030 O.2   1 <1>  -0.5700 
  2 C        0.4420    -0.4910    -1.0120 C.2   1 <1>   0.5690 
  3 N       -0.4220    -1.2070    -0.2310 N.am  1 <1>  -0.5470 
  4 C        1.8720    -0.9950    -1.1490 C.3   1 <1>   0.1810 
  5 C       -1.7750    -1.0650     0.1270 C.ar  1 <1>   0.1170 
  6 O        2.0740    -2.1890    -0.4020 O.3   1 <1>  -0.3630 
  7 C       -2.3390    -2.0310     0.9680 C.ar  1 <1>   0.0830 
  8 C       -2.5720    -0.0150    -0.3150 C.ar  1 <1>  -0.1500 
  9 C        3.2780    -2.8090    -0.3840 C.ar  1 <1>   0.0830 
 10 O       -1.5260    -3.0500     1.3840 O.3   1 <1>  -0.3630 
 11 C       -3.6730    -1.9280     1.3470 C.ar  1 <1>  -0.1500 
 12 C       -3.9010     0.0860     0.0610 C.ar  1 <1>  -0.1430 
 13 C        3.3750    -3.9630     0.3710 C.ar  1 <1>  -0.1500 
 14 C        4.3980    -2.3540    -1.0700 C.ar  1 <1>  -0.1500 
 15 C       -2.0050    -4.0700     2.2310 C.3   1 <1>   0.0400 
 16 C       -4.4480    -0.8740     0.8950 C.ar  1 <1>  -0.1500 
 17 C       -4.7500     1.2430    -0.4340 C.3   1 <1>  -0.0970 
 18 C        4.5690    -4.6590     0.4460 C.ar  1 <1>  -0.1500 
 19 C        5.5880    -3.0550    -0.9910 C.ar  1 <1>  -0.1500 
 20 C        5.7010    -4.2190    -0.2350 C.ar  1 <1>  -0.1430 
 21 C        7.0550    -4.9610    -0.1830 C.3   1 <1>   0.1430 
 22 C        8.1300    -4.0280     0.3950 C.3   1 <1>  -0.2400 
 23 C        7.0200    -6.2250     0.6920 C.3   1 <1>  -0.2400 
 24 C        7.4600    -5.3900    -1.6010 C.3   1 <1>  -0.2400 
 25 H        0.0020    -2.0380     0.1930 H     1 <1>   0.3700 
 26 H        2.5470    -0.2460    -0.7800 H     1 <1>   0.0800 
 27 H        2.0770    -1.2020    -2.1830 H     1 <1>   0.0800 
 28 H       -2.1550     0.7360    -0.9590 H     1 <1>   0.1500 
 29 H       -4.1310    -2.6530     1.9920 H     1 <1>   0.1500 
 30 H        2.5100    -4.3160     0.9020 H     1 <1>   0.1500 
 31 H        4.3690    -1.4640    -1.6680 H     1 <1>   0.1500 
 32 H       -1.1970    -4.7540     2.4210 H     1 <1>   0.0800 
 33 H       -2.8100    -4.5850     1.7370 H     1 <1>   0.0800 
 34 H       -2.3360    -3.6310     3.1550 H     1 <1>   0.0800 
 35 H       -5.4790    -0.8040     1.1950 H     1 <1>   0.1500 
 36 H       -4.3700     1.6170    -1.3670 H     1 <1>   0.0800 
 37 H       -4.7380     2.0380     0.2900 H     1 <1>   0.0800 
 38 H       -5.7660     0.9240    -0.5860 H     1 <1>   0.0800 
 39 H        4.5850    -5.5480     1.0470 H     1 <1>   0.1500 
 40 H        6.4370    -2.6790    -1.5320 H     1 <1>   0.1500 
 41 H        8.2710    -3.1640    -0.2270 H     1 <1>   0.0800 
 42 H        9.0730    -4.5380     0.4750 H     1 <1>   0.0800 
 43 H        7.8380    -3.6940     1.3750 H     1 <1>   0.0800 
 44 H        6.7670    -5.9760     1.7070 H     1 <1>   0.0800 
 45 H        7.9810    -6.7080     0.6980 H     1 <1>   0.0800 
 46 H        6.2990    -6.9270     0.3120 H     1 <1>   0.0800 
 47 H        7.5950    -4.5380    -2.2420 H     1 <1>   0.0800 
 48 H        6.6960    -6.0150    -2.0270 H     1 <1>   0.0800 
 49 H        8.3830    -5.9420    -1.5820 H     1 <1>   0.0800 
@<TRIPOS>BOND
  1   1   2  2   
  2   2   3  am  
  3   2   4  1   
  4   3   5  1   
  5   3  25  1   
  6   4   6  1   
  7   4  26  1   
  8   4  27  1   
  9   5   7  ar  
 10   5   8  ar  
 11   6   9  1   
 12   7  10  1   
 13   7  11  ar  
 14   8  12  ar  
 15   8  28  1   
 16   9  13  ar  
 17   9  14  ar  
 18  10  15  1   
 19  11  16  ar  
 20  11  29  1   
 21  12  16  ar  
 22  12  17  1   
 23  13  18  ar  
 24  13  30  1   
 25  14  19  ar  
 26  14  31  1   
 27  15  32  1   
 28  15  33  1   
 29  15  34  1   
 30  16  35  1   
 31  17  36  1   
 32  17  37  1   
 33  17  38  1   
 34  18  20  ar  
 35  18  39  1   
 36  19  20  ar  
 37  19  40  1   
 38  20  21  1   
 39  21  22  1   
 40  21  23  1   
 41  21  24  1   
 42  22  41  1   
 43  22  42  1   
 44  22  43  1   
 45  23  44  1   
 46  23  45  1   
 47  23  46  1   
 48  24  47  1   
 49  24  48  1   
 50  24  49  1   
@<TRIPOS>SUBSTRUCTURE
  1 ****   6 GROUP 4 **** **** 0

# MOE 2024.06 (io_trps.svl 2023.06)
