@<TRIPOS>MOLECULE
NONAME
45 48 1 0 0 
SMALL
USER_CHARGES


@<TRIPOS>ATOM
  1 O       -1.8440     0.1420     2.0030 O.2   1 <1>  -0.5700 
  2 C       -2.5450    -0.7220     1.5170 C.2   1 <1>   0.6340 
  3 O       -3.8340    -0.4440     1.3560 O.3   1 <1>  -0.2320 
  4 C       -2.0670    -2.0260     1.1370 C.ar  1 <1>   0.0860 
  5 C       -4.6490    -1.1830     0.5760 C.ar  1 <1>   0.0830 
  6 C       -2.9240    -2.9020     0.4500 C.ar  1 <1>   0.0000 
  7 C       -0.7840    -2.4470     1.4960 C.ar  1 <1>  -0.1500 
  8 C       -4.2070    -2.3820    -0.0080 C.ar  1 <1>   0.0000 
  9 C       -5.9100    -0.6670     0.3470 C.ar  1 <1>  -0.1500 
 10 C       -2.4930    -4.2260     0.3020 C.ar  1 <1>  -0.1500 
 11 C       -0.3610    -3.7370     1.2670 C.ar  1 <1>  -0.1500 
 12 C       -5.0540    -2.9410    -0.9900 C.ar  1 <1>  -0.1430 
 13 C       -6.7650    -1.2910    -0.5310 C.ar  1 <1>   0.0830 
 14 C       -1.2320    -4.6360     0.6840 C.ar  1 <1>  -0.1500 
 15 C       -6.3160    -2.4140    -1.2170 C.ar  1 <1>  -0.1500 
 16 C       -4.6610    -4.0980    -1.9020 C.3   1 <1>  -0.0970 
 17 O       -7.9930    -0.7470    -0.6860 O.3   1 <1>  -0.3620 
 18 C       -8.9990    -1.3860    -1.4590 C.3   1 <1>   0.1810 
 19 C      -10.3310    -0.6400    -1.3810 C.2   1 <1>   0.5690 
 20 O      -10.8380    -0.3170    -2.4310 O.2   1 <1>  -0.5700 
 21 N      -10.9450    -0.3740    -0.1790 N.am  1 <1>  -0.6600 
 22 C      -10.4210    -0.7590     1.1670 C.3   1 <1>   0.1400 
 23 C      -12.2090     0.4190    -0.1090 C.3   1 <1>   0.1400 
 24 C      -11.5400    -1.3510     2.0420 C.3   1 <1>   0.1200 
 25 C      -13.2220    -0.2480     0.8350 C.3   1 <1>   0.1200 
 26 O      -12.6460    -0.4950     2.0860 O.3   1 <1>  -0.5600 
 27 H       -0.1190    -1.7490     1.9790 H     1 <1>   0.1500 
 28 H       -6.2210     0.2340     0.8440 H     1 <1>   0.1500 
 29 H       -3.1430    -4.9720    -0.1030 H     1 <1>   0.1500 
 30 H        0.6300    -4.0480     1.5520 H     1 <1>   0.1500 
 31 H       -0.9250    -5.6580     0.5330 H     1 <1>   0.1500 
 32 H       -6.9480    -2.8790    -1.9490 H     1 <1>   0.1500 
 33 H       -3.6140    -4.0550    -2.1430 H     1 <1>   0.0800 
 34 H       -5.1960    -4.0470    -2.8340 H     1 <1>   0.0800 
 35 H       -4.8960    -5.0390    -1.4370 H     1 <1>   0.0800 
 36 H       -9.1300    -2.3860    -1.0940 H     1 <1>   0.0800 
 37 H       -8.6680    -1.4100    -2.4810 H     1 <1>   0.0800 
 38 H      -10.0200     0.1150     1.6510 H     1 <1>   0.0800 
 39 H       -9.6310    -1.4830     1.0830 H     1 <1>   0.0800 
 40 H      -12.6490     0.5200    -1.0850 H     1 <1>   0.0800 
 41 H      -11.9840     1.4070     0.2550 H     1 <1>   0.0800 
 42 H      -11.1900    -1.4860     3.0500 H     1 <1>   0.0800 
 43 H      -11.8580    -2.3040     1.6560 H     1 <1>   0.0800 
 44 H      -13.5660    -1.1810     0.4210 H     1 <1>   0.0800 
 45 H      -14.0690     0.3970     0.9840 H     1 <1>   0.0800 
@<TRIPOS>BOND
  1   1   2  2   
  2   2   3  1   
  3   2   4  1   
  4   3   5  1   
  5   4   6  ar  
  6   4   7  ar  
  7   5   8  ar  
  8   5   9  ar  
  9   6   8  1   
 10   6  10  ar  
 11   7  11  ar  
 12   7  27  1   
 13   8  12  ar  
 14   9  13  ar  
 15   9  28  1   
 16  10  14  ar  
 17  10  29  1   
 18  11  14  ar  
 19  11  30  1   
 20  12  15  ar  
 21  12  16  1   
 22  13  15  ar  
 23  13  17  1   
 24  14  31  1   
 25  15  32  1   
 26  16  33  1   
 27  16  34  1   
 28  16  35  1   
 29  17  18  1   
 30  18  19  1   
 31  18  36  1   
 32  18  37  1   
 33  19  20  2   
 34  19  21  am  
 35  21  22  1   
 36  21  23  1   
 37  22  24  1   
 38  22  38  1   
 39  22  39  1   
 40  23  25  1   
 41  23  40  1   
 42  23  41  1   
 43  24  26  1   
 44  24  42  1   
 45  24  43  1   
 46  25  26  1   
 47  25  44  1   
 48  25  45  1   
@<TRIPOS>SUBSTRUCTURE
  1 ****  13 GROUP 4 **** **** 0

# MOE 2024.06 (io_trps.svl 2023.06)
