@<TRIPOS>MOLECULE
NONAME
39 40 1 0 0 
SMALL
USER_CHARGES


@<TRIPOS>ATOM
  1 S        0.0960     0.0300    -1.0490 S.o2  1 <1>   1.4470 
  2 O       -0.0440     1.0830    -0.0690 O.2   1 <1>  -0.6500 
  3 O        0.4690     0.3520    -2.4060 O.2   1 <1>  -0.6500 
  4 N        1.3390    -0.9630    -0.4500 N.am  1 <1>  -0.8490 
  5 C       -1.3660    -1.0480    -1.0410 C.ar  1 <1>  -0.0090 
  6 C        2.6630    -0.3720    -0.7590 C.3   1 <1>   0.1960 
  7 C        1.2230    -1.2170     1.0050 C.3   1 <1>   0.1960 
  8 C       -2.2000    -1.1110     0.0700 C.ar  1 <1>  -0.1500 
  9 C       -1.6720    -1.8590    -2.1250 C.ar  1 <1>  -0.1500 
 10 C        3.8470    -1.1740    -0.1610 C.3   1 <1>   0.3430 
 11 C        2.3350    -2.1590     1.5360 C.3   1 <1>   0.3430 
 12 C       -3.2990    -1.9580     0.1340 C.ar  1 <1>  -0.0090 
 13 C       -2.7670    -2.7030    -2.0960 C.ar  1 <1>  -0.1500 
 14 N        3.3870    -2.4460     0.4960 N.4   1 <1>  -0.9590 
 15 S       -4.3350    -2.0050     1.6180 S.o2  1 <1>   1.2040 
 16 C       -3.5710    -2.7510    -0.9720 C.ar  1 <1>  -0.1500 
 17 C        4.5130    -3.2740     1.0220 C.3   1 <1>   0.2630 
 18 O       -5.1590    -3.1920     1.5940 O.2   1 <1>  -0.6500 
 19 O       -3.4850    -1.7320     2.7560 O.2   1 <1>  -0.6500 
 20 C       -5.4060    -0.5990     1.3900 C.3   1 <1>  -0.1350 
 21 H        2.7060     0.6420    -0.3940 H     1 <1>   0.0800 
 22 H        2.7920    -0.3270    -1.8280 H     1 <1>   0.0800 
 23 H        0.2670    -1.6620     1.2260 H     1 <1>   0.0800 
 24 H        1.2740    -0.2860     1.5470 H     1 <1>   0.0800 
 25 H       -1.9840    -0.4820     0.9190 H     1 <1>   0.1500 
 26 H       -1.0480    -1.8300    -3.0040 H     1 <1>   0.1500 
 27 H        4.3560    -0.5550     0.5600 H     1 <1>   0.0800 
 28 H        4.5480    -1.3970    -0.9490 H     1 <1>   0.0800 
 29 H        1.8810    -3.0830     1.8550 H     1 <1>   0.0800 
 30 H        2.7860    -1.7060     2.4030 H     1 <1>   0.0800 
 31 H       -2.9920    -3.3260    -2.9470 H     1 <1>   0.1500 
 32 H        2.8890    -2.9610    -0.2490 H     1 <1>   0.4500 
 33 H       -4.4180    -3.4190    -0.9530 H     1 <1>   0.1500 
 34 H        5.0360    -2.7440     1.8020 H     1 <1>   0.0800 
 35 H        5.2100    -3.5020     0.2320 H     1 <1>   0.0800 
 36 H        4.1400    -4.2010     1.4260 H     1 <1>   0.0800 
 37 H       -5.9920    -0.7140     0.4990 H     1 <1>   0.0800 
 38 H       -4.8320     0.3040     1.3160 H     1 <1>   0.0800 
 39 H       -6.0740    -0.5090     2.2260 H     1 <1>   0.0800 
@<TRIPOS>BOND
  1   1   2  2   
  2   1   3  2   
  3   1   4  am  
  4   1   5  1   
  5   4   6  1   
  6   4   7  1   
  7   5   8  ar  
  8   5   9  ar  
  9   6  10  1   
 10   6  21  1   
 11   6  22  1   
 12   7  11  1   
 13   7  23  1   
 14   7  24  1   
 15   8  12  ar  
 16   8  25  1   
 17   9  13  ar  
 18   9  26  1   
 19  10  14  1   
 20  10  27  1   
 21  10  28  1   
 22  11  14  1   
 23  11  29  1   
 24  11  30  1   
 25  12  15  1   
 26  12  16  ar  
 27  13  16  ar  
 28  13  31  1   
 29  14  17  1   
 30  14  32  1   
 31  15  18  2   
 32  15  19  2   
 33  15  20  1   
 34  16  33  1   
 35  17  34  1   
 36  17  35  1   
 37  17  36  1   
 38  20  37  1   
 39  20  38  1   
 40  20  39  1   
@<TRIPOS>SUBSTRUCTURE
  1 ****   5 GROUP 4 **** **** 0

# MOE 2024.06 (io_trps.svl 2023.06)
