@<TRIPOS>MOLECULE
NONAME
34 35 1 0 0 
SMALL
USER_CHARGES


@<TRIPOS>ATOM
  1 S       -0.0100    -0.2710    -0.1390 S.3   1 <1>   0.1810 
  2 N       -1.6000    -0.8590    -0.3030 N.2   1 <1>  -0.5100 
  3 C       -0.4940     1.3920     0.0540 C.2   1 <1>   0.1040 
  4 C       -2.4020     0.1280    -0.2160 C.2   1 <1>   0.1080 
  5 N        0.4290     2.4100     0.2380 N.am  1 <1>  -0.4940 
  6 C       -1.8540     1.4460    -0.0130 C.2   1 <1>  -0.0860 
  7 C       -3.8900    -0.1580    -0.3330 C.3   1 <1>  -0.0590 
  8 C        1.8010     2.4150     0.2970 C.2   1 <1>   0.5770 
  9 C       -2.5870     2.6770     0.1080 C.2   1 <1>   0.8060 
 10 O        2.4700     1.4170     0.2020 O.2   1 <1>  -0.5700 
 11 C        2.4900     3.7560     0.5170 C.3   1 <1>   0.0530 
 12 O       -2.0340     3.7510     0.2770 O.2   1 <1>  -0.5700 
 13 O       -3.9210     2.6670     0.0360 O.3   1 <1>  -0.4300 
 14 C        1.9400     4.9320    -0.3380 C.3   1 <1>   0.0000 
 15 C        3.8340     3.9490    -0.2380 C.3   1 <1>   0.0000 
 16 C       -4.6870     3.8460     0.1480 C.3   1 <1>   0.1200 
 17 C        3.4060     5.4220    -0.4600 C.3   1 <1>   0.0000 
 18 C       -6.1580     3.4650     0.0200 C.3   1 <1>  -0.2400 
 19 H        0.0000     3.3370     0.3410 H     1 <1>   0.3700 
 20 H       -4.0560    -1.2100    -0.4810 H     1 <1>   0.0800 
 21 H       -4.3040     0.3680    -1.1740 H     1 <1>   0.0800 
 22 H       -4.3980     0.1400     0.5650 H     1 <1>   0.0800 
 23 H        2.5710     4.0190     1.5580 H     1 <1>   0.0000 
 24 H        1.3000     5.6040     0.2060 H     1 <1>   0.0000 
 25 H        1.5330     4.6180    -1.2840 H     1 <1>   0.0000 
 26 H        3.8900     3.3950    -1.1600 H     1 <1>   0.0000 
 27 H        4.7040     3.8380     0.3860 H     1 <1>   0.0000 
 28 H       -4.3940     4.5220    -0.6380 H     1 <1>   0.0800 
 29 H       -4.4870     4.2960     1.1060 H     1 <1>   0.0800 
 30 H        3.6980     6.0680     0.3500 H     1 <1>   0.0000 
 31 H        3.6570     5.8080    -1.4330 H     1 <1>   0.0000 
 32 H       -6.3430     3.0100    -0.9370 H     1 <1>   0.0800 
 33 H       -6.7690     4.3460     0.1010 H     1 <1>   0.0800 
 34 H       -6.4360     2.7840     0.8040 H     1 <1>   0.0800 
@<TRIPOS>BOND
  1   1   2  1   
  2   1   3  1   
  3   2   4  2   
  4   3   5  1   
  5   3   6  2   
  6   4   6  1   
  7   4   7  1   
  8   5   8  am  
  9   5  19  1   
 10   6   9  1   
 11   7  20  1   
 12   7  21  1   
 13   7  22  1   
 14   8  10  2   
 15   8  11  1   
 16   9  12  2   
 17   9  13  1   
 18  11  14  1   
 19  11  15  1   
 20  11  23  1   
 21  13  16  1   
 22  14  17  1   
 23  14  24  1   
 24  14  25  1   
 25  15  17  1   
 26  15  26  1   
 27  15  27  1   
 28  16  18  1   
 29  16  28  1   
 30  16  29  1   
 31  17  30  1   
 32  17  31  1   
 33  18  32  1   
 34  18  33  1   
 35  18  34  1   
@<TRIPOS>SUBSTRUCTURE
  1 ****   3 GROUP 4 **** **** 0

# MOE 2024.06 (io_trps.svl 2023.06)
