@<TRIPOS>MOLECULE
NONAME
47 49 1 0 0 
SMALL
USER_CHARGES


@<TRIPOS>ATOM
  1 O        1.1430     0.6130    -3.0070 O.2   1 <1>  -0.5700 
  2 C        0.6860    -0.1860    -2.2250 C.2   1 <1>   0.5690 
  3 N        1.1770    -0.4190    -0.9740 N.am  1 <1>  -0.5470 
  4 C       -0.5350    -1.0190    -2.6240 C.3   1 <1>   0.1710 
  5 C        2.2520     0.0870    -0.2310 C.ar  1 <1>   0.1170 
  6 N       -1.2620    -1.6080    -1.4560 N.3   1 <1>  -0.8100 
  7 C        2.2850    -0.1070     1.1540 C.ar  1 <1>  -0.1430 
  8 C        3.3050     0.7630    -0.8400 C.ar  1 <1>  -0.1500 
  9 C       -2.1200    -2.7370    -1.8800 C.3   1 <1>   0.1100 
 10 C       -2.1060    -0.5880    -0.7860 C.3   1 <1>   0.1100 
 11 C        3.3620     0.3650     1.8880 C.ar  1 <1>  -0.1500 
 12 C        1.1540    -0.8200     1.8940 C.3   1 <1>  -0.0170 
 13 C        4.3720     1.2340    -0.0990 C.ar  1 <1>  -0.1500 
 14 C       -2.8530    -3.3870    -0.6920 C.3   1 <1>   0.2090 
 15 C       -2.8490    -1.1540     0.4400 C.3   1 <1>   0.2090 
 16 C        4.4030     1.0340     1.2680 C.ar  1 <1>  -0.1500 
 17 C        1.2730    -2.3410     1.7670 C.3   1 <1>  -0.2400 
 18 N       -3.6360    -2.3770     0.0880 N.pl3 1 <1>  -0.8380 
 19 C       -4.8610    -2.6620     0.6570 C.ar  1 <1>   0.7200 
 20 N       -5.3400    -1.7880     1.5430 N.ar  1 <1>  -0.6200 
 21 N       -5.4640    -3.7890     0.2750 N.ar  1 <1>  -0.6200 
 22 C       -6.5030    -2.0720     2.0750 C.ar  1 <1>   0.1600 
 23 C       -6.6250    -4.0460     0.8230 C.ar  1 <1>   0.1600 
 24 C       -7.2000    -3.2070     1.7440 C.ar  1 <1>  -0.1500 
 25 H        0.5850    -1.0910    -0.4760 H     1 <1>   0.3700 
 26 H       -0.1750    -1.8100    -3.2560 H     1 <1>   0.0800 
 27 H       -1.2010    -0.4080    -3.2080 H     1 <1>   0.0800 
 28 H        3.2980     0.9210    -1.9020 H     1 <1>   0.1500 
 29 H       -1.5140    -3.4870    -2.3580 H     1 <1>   0.0800 
 30 H       -2.8530    -2.3950    -2.5910 H     1 <1>   0.0800 
 31 H       -2.8380    -0.2070    -1.4780 H     1 <1>   0.0800 
 32 H       -1.4960     0.2380    -0.4650 H     1 <1>   0.0800 
 33 H        3.3990     0.2170     2.9530 H     1 <1>   0.1500 
 34 H        0.2030    -0.4920     1.5140 H     1 <1>   0.0800 
 35 H        1.1810    -0.5540     2.9370 H     1 <1>   0.0800 
 36 H        5.1770     1.7550    -0.5880 H     1 <1>   0.1500 
 37 H       -2.1320    -3.8470    -0.0410 H     1 <1>   0.0800 
 38 H       -3.4920    -4.1630    -1.0750 H     1 <1>   0.0800 
 39 H       -3.4900    -0.3830     0.8280 H     1 <1>   0.0800 
 40 H       -2.1360    -1.4070     1.2040 H     1 <1>   0.0800 
 41 H        5.2340     1.3970     1.8480 H     1 <1>   0.1500 
 42 H        1.2190    -2.6460     0.7380 H     1 <1>   0.0800 
 43 H        0.4780    -2.8200     2.3090 H     1 <1>   0.0800 
 44 H        2.2140    -2.6710     2.1710 H     1 <1>   0.0800 
 45 H       -6.9110    -1.3810     2.7940 H     1 <1>   0.1500 
 46 H       -7.1320    -4.9500     0.5300 H     1 <1>   0.1500 
 47 H       -8.1530    -3.4280     2.1860 H     1 <1>   0.1500 
@<TRIPOS>BOND
  1   1   2  2   
  2   2   3  am  
  3   2   4  1   
  4   3   5  1   
  5   3  25  1   
  6   4   6  1   
  7   4  26  1   
  8   4  27  1   
  9   5   7  ar  
 10   5   8  ar  
 11   6   9  1   
 12   6  10  1   
 13   7  11  ar  
 14   7  12  1   
 15   8  13  ar  
 16   8  28  1   
 17   9  14  1   
 18   9  29  1   
 19   9  30  1   
 20  10  15  1   
 21  10  31  1   
 22  10  32  1   
 23  11  16  ar  
 24  11  33  1   
 25  12  17  1   
 26  12  34  1   
 27  12  35  1   
 28  13  16  ar  
 29  13  36  1   
 30  14  18  1   
 31  14  37  1   
 32  14  38  1   
 33  15  18  1   
 34  15  39  1   
 35  15  40  1   
 36  16  41  1   
 37  17  42  1   
 38  17  43  1   
 39  17  44  1   
 40  18  19  1   
 41  19  20  ar  
 42  19  21  ar  
 43  20  22  ar  
 44  21  23  ar  
 45  22  24  ar  
 46  22  45  1   
 47  23  24  ar  
 48  23  46  1   
 49  24  47  1   
@<TRIPOS>SUBSTRUCTURE
  1 ****  10 GROUP 4 **** **** 0

# MOE 2024.06 (io_trps.svl 2023.06)
