@<TRIPOS>MOLECULE
NONAME
50 52 1 0 0 
SMALL
USER_CHARGES


@<TRIPOS>ATOM
  1 S        0.0900    -0.1000    -1.2510 S.o2  1 <1>   1.4470 
  2 O        0.4620    -1.2950    -1.9760 O.2   1 <1>  -0.6500 
  3 O       -0.8100     0.8520    -1.8660 O.2   1 <1>  -0.6500 
  4 N        1.5220     0.7460    -0.9160 N.am  1 <1>  -0.8490 
  5 C       -0.5110    -0.5650     0.3980 C.ar  1 <1>  -0.0090 
  6 C        1.2540     2.0400    -0.2830 C.3   1 <1>   0.1960 
  7 C        2.3280     0.9110    -2.1280 C.3   1 <1>   0.1960 
  8 C       -1.7380    -0.1160     0.8750 C.ar  1 <1>  -0.1500 
  9 C        0.2530    -1.3750     1.2300 C.ar  1 <1>  -0.1500 
 10 C        2.5680     2.6820     0.1620 C.3   1 <1>  -0.1600 
 11 C        3.6870     1.5160    -1.7710 C.3   1 <1>  -0.1600 
 12 C       -2.1860    -0.4610     2.1380 C.ar  1 <1>  -0.1500 
 13 C       -0.1880    -1.7260     2.4950 C.ar  1 <1>  -0.1500 
 14 C        3.5290     2.8540    -1.0270 C.3   1 <1>  -0.0190 
 15 C       -1.4100    -1.2670     2.9500 C.ar  1 <1>  -0.1500 
 16 C        4.8730     3.4250    -0.5910 C.2   1 <1>   0.5690 
 17 O        5.2240     4.4960    -1.0220 O.2   1 <1>  -0.5700 
 18 N        5.6390     2.7140     0.2690 N.am  1 <1>  -0.7300 
 19 C        6.9950     3.0740     0.6810 C.3   1 <1>   0.3640 
 20 C        7.7730     1.7800     0.8930 C.ar  1 <1>  -0.1430 
 21 C        6.9190     3.9200     1.9490 C.3   1 <1>  -0.2400 
 22 C        7.4220     0.8760     1.8890 C.ar  1 <1>  -0.1500 
 23 C        8.8490     1.4850     0.0680 C.ar  1 <1>  -0.1500 
 24 C        8.1370    -0.2970     2.0580 C.ar  1 <1>  -0.1500 
 25 C        9.5650     0.3120     0.2360 C.ar  1 <1>  -0.1500 
 26 C        9.2090    -0.5800     1.2310 C.ar  1 <1>  -0.1500 
 27 H        0.6240     1.9030     0.5810 H     1 <1>   0.0800 
 28 H        0.7400     2.6920    -0.9730 H     1 <1>   0.0800 
 29 H        1.8090     1.5420    -2.8320 H     1 <1>   0.0800 
 30 H        2.4920    -0.0470    -2.5940 H     1 <1>   0.0800 
 31 H       -2.3510     0.5120     0.2490 H     1 <1>   0.1500 
 32 H        1.2060    -1.7350     0.8790 H     1 <1>   0.1500 
 33 H        3.0130     2.0610     0.9190 H     1 <1>   0.0800 
 34 H        2.3650     3.6430     0.6010 H     1 <1>   0.0800 
 35 H        4.2550     1.6710    -2.6720 H     1 <1>   0.0800 
 36 H        4.2240     0.8090    -1.1640 H     1 <1>   0.0800 
 37 H       -3.1400    -0.1040     2.4880 H     1 <1>   0.1500 
 38 H        0.4180    -2.3570     3.1220 H     1 <1>   0.1500 
 39 H        3.0880     3.5610    -1.7090 H     1 <1>   0.0800 
 40 H       -1.7570    -1.5380     3.9320 H     1 <1>   0.1500 
 41 H        5.3600     1.7750     0.5490 H     1 <1>   0.3700 
 42 H        7.4600     3.6550    -0.0990 H     1 <1>   0.0800 
 43 H        6.3860     3.4090     2.7280 H     1 <1>   0.0800 
 44 H        6.4250     4.8500     1.7320 H     1 <1>   0.0800 
 45 H        7.9130     4.1370     2.2950 H     1 <1>   0.0800 
 46 H        6.5920     1.0790     2.5410 H     1 <1>   0.1500 
 47 H        9.1360     2.1680    -0.7130 H     1 <1>   0.1500 
 48 H        7.8600    -0.9900     2.8330 H     1 <1>   0.1500 
 49 H       10.3980     0.0940    -0.4090 H     1 <1>   0.1500 
 50 H        9.7650    -1.4920     1.3620 H     1 <1>   0.1500 
@<TRIPOS>BOND
  1   1   2  2   
  2   1   3  2   
  3   1   4  am  
  4   1   5  1   
  5   4   6  1   
  6   4   7  1   
  7   5   8  ar  
  8   5   9  ar  
  9   6  10  1   
 10   6  27  1   
 11   6  28  1   
 12   7  11  1   
 13   7  29  1   
 14   7  30  1   
 15   8  12  ar  
 16   8  31  1   
 17   9  13  ar  
 18   9  32  1   
 19  10  14  1   
 20  10  33  1   
 21  10  34  1   
 22  11  14  1   
 23  11  35  1   
 24  11  36  1   
 25  12  15  ar  
 26  12  37  1   
 27  13  15  ar  
 28  13  38  1   
 29  14  16  1   
 30  14  39  1   
 31  15  40  1   
 32  16  17  2   
 33  16  18  am  
 34  18  19  1   
 35  18  41  1   
 36  19  20  1   
 37  19  21  1   
 38  19  42  1   
 39  20  22  ar  
 40  20  23  ar  
 41  21  43  1   
 42  21  44  1   
 43  21  45  1   
 44  22  24  ar  
 45  22  46  1   
 46  23  25  ar  
 47  23  47  1   
 48  24  26  ar  
 49  24  48  1   
 50  25  26  ar  
 51  25  49  1   
 52  26  50  1   
@<TRIPOS>SUBSTRUCTURE
  1 ****  10 GROUP 4 **** **** 0

# MOE 2024.06 (io_trps.svl 2023.06)
