@<TRIPOS>MOLECULE
NONAME
40 41 1 0 0 
SMALL
USER_CHARGES


@<TRIPOS>ATOM
  1 O        0.7060    -0.7150     0.3210 O.3   1 <1>  -0.3630 
  2 C        1.6460     0.2460     0.1520 C.ar  1 <1>   0.0830 
  3 C       -0.0450    -1.0800    -0.8190 C.3   1 <1>   0.2640 
  4 C        1.3060     1.5790    -0.0970 C.ar  1 <1>   0.0830 
  5 C        2.9730    -0.1280     0.2600 C.ar  1 <1>  -0.1500 
  6 C       -1.3370    -1.7460    -0.3710 C.ar  1 <1>  -0.1440 
  7 O       -0.0150     1.9080    -0.1640 O.3   1 <1>  -0.3630 
  8 C        2.3250     2.5150    -0.2580 C.ar  1 <1>  -0.1500 
  9 C        3.9750     0.8130     0.1020 C.ar  1 <1>  -0.1500 
 10 C       -1.6180    -3.0610    -0.7100 C.ar  1 <1>  -0.1500 
 11 C       -2.2550    -1.0300     0.3790 C.ar  1 <1>  -0.1500 
 12 C       -0.4480     3.2460    -0.2240 C.3   1 <1>   0.1200 
 13 C        3.6570     2.1360    -0.1620 C.ar  1 <1>  -0.1430 
 14 C       -2.8060    -3.6470    -0.3070 C.ar  1 <1>  -0.1500 
 15 C       -3.4420    -1.6160     0.7820 C.ar  1 <1>  -0.1500 
 16 C       -1.9720     3.2450    -0.1770 C.3   1 <1>  -0.2400 
 17 C        4.7640     3.1610    -0.3340 C.3   1 <1>   0.2630 
 18 C       -3.7240    -2.9290     0.4420 C.ar  1 <1>  -0.1430 
 19 O        5.3250     3.3810     0.9060 O.3   1 <1>  -0.6800 
 20 C       -5.0250    -3.5720     0.8830 C.3   1 <1>  -0.0970 
 21 H        0.5560    -1.7480    -1.4080 H     1 <1>   0.0800 
 22 H       -0.2700    -0.2040    -1.3980 H     1 <1>   0.0800 
 23 H        3.2160    -1.1540     0.4710 H     1 <1>   0.1500 
 24 H        2.0950     3.5440    -0.4590 H     1 <1>   0.1500 
 25 H        5.0060     0.5140     0.1890 H     1 <1>   0.1500 
 26 H       -0.9160    -3.6340    -1.2890 H     1 <1>   0.1500 
 27 H       -2.0380    -0.0100     0.6510 H     1 <1>   0.1500 
 28 H       -0.0950     3.6780    -1.1440 H     1 <1>   0.0800 
 29 H       -0.0410     3.7740     0.6210 H     1 <1>   0.0800 
 30 H       -3.0120    -4.6670    -0.5780 H     1 <1>   0.1500 
 31 H       -4.1420    -1.0440     1.3640 H     1 <1>   0.1500 
 32 H       -2.3680     2.6940    -1.0120 H     1 <1>   0.0800 
 33 H       -2.3400     4.2540    -0.2260 H     1 <1>   0.0800 
 34 H       -2.3130     2.8000     0.7400 H     1 <1>   0.0800 
 35 H        4.3810     4.0970    -0.7010 H     1 <1>   0.0800 
 36 H        5.5340     2.8040    -0.9960 H     1 <1>   0.0800 
 37 H        4.6390     3.2400     1.5880 H     1 <1>   0.4000 
 38 H       -4.8910    -4.6290     1.0300 H     1 <1>   0.0800 
 39 H       -5.7790    -3.4170     0.1330 H     1 <1>   0.0800 
 40 H       -5.3620    -3.1420     1.8090 H     1 <1>   0.0800 
@<TRIPOS>BOND
  1   1   2  1   
  2   1   3  1   
  3   2   4  ar  
  4   2   5  ar  
  5   3   6  1   
  6   3  21  1   
  7   3  22  1   
  8   4   7  1   
  9   4   8  ar  
 10   5   9  ar  
 11   5  23  1   
 12   6  10  ar  
 13   6  11  ar  
 14   7  12  1   
 15   8  13  ar  
 16   8  24  1   
 17   9  13  ar  
 18   9  25  1   
 19  10  14  ar  
 20  10  26  1   
 21  11  15  ar  
 22  11  27  1   
 23  12  16  1   
 24  12  28  1   
 25  12  29  1   
 26  13  17  1   
 27  14  18  ar  
 28  14  30  1   
 29  15  18  ar  
 30  15  31  1   
 31  16  32  1   
 32  16  33  1   
 33  16  34  1   
 34  17  19  1   
 35  17  35  1   
 36  17  36  1   
 37  18  20  1   
 38  19  37  1   
 39  20  38  1   
 40  20  39  1   
 41  20  40  1   
@<TRIPOS>SUBSTRUCTURE
  1 ****   1 GROUP 4 **** **** 0

# MOE 2024.06 (io_trps.svl 2023.06)
