@<TRIPOS>MOLECULE
NONAME
46 48 1 0 0 
SMALL
USER_CHARGES


@<TRIPOS>ATOM
  1 O       -7.8710     1.8780    -0.7040 O.3   1 <1>  -0.3630 
  2 C       -6.6600     2.4050    -0.3590 C.ar  1 <1>   0.0830 
  3 C       -8.1520     0.4940    -0.6670 C.3   1 <1>   0.0400 
  4 C       -6.4670     3.7980    -0.3580 C.ar  1 <1>   0.0830 
  5 C       -5.5930     1.5760    -0.0140 C.ar  1 <1>  -0.1500 
  6 O       -7.3860     4.7580    -0.6670 O.3   1 <1>  -0.3630 
  7 C       -5.2280     4.3080    -0.0090 C.ar  1 <1>  -0.1500 
  8 C       -4.3480     2.1010     0.3130 C.ar  1 <1>  -0.1430 
  9 C       -8.7620     4.4960    -0.8330 C.3   1 <1>   0.0400 
 10 C       -4.1770     3.4750     0.3280 C.ar  1 <1>  -0.1430 
 11 C       -3.1330     1.2470     0.6640 C.3   1 <1>   0.7100 
 12 C       -2.8270     4.0380     0.7480 C.3   1 <1>  -0.0170 
 13 N       -1.9890     1.8030    -0.0680 N.4   1 <1>  -0.9060 
 14 C       -3.2190    -0.2130     0.2450 C.ar  1 <1>  -0.1430 
 15 C       -1.6360     3.2020     0.2120 C.3   1 <1>   0.5030 
 16 C       -3.0170    -1.2050     1.1960 C.ar  1 <1>  -0.1500 
 17 C       -3.4780    -0.5820    -1.0720 C.ar  1 <1>  -0.1500 
 18 C       -1.1460     3.7710    -1.1180 C.3   1 <1>  -0.2400 
 19 C       -0.4850     3.1860     1.2160 C.3   1 <1>  -0.2400 
 20 C       -3.0660    -2.5400     0.8370 C.ar  1 <1>  -0.1500 
 21 C       -3.5260    -1.9180    -1.4290 C.ar  1 <1>  -0.1500 
 22 C       -3.3180    -2.8970    -0.4750 C.ar  1 <1>  -0.1500 
 23 H       -8.0070     0.1340     0.3360 H     1 <1>   0.0800 
 24 H       -9.1780     0.3550    -0.9570 H     1 <1>   0.0800 
 25 H       -7.5070    -0.0140    -1.3610 H     1 <1>   0.0800 
 26 H       -5.7310     0.5120     0.0000 H     1 <1>   0.1500 
 27 H       -5.1060     5.3770    -0.0020 H     1 <1>   0.1500 
 28 H       -8.8990     3.9030    -1.7200 H     1 <1>   0.0800 
 29 H       -9.1270     3.9790     0.0360 H     1 <1>   0.0800 
 30 H       -9.2710     5.4360    -0.9430 H     1 <1>   0.0800 
 31 H       -2.9540     1.3060     1.7260 H     1 <1>   0.0800 
 32 H       -2.8050     4.0570     1.8240 H     1 <1>   0.0800 
 33 H       -2.7330     5.0620     0.4290 H     1 <1>   0.0800 
 34 H       -2.2690     1.7510    -1.0480 H     1 <1>   0.4500 
 35 H       -1.1880     1.1820     0.0520 H     1 <1>   0.4500 
 36 H       -2.8210    -0.9590     2.2270 H     1 <1>   0.1500 
 37 H       -3.6560     0.1560    -1.8370 H     1 <1>   0.1500 
 38 H       -1.9450     3.8050    -1.8390 H     1 <1>   0.0800 
 39 H       -0.3310     3.1930    -1.5180 H     1 <1>   0.0800 
 40 H       -0.7920     4.7780    -0.9800 H     1 <1>   0.0800 
 41 H       -0.7860     2.7390     2.1470 H     1 <1>   0.0800 
 42 H       -0.1690     4.1940     1.4240 H     1 <1>   0.0800 
 43 H        0.3650     2.6530     0.8280 H     1 <1>   0.0800 
 44 H       -2.9090    -3.3080     1.5770 H     1 <1>   0.1500 
 45 H       -3.7270    -2.2020    -2.4490 H     1 <1>   0.1500 
 46 H       -3.3560    -3.9370    -0.7530 H     1 <1>   0.1500 
@<TRIPOS>BOND
  1   1   2  1   
  2   1   3  1   
  3   2   4  ar  
  4   2   5  ar  
  5   3  23  1   
  6   3  24  1   
  7   3  25  1   
  8   4   6  1   
  9   4   7  ar  
 10   5   8  ar  
 11   5  26  1   
 12   6   9  1   
 13   7  10  ar  
 14   7  27  1   
 15   8  10  ar  
 16   8  11  1   
 17   9  28  1   
 18   9  29  1   
 19   9  30  1   
 20  10  12  1   
 21  11  13  1   
 22  11  14  1   
 23  11  31  1   
 24  12  15  1   
 25  12  32  1   
 26  12  33  1   
 27  13  15  1   
 28  13  34  1   
 29  13  35  1   
 30  14  16  ar  
 31  14  17  ar  
 32  15  18  1   
 33  15  19  1   
 34  16  20  ar  
 35  16  36  1   
 36  17  21  ar  
 37  17  37  1   
 38  18  38  1   
 39  18  39  1   
 40  18  40  1   
 41  19  41  1   
 42  19  42  1   
 43  19  43  1   
 44  20  22  ar  
 45  20  44  1   
 46  21  22  ar  
 47  21  45  1   
 48  22  46  1   
@<TRIPOS>SUBSTRUCTURE
  1 ****   8 GROUP 4 **** **** 0

# MOE 2024.06 (io_trps.svl 2023.06)
