@<TRIPOS>MOLECULE
NONAME
49 50 1 0 0 
SMALL
USER_CHARGES


@<TRIPOS>ATOM
  1 S       -0.2580     0.0870     0.2300 S.o2  1 <1>   1.3330 
  2 O        0.2760    -0.7340    -0.8330 O.2   1 <1>  -0.6500 
  3 O        0.0750    -0.2130     1.6050 O.2   1 <1>  -0.6500 
  4 N       -1.9480     0.0640     0.0840 N.am  1 <1>  -0.8490 
  5 C        0.1500     1.8100    -0.0750 C.3   1 <1>  -0.0550 
  6 C       -2.5340    -1.0360     0.8580 C.3   1 <1>   0.1960 
  7 C       -2.3800    -0.0030    -1.3170 C.3   1 <1>   0.1960 
  8 C        1.6540     2.1160     0.0150 C.3   1 <1>  -0.1600 
  9 C       -4.0600    -0.9230     0.8590 C.3   1 <1>  -0.1600 
 10 C       -3.8960     0.1770    -1.4030 C.3   1 <1>  -0.1600 
 11 C        1.9380     3.5970    -0.2550 C.3   1 <1>  -0.2400 
 12 C       -4.6240    -0.8950    -0.5730 C.3   1 <1>  -0.0190 
 13 C       -6.1380    -0.7010    -0.6000 C.2   1 <1>   0.5690 
 14 O       -6.8060    -1.5350    -1.1590 O.2   1 <1>  -0.5700 
 15 N       -6.6470     0.4180     0.0010 N.am  1 <1>  -0.5470 
 16 C       -7.9540     0.9110     0.1590 C.ar  1 <1>   0.1170 
 17 C       -8.1350     2.2390     0.5540 C.ar  1 <1>  -0.1440 
 18 C       -9.0790     0.1180    -0.0510 C.ar  1 <1>  -0.1500 
 19 C       -9.4160     2.7380     0.7250 C.ar  1 <1>  -0.1500 
 20 C       -6.9500     3.1650     0.8030 C.3   1 <1>  -0.0970 
 21 C      -10.3570     0.6200     0.1170 C.ar  1 <1>  -0.1440 
 22 C      -10.5220     1.9360     0.5090 C.ar  1 <1>  -0.1500 
 23 C      -11.5690    -0.2640    -0.1200 C.3   1 <1>  -0.0970 
 24 H       -0.3690     2.4160     0.6410 H     1 <1>   0.0800 
 25 H       -0.1980     2.0860    -1.0510 H     1 <1>   0.0800 
 26 H       -2.1930    -0.9930     1.8790 H     1 <1>   0.0800 
 27 H       -2.2250    -1.9820     0.4420 H     1 <1>   0.0800 
 28 H       -2.0970    -0.9510    -1.7460 H     1 <1>   0.0800 
 29 H       -1.9020     0.7760    -1.8870 H     1 <1>   0.0800 
 30 H        2.1860     1.5110    -0.7010 H     1 <1>   0.0800 
 31 H        2.0120     1.8550     0.9970 H     1 <1>   0.0800 
 32 H       -4.3290    -0.0300     1.3930 H     1 <1>   0.0800 
 33 H       -4.4760    -1.7610     1.3920 H     1 <1>   0.0800 
 34 H       -4.2050     0.1020    -2.4310 H     1 <1>   0.0800 
 35 H       -4.1470     1.1620    -1.0540 H     1 <1>   0.0800 
 36 H        1.6110     3.8720    -1.2420 H     1 <1>   0.0800 
 37 H        2.9950     3.7850    -0.1830 H     1 <1>   0.0800 
 38 H        1.4340     4.2160     0.4660 H     1 <1>   0.0800 
 39 H       -4.4190    -1.8520    -1.0230 H     1 <1>   0.0800 
 40 H       -5.9390     1.0360     0.3870 H     1 <1>   0.3700 
 41 H       -8.9610    -0.9070    -0.3450 H     1 <1>   0.1500 
 42 H       -9.5670     3.7590     1.0290 H     1 <1>   0.1500 
 43 H       -6.3580     2.7960     1.6210 H     1 <1>   0.0800 
 44 H       -7.2840     4.1570     1.0500 H     1 <1>   0.0800 
 45 H       -6.3410     3.2290    -0.0810 H     1 <1>   0.0800 
 46 H      -11.5090     2.3400     0.6460 H     1 <1>   0.1500 
 47 H      -11.3150    -1.0900    -0.7590 H     1 <1>   0.0800 
 48 H      -12.3540     0.3000    -0.5900 H     1 <1>   0.0800 
 49 H      -11.9280    -0.6480     0.8180 H     1 <1>   0.0800 
@<TRIPOS>BOND
  1   1   2  2   
  2   1   3  2   
  3   1   4  am  
  4   1   5  1   
  5   4   6  1   
  6   4   7  1   
  7   5   8  1   
  8   5  24  1   
  9   5  25  1   
 10   6   9  1   
 11   6  26  1   
 12   6  27  1   
 13   7  10  1   
 14   7  28  1   
 15   7  29  1   
 16   8  11  1   
 17   8  30  1   
 18   8  31  1   
 19   9  12  1   
 20   9  32  1   
 21   9  33  1   
 22  10  12  1   
 23  10  34  1   
 24  10  35  1   
 25  11  36  1   
 26  11  37  1   
 27  11  38  1   
 28  12  13  1   
 29  12  39  1   
 30  13  14  2   
 31  13  15  am  
 32  15  16  1   
 33  15  40  1   
 34  16  17  ar  
 35  16  18  ar  
 36  17  19  ar  
 37  17  20  1   
 38  18  21  ar  
 39  18  41  1   
 40  19  22  ar  
 41  19  42  1   
 42  20  43  1   
 43  20  44  1   
 44  20  45  1   
 45  21  22  ar  
 46  21  23  1   
 47  22  46  1   
 48  23  47  1   
 49  23  48  1   
 50  23  49  1   
@<TRIPOS>SUBSTRUCTURE
  1 ****  12 GROUP 4 **** **** 0

# MOE 2024.06 (io_trps.svl 2023.06)
