@<TRIPOS>MOLECULE
NONAME
46 49 1 0 0 
SMALL
USER_CHARGES


@<TRIPOS>ATOM
  1 O        0.5410     0.4900     0.0530 O.3   1 <1>  -0.5600 
  2 C        1.7460    -0.2170    -0.0310 C.3   1 <1>   0.1200 
  3 C        0.6250     1.7970    -0.4450 C.3   1 <1>   0.1200 
  4 C        2.8540     0.4760     0.7810 C.3   1 <1>   0.2090 
  5 C        1.6630     2.6240     0.3340 C.3   1 <1>   0.2090 
  6 N        2.9820     1.9160     0.3900 N.pl3 1 <1>  -0.8380 
  7 C        4.1930     2.5560     0.2400 C.ar  1 <1>   0.7200 
  8 N        4.1670     3.8440     0.0040 N.ar  1 <1>  -0.6200 
  9 N        5.2780     1.8350     0.3470 N.ar  1 <1>  -0.6200 
 10 C        5.3440     4.3870    -0.1220 C.ar  1 <1>   0.7030 
 11 C        6.3990     2.4880     0.1950 C.ar  1 <1>   0.7200 
 12 O        5.3330     5.7120    -0.3660 O.3   1 <1>  -0.1650 
 13 N        6.4930     3.7710    -0.0430 N.ar  1 <1>  -0.6200 
 14 N        7.5760     1.7790     0.2970 N.pl3 1 <1>  -0.8380 
 15 C        6.3840     6.5520    -0.1750 C.ar  1 <1>   0.0820 
 16 C        8.9330     2.3930     0.1270 C.3   1 <1>   0.2090 
 17 C        7.6380     0.3110     0.5800 C.3   1 <1>   0.2090 
 18 C        7.1760     6.4980     0.9670 C.ar  1 <1>  -0.1500 
 19 C        6.6430     7.5060    -1.1470 C.ar  1 <1>  -0.1500 
 20 C        9.7910     1.5590    -0.8420 C.3   1 <1>   0.1200 
 21 C        8.5700    -0.3970    -0.4200 C.3   1 <1>   0.1200 
 22 C        8.2260     7.3860     1.1240 C.ar  1 <1>  -0.1500 
 23 C        7.6930     8.3930    -0.9880 C.ar  1 <1>  -0.1500 
 24 O        9.8310     0.2130    -0.4530 O.3   1 <1>  -0.5600 
 25 C        8.4850     8.3320     0.1460 C.ar  1 <1>  -0.1500 
 26 H        2.0320    -0.2900    -1.0660 H     1 <1>   0.0800 
 27 H        1.5730    -1.2070     0.3500 H     1 <1>   0.0800 
 28 H       -0.3470     2.2460    -0.3560 H     1 <1>   0.0800 
 29 H        0.8920     1.7510    -1.4870 H     1 <1>   0.0800 
 30 H        3.7750    -0.0550     0.6230 H     1 <1>   0.0800 
 31 H        2.6140     0.4160     1.8280 H     1 <1>   0.0800 
 32 H        1.3060     2.7830     1.3370 H     1 <1>   0.0800 
 33 H        1.7540     3.5850    -0.1390 H     1 <1>   0.0800 
 34 H        9.4230     2.4340     1.0840 H     1 <1>   0.0800 
 35 H        8.8700     3.3970    -0.2520 H     1 <1>   0.0800 
 36 H        6.6660    -0.1440     0.5230 H     1 <1>   0.0800 
 37 H        8.0130     0.1610     1.5770 H     1 <1>   0.0800 
 38 H        6.9730     5.7680     1.7310 H     1 <1>   0.1500 
 39 H        6.0230     7.5500    -2.0240 H     1 <1>   0.1500 
 40 H       10.8000     1.9280    -0.8520 H     1 <1>   0.0800 
 41 H        9.3910     1.6180    -1.8390 H     1 <1>   0.0800 
 42 H        8.1470    -0.3670    -1.4090 H     1 <1>   0.0800 
 43 H        8.7090    -1.4230    -0.1330 H     1 <1>   0.0800 
 44 H        8.8400     7.3410     2.0070 H     1 <1>   0.1500 
 45 H        7.8940     9.1310    -1.7450 H     1 <1>   0.1500 
 46 H        9.3020     9.0220     0.2700 H     1 <1>   0.1500 
@<TRIPOS>BOND
  1   1   2  1   
  2   1   3  1   
  3   2   4  1   
  4   2  26  1   
  5   2  27  1   
  6   3   5  1   
  7   3  28  1   
  8   3  29  1   
  9   4   6  1   
 10   4  30  1   
 11   4  31  1   
 12   5   6  1   
 13   5  32  1   
 14   5  33  1   
 15   6   7  1   
 16   7   8  ar  
 17   7   9  ar  
 18   8  10  ar  
 19   9  11  ar  
 20  10  12  1   
 21  10  13  ar  
 22  11  13  ar  
 23  11  14  1   
 24  12  15  1   
 25  14  16  1   
 26  14  17  1   
 27  15  18  ar  
 28  15  19  ar  
 29  16  20  1   
 30  16  34  1   
 31  16  35  1   
 32  17  21  1   
 33  17  36  1   
 34  17  37  1   
 35  18  22  ar  
 36  18  38  1   
 37  19  23  ar  
 38  19  39  1   
 39  20  24  1   
 40  20  40  1   
 41  20  41  1   
 42  21  24  1   
 43  21  42  1   
 44  21  43  1   
 45  22  25  ar  
 46  22  44  1   
 47  23  25  ar  
 48  23  45  1   
 49  25  46  1   
@<TRIPOS>SUBSTRUCTURE
  1 ****  13 GROUP 4 **** **** 0

# MOE 2024.06 (io_trps.svl 2023.06)
