@<TRIPOS>MOLECULE
NONAME
49 53 1 0 0 
SMALL
USER_CHARGES


@<TRIPOS>ATOM
  1 O       -3.6580     1.0620     2.5410 O.2   1 <1>  -0.5700 
  2 C       -3.5670     1.4710     1.3890 C.2   1 <1>   0.7670 
  3 N       -4.4970     1.0500     0.4920 N.2   1 <1>  -0.6610 
  4 C       -2.5250     2.3560     0.9930 C.2   1 <1>  -0.1240 
  5 C       -4.3830     1.4910    -0.7240 C.2   1 <1>   0.5500 
  6 C       -2.4610     2.7750    -0.2710 C.2   1 <1>  -0.0380 
  7 C       -1.4070     2.9280     1.8290 C.3   1 <1>  -0.0220 
  8 N       -3.4090     2.3330    -1.1480 N.pl3 1 <1>  -0.5500 
  9 N       -5.2950     1.0980    -1.6420 N.pl3 1 <1>  -0.7880 
 10 C       -1.3080     3.7000    -0.5460 C.3   1 <1>  -0.0220 
 11 C       -0.6700     3.8730     0.8510 C.3   1 <1>  -0.1600 
 12 C       -5.3220    -0.3560    -1.9730 C.3   1 <1>   0.2090 
 13 C       -6.6630     1.6750    -1.4960 C.3   1 <1>   0.2090 
 14 C       -6.1170    -1.1480    -0.9070 C.3   1 <1>   0.3430 
 15 C       -7.4640     0.9050    -0.4220 C.3   1 <1>   0.3430 
 16 N       -7.4990    -0.5910    -0.6590 N.4   1 <1>  -0.9590 
 17 C       -8.1300    -1.2780     0.4990 C.3   1 <1>   0.4860 
 18 C       -9.5790    -0.8400     0.5870 C.ar  1 <1>  -0.1430 
 19 C       -9.9550     0.1080     1.5350 C.ar  1 <1>  -0.1500 
 20 C      -10.5310    -1.3750    -0.2840 C.ar  1 <1>  -0.1500 
 21 C      -11.2770     0.5050     1.5690 C.ar  1 <1>   0.0830 
 22 C      -11.8570    -0.9640    -0.2280 C.ar  1 <1>  -0.1500 
 23 O      -11.8480     1.4000     2.3790 O.3   1 <1>  -0.3630 
 24 C      -12.2020    -0.0150     0.7130 C.ar  1 <1>   0.0830 
 25 C      -13.2320     1.4410     2.0300 C.3   1 <1>   0.4000 
 26 O      -13.4000     0.5280     0.9460 O.3   1 <1>  -0.3620 
 27 H       -0.7600     2.1380     2.1710 H     1 <1>   0.0800 
 28 H       -1.7990     3.4650     2.6750 H     1 <1>   0.0800 
 29 H       -3.4190     2.6030    -2.1320 H     1 <1>   0.4000 
 30 H       -1.6530     4.6420    -0.9370 H     1 <1>   0.0800 
 31 H       -0.6180     3.2440    -1.2340 H     1 <1>   0.0800 
 32 H        0.3810     3.6430     0.8200 H     1 <1>   0.0800 
 33 H       -0.7900     4.8920     1.1780 H     1 <1>   0.0800 
 34 H       -4.3120    -0.7310    -2.0100 H     1 <1>   0.0800 
 35 H       -5.7610    -0.4980    -2.9460 H     1 <1>   0.0800 
 36 H       -7.1760     1.6390    -2.4410 H     1 <1>   0.0800 
 37 H       -6.5850     2.7090    -1.2030 H     1 <1>   0.0800 
 38 H       -5.5510    -1.1150     0.0100 H     1 <1>   0.0800 
 39 H       -6.1840    -2.1790    -1.2120 H     1 <1>   0.0800 
 40 H       -8.4690     1.2940    -0.3870 H     1 <1>   0.0800 
 41 H       -7.0050     1.1020     0.5330 H     1 <1>   0.0800 
 42 H       -8.0920    -0.7620    -1.4780 H     1 <1>   0.4500 
 43 H       -7.6100    -1.0250     1.4100 H     1 <1>   0.0800 
 44 H       -8.0890    -2.3470     0.3680 H     1 <1>   0.0800 
 45 H       -9.2620     0.5390     2.2370 H     1 <1>   0.1500 
 46 H      -10.2580    -2.1210    -1.0110 H     1 <1>   0.1500 
 47 H      -12.6080    -1.3640    -0.8870 H     1 <1>   0.1500 
 48 H      -13.4970     2.4340     1.7110 H     1 <1>   0.0800 
 49 H      -13.8270     1.1200     2.8670 H     1 <1>   0.0800 
@<TRIPOS>BOND
  1   1   2  2   
  2   2   3  1   
  3   2   4  1   
  4   3   5  2   
  5   4   6  2   
  6   4   7  1   
  7   5   8  1   
  8   5   9  1   
  9   6   8  1   
 10   6  10  1   
 11   7  11  1   
 12   7  27  1   
 13   7  28  1   
 14   8  29  1   
 15   9  12  1   
 16   9  13  1   
 17  10  11  1   
 18  10  30  1   
 19  10  31  1   
 20  11  32  1   
 21  11  33  1   
 22  12  14  1   
 23  12  34  1   
 24  12  35  1   
 25  13  15  1   
 26  13  36  1   
 27  13  37  1   
 28  14  16  1   
 29  14  38  1   
 30  14  39  1   
 31  15  16  1   
 32  15  40  1   
 33  15  41  1   
 34  16  17  1   
 35  16  42  1   
 36  17  18  1   
 37  17  43  1   
 38  17  44  1   
 39  18  19  ar  
 40  18  20  ar  
 41  19  21  ar  
 42  19  45  1   
 43  20  22  ar  
 44  20  46  1   
 45  21  23  1   
 46  21  24  ar  
 47  22  24  ar  
 48  22  47  1   
 49  23  25  1   
 50  24  26  1   
 51  25  26  1   
 52  25  48  1   
 53  25  49  1   
@<TRIPOS>SUBSTRUCTURE
  1 ****  15 GROUP 4 **** **** 0

# MOE 2024.06 (io_trps.svl 2023.06)
