@<TRIPOS>MOLECULE
NONAME
46 47 1 0 0 
SMALL
USER_CHARGES


@<TRIPOS>ATOM
  1 S        0.1900     0.1110    -0.0860 S.o2  1 <1>   1.4470 
  2 O       -0.4740    -0.6720     0.9320 O.2   1 <1>  -0.6500 
  3 O       -0.0470    -0.1590    -1.4850 O.2   1 <1>  -0.6500 
  4 N       -0.3220     1.6970     0.0970 N.am  1 <1>  -0.9140 
  5 C        1.9680     0.2070     0.2540 C.ar  1 <1>  -0.0090 
  6 C       -1.7380     1.8030     0.3730 C.3   1 <1>   0.1960 
  7 C        2.9100    -0.1540    -0.7020 C.ar  1 <1>  -0.1500 
  8 C        2.4310     0.6510     1.4860 C.ar  1 <1>  -0.1500 
  9 C       -2.1140     3.2780     0.3560 C.3   1 <1>  -0.2400 
 10 C        4.2670    -0.0720    -0.4390 C.ar  1 <1>  -0.1500 
 11 C        3.7860     0.7340     1.7560 C.ar  1 <1>  -0.1500 
 12 C        4.7120     0.3740     0.7930 C.ar  1 <1>  -0.1430 
 13 C        6.1980     0.4740     1.0920 C.3   1 <1>  -0.0170 
 14 C        6.6980     1.9000     0.8380 C.3   1 <1>  -0.0990 
 15 C        8.1680     2.0200     1.1660 C.2   1 <1>   0.5690 
 16 O        8.5000     2.0780     2.3230 O.2   1 <1>  -0.5700 
 17 N        9.0610     2.0460     0.1480 N.am  1 <1>  -0.7300 
 18 C       10.5210     2.1470     0.3040 C.3   1 <1>   0.2200 
 19 C       11.0190     3.3410    -0.5010 C.3   1 <1>  -0.1600 
 20 C       11.1720     0.9590    -0.3930 C.3   1 <1>  -0.1600 
 21 C       11.1280     2.8530    -1.9500 C.3   1 <1>  -0.1600 
 22 C       11.2210     1.3230    -1.8810 C.3   1 <1>  -0.1600 
 23 H       -0.1730     2.0980    -0.8260 H     1 <1>   0.4200 
 24 H       -1.9550     1.3810     1.3420 H     1 <1>   0.0800 
 25 H       -2.3050     1.2660    -0.3720 H     1 <1>   0.0800 
 26 H        2.5780    -0.5040    -1.6650 H     1 <1>   0.1500 
 27 H        1.7200     0.9340     2.2440 H     1 <1>   0.1500 
 28 H       -1.5480     3.8130     1.0990 H     1 <1>   0.0800 
 29 H       -3.1590     3.3860     0.5830 H     1 <1>   0.0800 
 30 H       -1.9300     3.7050    -0.6130 H     1 <1>   0.0800 
 31 H        4.9720    -0.3590    -1.2000 H     1 <1>   0.1500 
 32 H        4.1160     1.0820     2.7210 H     1 <1>   0.1500 
 33 H        6.7460    -0.2190     0.4780 H     1 <1>   0.0800 
 34 H        6.3780     0.2080     2.1200 H     1 <1>   0.0800 
 35 H        6.1560     2.5880     1.4610 H     1 <1>   0.0800 
 36 H        6.5260     2.1710    -0.1870 H     1 <1>   0.0800 
 37 H        8.7510     2.0030    -0.8210 H     1 <1>   0.3700 
 38 H       10.7920     2.2110     1.3460 H     1 <1>   0.0800 
 39 H       12.0010     3.6020    -0.1460 H     1 <1>   0.0800 
 40 H       10.3780     4.1990    -0.3940 H     1 <1>   0.0800 
 41 H       10.6460     0.0390    -0.2040 H     1 <1>   0.0800 
 42 H       12.1780     0.8600    -0.0250 H     1 <1>   0.0800 
 43 H       11.9910     3.2780    -2.4330 H     1 <1>   0.0800 
 44 H       10.2480     3.1390    -2.5010 H     1 <1>   0.0800 
 45 H       10.3820     0.8840    -2.3940 H     1 <1>   0.0800 
 46 H       12.1290     0.9630    -2.3340 H     1 <1>   0.0800 
@<TRIPOS>BOND
  1   1   2  2   
  2   1   3  2   
  3   1   4  am  
  4   1   5  1   
  5   4   6  1   
  6   4  23  1   
  7   5   7  ar  
  8   5   8  ar  
  9   6   9  1   
 10   6  24  1   
 11   6  25  1   
 12   7  10  ar  
 13   7  26  1   
 14   8  11  ar  
 15   8  27  1   
 16   9  28  1   
 17   9  29  1   
 18   9  30  1   
 19  10  12  ar  
 20  10  31  1   
 21  11  12  ar  
 22  11  32  1   
 23  12  13  1   
 24  13  14  1   
 25  13  33  1   
 26  13  34  1   
 27  14  15  1   
 28  14  35  1   
 29  14  36  1   
 30  15  16  2   
 31  15  17  am  
 32  17  18  1   
 33  17  37  1   
 34  18  19  1   
 35  18  20  1   
 36  18  38  1   
 37  19  21  1   
 38  19  39  1   
 39  19  40  1   
 40  20  22  1   
 41  20  41  1   
 42  20  42  1   
 43  21  22  1   
 44  21  43  1   
 45  21  44  1   
 46  22  45  1   
 47  22  46  1   
@<TRIPOS>SUBSTRUCTURE
  1 ****  12 GROUP 4 **** **** 0

# MOE 2024.06 (io_trps.svl 2023.06)
