@<TRIPOS>MOLECULE
NONAME
40 41 1 0 0 
SMALL
USER_CHARGES


@<TRIPOS>ATOM
  1 O       -0.0750     1.1290    -1.7730 O.2   1 <1>  -0.5700 
  2 C       -0.0810     1.8610    -0.7970 C.2   1 <1>   0.4690 
  3 C        1.1360     2.3770    -0.2250 C.ar  1 <1>   0.0860 
  4 C       -1.3060     2.2400    -0.1660 C.2   1 <1>  -0.1240 
  5 C        1.0560     3.1960     0.9080 C.ar  1 <1>   0.0830 
  6 C        2.4040     2.1030    -0.7440 C.ar  1 <1>  -0.1500 
  7 C       -1.2800     3.0310     0.9310 C.2   1 <1>  -0.0730 
  8 C       -2.5830     1.6870    -0.7890 C.3   1 <1>   0.2480 
  9 O       -0.1420     3.4960     1.4540 O.3   1 <1>  -0.1590 
 10 C        2.2010     3.7170     1.4940 C.ar  1 <1>  -0.1500 
 11 C        3.5430     2.6220    -0.1600 C.ar  1 <1>  -0.1500 
 12 N       -3.7980     2.4040    -0.3320 N.3   1 <1>  -0.8100 
 13 C        3.4430     3.4310     0.9630 C.ar  1 <1>  -0.1500 
 14 C       -5.0050     1.5960    -0.5630 C.3   1 <1>   0.1100 
 15 C       -3.8830     3.7220    -0.9930 C.3   1 <1>   0.0300 
 16 C       -6.1660     2.1080     0.3080 C.3   1 <1>   0.3430 
 17 N       -7.4110     1.2780     0.1730 N.4   1 <1>  -0.9590 
 18 C       -8.5650     1.9780     0.8200 C.3   1 <1>   0.2630 
 19 C       -7.2420    -0.0880     0.7640 C.3   1 <1>   0.2630 
 20 H        2.4860     1.4750    -1.6150 H     1 <1>   0.1500 
 21 H       -2.1590     3.3460     1.4660 H     1 <1>   0.1500 
 22 H       -2.6420     0.6460    -0.5200 H     1 <1>   0.0800 
 23 H       -2.5180     1.7410    -1.8650 H     1 <1>   0.0800 
 24 H        2.1120     4.3430     2.3650 H     1 <1>   0.1500 
 25 H        4.5120     2.3990    -0.5740 H     1 <1>   0.1500 
 26 H        4.3330     3.8340     1.4150 H     1 <1>   0.1500 
 27 H       -4.7960     0.5770    -0.2880 H     1 <1>   0.0800 
 28 H       -5.2710     1.6260    -1.6070 H     1 <1>   0.0800 
 29 H       -4.7110     4.2900    -0.6060 H     1 <1>   0.0800 
 30 H       -2.9860     4.2900    -0.8120 H     1 <1>   0.0800 
 31 H       -4.0020     3.6070    -2.0580 H     1 <1>   0.0800 
 32 H       -6.3820     3.1230     0.0180 H     1 <1>   0.0800 
 33 H       -5.8460     2.1160     1.3370 H     1 <1>   0.0800 
 34 H       -7.6220     1.1800    -0.8330 H     1 <1>   0.4500 
 35 H       -8.3810     2.1080     1.8740 H     1 <1>   0.0800 
 36 H       -9.4690     1.4030     0.6960 H     1 <1>   0.0800 
 37 H       -8.7130     2.9480     0.3740 H     1 <1>   0.0800 
 38 H       -6.9940    -0.0150     1.8110 H     1 <1>   0.0800 
 39 H       -6.4530    -0.6230     0.2610 H     1 <1>   0.0800 
 40 H       -8.1540    -0.6540     0.6650 H     1 <1>   0.0800 
@<TRIPOS>BOND
  1   1   2  2   
  2   2   3  1   
  3   2   4  1   
  4   3   5  ar  
  5   3   6  ar  
  6   4   7  2   
  7   4   8  1   
  8   5   9  1   
  9   5  10  ar  
 10   6  11  ar  
 11   6  20  1   
 12   7   9  1   
 13   7  21  1   
 14   8  12  1   
 15   8  22  1   
 16   8  23  1   
 17  10  13  ar  
 18  10  24  1   
 19  11  13  ar  
 20  11  25  1   
 21  12  14  1   
 22  12  15  1   
 23  13  26  1   
 24  14  16  1   
 25  14  27  1   
 26  14  28  1   
 27  15  29  1   
 28  15  30  1   
 29  15  31  1   
 30  16  17  1   
 31  16  32  1   
 32  16  33  1   
 33  17  18  1   
 34  17  19  1   
 35  17  34  1   
 36  18  35  1   
 37  18  36  1   
 38  18  37  1   
 39  19  38  1   
 40  19  39  1   
 41  19  40  1   
@<TRIPOS>SUBSTRUCTURE
  1 ****   4 GROUP 4 **** **** 0

# MOE 2024.06 (io_trps.svl 2023.06)
