@<TRIPOS>MOLECULE
NONAME
47 50 1 0 0 
SMALL
USER_CHARGES


@<TRIPOS>ATOM
  1 O       -2.2470     1.2880     0.6780 O.3   1 <1>  -0.3630 
  2 C       -1.3370     2.1580     0.1560 C.ar  1 <1>   0.0820 
  3 C       -1.9810     0.5930     1.8810 C.3   1 <1>   0.0400 
  4 C       -1.6060     2.6870    -1.1030 C.ar  1 <1>  -0.1440 
  5 C       -0.1770     2.5400     0.8270 C.ar  1 <1>  -0.1500 
  6 C       -0.7230     3.5870    -1.6760 C.ar  1 <1>  -0.1500 
  7 C       -2.8640     2.2860    -1.8460 C.3   1 <1>   0.4870 
  8 C        0.6990     3.4410     0.2490 C.ar  1 <1>  -0.1500 
  9 C        0.4270     3.9710    -1.0080 C.ar  1 <1>   0.0820 
 10 N       -4.0320     2.7030    -1.0390 N.4   1 <1>  -0.9590 
 11 O        1.2260     4.8620    -1.6470 O.3   1 <1>  -0.3620 
 12 C       -5.3000     2.0750    -1.4920 C.3   1 <1>   0.5230 
 13 C       -4.1290     4.1930    -0.8590 C.3   1 <1>   0.3430 
 14 C        2.4670     5.2540    -1.1000 C.3   1 <1>   0.0400 
 15 C       -6.3970     2.5790    -0.5820 C.2   1 <1>  -0.3320 
 16 C       -5.0840     4.5500     0.2910 C.3   1 <1>   0.0210 
 17 N       -7.6340     2.0090    -0.4340 N.pl3 1 <1>   0.0330 
 18 C       -6.3110     3.6700     0.2120 C.2   1 <1>  -0.1810 
 19 C       -8.3340     2.7560     0.4800 C.ar  1 <1>  -0.1520 
 20 C       -7.5290     3.8080     0.9080 C.ar  1 <1>   0.0000 
 21 C       -9.6290     2.5960     0.9800 C.ar  1 <1>  -0.1500 
 22 C       -8.0200     4.7170     1.8500 C.ar  1 <1>  -0.1500 
 23 C      -10.0990     3.4980     1.9070 C.ar  1 <1>  -0.1500 
 24 C       -9.2950     4.5580     2.3420 C.ar  1 <1>  -0.1500 
 25 H       -1.9010     1.3010     2.6870 H     1 <1>   0.0800 
 26 H       -1.0690     0.0330     1.7700 H     1 <1>   0.0800 
 27 H       -2.7980    -0.0800     2.0710 H     1 <1>   0.0800 
 28 H        0.0640     2.1520     1.7990 H     1 <1>   0.1500 
 29 H       -0.9030     4.0090    -2.6500 H     1 <1>   0.1500 
 30 H       -2.8640     1.2160    -1.9730 H     1 <1>   0.0800 
 31 H       -2.8900     2.7530    -2.8170 H     1 <1>   0.0800 
 32 H        1.5850     3.7190     0.7890 H     1 <1>   0.1500 
 33 H       -3.8440     2.3150    -0.1010 H     1 <1>   0.4500 
 34 H       -5.2250     1.0020    -1.4190 H     1 <1>   0.0800 
 35 H       -5.5170     2.3480    -2.5120 H     1 <1>   0.0800 
 36 H       -4.4970     4.6370    -1.7690 H     1 <1>   0.0800 
 37 H       -3.1580     4.6110    -0.6480 H     1 <1>   0.0800 
 38 H        2.9360     5.9320    -1.7900 H     1 <1>   0.0800 
 39 H        3.0830     4.3820    -0.9700 H     1 <1>   0.0800 
 40 H        2.2960     5.7500    -0.1610 H     1 <1>   0.0800 
 41 H       -5.3660     5.5850     0.2180 H     1 <1>   0.0800 
 42 H       -4.5940     4.4010     1.2360 H     1 <1>   0.0800 
 43 H       -8.0140     1.1760    -0.8980 H     1 <1>   0.2700 
 44 H      -10.2440     1.7800     0.6440 H     1 <1>   0.1500 
 45 H       -7.3970     5.5270     2.1800 H     1 <1>   0.1500 
 46 H      -11.0930     3.3970     2.3070 H     1 <1>   0.1500 
 47 H       -9.6880     5.2480     3.0680 H     1 <1>   0.1500 
@<TRIPOS>BOND
  1   1   2  1   
  2   1   3  1   
  3   2   4  ar  
  4   2   5  ar  
  5   3  25  1   
  6   3  26  1   
  7   3  27  1   
  8   4   6  ar  
  9   4   7  1   
 10   5   8  ar  
 11   5  28  1   
 12   6   9  ar  
 13   6  29  1   
 14   7  10  1   
 15   7  30  1   
 16   7  31  1   
 17   8   9  ar  
 18   8  32  1   
 19   9  11  1   
 20  10  12  1   
 21  10  13  1   
 22  10  33  1   
 23  11  14  1   
 24  12  15  1   
 25  12  34  1   
 26  12  35  1   
 27  13  16  1   
 28  13  36  1   
 29  13  37  1   
 30  14  38  1   
 31  14  39  1   
 32  14  40  1   
 33  15  17  1   
 34  15  18  2   
 35  16  18  1   
 36  16  41  1   
 37  16  42  1   
 38  17  19  1   
 39  17  43  1   
 40  18  20  1   
 41  19  20  ar  
 42  19  21  ar  
 43  20  22  ar  
 44  21  23  ar  
 45  21  44  1   
 46  22  24  ar  
 47  22  45  1   
 48  23  24  ar  
 49  23  46  1   
 50  24  47  1   
@<TRIPOS>SUBSTRUCTURE
  1 ****  10 GROUP 4 **** **** 0

# MOE 2024.06 (io_trps.svl 2023.06)
