@<TRIPOS>MOLECULE
NONAME
33 34 1 0 0 
SMALL
USER_CHARGES


@<TRIPOS>ATOM
  1 S        1.0280     0.7170    -0.3630 S.3   1 <1>  -0.3310 
  2 C       -0.7300     1.0930    -0.4880 C.ar  1 <1>   0.1020 
  3 C        1.5990     1.3930     1.2780 C.3   1 <1>   0.1310 
  4 C       -1.3770     0.6800    -1.6390 C.ar  1 <1>  -0.1500 
  5 C       -1.4170     1.7630     0.5120 C.ar  1 <1>  -0.1500 
  6 C        3.0810     1.1430     1.5170 C.2   1 <1>   0.5690 
  7 C       -2.7280     0.9380    -1.7950 C.ar  1 <1>  -0.1500 
  8 C       -2.7690     2.0190     0.3510 C.ar  1 <1>  -0.1500 
  9 O        3.5650     1.5370     2.5510 O.2   1 <1>  -0.5700 
 10 N        3.8180     0.4940     0.5800 N.am  1 <1>  -0.7300 
 11 C       -3.4220     1.6070    -0.8000 C.ar  1 <1>  -0.1500 
 12 C        5.2520     0.1790     0.6630 C.3   1 <1>   0.2200 
 13 C        5.9520     0.7660    -0.5550 C.3   1 <1>  -0.1600 
 14 C        5.4330    -1.3220     0.4820 C.3   1 <1>  -0.1600 
 15 C        5.7070    -0.2280    -1.6960 C.3   1 <1>  -0.1600 
 16 C        5.3730    -1.5700    -1.0300 C.3   1 <1>  -0.1600 
 17 H        1.0210     0.9090     2.0420 H     1 <1>   0.0800 
 18 H        1.4050     2.4490     1.2740 H     1 <1>   0.0800 
 19 H       -0.8280     0.1610    -2.4040 H     1 <1>   0.1500 
 20 H       -0.9300     2.0890     1.4090 H     1 <1>   0.1500 
 21 H       -3.2380     0.6200    -2.6880 H     1 <1>   0.1500 
 22 H       -3.3150     2.5380     1.1190 H     1 <1>   0.1500 
 23 H        3.3580     0.1820    -0.2790 H     1 <1>   0.3700 
 24 H       -4.4720     1.8080    -0.9220 H     1 <1>   0.1500 
 25 H        5.6680     0.5360     1.5910 H     1 <1>   0.0800 
 26 H        7.0080     0.8100    -0.3510 H     1 <1>   0.0800 
 27 H        5.6050     1.7590    -0.7850 H     1 <1>   0.0800 
 28 H        4.6980    -1.8890     1.0270 H     1 <1>   0.0800 
 29 H        6.4100    -1.5920     0.8420 H     1 <1>   0.0800 
 30 H        6.5740    -0.3070    -2.3300 H     1 <1>   0.0800 
 31 H        4.8710     0.0980    -2.2920 H     1 <1>   0.0800 
 32 H        4.3800    -1.8760    -1.3120 H     1 <1>   0.0800 
 33 H        6.0680    -2.3380    -1.3210 H     1 <1>   0.0800 
@<TRIPOS>BOND
  1   1   2  1   
  2   1   3  1   
  3   2   4  ar  
  4   2   5  ar  
  5   3   6  1   
  6   3  17  1   
  7   3  18  1   
  8   4   7  ar  
  9   4  19  1   
 10   5   8  ar  
 11   5  20  1   
 12   6   9  2   
 13   6  10  am  
 14   7  11  ar  
 15   7  21  1   
 16   8  11  ar  
 17   8  22  1   
 18  10  12  1   
 19  10  23  1   
 20  11  24  1   
 21  12  13  1   
 22  12  14  1   
 23  12  25  1   
 24  13  15  1   
 25  13  26  1   
 26  13  27  1   
 27  14  16  1   
 28  14  28  1   
 29  14  29  1   
 30  15  16  1   
 31  15  30  1   
 32  15  31  1   
 33  16  32  1   
 34  16  33  1   
@<TRIPOS>SUBSTRUCTURE
  1 ****   1 GROUP 4 **** **** 0

# MOE 2024.06 (io_trps.svl 2023.06)
