@<TRIPOS>MOLECULE
NONAME
52 54 1 0 0 
SMALL
USER_CHARGES


@<TRIPOS>ATOM
  1 N       -0.2380    -0.0410    -0.1420 N.4   1 <1>  -0.9590 
  2 C        0.9250     0.6370    -0.7710 C.3   1 <1>   0.4230 
  3 C       -0.2410    -0.1120     1.3600 C.3   1 <1>   0.3430 
  4 C       -0.5490    -1.3830    -0.7310 C.3   1 <1>   0.3430 
  5 C        2.2510     0.0190    -0.2910 C.3   1 <1>  -0.1600 
  6 C        0.8010     2.1460    -0.5220 C.3   1 <1>  -0.1600 
  7 C       -1.5570    -0.7360     1.8900 C.3   1 <1>   0.1100 
  8 C       -1.9190    -1.8980    -0.2280 C.3   1 <1>   0.1100 
  9 C        3.4100     0.3620    -1.2390 C.3   1 <1>  -0.1600 
 10 C        1.9020     2.9960    -1.1780 C.3   1 <1>  -0.1600 
 11 N       -2.5210    -1.0090     0.8000 N.3   1 <1>  -0.8100 
 12 C        4.1250     1.6860    -0.9330 C.3   1 <1>  -0.1600 
 13 C        3.2530     2.8610    -0.4630 C.3   1 <1>  -0.1600 
 14 C       -3.8010    -1.5360     1.3210 C.3   1 <1>   0.2530 
 15 C       -4.8010    -1.7850     0.1950 C.ar  1 <1>  -0.1430 
 16 C       -5.4570    -0.7450    -0.4600 C.ar  1 <1>  -0.1430 
 17 C       -5.0610    -3.0970    -0.1810 C.ar  1 <1>  -0.1500 
 18 C       -6.3480    -1.0350    -1.4830 C.ar  1 <1>  -0.1500 
 19 C       -5.2270     0.7120    -0.0810 C.3   1 <1>  -0.0970 
 20 C       -5.9510    -3.3770    -1.2020 C.ar  1 <1>  -0.1500 
 21 C       -6.5940    -2.3440    -1.8550 C.ar  1 <1>  -0.1500 
 22 H       -1.0910     0.4990    -0.3540 H     1 <1>   0.4500 
 23 H        0.8620     0.4850    -1.8360 H     1 <1>   0.0800 
 24 H       -0.1370     0.8770     1.7730 H     1 <1>   0.0800 
 25 H        0.5930    -0.7000     1.7050 H     1 <1>   0.0800 
 26 H        0.2160    -2.0910    -0.4620 H     1 <1>   0.0800 
 27 H       -0.5760    -1.3200    -1.8070 H     1 <1>   0.0800 
 28 H        2.1570    -1.0510    -0.2890 H     1 <1>   0.0800 
 29 H        2.4900     0.3340     0.7090 H     1 <1>   0.0800 
 30 H        0.7940     2.3540     0.5330 H     1 <1>   0.0800 
 31 H       -0.1410     2.4750    -0.9270 H     1 <1>   0.0800 
 32 H       -1.9990    -0.0580     2.6000 H     1 <1>   0.0800 
 33 H       -1.3290    -1.6500     2.4130 H     1 <1>   0.0800 
 34 H       -1.8020    -2.8930     0.1670 H     1 <1>   0.0800 
 35 H       -2.5810    -1.9640    -1.0750 H     1 <1>   0.0800 
 36 H        3.0550     0.3770    -2.2560 H     1 <1>   0.0800 
 37 H        4.1470    -0.4220    -1.1850 H     1 <1>   0.0800 
 38 H        1.6000     4.0280    -1.1100 H     1 <1>   0.0800 
 39 H        2.0010     2.7660    -2.2260 H     1 <1>   0.0800 
 40 H        4.6570     1.9860    -1.8200 H     1 <1>   0.0800 
 41 H        4.8710     1.5090    -0.1760 H     1 <1>   0.0800 
 42 H        3.0980     2.7930     0.6000 H     1 <1>   0.0800 
 43 H        3.8160     3.7650    -0.6280 H     1 <1>   0.0800 
 44 H       -4.2260    -0.8300     2.0150 H     1 <1>   0.0800 
 45 H       -3.6260    -2.4530     1.8590 H     1 <1>   0.0800 
 46 H       -4.5720    -3.9130     0.3190 H     1 <1>   0.1500 
 47 H       -6.8610    -0.2420    -1.9980 H     1 <1>   0.1500 
 48 H       -5.5310     0.8790     0.9360 H     1 <1>   0.0800 
 49 H       -5.7960     1.3690    -0.7140 H     1 <1>   0.0800 
 50 H       -4.1880     0.9610    -0.1850 H     1 <1>   0.0800 
 51 H       -6.1460    -4.3960    -1.4860 H     1 <1>   0.1500 
 52 H       -7.2880    -2.5560    -2.6490 H     1 <1>   0.1500 
@<TRIPOS>BOND
  1   1   2  1   
  2   1   3  1   
  3   1   4  1   
  4   1  22  1   
  5   2   5  1   
  6   2   6  1   
  7   2  23  1   
  8   3   7  1   
  9   3  24  1   
 10   3  25  1   
 11   4   8  1   
 12   4  26  1   
 13   4  27  1   
 14   5   9  1   
 15   5  28  1   
 16   5  29  1   
 17   6  10  1   
 18   6  30  1   
 19   6  31  1   
 20   7  11  1   
 21   7  32  1   
 22   7  33  1   
 23   8  11  1   
 24   8  34  1   
 25   8  35  1   
 26   9  12  1   
 27   9  36  1   
 28   9  37  1   
 29  10  13  1   
 30  10  38  1   
 31  10  39  1   
 32  11  14  1   
 33  12  13  1   
 34  12  40  1   
 35  12  41  1   
 36  13  42  1   
 37  13  43  1   
 38  14  15  1   
 39  14  44  1   
 40  14  45  1   
 41  15  16  ar  
 42  15  17  ar  
 43  16  18  ar  
 44  16  19  1   
 45  17  20  ar  
 46  17  46  1   
 47  18  21  ar  
 48  18  47  1   
 49  19  48  1   
 50  19  49  1   
 51  19  50  1   
 52  20  21  ar  
 53  20  51  1   
 54  21  52  1   
@<TRIPOS>SUBSTRUCTURE
  1 ****   1 GROUP 4 **** **** 0

# MOE 2024.06 (io_trps.svl 2023.06)
