@<TRIPOS>MOLECULE
NONAME
46 47 1 0 0 
SMALL
USER_CHARGES


@<TRIPOS>ATOM
  1 O        0.3050    -0.9630    -1.9660 O.2   1 <1>  -0.5700 
  2 C        0.0910    -1.5600    -0.9300 C.2   1 <1>   0.7160 
  3 N        1.1040    -1.6850    -0.0270 N.am  1 <1>  -0.7300 
  4 C       -1.2150    -2.1060    -0.6410 C.2   1 <1>  -0.0860 
  5 C        2.4130    -1.0090    -0.1060 C.3   1 <1>   0.2200 
  6 C       -1.6380    -3.1330     0.1340 C.2   1 <1>  -0.0400 
  7 C       -2.4270    -1.6390    -1.1360 C.2   1 <1>   0.1080 
  8 C        3.6290    -1.8910    -0.5570 C.3   1 <1>  -0.0800 
  9 C        2.6590    -0.3100     1.2370 C.3   1 <1>  -0.1600 
 10 O       -2.9430    -3.2590     0.1220 O.3   1 <1>  -0.0190 
 11 C       -0.8780    -4.1410     0.9750 C.3   1 <1>  -0.0600 
 12 N       -3.4010    -2.3240    -0.6730 N.2   1 <1>  -0.4100 
 13 C       -2.6240    -0.4770    -2.0910 C.3   1 <1>  -0.0590 
 14 C        3.6190    -3.4480    -0.3100 C.3   1 <1>   0.0000 
 15 C        4.9560    -1.2380    -0.0670 C.3   1 <1>  -0.1600 
 16 C        3.8340     0.6810     1.1450 C.3   1 <1>  -0.1600 
 17 C        4.9850    -4.0740    -0.6720 C.3   1 <1>  -0.2400 
 18 C        3.3300    -3.8160     1.1560 C.3   1 <1>  -0.2400 
 19 C        2.6060    -4.1640    -1.2280 C.3   1 <1>  -0.2400 
 20 C        4.8650     0.2860     0.0770 C.3   1 <1>  -0.1600 
 21 H        0.9220    -2.1690     0.8480 H     1 <1>   0.3700 
 22 H        2.3210    -0.2220    -0.8370 H     1 <1>   0.0800 
 23 H        3.6460    -1.7740    -1.6270 H     1 <1>   0.0800 
 24 H        2.8830    -1.0500     1.9830 H     1 <1>   0.0800 
 25 H        1.7780     0.2260     1.5430 H     1 <1>   0.0800 
 26 H        0.1800    -4.0550     0.8380 H     1 <1>   0.0800 
 27 H       -1.1730    -5.1360     0.6930 H     1 <1>   0.0800 
 28 H       -1.1120    -3.9960     2.0150 H     1 <1>   0.0800 
 29 H       -2.1420     0.4020    -1.7060 H     1 <1>   0.0800 
 30 H       -3.6720    -0.2740    -2.2160 H     1 <1>   0.0800 
 31 H       -2.2010    -0.7190    -3.0490 H     1 <1>   0.0800 
 32 H        5.7480    -1.4660    -0.7600 H     1 <1>   0.0800 
 33 H        5.2360    -1.6380     0.8910 H     1 <1>   0.0800 
 34 H        4.3130     0.7370     2.1080 H     1 <1>   0.0800 
 35 H        3.4610     1.6650     0.9140 H     1 <1>   0.0800 
 36 H        5.7600    -3.7600     0.0030 H     1 <1>   0.0800 
 37 H        5.2700    -3.8020    -1.6730 H     1 <1>   0.0800 
 38 H        4.9410    -5.1470    -0.6190 H     1 <1>   0.0800 
 39 H        4.0720    -3.3940     1.8090 H     1 <1>   0.0800 
 40 H        3.3470    -4.8850     1.2830 H     1 <1>   0.0800 
 41 H        2.3700    -3.4630     1.4700 H     1 <1>   0.0800 
 42 H        2.7850    -3.9050    -2.2570 H     1 <1>   0.0800 
 43 H        1.5920    -3.9190    -1.0000 H     1 <1>   0.0800 
 44 H        2.6960    -5.2320    -1.1350 H     1 <1>   0.0800 
 45 H        4.5850     0.7110    -0.8730 H     1 <1>   0.0800 
 46 H        5.8280     0.6900     0.3400 H     1 <1>   0.0800 
@<TRIPOS>BOND
  1   1   2  2   
  2   2   3  am  
  3   2   4  1   
  4   3   5  1   
  5   3  21  1   
  6   4   6  2   
  7   4   7  1   
  8   5   8  1   
  9   5   9  1   
 10   5  22  1   
 11   6  10  1   
 12   6  11  1   
 13   7  12  2   
 14   7  13  1   
 15   8  14  1   
 16   8  15  1   
 17   8  23  1   
 18   9  16  1   
 19   9  24  1   
 20   9  25  1   
 21  10  12  1   
 22  11  26  1   
 23  11  27  1   
 24  11  28  1   
 25  13  29  1   
 26  13  30  1   
 27  13  31  1   
 28  14  17  1   
 29  14  18  1   
 30  14  19  1   
 31  15  20  1   
 32  15  32  1   
 33  15  33  1   
 34  16  20  1   
 35  16  34  1   
 36  16  35  1   
 37  17  36  1   
 38  17  37  1   
 39  17  38  1   
 40  18  39  1   
 41  18  40  1   
 42  18  41  1   
 43  19  42  1   
 44  19  43  1   
 45  19  44  1   
 46  20  45  1   
 47  20  46  1   
@<TRIPOS>SUBSTRUCTURE
  1 ****   3 GROUP 4 **** **** 0

# MOE 2024.06 (io_trps.svl 2023.06)
