@<TRIPOS>MOLECULE
NONAME
48 49 1 0 0 
SMALL
USER_CHARGES


@<TRIPOS>ATOM
  1 O       -0.6940    -8.2740     0.3500 O.3   1 <1>  -0.3630 
  2 C       -1.8940    -7.6420     0.2650 C.ar  1 <1>   0.0830 
  3 C        0.5100    -7.5890     0.1130 C.3   1 <1>   0.1200 
  4 C       -3.0170    -8.4030     0.5490 C.ar  1 <1>  -0.1500 
  5 C       -2.0450    -6.3020    -0.0850 C.ar  1 <1>  -0.1500 
  6 C        1.6470    -8.5990     0.2980 C.3   1 <1>   0.3430 
  7 C       -4.2780    -7.8380     0.4870 C.ar  1 <1>  -0.1500 
  8 C       -3.3080    -5.7380    -0.1460 C.ar  1 <1>  -0.1500 
  9 N        3.0020    -8.0090     0.0410 N.4   1 <1>  -0.9590 
 10 C       -4.4340    -6.5060     0.1410 C.ar  1 <1>   0.0830 
 11 C        4.0320    -9.0960    -0.0610 C.3   1 <1>   0.3430 
 12 C        3.4040    -6.9960     1.0580 C.3   1 <1>   0.3430 
 13 O       -5.7060    -6.0320     0.1050 O.3   1 <1>  -0.3630 
 14 C        5.4740    -8.5450    -0.0760 C.3   1 <1>  -0.0800 
 15 C        4.6410    -6.2360     0.5600 C.3   1 <1>  -0.1600 
 16 C       -5.9780    -4.6920    -0.2370 C.3   1 <1>   0.1200 
 17 C        5.5290    -7.0430    -0.4050 C.3   1 <1>  -0.1600 
 18 C        6.3430    -9.3370    -1.0630 C.3   1 <1>  -0.2400 
 19 C       -7.4920    -4.4840    -0.1850 C.3   1 <1>  -0.1600 
 20 C       -7.8710    -3.0430    -0.5470 C.3   1 <1>  -0.2400 
 21 H        0.5770    -6.7860     0.8240 H     1 <1>   0.0800 
 22 H        0.4880    -7.2160    -0.8960 H     1 <1>   0.0800 
 23 H       -2.9040    -9.4370     0.8180 H     1 <1>   0.1500 
 24 H       -1.2020    -5.6800    -0.3130 H     1 <1>   0.1500 
 25 H        1.4800    -9.4150    -0.3870 H     1 <1>   0.0800 
 26 H        1.6080    -8.9890     1.3020 H     1 <1>   0.0800 
 27 H       -5.1500    -8.4260     0.7080 H     1 <1>   0.1500 
 28 H       -3.3990    -4.7030    -0.4180 H     1 <1>   0.1500 
 29 H        2.9960    -7.5310    -0.8700 H     1 <1>   0.4500 
 30 H        3.8610    -9.6550    -0.9670 H     1 <1>   0.0800 
 31 H        3.9320    -9.7780     0.7680 H     1 <1>   0.0800 
 32 H        3.6400    -7.4960     1.9850 H     1 <1>   0.0800 
 33 H        2.6060    -6.2960     1.2450 H     1 <1>   0.0800 
 34 H        5.8900    -8.6890     0.9080 H     1 <1>   0.0800 
 35 H        5.2190    -5.9490     1.4220 H     1 <1>   0.0800 
 36 H        4.3320    -5.3240     0.0780 H     1 <1>   0.0800 
 37 H       -5.6040    -4.5130    -1.2300 H     1 <1>   0.0800 
 38 H       -5.4820    -4.0530     0.4720 H     1 <1>   0.0800 
 39 H        5.1920    -6.8880    -1.4160 H     1 <1>   0.0800 
 40 H        6.5440    -6.6840    -0.3470 H     1 <1>   0.0800 
 41 H        5.9810    -9.2290    -2.0710 H     1 <1>   0.0800 
 42 H        6.3490   -10.3830    -0.8100 H     1 <1>   0.0800 
 43 H        7.3600    -8.9830    -1.0310 H     1 <1>   0.0800 
 44 H       -7.8440    -4.7050     0.8070 H     1 <1>   0.0800 
 45 H       -7.9650    -5.1600    -0.8770 H     1 <1>   0.0800 
 46 H       -7.4210    -2.3500     0.1430 H     1 <1>   0.0800 
 47 H       -8.9390    -2.9230    -0.5030 H     1 <1>   0.0800 
 48 H       -7.5420    -2.8060    -1.5440 H     1 <1>   0.0800 
@<TRIPOS>BOND
  1   1   2  1   
  2   1   3  1   
  3   2   4  ar  
  4   2   5  ar  
  5   3   6  1   
  6   3  21  1   
  7   3  22  1   
  8   4   7  ar  
  9   4  23  1   
 10   5   8  ar  
 11   5  24  1   
 12   6   9  1   
 13   6  25  1   
 14   6  26  1   
 15   7  10  ar  
 16   7  27  1   
 17   8  10  ar  
 18   8  28  1   
 19   9  11  1   
 20   9  12  1   
 21   9  29  1   
 22  10  13  1   
 23  11  14  1   
 24  11  30  1   
 25  11  31  1   
 26  12  15  1   
 27  12  32  1   
 28  12  33  1   
 29  13  16  1   
 30  14  17  1   
 31  14  18  1   
 32  14  34  1   
 33  15  17  1   
 34  15  35  1   
 35  15  36  1   
 36  16  19  1   
 37  16  37  1   
 38  16  38  1   
 39  17  39  1   
 40  17  40  1   
 41  18  41  1   
 42  18  42  1   
 43  18  43  1   
 44  19  20  1   
 45  19  44  1   
 46  19  45  1   
 47  20  46  1   
 48  20  47  1   
 49  20  48  1   
@<TRIPOS>SUBSTRUCTURE
  1 ****   3 GROUP 4 **** **** 0

# MOE 2024.06 (io_trps.svl 2023.06)
