@<TRIPOS>MOLECULE
NONAME
46 47 1 0 0 
SMALL
USER_CHARGES


@<TRIPOS>ATOM
  1 F       -0.4860     3.4870    -1.2280 F     1 <1>  -0.1900 
  2 C       -1.7300     3.1050    -1.1590 C.ar  1 <1>   0.1900 
  3 C       -2.0820     2.1330    -0.2440 C.ar  1 <1>  -0.1500 
  4 C       -2.6570     3.6820    -2.0040 C.ar  1 <1>  -0.1500 
  5 C       -3.4050     1.7320    -0.1750 C.ar  1 <1>  -0.1500 
  6 C       -3.9750     3.2700    -1.9210 C.ar  1 <1>  -0.1500 
  7 C       -4.3860     2.2920    -1.0060 C.ar  1 <1>   0.0860 
  8 C       -5.7800     1.8910    -0.9410 C.2   1 <1>   0.5440 
  9 O       -6.5440     2.0780    -1.8650 O.2   1 <1>  -0.5700 
 10 N       -6.2990     1.2950     0.1840 N.am  1 <1>  -0.1800 
 11 C       -6.8410     2.0850     1.1580 C.2   1 <1>   0.6900 
 12 C       -6.4840    -0.0640     0.2070 C.2   1 <1>   0.5690 
 13 O       -6.4390     3.2020     1.3800 O.2   1 <1>  -0.5700 
 14 N       -7.8470     1.5910     1.9080 N.am  1 <1>  -0.4900 
 15 O       -5.6580    -0.7890    -0.2930 O.2   1 <1>  -0.5700 
 16 C       -7.7360    -0.6910     0.8640 C.3   1 <1>   0.1220 
 17 C       -8.3940     0.3600     1.7870 C.2   1 <1>   0.5690 
 18 C       -8.6840    -1.0460    -0.3240 C.3   1 <1>  -0.1600 
 19 C       -7.2630    -1.9630     1.6500 C.3   1 <1>  -0.1600 
 20 O       -9.4020     0.1340     2.4030 O.2   1 <1>  -0.5700 
 21 C       -9.9440    -1.8780    -0.0120 C.3   1 <1>  -0.1600 
 22 C       -8.1300    -2.4830     2.8120 C.3   1 <1>  -0.2400 
 23 C      -10.8310    -2.1250    -1.2470 C.3   1 <1>  -0.0800 
 24 C      -11.4810    -0.8340    -1.7660 C.3   1 <1>  -0.2400 
 25 C      -11.9300    -3.1350    -0.8960 C.3   1 <1>  -0.2400 
 26 H       -1.3320     1.7020     0.3950 H     1 <1>   0.1500 
 27 H       -2.3490     4.4350    -2.7080 H     1 <1>   0.1500 
 28 H       -3.6700     0.9660     0.5320 H     1 <1>   0.1500 
 29 H       -4.7070     3.7130    -2.5760 H     1 <1>   0.1500 
 30 H       -8.2950     2.2350     2.5560 H     1 <1>   0.3700 
 31 H       -8.1190    -1.5920    -1.0620 H     1 <1>   0.0800 
 32 H       -8.9820    -0.1220    -0.7860 H     1 <1>   0.0800 
 33 H       -6.2930    -1.7620     2.0730 H     1 <1>   0.0800 
 34 H       -7.1200    -2.7660     0.9460 H     1 <1>   0.0800 
 35 H      -10.5340    -1.4020     0.7510 H     1 <1>   0.0800 
 36 H       -9.6340    -2.8380     0.3600 H     1 <1>   0.0800 
 37 H       -8.1180    -1.7910     3.6360 H     1 <1>   0.0800 
 38 H       -7.7380    -3.4200     3.1650 H     1 <1>   0.0800 
 39 H       -9.1510    -2.6380     2.5200 H     1 <1>   0.0800 
 40 H      -10.2280    -2.5490    -2.0330 H     1 <1>   0.0800 
 41 H      -12.0300    -0.3440    -0.9810 H     1 <1>   0.0800 
 42 H      -12.1620    -1.0580    -2.5690 H     1 <1>   0.0800 
 43 H      -10.7420    -0.1550    -2.1500 H     1 <1>   0.0800 
 44 H      -12.5590    -2.7520    -0.1110 H     1 <1>   0.0800 
 45 H      -11.4970    -4.0630    -0.5670 H     1 <1>   0.0800 
 46 H      -12.5410    -3.3390    -1.7570 H     1 <1>   0.0800 
@<TRIPOS>BOND
  1   1   2  1   
  2   2   3  ar  
  3   2   4  ar  
  4   3   5  ar  
  5   3  26  1   
  6   4   6  ar  
  7   4  27  1   
  8   5   7  ar  
  9   5  28  1   
 10   6   7  ar  
 11   6  29  1   
 12   7   8  1   
 13   8   9  2   
 14   8  10  am  
 15  10  11  am  
 16  10  12  am  
 17  11  13  2   
 18  11  14  am  
 19  12  15  2   
 20  12  16  1   
 21  14  17  am  
 22  14  30  1   
 23  16  17  1   
 24  16  18  1   
 25  16  19  1   
 26  17  20  2   
 27  18  21  1   
 28  18  31  1   
 29  18  32  1   
 30  19  22  1   
 31  19  33  1   
 32  19  34  1   
 33  21  23  1   
 34  21  35  1   
 35  21  36  1   
 36  22  37  1   
 37  22  38  1   
 38  22  39  1   
 39  23  24  1   
 40  23  25  1   
 41  23  40  1   
 42  24  41  1   
 43  24  42  1   
 44  24  43  1   
 45  25  44  1   
 46  25  45  1   
 47  25  46  1   
@<TRIPOS>SUBSTRUCTURE
  1 ****  10 GROUP 4 **** **** 0

# MOE 2024.06 (io_trps.svl 2023.06)
