@<TRIPOS>MOLECULE
NONAME
40 41 1 0 0 
SMALL
USER_CHARGES


@<TRIPOS>ATOM
  1 O       -0.1970     0.0500    -0.1790 O.3   1 <1>  -0.1650 
  2 C       -0.1570    -1.2780     0.0040 C.ar  1 <1>   0.7020 
  3 C        0.9330     0.8000    -0.2570 C.ar  1 <1>   0.3920 
  4 N       -1.3210    -1.8470     0.1590 N.ar  1 <1>  -0.6200 
  5 N        1.0020    -1.8850     0.0180 N.ar  1 <1>  -0.6200 
  6 N        1.1560     1.4040    -1.4190 N.ar  1 <1>  -0.3100 
  7 C        1.7550     0.9160     0.8550 C.ar  1 <1>  -0.1500 
  8 C       -1.2540    -3.1430     0.3210 C.ar  1 <1>   0.7200 
  9 C        0.9180    -3.1740     0.1910 C.ar  1 <1>   0.7200 
 10 N        2.2340     2.1440    -1.5570 N.ar  1 <1>  -0.3100 
 11 C        2.8730     1.6860     0.7160 C.ar  1 <1>  -0.1500 
 12 N       -0.1720    -3.8660     0.3450 N.ar  1 <1>  -0.6200 
 13 N       -2.3910    -3.8550     0.4940 N.pl3 1 <1>  -0.8690 
 14 N        2.0670    -3.8850     0.2080 N.pl3 1 <1>  -0.8690 
 15 C        3.0920     2.2890    -0.5190 C.ar  1 <1>   0.1390 
 16 C       -3.7740    -3.5400     0.1430 C.3   1 <1>   0.3690 
 17 C        3.3700    -3.3580    -0.2400 C.3   1 <1>   0.2090 
 18 O        4.1210     2.9880    -0.6700 O.3   1 <1>  -0.8290 
 19 C       -3.8670    -3.1090    -1.3210 C.3   1 <1>  -0.2400 
 20 C       -4.5600    -4.8340     0.3400 C.3   1 <1>  -0.2400 
 21 C       -4.3180    -2.4680     1.0860 C.3   1 <1>  -0.2400 
 22 C        4.4320    -4.4190     0.0170 C.3   1 <1>  -0.2400 
 23 H        1.5200     0.4180     1.7740 H     1 <1>   0.1500 
 24 H        3.5880     1.8490     1.4970 H     1 <1>   0.1500 
 25 H       -2.2090    -4.8500     0.5810 H     1 <1>   0.4000 
 26 H        1.9380    -4.8930     0.1680 H     1 <1>   0.4000 
 27 H        3.6040    -2.4570     0.3060 H     1 <1>   0.0800 
 28 H        3.3220    -3.1170    -1.2890 H     1 <1>   0.0800 
 29 H       -3.4210    -3.8490    -1.9590 H     1 <1>   0.0800 
 30 H       -3.3710    -2.1690    -1.4750 H     1 <1>   0.0800 
 31 H       -4.8960    -2.9870    -1.6050 H     1 <1>   0.0800 
 32 H       -5.5980    -4.6750     0.1090 H     1 <1>   0.0800 
 33 H       -4.1870    -5.6060    -0.3090 H     1 <1>   0.0800 
 34 H       -4.4900    -5.1640     1.3610 H     1 <1>   0.0800 
 35 H       -3.8130    -1.5330     0.9330 H     1 <1>   0.0800 
 36 H       -4.1880    -2.7710     2.1090 H     1 <1>   0.0800 
 37 H       -5.3650    -2.3110     0.9040 H     1 <1>   0.0800 
 38 H        4.4750    -4.6530     1.0650 H     1 <1>   0.0800 
 39 H        5.3920    -4.0440    -0.2890 H     1 <1>   0.0800 
 40 H        4.2160    -5.3080    -0.5470 H     1 <1>   0.0800 
@<TRIPOS>BOND
  1   1   2  1   
  2   1   3  1   
  3   2   4  ar  
  4   2   5  ar  
  5   3   6  ar  
  6   3   7  ar  
  7   4   8  ar  
  8   5   9  ar  
  9   6  10  ar  
 10   7  11  ar  
 11   7  23  1   
 12   8  12  ar  
 13   8  13  1   
 14   9  12  ar  
 15   9  14  1   
 16  10  15  ar  
 17  11  15  ar  
 18  11  24  1   
 19  13  16  1   
 20  13  25  1   
 21  14  17  1   
 22  14  26  1   
 23  15  18  1   
 24  16  19  1   
 25  16  20  1   
 26  16  21  1   
 27  17  22  1   
 28  17  27  1   
 29  17  28  1   
 30  19  29  1   
 31  19  30  1   
 32  19  31  1   
 33  20  32  1   
 34  20  33  1   
 35  20  34  1   
 36  21  35  1   
 37  21  36  1   
 38  21  37  1   
 39  22  38  1   
 40  22  39  1   
 41  22  40  1   
@<TRIPOS>SUBSTRUCTURE
  1 ****   2 GROUP 4 **** **** 0

# MOE 2024.06 (io_trps.svl 2023.06)
