@<TRIPOS>MOLECULE
NONAME
50 52 1 0 0 
SMALL
USER_CHARGES


@<TRIPOS>ATOM
  1 O       -0.8140    -0.9550    -1.5050 O.2   1 <1>  -0.5700 
  2 C       -0.3880    -2.0910    -1.4120 C.2   1 <1>   0.6900 
  3 N       -1.1020    -3.1410    -1.9220 N.am  1 <1>  -0.6600 
  4 N        0.8130    -2.3580    -0.8230 N.am  1 <1>  -0.5470 
  5 C       -1.2680    -4.4210    -1.1620 C.3   1 <1>   0.1400 
  6 C       -2.2550    -2.8820    -2.8380 C.3   1 <1>   0.1400 
  7 C        1.6840    -1.5490    -0.0810 C.ar  1 <1>   0.1170 
  8 C       -2.6030    -4.4330    -0.3940 C.3   1 <1>   0.2090 
  9 C       -3.5790    -2.8820    -2.0580 C.3   1 <1>   0.2090 
 10 C        3.0290    -1.8960    -0.0110 C.ar  1 <1>  -0.1500 
 11 C        1.2550    -0.4200     0.6090 C.ar  1 <1>  -0.1500 
 12 N       -3.7610    -4.1580    -1.3010 N.pl3 1 <1>  -0.8380 
 13 C        3.9290    -1.1410     0.7230 C.ar  1 <1>  -0.1440 
 14 C        2.1460     0.3410     1.3430 C.ar  1 <1>  -0.1500 
 15 C       -5.0280    -4.3100    -0.7170 C.ar  1 <1>   0.1000 
 16 C        3.4810    -0.0180     1.4000 C.ar  1 <1>  -0.1500 
 17 C        5.3960    -1.5240     0.7900 C.3   1 <1>  -0.0970 
 18 C       -5.4830    -3.5810     0.3960 C.ar  1 <1>   0.0820 
 19 C       -5.8910    -5.2350    -1.2870 C.ar  1 <1>  -0.1500 
 20 O       -4.6780    -2.6640     0.9950 O.3   1 <1>  -0.3620 
 21 C       -6.7530    -3.7950     0.9080 C.ar  1 <1>  -0.1500 
 22 C       -7.1620    -5.4430    -0.7800 C.ar  1 <1>  -0.1500 
 23 C       -5.0930    -1.3210     0.9360 C.3   1 <1>   0.1200 
 24 C       -7.5950    -4.7240     0.3190 C.ar  1 <1>  -0.1500 
 25 C       -3.8930    -0.4450     1.2840 C.3   1 <1>  -0.2400 
 26 H        1.1710    -3.2700    -1.0820 H     1 <1>   0.3700 
 27 H       -0.4650    -4.5560    -0.4620 H     1 <1>   0.0800 
 28 H       -1.2540    -5.2460    -1.8510 H     1 <1>   0.0800 
 29 H       -2.2900    -3.6480    -3.5920 H     1 <1>   0.0800 
 30 H       -2.1310    -1.9350    -3.3340 H     1 <1>   0.0800 
 31 H       -2.5580    -3.6900     0.3820 H     1 <1>   0.0800 
 32 H       -2.7420    -5.3930     0.0730 H     1 <1>   0.0800 
 33 H       -4.4000    -2.7550    -2.7430 H     1 <1>   0.0800 
 34 H       -3.5800    -2.0500    -1.3760 H     1 <1>   0.0800 
 35 H        3.3730    -2.7640    -0.5410 H     1 <1>   0.1500 
 36 H        0.2200    -0.1330     0.5750 H     1 <1>   0.1500 
 37 H        1.8000     1.2130     1.8680 H     1 <1>   0.1500 
 38 H        4.1690     0.5800     1.9720 H     1 <1>   0.1500 
 39 H        5.5650    -2.4870     0.3440 H     1 <1>   0.0800 
 40 H        5.7190    -1.5620     1.8150 H     1 <1>   0.0800 
 41 H        5.9870    -0.7930     0.2670 H     1 <1>   0.0800 
 42 H       -5.5500    -5.7940    -2.1390 H     1 <1>   0.1500 
 43 H       -7.0820    -3.2440     1.7690 H     1 <1>   0.1500 
 44 H       -7.8110    -6.1670    -1.2410 H     1 <1>   0.1500 
 45 H       -5.8930    -1.1790     1.6410 H     1 <1>   0.0800 
 46 H       -5.4410    -1.1130    -0.0610 H     1 <1>   0.0800 
 47 H       -8.5810    -4.8880     0.7180 H     1 <1>   0.1500 
 48 H       -3.5450    -0.6700     2.2760 H     1 <1>   0.0800 
 49 H       -4.1740     0.5910     1.2440 H     1 <1>   0.0800 
 50 H       -3.0960    -0.6110     0.5800 H     1 <1>   0.0800 
@<TRIPOS>BOND
  1   1   2  2   
  2   2   3  am  
  3   2   4  am  
  4   3   5  1   
  5   3   6  1   
  6   4   7  1   
  7   4  26  1   
  8   5   8  1   
  9   5  27  1   
 10   5  28  1   
 11   6   9  1   
 12   6  29  1   
 13   6  30  1   
 14   7  10  ar  
 15   7  11  ar  
 16   8  12  1   
 17   8  31  1   
 18   8  32  1   
 19   9  12  1   
 20   9  33  1   
 21   9  34  1   
 22  10  13  ar  
 23  10  35  1   
 24  11  14  ar  
 25  11  36  1   
 26  12  15  1   
 27  13  16  ar  
 28  13  17  1   
 29  14  16  ar  
 30  14  37  1   
 31  15  18  ar  
 32  15  19  ar  
 33  16  38  1   
 34  17  39  1   
 35  17  40  1   
 36  17  41  1   
 37  18  20  1   
 38  18  21  ar  
 39  19  22  ar  
 40  19  42  1   
 41  20  23  1   
 42  21  24  ar  
 43  21  43  1   
 44  22  24  ar  
 45  22  44  1   
 46  23  25  1   
 47  23  45  1   
 48  23  46  1   
 49  24  47  1   
 50  25  48  1   
 51  25  49  1   
 52  25  50  1   
@<TRIPOS>SUBSTRUCTURE
  1 ****   3 GROUP 4 **** **** 0

# MOE 2024.06 (io_trps.svl 2023.06)
