@<TRIPOS>MOLECULE
NONAME
50 53 1 0 0 
SMALL
USER_CHARGES


@<TRIPOS>ATOM
  1 S       -0.0140    -0.5830     0.1830 S.3   1 <1>  -0.0800 
  2 C        1.1170     0.7560     0.2000 C.2   1 <1>  -0.0450 
  3 C       -1.3760     0.5130     0.2340 C.2   1 <1>  -0.1400 
  4 C        2.5250     0.6670     0.1770 C.2   1 <1>   0.7150 
  5 C        0.4590     1.9380     0.2430 C.2   1 <1>   0.1250 
  6 C       -0.9850     1.8200     0.2700 C.2   1 <1>  -0.0860 
  7 C       -2.7350    -0.1670     0.2240 C.3   1 <1>  -0.0600 
  8 O        3.1240    -0.4000     0.1250 O.2   1 <1>  -0.5700 
  9 N        3.2030     1.8720     0.2160 N.am  1 <1>  -0.4200 
 10 N        1.1840     3.1070     0.2570 N.2   1 <1>  -0.5750 
 11 C       -1.8640     2.9770     0.3330 C.2   1 <1>   0.7160 
 12 C        2.4730     3.0490     0.2430 C.2   1 <1>   0.4490 
 13 C        4.6960     1.8680     0.2250 C.3   1 <1>   0.1400 
 14 O       -3.0200     2.8760     0.6980 O.2   1 <1>  -0.5700 
 15 N       -1.4080     4.2070    -0.0190 N.am  1 <1>  -0.7300 
 16 C        3.2140     4.3810     0.2470 C.3   1 <1>  -0.0990 
 17 C        5.2610     2.4140    -1.0910 C.3   1 <1>  -0.1600 
 18 C       -2.1310     5.4820     0.0630 C.3   1 <1>   0.2200 
 19 C        3.9660     4.6490    -1.0660 C.3   1 <1>  -0.1600 
 20 C        5.3290     3.9480    -1.1450 C.3   1 <1>  -0.1600 
 21 C       -2.0290     6.1930    -1.2900 C.3   1 <1>  -0.1600 
 22 C       -1.5120     6.3250     1.1820 C.3   1 <1>  -0.1600 
 23 C       -2.6700     7.5880    -1.2340 C.3   1 <1>  -0.1600 
 24 C       -2.1510     7.7210     1.2440 C.3   1 <1>  -0.1600 
 25 C       -2.0560     8.4360    -0.1110 C.3   1 <1>  -0.1600 
 26 H       -2.7910    -0.8560    -0.5990 H     1 <1>   0.0800 
 27 H       -3.5350     0.5420     0.1200 H     1 <1>   0.0800 
 28 H       -2.8760    -0.7100     1.1410 H     1 <1>   0.0800 
 29 H        5.0650     0.8660     0.3630 H     1 <1>   0.0800 
 30 H        5.0570     2.4450     1.0590 H     1 <1>   0.0800 
 31 H       -0.3970     4.2680    -0.1730 H     1 <1>   0.3700 
 32 H        3.8790     4.4350     1.0890 H     1 <1>   0.0800 
 33 H        2.4890     5.1660     0.3780 H     1 <1>   0.0800 
 34 H        4.6950     2.0280    -1.9220 H     1 <1>   0.0800 
 35 H        6.2660     2.0430    -1.1950 H     1 <1>   0.0800 
 36 H       -3.1690     5.2990     0.2880 H     1 <1>   0.0800 
 37 H        4.1350     5.7090    -1.1490 H     1 <1>   0.0800 
 38 H        3.3520     4.3580    -1.9020 H     1 <1>   0.0800 
 39 H        5.8010     4.2330    -2.0700 H     1 <1>   0.0800 
 40 H        5.9590     4.3050    -0.3480 H     1 <1>   0.0800 
 41 H       -2.5270     5.6020    -2.0390 H     1 <1>   0.0800 
 42 H       -0.9940     6.2930    -1.5670 H     1 <1>   0.0800 
 43 H       -0.4550     6.4300     1.0110 H     1 <1>   0.0800 
 44 H       -1.6580     5.8250     2.1230 H     1 <1>   0.0800 
 45 H       -3.7280     7.4860    -1.0650 H     1 <1>   0.0800 
 46 H       -2.5330     8.0850    -2.1790 H     1 <1>   0.0800 
 47 H       -1.6590     8.3100     1.9990 H     1 <1>   0.0800 
 48 H       -3.1860     7.6250     1.5230 H     1 <1>   0.0800 
 49 H       -2.5650     9.3820    -0.0550 H     1 <1>   0.0800 
 50 H       -1.0220     8.6320    -0.3390 H     1 <1>   0.0800 
@<TRIPOS>BOND
  1   1   2  1   
  2   1   3  1   
  3   2   4  1   
  4   2   5  2   
  5   3   6  2   
  6   3   7  1   
  7   4   8  2   
  8   4   9  am  
  9   5   6  1   
 10   5  10  1   
 11   6  11  1   
 12   7  26  1   
 13   7  27  1   
 14   7  28  1   
 15   9  12  1   
 16   9  13  1   
 17  10  12  2   
 18  11  14  2   
 19  11  15  am  
 20  12  16  1   
 21  13  17  1   
 22  13  29  1   
 23  13  30  1   
 24  15  18  1   
 25  15  31  1   
 26  16  19  1   
 27  16  32  1   
 28  16  33  1   
 29  17  20  1   
 30  17  34  1   
 31  17  35  1   
 32  18  21  1   
 33  18  22  1   
 34  18  36  1   
 35  19  20  1   
 36  19  37  1   
 37  19  38  1   
 38  20  39  1   
 39  20  40  1   
 40  21  23  1   
 41  21  41  1   
 42  21  42  1   
 43  22  24  1   
 44  22  43  1   
 45  22  44  1   
 46  23  25  1   
 47  23  45  1   
 48  23  46  1   
 49  24  25  1   
 50  24  47  1   
 51  24  48  1   
 52  25  49  1   
 53  25  50  1   
@<TRIPOS>SUBSTRUCTURE
  1 ****  10 GROUP 4 **** **** 0

# MOE 2024.06 (io_trps.svl 2023.06)
