@<TRIPOS>MOLECULE
NONAME
48 49 1 0 0 
SMALL
USER_CHARGES


@<TRIPOS>ATOM
  1 O       -7.1180    -1.9410     0.8260 O.3   1 <1>  -0.3630 
  2 C       -8.4370    -1.7060     0.6130 C.ar  1 <1>   0.0830 
  3 C       -6.3440    -2.6680    -0.1050 C.3   1 <1>   0.1200 
  4 C       -9.1230    -2.1100    -0.5290 C.ar  1 <1>  -0.1500 
  5 C       -9.1170    -1.0210     1.6070 C.ar  1 <1>  -0.1500 
  6 C       -4.9100    -2.7630     0.4300 C.3   1 <1>   0.2000 
  7 C      -10.4710    -1.8270    -0.6630 C.ar  1 <1>  -0.1500 
  8 C      -10.4650    -0.7400     1.4690 C.ar  1 <1>  -0.1500 
  9 O       -4.4610    -1.4820     0.7560 O.3   1 <1>  -0.6800 
 10 C       -3.9350    -3.3900    -0.5900 C.3   1 <1>   0.3430 
 11 C      -11.1500    -1.1430     0.3330 C.ar  1 <1>  -0.1440 
 12 N       -2.5300    -2.9770    -0.2920 N.4   1 <1>  -0.9590 
 13 C      -12.6310    -0.8330     0.1810 C.3   1 <1>  -0.0170 
 14 C       -1.6630    -2.9620    -1.5030 C.3   1 <1>   0.3430 
 15 C       -1.9310    -3.7370     0.8420 C.3   1 <1>   0.3430 
 16 C      -12.8280     0.5200    -0.5130 C.3   1 <1>  -0.1600 
 17 C       -0.3100    -2.3350    -1.1600 C.3   1 <1>  -0.1600 
 18 C       -0.5830    -3.1210     1.2190 C.3   1 <1>  -0.1600 
 19 C      -14.3130     0.8570    -0.6790 C.3   1 <1>  -0.2400 
 20 C        0.3680    -3.0490     0.0170 C.3   1 <1>  -0.1600 
 21 H       -6.3670    -2.1460    -1.0460 H     1 <1>   0.0800 
 22 H       -6.7780    -3.6470    -0.2140 H     1 <1>   0.0800 
 23 H       -8.6360    -2.6400    -1.3240 H     1 <1>   0.1500 
 24 H       -8.5900    -0.7080     2.4890 H     1 <1>   0.1500 
 25 H       -4.9140    -3.3480     1.3330 H     1 <1>   0.0800 
 26 H      -10.9950    -2.1400    -1.5490 H     1 <1>   0.1500 
 27 H      -10.9790    -0.2060     2.2490 H     1 <1>   0.1500 
 28 H       -5.1970    -1.0020     1.2060 H     1 <1>   0.4000 
 29 H       -4.2080    -3.0340    -1.5700 H     1 <1>   0.0800 
 30 H       -4.0290    -4.4640    -0.5900 H     1 <1>   0.0800 
 31 H       -2.6390    -1.9990     0.0430 H     1 <1>   0.4500 
 32 H      -13.0970    -0.8160     1.1510 H     1 <1>   0.0800 
 33 H      -13.1040    -1.6100    -0.3940 H     1 <1>   0.0800 
 34 H       -2.1330    -2.3900    -2.2870 H     1 <1>   0.0800 
 35 H       -1.5130    -3.9690    -1.8570 H     1 <1>   0.0800 
 36 H       -1.7890    -4.7670     0.5570 H     1 <1>   0.0800 
 37 H       -2.5880    -3.7040     1.6970 H     1 <1>   0.0800 
 38 H      -12.3560     0.4950    -1.4810 H     1 <1>   0.0800 
 39 H      -12.3490     1.2900     0.0670 H     1 <1>   0.0800 
 40 H       -0.4510    -1.2940    -0.9240 H     1 <1>   0.0800 
 41 H        0.3300    -2.3850    -2.0240 H     1 <1>   0.0800 
 42 H       -0.1310    -3.7110     1.9970 H     1 <1>   0.0800 
 43 H       -0.7440    -2.1340     1.6180 H     1 <1>   0.0800 
 44 H      -14.8050     0.1100    -1.2770 H     1 <1>   0.0800 
 45 H      -14.4200     1.8100    -1.1680 H     1 <1>   0.0800 
 46 H      -14.7970     0.9100     0.2800 H     1 <1>   0.0800 
 47 H        1.2670    -2.5240     0.2930 H     1 <1>   0.0800 
 48 H        0.6490    -4.0460    -0.2800 H     1 <1>   0.0800 
@<TRIPOS>BOND
  1   1   2  1   
  2   1   3  1   
  3   2   4  ar  
  4   2   5  ar  
  5   3   6  1   
  6   3  21  1   
  7   3  22  1   
  8   4   7  ar  
  9   4  23  1   
 10   5   8  ar  
 11   5  24  1   
 12   6   9  1   
 13   6  10  1   
 14   6  25  1   
 15   7  11  ar  
 16   7  26  1   
 17   8  11  ar  
 18   8  27  1   
 19   9  28  1   
 20  10  12  1   
 21  10  29  1   
 22  10  30  1   
 23  11  13  1   
 24  12  14  1   
 25  12  15  1   
 26  12  31  1   
 27  13  16  1   
 28  13  32  1   
 29  13  33  1   
 30  14  17  1   
 31  14  34  1   
 32  14  35  1   
 33  15  18  1   
 34  15  36  1   
 35  15  37  1   
 36  16  19  1   
 37  16  38  1   
 38  16  39  1   
 39  17  20  1   
 40  17  40  1   
 41  17  41  1   
 42  18  20  1   
 43  18  42  1   
 44  18  43  1   
 45  19  44  1   
 46  19  45  1   
 47  19  46  1   
 48  20  47  1   
 49  20  48  1   
@<TRIPOS>SUBSTRUCTURE
  1 ****   3 GROUP 4 **** **** 0

# MOE 2024.06 (io_trps.svl 2023.06)
