@<TRIPOS>MOLECULE
NONAME
46 46 1 0 0 
SMALL
USER_CHARGES


@<TRIPOS>ATOM
  1 S        0.4540     0.9310     1.4130 S.o2  1 <1>   1.4470 
  2 O        1.1680     2.1720     1.6020 O.2   1 <1>  -0.6500 
  3 O        0.6130    -0.1440     2.3650 O.2   1 <1>  -0.6500 
  4 N        0.9580     0.3910    -0.0940 N.am  1 <1>  -0.9140 
  5 C       -1.3090     1.2680     1.1570 C.ar  1 <1>  -0.0090 
  6 C        2.1750    -0.4130    -0.0840 C.3   1 <1>   0.2760 
  7 C       -2.1040     0.3980     0.4220 C.ar  1 <1>  -0.1500 
  8 C       -1.9110     2.3940     1.7000 C.ar  1 <1>  -0.1500 
  9 C        3.2400     0.2940    -0.9730 C.3   1 <1>  -0.0800 
 10 C        1.8430    -1.8690    -0.5300 C.3   1 <1>  -0.0800 
 11 C       -3.4630     0.6260     0.2150 C.ar  1 <1>   0.0830 
 12 C       -3.2580     2.6410     1.5110 C.ar  1 <1>  -0.1500 
 13 C        4.5720    -0.4770    -1.0240 C.3   1 <1>  -0.2400 
 14 C        3.5470     1.7280    -0.4970 C.3   1 <1>  -0.2400 
 15 C        1.2360    -1.9690    -1.9430 C.3   1 <1>  -0.2400 
 16 C        0.9210    -2.5940     0.4640 C.3   1 <1>  -0.2400 
 17 O       -4.2110    -0.2420    -0.5280 O.3   1 <1>  -0.3630 
 18 C       -4.0500     1.7740     0.7780 C.ar  1 <1>   0.0830 
 19 C       -3.6670    -1.4010    -1.1230 C.3   1 <1>   0.0400 
 20 O       -5.3570     2.1570     0.6900 O.3   1 <1>  -0.3630 
 21 C       -6.3800     1.3250     0.1920 C.3   1 <1>   0.0400 
 22 H        1.2190     1.2550    -0.5620 H     1 <1>   0.4200 
 23 H        2.5800    -0.4590     0.9150 H     1 <1>   0.0800 
 24 H       -1.6240    -0.4680     0.0100 H     1 <1>   0.1500 
 25 H       -1.3200     3.0860     2.2770 H     1 <1>   0.1500 
 26 H        2.8660     0.3590    -1.9800 H     1 <1>   0.0800 
 27 H        2.7590    -2.4310    -0.5300 H     1 <1>   0.0800 
 28 H       -3.7080     3.5190     1.9380 H     1 <1>   0.1500 
 29 H        4.9480    -0.6490    -0.0300 H     1 <1>   0.0800 
 30 H        5.3100     0.0820    -1.5730 H     1 <1>   0.0800 
 31 H        4.4570    -1.4220    -1.5220 H     1 <1>   0.0800 
 32 H        3.8490     1.7260     0.5370 H     1 <1>   0.0800 
 33 H        2.6940     2.3730    -0.6010 H     1 <1>   0.0800 
 34 H        4.3430     2.1580    -1.0800 H     1 <1>   0.0800 
 35 H        0.3170    -1.4140    -2.0020 H     1 <1>   0.0800 
 36 H        1.9170    -1.5890    -2.6820 H     1 <1>   0.0800 
 37 H        1.0280    -2.9960    -2.1860 H     1 <1>   0.0800 
 38 H       -0.0490    -2.1350     0.4950 H     1 <1>   0.0800 
 39 H        1.3430    -2.5660     1.4530 H     1 <1>   0.0800 
 40 H        0.8000    -3.6250     0.1810 H     1 <1>   0.0800 
 41 H       -4.4560    -1.9060    -1.6510 H     1 <1>   0.0800 
 42 H       -3.2780    -2.0420    -0.3510 H     1 <1>   0.0800 
 43 H       -2.8940    -1.1110    -1.8130 H     1 <1>   0.0800 
 44 H       -7.3210     1.8160     0.3580 H     1 <1>   0.0800 
 45 H       -6.3550     0.3880     0.7190 H     1 <1>   0.0800 
 46 H       -6.2260     1.1790    -0.8620 H     1 <1>   0.0800 
@<TRIPOS>BOND
  1   1   2  2   
  2   1   3  2   
  3   1   4  am  
  4   1   5  1   
  5   4   6  1   
  6   4  22  1   
  7   5   7  ar  
  8   5   8  ar  
  9   6   9  1   
 10   6  10  1   
 11   6  23  1   
 12   7  11  ar  
 13   7  24  1   
 14   8  12  ar  
 15   8  25  1   
 16   9  13  1   
 17   9  14  1   
 18   9  26  1   
 19  10  15  1   
 20  10  16  1   
 21  10  27  1   
 22  11  17  1   
 23  11  18  ar  
 24  12  18  ar  
 25  12  28  1   
 26  13  29  1   
 27  13  30  1   
 28  13  31  1   
 29  14  32  1   
 30  14  33  1   
 31  14  34  1   
 32  15  35  1   
 33  15  36  1   
 34  15  37  1   
 35  16  38  1   
 36  16  39  1   
 37  16  40  1   
 38  17  19  1   
 39  18  20  1   
 40  19  41  1   
 41  19  42  1   
 42  19  43  1   
 43  20  21  1   
 44  21  44  1   
 45  21  45  1   
 46  21  46  1   
@<TRIPOS>SUBSTRUCTURE
  1 ****   5 GROUP 4 **** **** 0

# MOE 2024.06 (io_trps.svl 2023.06)
