@<TRIPOS>MOLECULE
NONAME
41 42 1 0 0 
SMALL
USER_CHARGES


@<TRIPOS>ATOM
  1 S       -0.4700     0.0110     0.0200 S.3   1 <1>  -0.2860 
  2 C        1.1540    -0.7110    -0.2460 C.2   1 <1>   0.2420 
  3 C       -1.4600    -0.7000    -1.3880 C.3   1 <1>   0.1310 
  4 N        1.4090    -1.5480    -1.1850 N.2   1 <1>  -0.3380 
  5 N        2.2060    -0.4280     0.5200 N.pl3 1 <1>   0.0480 
  6 C       -2.9190    -0.2790    -1.3180 C.2   1 <1>   0.5690 
  7 N        2.7030    -1.8550    -1.0510 N.2   1 <1>  -0.3380 
  8 C        3.1600    -1.1880    -0.0400 C.2   1 <1>   0.0060 
  9 C        2.2760     0.4830     1.6810 C.3   1 <1>   0.0160 
 10 O       -3.5590    -0.2970    -2.3400 O.2   1 <1>  -0.5700 
 11 N       -3.4360     0.0950    -0.1050 N.am  1 <1>  -0.5470 
 12 C        4.5970    -1.2400     0.4730 C.3   1 <1>   0.0200 
 13 C       -4.7250     0.4920     0.2830 C.ar  1 <1>   0.1170 
 14 C        5.4670    -2.2710    -0.2630 C.3   1 <1>  -0.1600 
 15 C       -5.8640     0.2300    -0.4720 C.ar  1 <1>  -0.1500 
 16 C       -4.8750     1.1680     1.4890 C.ar  1 <1>  -0.1500 
 17 C        6.8990    -2.3010     0.2890 C.3   1 <1>  -0.1600 
 18 C       -7.1140     0.6360    -0.0370 C.ar  1 <1>  -0.1500 
 19 C       -6.1220     1.5750     1.9280 C.ar  1 <1>  -0.1500 
 20 C        7.7510    -3.3330    -0.4550 C.3   1 <1>  -0.2400 
 21 C       -7.2450     1.3090     1.1650 C.ar  1 <1>  -0.1500 
 22 H       -1.3770    -1.7690    -1.3300 H     1 <1>   0.0800 
 23 H       -1.0110    -0.3510    -2.2990 H     1 <1>   0.0800 
 24 H        1.6530     1.3410     1.5020 H     1 <1>   0.0800 
 25 H        3.2880     0.8090     1.8310 H     1 <1>   0.0800 
 26 H        1.9290    -0.0350     2.5570 H     1 <1>   0.0800 
 27 H       -2.7370     0.1440     0.6370 H     1 <1>   0.3700 
 28 H        4.5810    -1.4840     1.5200 H     1 <1>   0.0800 
 29 H        5.0380    -0.2660     0.3580 H     1 <1>   0.0800 
 30 H        5.4910    -2.0290    -1.3120 H     1 <1>   0.0800 
 31 H        5.0210    -3.2460    -0.1600 H     1 <1>   0.0800 
 32 H       -5.7850    -0.2960    -1.4050 H     1 <1>   0.1500 
 33 H       -4.0120     1.3830     2.0910 H     1 <1>   0.1500 
 34 H        6.8800    -2.5500     1.3370 H     1 <1>   0.0800 
 35 H        7.3490    -1.3290     0.1830 H     1 <1>   0.0800 
 36 H       -7.9830     0.4260    -0.6350 H     1 <1>   0.1500 
 37 H       -6.2230     2.0990     2.8630 H     1 <1>   0.1500 
 38 H        7.3300    -4.3170    -0.3460 H     1 <1>   0.0800 
 39 H        8.7500    -3.3420    -0.0570 H     1 <1>   0.0800 
 40 H        7.8010    -3.0930    -1.5030 H     1 <1>   0.0800 
 41 H       -8.2170     1.6250     1.5020 H     1 <1>   0.1500 
@<TRIPOS>BOND
  1   1   2  1   
  2   1   3  1   
  3   2   4  2   
  4   2   5  1   
  5   3   6  1   
  6   3  22  1   
  7   3  23  1   
  8   4   7  1   
  9   5   8  1   
 10   5   9  1   
 11   6  10  2   
 12   6  11  am  
 13   7   8  2   
 14   8  12  1   
 15   9  24  1   
 16   9  25  1   
 17   9  26  1   
 18  11  13  1   
 19  11  27  1   
 20  12  14  1   
 21  12  28  1   
 22  12  29  1   
 23  13  15  ar  
 24  13  16  ar  
 25  14  17  1   
 26  14  30  1   
 27  14  31  1   
 28  15  18  ar  
 29  15  32  1   
 30  16  19  ar  
 31  16  33  1   
 32  17  20  1   
 33  17  34  1   
 34  17  35  1   
 35  18  21  ar  
 36  18  36  1   
 37  19  21  ar  
 38  19  37  1   
 39  20  38  1   
 40  20  39  1   
 41  20  40  1   
 42  21  41  1   
@<TRIPOS>SUBSTRUCTURE
  1 ****   1 GROUP 4 **** **** 0

# MOE 2024.06 (io_trps.svl 2023.06)
