@<TRIPOS>MOLECULE
NONAME
47 49 1 0 0 
SMALL
USER_CHARGES


@<TRIPOS>ATOM
  1 F       -5.3560     0.9260    -3.6300 F     1 <1>  -0.1900 
  2 C       -4.8080     0.9740    -2.4460 C.ar  1 <1>   0.1900 
  3 C       -5.5680     0.6220    -1.3470 C.ar  1 <1>  -0.1500 
  4 C       -3.4920     1.3780    -2.3350 C.ar  1 <1>  -0.1500 
  5 C       -4.9950     0.6800    -0.0850 C.ar  1 <1>  -0.1440 
  6 C       -2.9220     1.4310    -1.0740 C.ar  1 <1>  -0.1500 
  7 C       -3.6710     1.0840     0.0420 C.ar  1 <1>  -0.1500 
  8 C       -5.8170     0.3080     1.1410 C.3   1 <1>   0.2540 
  9 N       -7.0010     1.1830     1.2480 N.3   1 <1>  -0.8100 
 10 C       -7.9210     0.7400     2.3210 C.3   1 <1>   0.1100 
 11 C       -6.6350     2.6110     1.4270 C.3   1 <1>   0.1100 
 12 C       -9.1900     1.6260     2.4070 C.3   1 <1>   0.3430 
 13 C       -7.8780     3.5290     1.5290 C.3   1 <1>   0.3430 
 14 N       -9.1460     2.7420     1.4030 N.4   1 <1>  -0.9590 
 15 C      -10.3610     3.5780     1.3380 C.3   1 <1>   0.4810 
 16 C      -11.4860     2.7080     0.8330 C.2   1 <1>  -0.2880 
 17 C      -11.9510     2.7120    -0.4280 C.2   1 <1>  -0.1780 
 18 C      -13.0190     1.9070    -0.9790 C.ar  1 <1>   0.0280 
 19 C      -13.1300     1.7490    -2.3580 C.ar  1 <1>  -0.1500 
 20 C      -13.9650     1.2710    -0.1780 C.ar  1 <1>  -0.1500 
 21 C      -14.1370     0.9820    -2.9170 C.ar  1 <1>  -0.1500 
 22 C      -14.9730     0.5020    -0.7300 C.ar  1 <1>  -0.1500 
 23 C      -15.0610     0.3550    -2.1020 C.ar  1 <1>  -0.1500 
 24 H       -6.5890     0.3120    -1.4800 H     1 <1>   0.1500 
 25 H       -2.9320     1.6430    -3.2140 H     1 <1>   0.1500 
 26 H       -1.8970     1.7400    -0.9610 H     1 <1>   0.1500 
 27 H       -3.2090     1.1290     1.0130 H     1 <1>   0.1500 
 28 H       -5.2160     0.3850     2.0310 H     1 <1>   0.0800 
 29 H       -6.1340    -0.7160     1.0390 H     1 <1>   0.0800 
 30 H       -8.2240    -0.2770     2.1340 H     1 <1>   0.0800 
 31 H       -7.4130     0.7570     3.2700 H     1 <1>   0.0800 
 32 H       -6.0340     2.7280     2.3130 H     1 <1>   0.0800 
 33 H       -6.0420     2.9410     0.5910 H     1 <1>   0.0800 
 34 H       -9.2760     2.0270     3.4030 H     1 <1>   0.0800 
 35 H      -10.0530     1.0060     2.2280 H     1 <1>   0.0800 
 36 H       -7.8240     4.2680     0.7460 H     1 <1>   0.0800 
 37 H       -7.8570     4.0480     2.4730 H     1 <1>   0.0800 
 38 H       -9.0510     2.2490     0.5010 H     1 <1>   0.4500 
 39 H      -10.6010     3.9920     2.3040 H     1 <1>   0.0800 
 40 H      -10.2050     4.3880     0.6440 H     1 <1>   0.0800 
 41 H      -11.8930     2.0670     1.5940 H     1 <1>   0.1500 
 42 H      -11.5070     3.3690    -1.1580 H     1 <1>   0.1500 
 43 H      -12.4210     2.2280    -3.0090 H     1 <1>   0.1500 
 44 H      -13.9260     1.3770     0.8890 H     1 <1>   0.1500 
 45 H      -14.2020     0.8720    -3.9860 H     1 <1>   0.1500 
 46 H      -15.6940     0.0180    -0.0930 H     1 <1>   0.1500 
 47 H      -15.8450    -0.2430    -2.5340 H     1 <1>   0.1500 
@<TRIPOS>BOND
  1   1   2  1   
  2   2   3  ar  
  3   2   4  ar  
  4   3   5  ar  
  5   3  24  1   
  6   4   6  ar  
  7   4  25  1   
  8   5   7  ar  
  9   5   8  1   
 10   6   7  ar  
 11   6  26  1   
 12   7  27  1   
 13   8   9  1   
 14   8  28  1   
 15   8  29  1   
 16   9  10  1   
 17   9  11  1   
 18  10  12  1   
 19  10  30  1   
 20  10  31  1   
 21  11  13  1   
 22  11  32  1   
 23  11  33  1   
 24  12  14  1   
 25  12  34  1   
 26  12  35  1   
 27  13  14  1   
 28  13  36  1   
 29  13  37  1   
 30  14  15  1   
 31  14  38  1   
 32  15  16  1   
 33  15  39  1   
 34  15  40  1   
 35  16  17  2   
 36  16  41  1   
 37  17  18  1   
 38  17  42  1   
 39  18  19  ar  
 40  18  20  ar  
 41  19  21  ar  
 42  19  43  1   
 43  20  22  ar  
 44  20  44  1   
 45  21  23  ar  
 46  21  45  1   
 47  22  23  ar  
 48  22  46  1   
 49  23  47  1   
@<TRIPOS>SUBSTRUCTURE
  1 ****  14 GROUP 4 **** **** 0

# MOE 2024.06 (io_trps.svl 2023.06)
