@<TRIPOS>MOLECULE
NONAME
45 47 1 0 0 
SMALL
USER_CHARGES


@<TRIPOS>ATOM
  1 CL      -1.1170    -0.8420     1.4150 Cl    1 <1>  -0.1770 
  2 C       -2.2640     0.2320     0.6570 C.ar  1 <1>   0.1770 
  3 C       -3.5960    -0.1180     0.6190 C.ar  1 <1>  -0.1500 
  4 C       -1.8100     1.4200     0.1060 C.ar  1 <1>  -0.1500 
  5 C       -4.5270     0.7320     0.0170 C.ar  1 <1>   0.0860 
  6 C       -2.7160     2.2720    -0.4950 C.ar  1 <1>  -0.1500 
  7 C       -5.9360     0.4430    -0.0540 C.2   1 <1>   0.4690 
  8 C       -4.0630     1.9330    -0.5410 C.ar  1 <1>   0.0830 
  9 O       -6.4400    -0.5320     0.4800 O.2   1 <1>  -0.5700 
 10 C       -6.7620     1.3800    -0.7450 C.2   1 <1>  -0.1240 
 11 O       -4.9230     2.7860    -1.1390 O.3   1 <1>  -0.1590 
 12 C       -6.2240     2.5100    -1.2550 C.2   1 <1>  -0.0730 
 13 C       -8.2340     1.0320    -0.8870 C.3   1 <1>   0.4810 
 14 N       -8.8390     0.8080     0.4660 N.4   1 <1>  -0.9590 
 15 C      -10.0520    -0.0570     0.5260 C.3   1 <1>   0.4230 
 16 C       -8.9920     2.0940     1.2230 C.3   1 <1>   0.2630 
 17 C       -9.6780    -1.5090     0.2160 C.3   1 <1>  -0.1600 
 18 C      -11.1730     0.4190    -0.4040 C.3   1 <1>  -0.1600 
 19 C      -10.9040    -2.4150     0.3330 C.3   1 <1>   0.3430 
 20 C      -12.3890    -0.5030    -0.2840 C.3   1 <1>   0.3430 
 21 N      -11.9940    -1.9180    -0.5590 N.4   1 <1>  -0.9590 
 22 C      -13.1910    -2.8170    -0.4540 C.3   1 <1>   0.2630 
 23 H       -3.9130    -1.0480     1.0570 H     1 <1>   0.1500 
 24 H       -0.7620     1.6630     0.1530 H     1 <1>   0.1500 
 25 H       -2.3840     3.2000    -0.9300 H     1 <1>   0.1500 
 26 H       -6.7690     3.2690    -1.7940 H     1 <1>   0.1500 
 27 H       -8.3070     0.1320    -1.4750 H     1 <1>   0.0800 
 28 H       -8.7550     1.8200    -1.4050 H     1 <1>   0.0800 
 29 H       -8.0910     0.2640     0.9480 H     1 <1>   0.4500 
 30 H      -10.4260    -0.0320     1.5390 H     1 <1>   0.0800 
 31 H       -9.7250     2.7280     0.7500 H     1 <1>   0.0800 
 32 H       -8.0530     2.6230     1.2570 H     1 <1>   0.0800 
 33 H       -9.3050     1.8990     2.2360 H     1 <1>   0.0800 
 34 H       -8.9400    -1.8510     0.9210 H     1 <1>   0.0800 
 35 H       -9.2670    -1.6100    -0.7710 H     1 <1>   0.0800 
 36 H      -10.8530     0.4310    -1.4300 H     1 <1>   0.0800 
 37 H      -11.4780     1.4130    -0.1310 H     1 <1>   0.0800 
 38 H      -11.2480    -2.4310     1.3550 H     1 <1>   0.0800 
 39 H      -10.6340    -3.4240     0.0580 H     1 <1>   0.0800 
 40 H      -13.1490    -0.1920    -0.9840 H     1 <1>   0.0800 
 41 H      -12.8030    -0.4300     0.7100 H     1 <1>   0.0800 
 42 H      -11.6660    -1.9820    -1.5360 H     1 <1>   0.4500 
 43 H      -13.5890    -2.8030     0.5480 H     1 <1>   0.0800 
 44 H      -12.9220    -3.8320    -0.7020 H     1 <1>   0.0800 
 45 H      -13.9640    -2.4960    -1.1350 H     1 <1>   0.0800 
@<TRIPOS>BOND
  1   1   2  1   
  2   2   3  ar  
  3   2   4  ar  
  4   3   5  ar  
  5   3  23  1   
  6   4   6  ar  
  7   4  24  1   
  8   5   7  1   
  9   5   8  ar  
 10   6   8  ar  
 11   6  25  1   
 12   7   9  2   
 13   7  10  1   
 14   8  11  1   
 15  10  12  2   
 16  10  13  1   
 17  11  12  1   
 18  12  26  1   
 19  13  14  1   
 20  13  27  1   
 21  13  28  1   
 22  14  15  1   
 23  14  16  1   
 24  14  29  1   
 25  15  17  1   
 26  15  18  1   
 27  15  30  1   
 28  16  31  1   
 29  16  32  1   
 30  16  33  1   
 31  17  19  1   
 32  17  34  1   
 33  17  35  1   
 34  18  20  1   
 35  18  36  1   
 36  18  37  1   
 37  19  21  1   
 38  19  38  1   
 39  19  39  1   
 40  20  21  1   
 41  20  40  1   
 42  20  41  1   
 43  21  22  1   
 44  21  42  1   
 45  22  43  1   
 46  22  44  1   
 47  22  45  1   
@<TRIPOS>SUBSTRUCTURE
  1 ****   7 GROUP 4 **** **** 0

# MOE 2024.06 (io_trps.svl 2023.06)
