@<TRIPOS>MOLECULE
NONAME
51 53 1 0 0 
SMALL
USER_CHARGES


@<TRIPOS>ATOM
  1 O       -1.7890    -0.4390     0.9830 O.2   1 <1>  -0.5700 
  2 C       -2.3740    -1.0050     0.0830 C.2   1 <1>   0.5440 
  3 N       -3.0400    -0.2150    -0.7870 N.am  1 <1>  -0.8000 
  4 C       -2.3100    -2.4410    -0.0720 C.ar  1 <1>   0.0860 
  5 C       -3.4450    -3.2730    -0.1290 C.ar  1 <1>   0.1170 
  6 C       -1.0530    -3.0430    -0.1520 C.ar  1 <1>  -0.1500 
  7 N       -4.7560    -2.8000    -0.0100 N.am  1 <1>  -0.5470 
  8 C       -3.2800    -4.6460    -0.2730 C.ar  1 <1>  -0.1500 
  9 C       -0.9040    -4.4070    -0.2970 C.ar  1 <1>  -0.1500 
 10 C       -5.5230    -2.1280    -0.9160 C.2   1 <1>   0.5690 
 11 C       -2.0250    -5.2150    -0.3590 C.ar  1 <1>  -0.1500 
 12 O       -5.1040    -1.7440    -1.9830 O.2   1 <1>  -0.5700 
 13 C       -6.9780    -1.8660    -0.5240 C.3   1 <1>   0.1710 
 14 N       -7.5190    -2.8750     0.4330 N.3   1 <1>  -0.8100 
 15 C       -7.8320    -4.1490    -0.2620 C.3   1 <1>   0.1100 
 16 C       -8.7440    -2.3680     1.0930 C.3   1 <1>   0.1100 
 17 C       -8.3900    -5.2240     0.6930 C.3   1 <1>   0.2090 
 18 C       -9.3370    -3.3780     2.0970 C.3   1 <1>   0.2090 
 19 N       -9.5480    -4.7260     1.4920 N.pl3 1 <1>  -0.8380 
 20 C      -10.8280    -5.0530     1.0550 C.ar  1 <1>   0.1000 
 21 C      -11.3930    -4.4660    -0.0690 C.ar  1 <1>  -0.1500 
 22 C      -11.5660    -5.9940     1.7580 C.ar  1 <1>  -0.1500 
 23 C      -12.6680    -4.8050    -0.4880 C.ar  1 <1>   0.0830 
 24 C      -12.8410    -6.3430     1.3510 C.ar  1 <1>  -0.1500 
 25 O      -13.1340    -4.1760    -1.5980 O.3   1 <1>  -0.3620 
 26 C      -13.3960    -5.7520     0.2290 C.ar  1 <1>  -0.1500 
 27 C      -14.4210    -4.4510    -2.1050 C.3   1 <1>   0.0400 
 28 H       -3.0570     0.7940    -0.6510 H     1 <1>   0.3700 
 29 H       -3.6530    -0.6090    -1.5150 H     1 <1>   0.3700 
 30 H       -0.1790    -2.4150    -0.0960 H     1 <1>   0.1500 
 31 H       -5.3140    -3.1420     0.7800 H     1 <1>   0.3700 
 32 H       -4.1480    -5.2780    -0.3200 H     1 <1>   0.1500 
 33 H        0.0790    -4.8420    -0.3590 H     1 <1>   0.1500 
 34 H       -1.9150    -6.2800    -0.4740 H     1 <1>   0.1500 
 35 H       -7.5830    -1.8350    -1.4130 H     1 <1>   0.0800 
 36 H       -7.0080    -0.8920    -0.0700 H     1 <1>   0.0800 
 37 H       -6.9420    -4.5380    -0.7260 H     1 <1>   0.0800 
 38 H       -8.5560    -3.9740    -1.0390 H     1 <1>   0.0800 
 39 H       -9.4910    -2.1370     0.3530 H     1 <1>   0.0800 
 40 H       -8.5140    -1.4610     1.6240 H     1 <1>   0.0800 
 41 H       -7.6130    -5.5340     1.3690 H     1 <1>   0.0800 
 42 H       -8.6940    -6.0840     0.1230 H     1 <1>   0.0800 
 43 H      -10.2750    -3.0040     2.4680 H     1 <1>   0.0800 
 44 H       -8.6680    -3.4750     2.9340 H     1 <1>   0.0800 
 45 H      -10.8410    -3.7390    -0.6270 H     1 <1>   0.1500 
 46 H      -11.1260    -6.4470     2.6280 H     1 <1>   0.1500 
 47 H      -13.4000    -7.0740     1.9080 H     1 <1>   0.1500 
 48 H      -14.3870    -6.0380    -0.0670 H     1 <1>   0.1500 
 49 H      -14.5720    -3.8420    -2.9780 H     1 <1>   0.0800 
 50 H      -15.1510    -4.2030    -1.3550 H     1 <1>   0.0800 
 51 H      -14.4760    -5.4910    -2.3700 H     1 <1>   0.0800 
@<TRIPOS>BOND
  1   1   2  2   
  2   2   3  am  
  3   2   4  1   
  4   3  28  1   
  5   3  29  1   
  6   4   5  ar  
  7   4   6  ar  
  8   5   7  1   
  9   5   8  ar  
 10   6   9  ar  
 11   6  30  1   
 12   7  10  am  
 13   7  31  1   
 14   8  11  ar  
 15   8  32  1   
 16   9  11  ar  
 17   9  33  1   
 18  10  12  2   
 19  10  13  1   
 20  11  34  1   
 21  13  14  1   
 22  13  35  1   
 23  13  36  1   
 24  14  15  1   
 25  14  16  1   
 26  15  17  1   
 27  15  37  1   
 28  15  38  1   
 29  16  18  1   
 30  16  39  1   
 31  16  40  1   
 32  17  19  1   
 33  17  41  1   
 34  17  42  1   
 35  18  19  1   
 36  18  43  1   
 37  18  44  1   
 38  19  20  1   
 39  20  21  ar  
 40  20  22  ar  
 41  21  23  ar  
 42  21  45  1   
 43  22  24  ar  
 44  22  46  1   
 45  23  25  1   
 46  23  26  ar  
 47  24  26  ar  
 48  24  47  1   
 49  25  27  1   
 50  26  48  1   
 51  27  49  1   
 52  27  50  1   
 53  27  51  1   
@<TRIPOS>SUBSTRUCTURE
  1 ****  14 GROUP 4 **** **** 0

# MOE 2024.06 (io_trps.svl 2023.06)
