@<TRIPOS>MOLECULE
NONAME
37 39 1 0 0 
SMALL
USER_CHARGES


@<TRIPOS>ATOM
  1 BR       1.3040    -1.0990     1.0780 Br    1 <1>  -0.0570 
  2 C       -0.2900    -2.1860     1.0560 C.2   1 <1>   0.0570 
  3 C       -0.7180    -2.9190     2.0950 C.2   1 <1>  -0.1100 
  4 C       -1.0850    -2.2330    -0.1290 C.2   1 <1>  -0.1500 
  5 S       -2.2010    -3.7410     1.6340 S.3   1 <1>  -0.0800 
  6 C       -2.1620    -3.0320     0.0150 C.2   1 <1>  -0.1400 
  7 C       -3.2900    -3.4060    -0.9230 C.3   1 <1>   0.5230 
  8 N       -4.5730    -2.9740    -0.3100 N.4   1 <1>  -0.9590 
  9 C       -5.7670    -3.5120    -1.0600 C.3   1 <1>   0.3430 
 10 C       -4.6440    -1.4690    -0.1670 C.3   1 <1>   0.3430 
 11 C       -7.1080    -3.0460    -0.4530 C.3   1 <1>   0.2090 
 12 C       -5.9790    -0.9930     0.4430 C.3   1 <1>   0.2090 
 13 N       -7.1340    -1.5620    -0.3120 N.pl3 1 <1>  -0.8380 
 14 C       -8.3750    -0.9880    -0.0620 C.ar  1 <1>   0.1000 
 15 C       -8.9860    -0.2260    -1.0530 C.ar  1 <1>  -0.1500 
 16 C       -9.0210    -1.1620     1.1620 C.ar  1 <1>  -0.1500 
 17 C      -10.2220     0.3580    -0.8370 C.ar  1 <1>  -0.1500 
 18 C      -10.2580    -0.5840     1.3930 C.ar  1 <1>  -0.1500 
 19 C      -10.8350     0.1660     0.3860 C.ar  1 <1>   0.1900 
 20 F      -12.0040     0.7150     0.6000 F     1 <1>  -0.1900 
 21 H       -0.3280    -3.0720     3.0860 H     1 <1>   0.1500 
 22 H       -0.7930    -1.6710    -1.0000 H     1 <1>   0.1500 
 23 H       -3.2870    -4.4740    -1.0690 H     1 <1>   0.0800 
 24 H       -3.1500    -2.9260    -1.8790 H     1 <1>   0.0800 
 25 H       -4.5820    -3.3660     0.6410 H     1 <1>   0.4500 
 26 H       -5.7430    -4.5890    -1.0690 H     1 <1>   0.0800 
 27 H       -5.7330    -3.1720    -2.0820 H     1 <1>   0.0800 
 28 H       -4.5400    -1.0100    -1.1360 H     1 <1>   0.0800 
 29 H       -3.8340    -1.1190     0.4520 H     1 <1>   0.0800 
 30 H       -7.2560    -3.5050     0.5090 H     1 <1>   0.0800 
 31 H       -7.9170    -3.3530    -1.0940 H     1 <1>   0.0800 
 32 H       -6.0260     0.0830     0.4040 H     1 <1>   0.0800 
 33 H       -6.0370    -1.2890     1.4760 H     1 <1>   0.0800 
 34 H       -8.4840    -0.0940    -1.9940 H     1 <1>   0.1500 
 35 H       -8.5580    -1.7480     1.9320 H     1 <1>   0.1500 
 36 H      -10.7030     0.9490    -1.5950 H     1 <1>   0.1500 
 37 H      -10.7700    -0.7090     2.3310 H     1 <1>   0.1500 
@<TRIPOS>BOND
  1   1   2  1   
  2   2   3  2   
  3   2   4  1   
  4   3   5  1   
  5   3  21  1   
  6   4   6  2   
  7   4  22  1   
  8   5   6  1   
  9   6   7  1   
 10   7   8  1   
 11   7  23  1   
 12   7  24  1   
 13   8   9  1   
 14   8  10  1   
 15   8  25  1   
 16   9  11  1   
 17   9  26  1   
 18   9  27  1   
 19  10  12  1   
 20  10  28  1   
 21  10  29  1   
 22  11  13  1   
 23  11  30  1   
 24  11  31  1   
 25  12  13  1   
 26  12  32  1   
 27  12  33  1   
 28  13  14  1   
 29  14  15  ar  
 30  14  16  ar  
 31  15  17  ar  
 32  15  34  1   
 33  16  18  ar  
 34  16  35  1   
 35  17  19  ar  
 36  17  36  1   
 37  18  19  ar  
 38  18  37  1   
 39  19  20  1   
@<TRIPOS>SUBSTRUCTURE
  1 ****  12 GROUP 4 **** **** 0

# MOE 2024.06 (io_trps.svl 2023.06)
