@<TRIPOS>MOLECULE
NONAME
47 49 1 0 0 
SMALL
USER_CHARGES


@<TRIPOS>ATOM
  1 O       -0.3900     0.3840    -0.2930 O.2   1 <1>  -0.5700 
  2 C       -0.3140     1.5910    -0.2950 C.2   1 <1>   0.5690 
  3 N       -1.3930     2.3730    -0.6100 N.am  1 <1>  -0.6600 
  4 C        1.0200     2.2350     0.0580 C.3   1 <1>  -0.0990 
  5 C       -2.7290     1.7500    -0.8470 C.3   1 <1>   0.2840 
  6 C       -1.3800     3.8550    -0.7520 C.3   1 <1>   0.1400 
  7 C        2.0900     1.2350     0.5420 C.3   1 <1>  -0.0990 
  8 C       -3.8850     2.5920    -0.3040 C.ar  1 <1>  -0.1440 
  9 C       -2.3010     4.4690     0.3020 C.3   1 <1>  -0.0160 
 10 C        3.4140     1.8980     0.8930 C.2   1 <1>   0.5690 
 11 C       -3.6940     3.8640     0.2280 C.ar  1 <1>  -0.1440 
 12 C       -5.1660     2.0640    -0.3540 C.ar  1 <1>  -0.1500 
 13 O        3.4330     3.0590     1.2180 O.2   1 <1>  -0.5700 
 14 N        4.5820     1.2060     0.8340 N.am  1 <1>  -0.5470 
 15 C       -4.7790     4.5850     0.7030 C.ar  1 <1>  -0.1500 
 16 C       -6.2470     2.7870     0.1190 C.ar  1 <1>  -0.1500 
 17 C        4.8390    -0.1320     0.5100 C.ar  1 <1>   0.1170 
 18 C       -6.0530     4.0500     0.6480 C.ar  1 <1>  -0.1500 
 19 C        4.1490    -1.1760     1.1160 C.ar  1 <1>  -0.1500 
 20 C        5.8160    -0.4320    -0.4300 C.ar  1 <1>  -0.1500 
 21 C        4.4140    -2.4910     0.7790 C.ar  1 <1>  -0.1500 
 22 C        6.0870    -1.7450    -0.7680 C.ar  1 <1>  -0.1500 
 23 C        5.3890    -2.7820    -0.1720 C.ar  1 <1>   0.0820 
 24 O        5.7110    -4.0420    -0.5670 O.3   1 <1>  -0.3620 
 25 C        5.0150    -5.1600    -0.0630 C.3   1 <1>   0.0400 
 26 H        0.8480     2.9570     0.8340 H     1 <1>   0.0800 
 27 H        1.3920     2.7470    -0.8100 H     1 <1>   0.0800 
 28 H       -2.7670     0.7800    -0.3820 H     1 <1>   0.0800 
 29 H       -2.8600     1.6140    -1.9060 H     1 <1>   0.0800 
 30 H       -1.7400     4.1130    -1.7330 H     1 <1>   0.0800 
 31 H       -0.3890     4.2560    -0.6460 H     1 <1>   0.0800 
 32 H        2.2560     0.5070    -0.2310 H     1 <1>   0.0800 
 33 H        1.7250     0.7250     1.4130 H     1 <1>   0.0800 
 34 H       -2.3540     5.5310     0.1440 H     1 <1>   0.0800 
 35 H       -1.8890     4.2960     1.2800 H     1 <1>   0.0800 
 36 H       -5.3300     1.0820    -0.7620 H     1 <1>   0.1500 
 37 H        5.3970     1.7950     1.0070 H     1 <1>   0.3700 
 38 H       -4.6360     5.5660     1.1190 H     1 <1>   0.1500 
 39 H       -7.2370     2.3680     0.0770 H     1 <1>   0.1500 
 40 H       -6.8910     4.6140     1.0180 H     1 <1>   0.1500 
 41 H        3.4040    -0.9610     1.8600 H     1 <1>   0.1500 
 42 H        6.3620     0.3640    -0.9030 H     1 <1>   0.1500 
 43 H        3.8590    -3.2700     1.2650 H     1 <1>   0.1500 
 44 H        6.8410    -1.9760    -1.4990 H     1 <1>   0.1500 
 45 H        5.4170    -6.0410    -0.5300 H     1 <1>   0.0800 
 46 H        3.9720    -5.0610    -0.3080 H     1 <1>   0.0800 
 47 H        5.1600    -5.2120     1.0010 H     1 <1>   0.0800 
@<TRIPOS>BOND
  1   1   2  2   
  2   2   3  am  
  3   2   4  1   
  4   3   5  1   
  5   3   6  1   
  6   4   7  1   
  7   4  26  1   
  8   4  27  1   
  9   5   8  1   
 10   5  28  1   
 11   5  29  1   
 12   6   9  1   
 13   6  30  1   
 14   6  31  1   
 15   7  10  1   
 16   7  32  1   
 17   7  33  1   
 18   8  11  ar  
 19   8  12  ar  
 20   9  11  1   
 21   9  34  1   
 22   9  35  1   
 23  10  13  2   
 24  10  14  am  
 25  11  15  ar  
 26  12  16  ar  
 27  12  36  1   
 28  14  17  1   
 29  14  37  1   
 30  15  18  ar  
 31  15  38  1   
 32  16  18  ar  
 33  16  39  1   
 34  17  19  ar  
 35  17  20  ar  
 36  18  40  1   
 37  19  21  ar  
 38  19  41  1   
 39  20  22  ar  
 40  20  42  1   
 41  21  23  ar  
 42  21  43  1   
 43  22  23  ar  
 44  22  44  1   
 45  23  24  1   
 46  24  25  1   
 47  25  45  1   
 48  25  46  1   
 49  25  47  1   
@<TRIPOS>SUBSTRUCTURE
  1 ****   2 GROUP 4 **** **** 0

# MOE 2024.06 (io_trps.svl 2023.06)
