@<TRIPOS>MOLECULE
NONAME
51 53 1 0 0 
SMALL
USER_CHARGES


@<TRIPOS>ATOM
  1 S       -0.0050    -0.4990     0.6190 S.o2  1 <1>   1.4470 
  2 O       -0.1070    -1.7000    -0.1790 O.2   1 <1>  -0.6500 
  3 O        0.0390    -0.6440     2.0550 O.2   1 <1>  -0.6500 
  4 N        1.5010     0.2190     0.2000 N.am  1 <1>  -0.7570 
  5 C       -1.1640     0.8260     0.0930 C.ar  1 <1>  -0.0090 
  6 C        2.7660    -0.3000     0.4460 C.ar  1 <1>   0.1990 
  7 C       -1.3900     1.9480     0.9080 C.ar  1 <1>  -0.1440 
  8 C       -1.8270     0.7940    -1.1450 C.ar  1 <1>  -0.1430 
  9 C        3.8520     0.5790     0.6010 C.ar  1 <1>   0.0860 
 10 C        2.9900    -1.6720     0.5470 C.ar  1 <1>  -0.1500 
 11 C       -2.2620     2.9520     0.5150 C.ar  1 <1>  -0.1500 
 12 C       -0.7100     2.1500     2.2610 C.3   1 <1>  -0.0970 
 13 C       -2.6940     1.8090    -1.5170 C.ar  1 <1>  -0.1500 
 14 C       -1.6440    -0.3300    -2.1610 C.3   1 <1>  -0.0970 
 15 C        3.6700     2.0080     0.4640 C.2   1 <1>   0.5440 
 16 C        5.1100     0.0480     0.8930 C.ar  1 <1>  -0.1500 
 17 C        4.2460    -2.1760     0.8200 C.ar  1 <1>  -0.1500 
 18 C       -2.9200     2.8910    -0.6940 C.ar  1 <1>  -0.1430 
 19 O        2.7800     2.5630     1.0880 O.2   1 <1>  -0.5700 
 20 N        4.4520     2.7690    -0.3770 N.am  1 <1>  -0.6600 
 21 C        5.3110    -1.3120     1.0000 C.ar  1 <1>  -0.1500 
 22 C       -3.8760     3.9950    -1.1100 C.3   1 <1>  -0.0970 
 23 C        5.1970     2.2300    -1.5540 C.3   1 <1>   0.1400 
 24 C        4.4340     4.2620    -0.3340 C.3   1 <1>   0.1400 
 25 C        6.5760     2.9000    -1.6690 C.3   1 <1>   0.1200 
 26 C        5.8510     4.8250    -0.5310 C.3   1 <1>   0.1200 
 27 O        6.4450     4.2930    -1.6830 O.3   1 <1>  -0.5600 
 28 H        1.4520     1.2150     0.4420 H     1 <1>   0.4200 
 29 H        2.1780    -2.3630     0.4140 H     1 <1>   0.1500 
 30 H       -2.4340     3.7980     1.1570 H     1 <1>   0.1500 
 31 H        0.3500     1.9910     2.1930 H     1 <1>   0.0800 
 32 H       -1.1210     1.4690     2.9860 H     1 <1>   0.0800 
 33 H       -0.8570     3.1490     2.6270 H     1 <1>   0.0800 
 34 H       -3.2050     1.7640    -2.4630 H     1 <1>   0.1500 
 35 H       -2.0530    -1.2480    -1.7780 H     1 <1>   0.0800 
 36 H       -0.6010    -0.4710    -2.3820 H     1 <1>   0.0800 
 37 H       -2.1420    -0.1090    -3.0870 H     1 <1>   0.0800 
 38 H        5.9380     0.7210     1.0390 H     1 <1>   0.1500 
 39 H        4.3940    -3.2400     0.8980 H     1 <1>   0.1500 
 40 H        6.2890    -1.7050     1.2240 H     1 <1>   0.1500 
 41 H       -3.8980     4.0900    -2.1810 H     1 <1>   0.0800 
 42 H       -3.5670     4.9360    -0.6930 H     1 <1>   0.0800 
 43 H       -4.8670     3.7680    -0.7610 H     1 <1>   0.0800 
 44 H        4.6350     2.4380    -2.4480 H     1 <1>   0.0800 
 45 H        5.3180     1.1650    -1.4850 H     1 <1>   0.0800 
 46 H        4.0460     4.6040     0.6100 H     1 <1>   0.0800 
 47 H        3.7910     4.6320    -1.1130 H     1 <1>   0.0800 
 48 H        7.0560     2.6070    -2.5850 H     1 <1>   0.0800 
 49 H        7.2050     2.6200    -0.8420 H     1 <1>   0.0800 
 50 H        6.4720     4.5900     0.3160 H     1 <1>   0.0800 
 51 H        5.8130     5.8940    -0.6450 H     1 <1>   0.0800 
@<TRIPOS>BOND
  1   1   2  2   
  2   1   3  2   
  3   1   4  am  
  4   1   5  1   
  5   4   6  1   
  6   4  28  1   
  7   5   7  ar  
  8   5   8  ar  
  9   6   9  ar  
 10   6  10  ar  
 11   7  11  ar  
 12   7  12  1   
 13   8  13  ar  
 14   8  14  1   
 15   9  15  1   
 16   9  16  ar  
 17  10  17  ar  
 18  10  29  1   
 19  11  18  ar  
 20  11  30  1   
 21  12  31  1   
 22  12  32  1   
 23  12  33  1   
 24  13  18  ar  
 25  13  34  1   
 26  14  35  1   
 27  14  36  1   
 28  14  37  1   
 29  15  19  2   
 30  15  20  am  
 31  16  21  ar  
 32  16  38  1   
 33  17  21  ar  
 34  17  39  1   
 35  18  22  1   
 36  20  23  1   
 37  20  24  1   
 38  21  40  1   
 39  22  41  1   
 40  22  42  1   
 41  22  43  1   
 42  23  25  1   
 43  23  44  1   
 44  23  45  1   
 45  24  26  1   
 46  24  46  1   
 47  24  47  1   
 48  25  27  1   
 49  25  48  1   
 50  25  49  1   
 51  26  27  1   
 52  26  50  1   
 53  26  51  1   
@<TRIPOS>SUBSTRUCTURE
  1 ****   4 GROUP 4 **** **** 0

# MOE 2024.06 (io_trps.svl 2023.06)
