@<TRIPOS>MOLECULE
NONAME
47 48 1 0 0 
SMALL
USER_CHARGES


@<TRIPOS>ATOM
  1 O        0.0910     0.4690    -0.8950 O.2   1 <1>  -0.5700 
  2 C        0.0940     1.4820    -0.2220 C.2   1 <1>   0.5440 
  3 N        1.2590     1.8550     0.3900 N.am  1 <1>  -0.7300 
  4 C       -1.1180     2.2660    -0.0580 C.ar  1 <1>   0.0860 
  5 C        2.5550     1.1590     0.2560 C.3   1 <1>   0.1400 
  6 C       -1.0820     3.6200     0.2740 C.ar  1 <1>  -0.1500 
  7 C       -2.3730     1.6820    -0.2250 C.ar  1 <1>  -0.1500 
  8 C        3.6670     2.2000     0.1360 C.3   1 <1>  -0.1600 
  9 C       -2.2330     4.3640     0.4490 C.ar  1 <1>   0.0820 
 10 C       -3.5490     2.4070    -0.0700 C.ar  1 <1>   0.0820 
 11 C        5.0360     1.5340    -0.0430 C.3   1 <1>  -0.0160 
 12 O       -2.0370     5.6670     0.7950 O.3   1 <1>  -0.3630 
 13 C       -3.4830     3.7640     0.2580 C.ar  1 <1>   0.0820 
 14 O       -4.7810     1.8390    -0.2270 O.3   1 <1>  -0.3630 
 15 C        6.1260     2.5880    -0.1400 C.ar  1 <1>  -0.1440 
 16 C       -2.8910     6.2830     1.7360 C.3   1 <1>   0.0400 
 17 O       -4.6280     4.4840     0.3790 O.3   1 <1>  -0.3630 
 18 C       -4.9360     0.4610    -0.4850 C.3   1 <1>   0.0400 
 19 C        6.4360     3.1610    -1.3640 C.ar  1 <1>  -0.1500 
 20 C        6.8170     2.9900     0.9930 C.ar  1 <1>  -0.1500 
 21 C       -5.2400     4.8760    -0.8280 C.3   1 <1>   0.0400 
 22 C        7.4270     4.1240    -1.4550 C.ar  1 <1>  -0.1500 
 23 C        7.8080     3.9530     0.9040 C.ar  1 <1>  -0.1500 
 24 C        8.1130     4.5210    -0.3210 C.ar  1 <1>  -0.1500 
 25 H        1.2480     2.6400     1.0400 H     1 <1>   0.3700 
 26 H        2.5440     0.5290    -0.6190 H     1 <1>   0.0800 
 27 H        2.7140     0.5380     1.1220 H     1 <1>   0.0800 
 28 H       -0.1380     4.1180     0.3960 H     1 <1>   0.1500 
 29 H       -2.3980     0.6400    -0.4830 H     1 <1>   0.1500 
 30 H        3.6880     2.8110     1.0210 H     1 <1>   0.0800 
 31 H        3.4720     2.8310    -0.7140 H     1 <1>   0.0800 
 32 H        5.0370     0.9350    -0.9370 H     1 <1>   0.0800 
 33 H        5.2380     0.8820     0.7880 H     1 <1>   0.0800 
 34 H       -2.3650     7.1100     2.1760 H     1 <1>   0.0800 
 35 H       -3.1570     5.5680     2.4950 H     1 <1>   0.0800 
 36 H       -3.7690     6.6400     1.2290 H     1 <1>   0.0800 
 37 H       -5.9880     0.2480    -0.5380 H     1 <1>   0.0800 
 38 H       -4.4910    -0.0980     0.3180 H     1 <1>   0.0800 
 39 H       -4.4690     0.2260    -1.4260 H     1 <1>   0.0800 
 40 H        5.9070     2.8600    -2.2510 H     1 <1>   0.1500 
 41 H        6.5870     2.5560     1.9500 H     1 <1>   0.1500 
 42 H       -6.1040     5.4690    -0.5900 H     1 <1>   0.0800 
 43 H       -5.5360     3.9990    -1.3750 H     1 <1>   0.0800 
 44 H       -4.5370     5.4570    -1.3990 H     1 <1>   0.0800 
 45 H        7.6630     4.5640    -2.4080 H     1 <1>   0.1500 
 46 H        8.3410     4.2600     1.7860 H     1 <1>   0.1500 
 47 H        8.8830     5.2690    -0.3910 H     1 <1>   0.1500 
@<TRIPOS>BOND
  1   1   2  2   
  2   2   3  am  
  3   2   4  1   
  4   3   5  1   
  5   3  25  1   
  6   4   6  ar  
  7   4   7  ar  
  8   5   8  1   
  9   5  26  1   
 10   5  27  1   
 11   6   9  ar  
 12   6  28  1   
 13   7  10  ar  
 14   7  29  1   
 15   8  11  1   
 16   8  30  1   
 17   8  31  1   
 18   9  12  1   
 19   9  13  ar  
 20  10  13  ar  
 21  10  14  1   
 22  11  15  1   
 23  11  32  1   
 24  11  33  1   
 25  12  16  1   
 26  13  17  1   
 27  14  18  1   
 28  15  19  ar  
 29  15  20  ar  
 30  16  34  1   
 31  16  35  1   
 32  16  36  1   
 33  17  21  1   
 34  18  37  1   
 35  18  38  1   
 36  18  39  1   
 37  19  22  ar  
 38  19  40  1   
 39  20  23  ar  
 40  20  41  1   
 41  21  42  1   
 42  21  43  1   
 43  21  44  1   
 44  22  24  ar  
 45  22  45  1   
 46  23  24  ar  
 47  23  46  1   
 48  24  47  1   
@<TRIPOS>SUBSTRUCTURE
  1 ****   3 GROUP 4 **** **** 0

# MOE 2024.06 (io_trps.svl 2023.06)
