@<TRIPOS>MOLECULE
NONAME
43 44 1 0 0 
SMALL
USER_CHARGES


@<TRIPOS>ATOM
  1 O       -4.7640     4.9320    -0.0790 O.3   1 <1>  -0.3630 
  2 C       -6.1090     4.7540    -0.1130 C.ar  1 <1>   0.0830 
  3 C       -3.9020     3.9120     0.3700 C.3   1 <1>   0.2580 
  4 C       -6.8630     5.8210    -0.5730 C.ar  1 <1>  -0.1500 
  5 C       -6.7520     3.5820     0.2800 C.ar  1 <1>  -0.1500 
  6 C       -2.4790     4.4290     0.2920 C.2   1 <1>  -0.2880 
  7 C       -8.2410     5.7280    -0.6410 C.ar  1 <1>  -0.1500 
  8 C       -8.1320     3.4880     0.2120 C.ar  1 <1>  -0.1500 
  9 C       -1.4800     3.8560    -0.3880 C.2   1 <1>  -0.3000 
 10 C       -8.8850     4.5650    -0.2510 C.ar  1 <1>   0.0830 
 11 O      -10.2410     4.5580    -0.3500 O.3   1 <1>  -0.3630 
 12 C      -10.9930     3.4190    -0.0140 C.3   1 <1>   0.1200 
 13 C      -12.4660     3.7660    -0.2510 C.3   1 <1>   0.3430 
 14 N      -13.3990     2.6450     0.1030 N.4   1 <1>  -0.9590 
 15 C      -13.2540     1.4730    -0.8160 C.3   1 <1>   0.3430 
 16 C      -14.8070     3.1410     0.1220 C.3   1 <1>   0.3430 
 17 C      -14.1500     0.3290    -0.3380 C.3   1 <1>  -0.1600 
 18 C      -15.7380     2.0350     0.6220 C.3   1 <1>  -0.1600 
 19 C      -15.6170     0.7630    -0.2270 C.3   1 <1>  -0.1600 
 20 H       -4.0330     3.0510    -0.2620 H     1 <1>   0.0800 
 21 H       -4.1590     3.6730     1.3870 H     1 <1>   0.0800 
 22 H       -6.3620     6.7230    -0.8750 H     1 <1>   0.1500 
 23 H       -6.1960     2.7380     0.6400 H     1 <1>   0.1500 
 24 H       -2.3510     5.3360     0.8570 H     1 <1>   0.1500 
 25 H       -8.8200     6.5610    -0.9980 H     1 <1>   0.1500 
 26 H       -8.5930     2.5710     0.5250 H     1 <1>   0.1500 
 27 H       -0.4790     4.2500    -0.4260 H     1 <1>   0.1500 
 28 H       -1.5760     2.9530    -0.9650 H     1 <1>   0.1500 
 29 H      -10.8120     3.1950     1.0230 H     1 <1>   0.0800 
 30 H      -10.6710     2.6130    -0.6480 H     1 <1>   0.0800 
 31 H      -12.5990     4.0320    -1.2880 H     1 <1>   0.0800 
 32 H      -12.7040     4.6280     0.3500 H     1 <1>   0.0800 
 33 H      -13.1880     2.3220     1.0560 H     1 <1>   0.4500 
 34 H      -12.2300     1.1370    -0.8370 H     1 <1>   0.0800 
 35 H      -13.5390     1.7570    -1.8170 H     1 <1>   0.0800 
 36 H      -15.1040     3.4380    -0.8710 H     1 <1>   0.0800 
 37 H      -14.8900     3.9980     0.7720 H     1 <1>   0.0800 
 38 H      -13.7990    -0.0270     0.6160 H     1 <1>   0.0800 
 39 H      -14.0740    -0.4900    -1.0320 H     1 <1>   0.0800 
 40 H      -16.7550     2.3880     0.5880 H     1 <1>   0.0800 
 41 H      -15.5120     1.8130     1.6510 H     1 <1>   0.0800 
 42 H      -16.2020    -0.0290     0.2120 H     1 <1>   0.0800 
 43 H      -16.0110     0.9510    -1.2130 H     1 <1>   0.0800 
@<TRIPOS>BOND
  1   1   2  1   
  2   1   3  1   
  3   2   4  ar  
  4   2   5  ar  
  5   3   6  1   
  6   3  20  1   
  7   3  21  1   
  8   4   7  ar  
  9   4  22  1   
 10   5   8  ar  
 11   5  23  1   
 12   6   9  2   
 13   6  24  1   
 14   7  10  ar  
 15   7  25  1   
 16   8  10  ar  
 17   8  26  1   
 18   9  27  1   
 19   9  28  1   
 20  10  11  1   
 21  11  12  1   
 22  12  13  1   
 23  12  29  1   
 24  12  30  1   
 25  13  14  1   
 26  13  31  1   
 27  13  32  1   
 28  14  15  1   
 29  14  16  1   
 30  14  33  1   
 31  15  17  1   
 32  15  34  1   
 33  15  35  1   
 34  16  18  1   
 35  16  36  1   
 36  16  37  1   
 37  17  19  1   
 38  17  38  1   
 39  17  39  1   
 40  18  19  1   
 41  18  40  1   
 42  18  41  1   
 43  19  42  1   
 44  19  43  1   
@<TRIPOS>SUBSTRUCTURE
  1 ****  10 GROUP 4 **** **** 0

# MOE 2024.06 (io_trps.svl 2023.06)
