@<TRIPOS>MOLECULE
NONAME
30 31 1 0 0 
SMALL
USER_CHARGES


@<TRIPOS>ATOM
  1 O        0.2870    -0.5650     1.0770 O.3   1 <1>  -0.6800 
  2 C        1.2550    -0.9030     0.1640 C.3   1 <1>   0.2000 
  3 C        1.5050    -2.4070     0.2760 C.3   1 <1>  -0.1600 
  4 C        2.5020    -0.0950     0.5170 C.3   1 <1>  -0.1600 
  5 C        2.7310    -2.8190    -0.5360 C.3   1 <1>   0.3430 
  6 C        3.7040    -0.5530    -0.3010 C.3   1 <1>   0.3430 
  7 N        3.9110    -2.0200    -0.1060 N.4   1 <1>  -0.9590 
  8 C        5.1540    -2.4780    -0.7700 C.3   1 <1>   0.5230 
  9 C        6.3100    -1.7890    -0.0860 C.2   1 <1>  -0.3320 
 10 N        6.8130    -2.1700     1.1250 N.pl3 1 <1>   0.0330 
 11 C        7.0190    -0.7200    -0.5440 C.2   1 <1>  -0.1500 
 12 C        7.8270    -1.3210     1.4270 C.2   1 <1>  -0.3020 
 13 C        7.9800    -0.4210     0.4230 C.2   1 <1>  -0.1500 
 14 H       -0.5840    -0.9390     0.8370 H     1 <1>   0.4000 
 15 H        0.9000    -0.6400    -0.8190 H     1 <1>   0.0800 
 16 H        0.6480    -2.9420    -0.0910 H     1 <1>   0.0800 
 17 H        1.6570    -2.6800     1.3060 H     1 <1>   0.0800 
 18 H        2.7280    -0.1990     1.5640 H     1 <1>   0.0800 
 19 H        2.3180     0.9460     0.3180 H     1 <1>   0.0800 
 20 H        2.5400    -2.6540    -1.5850 H     1 <1>   0.0800 
 21 H        2.9190    -3.8710    -0.3870 H     1 <1>   0.0800 
 22 H        4.5770    -0.0070     0.0210 H     1 <1>   0.0800 
 23 H        3.5370    -0.3400    -1.3450 H     1 <1>   0.0800 
 24 H        4.0520    -2.1540     0.9010 H     1 <1>   0.4500 
 25 H        5.1360    -2.2150    -1.8160 H     1 <1>   0.0800 
 26 H        5.2630    -3.5470    -0.6840 H     1 <1>   0.0800 
 27 H        6.5310    -2.9650     1.7140 H     1 <1>   0.2700 
 28 H        6.9050    -0.1730    -1.4660 H     1 <1>   0.1500 
 29 H        8.3970    -1.4010     2.3380 H     1 <1>   0.1500 
 30 H        8.7010     0.3790     0.3590 H     1 <1>   0.1500 
@<TRIPOS>BOND
  1   1   2  1   
  2   1  14  1   
  3   2   3  1   
  4   2   4  1   
  5   2  15  1   
  6   3   5  1   
  7   3  16  1   
  8   3  17  1   
  9   4   6  1   
 10   4  18  1   
 11   4  19  1   
 12   5   7  1   
 13   5  20  1   
 14   5  21  1   
 15   6   7  1   
 16   6  22  1   
 17   6  23  1   
 18   7   8  1   
 19   7  24  1   
 20   8   9  1   
 21   8  25  1   
 22   8  26  1   
 23   9  10  1   
 24   9  11  2   
 25  10  12  1   
 26  10  27  1   
 27  11  13  1   
 28  11  28  1   
 29  12  13  2   
 30  12  29  1   
 31  13  30  1   
@<TRIPOS>SUBSTRUCTURE
  1 ****   7 GROUP 4 **** **** 0

# MOE 2024.06 (io_trps.svl 2023.06)
