@<TRIPOS>MOLECULE
NONAME
43 44 1 0 0 
SMALL
USER_CHARGES


@<TRIPOS>ATOM
  1 O        1.2980    -1.1440     1.6290 O.2   1 <1>  -0.5700 
  2 C        1.1110    -1.9340     0.7310 C.2   1 <1>   0.6900 
  3 N        1.8690    -2.0300    -0.4000 N.am  1 <1>  -0.4200 
  4 N        0.1280    -2.8560     0.7430 N.am  1 <1>  -0.7300 
  5 C        1.4170    -3.0660    -1.1630 C.2   1 <1>   0.5690 
  6 C        3.0260    -1.1710    -0.7170 C.3   1 <1>   0.1400 
  7 C        0.2240    -3.7220    -0.4380 C.3   1 <1>   0.3610 
  8 O        1.8740    -3.4140    -2.2270 O.2   1 <1>  -0.5700 
  9 C        4.3040    -1.7890    -0.1470 C.3   1 <1>  -0.1600 
 10 C       -1.0860    -3.6300    -1.2230 C.3   1 <1>  -0.2400 
 11 C        0.5140    -5.1520     0.0220 C.3   1 <1>  -0.2400 
 12 C        5.5150    -0.9120    -0.4610 C.3   1 <1>   0.1200 
 13 O        6.6570    -1.5350     0.0770 O.3   1 <1>  -0.3630 
 14 C        7.8890    -0.9810    -0.0510 C.ar  1 <1>   0.0820 
 15 C        8.9470    -1.6790     0.5100 C.ar  1 <1>  -0.1500 
 16 C        8.1340     0.2240    -0.7020 C.ar  1 <1>  -0.1500 
 17 C       10.2420    -1.1930     0.4300 C.ar  1 <1>  -0.1440 
 18 C        9.4260     0.7130    -0.7850 C.ar  1 <1>  -0.1500 
 19 C       10.4760     0.0070    -0.2220 C.ar  1 <1>  -0.1500 
 20 C       11.3930    -1.9690     1.0490 C.3   1 <1>  -0.0170 
 21 C       11.9990    -2.9360     0.0290 C.3   1 <1>  -0.2400 
 22 H       -0.4210    -3.0730     1.5730 H     1 <1>   0.3700 
 23 H        2.8640    -0.1940    -0.2940 H     1 <1>   0.0800 
 24 H        3.1070    -1.0730    -1.7870 H     1 <1>   0.0800 
 25 H        4.4550    -2.7610    -0.5830 H     1 <1>   0.0800 
 26 H        4.2090    -1.8830     0.9200 H     1 <1>   0.0800 
 27 H       -1.2870    -2.6090    -1.4950 H     1 <1>   0.0800 
 28 H       -1.9060    -4.0100    -0.6400 H     1 <1>   0.0800 
 29 H       -1.0080    -4.2100    -2.1250 H     1 <1>   0.0800 
 30 H        1.4170    -5.1820     0.6070 H     1 <1>   0.0800 
 31 H        0.6500    -5.7860    -0.8360 H     1 <1>   0.0800 
 32 H       -0.3020    -5.5370     0.6060 H     1 <1>   0.0800 
 33 H        5.4140     0.0580    -0.0050 H     1 <1>   0.0800 
 34 H        5.6530    -0.8160    -1.5240 H     1 <1>   0.0800 
 35 H        8.7440    -2.6100     1.0080 H     1 <1>   0.1500 
 36 H        7.3410     0.7920    -1.1470 H     1 <1>   0.1500 
 37 H        9.6180     1.6440    -1.2890 H     1 <1>   0.1500 
 38 H       11.4770     0.3960    -0.2940 H     1 <1>   0.1500 
 39 H       11.0410    -2.5200     1.9030 H     1 <1>   0.0800 
 40 H       12.1500    -1.2850     1.3920 H     1 <1>   0.0800 
 41 H       11.2520    -3.6350    -0.3060 H     1 <1>   0.0800 
 42 H       12.8110    -3.4830     0.4720 H     1 <1>   0.0800 
 43 H       12.3680    -2.3930    -0.8230 H     1 <1>   0.0800 
@<TRIPOS>BOND
  1   1   2  2   
  2   2   3  am  
  3   2   4  am  
  4   3   5  am  
  5   3   6  1   
  6   4   7  1   
  7   4  22  1   
  8   5   7  1   
  9   5   8  2   
 10   6   9  1   
 11   6  23  1   
 12   6  24  1   
 13   7  10  1   
 14   7  11  1   
 15   9  12  1   
 16   9  25  1   
 17   9  26  1   
 18  10  27  1   
 19  10  28  1   
 20  10  29  1   
 21  11  30  1   
 22  11  31  1   
 23  11  32  1   
 24  12  13  1   
 25  12  33  1   
 26  12  34  1   
 27  13  14  1   
 28  14  15  ar  
 29  14  16  ar  
 30  15  17  ar  
 31  15  35  1   
 32  16  18  ar  
 33  16  36  1   
 34  17  19  ar  
 35  17  20  1   
 36  18  19  ar  
 37  18  37  1   
 38  19  38  1   
 39  20  21  1   
 40  20  39  1   
 41  20  40  1   
 42  21  41  1   
 43  21  42  1   
 44  21  43  1   
@<TRIPOS>SUBSTRUCTURE
  1 ****   9 GROUP 4 **** **** 0

# MOE 2024.06 (io_trps.svl 2023.06)
