@<TRIPOS>MOLECULE
NONAME
43 46 1 0 0 
SMALL
USER_CHARGES


@<TRIPOS>ATOM
  1 O        4.0130    -4.9100     0.3600 O.3   1 <1>  -0.3630 
  2 C        2.9020    -4.1390     0.2020 C.ar  1 <1>   0.0830 
  3 C        5.3030    -4.3390     0.3610 C.3   1 <1>   0.0400 
  4 C        1.6900    -4.7860     0.2290 C.ar  1 <1>  -0.1500 
  5 C        2.9520    -2.7420     0.0160 C.ar  1 <1>  -0.1500 
  6 C        0.5050    -4.0570     0.0730 C.ar  1 <1>   0.0000 
  7 C        1.7960    -2.0130    -0.1380 C.ar  1 <1>  -0.1500 
  8 C        0.5630    -2.6740    -0.1050 C.ar  1 <1>  -0.1520 
  9 C       -0.8560    -4.3970     0.0300 C.2   1 <1>  -0.1810 
 10 N       -0.7190    -2.2010    -0.2330 N.pl3 1 <1>   0.0480 
 11 C       -1.5690    -3.2600    -0.1440 C.2   1 <1>  -0.2270 
 12 C       -1.5540    -5.7410     0.0720 C.3   1 <1>   0.0210 
 13 C       -1.1950    -0.9030    -0.7380 C.3   1 <1>   0.0960 
 14 C       -2.9750    -3.1600    -0.2710 C.cat 1 <1>   0.7840 
 15 C       -3.0830    -5.5960     0.2950 C.3   1 <1>   0.3300 
 16 C       -2.6980    -0.7110    -0.4300 C.3   1 <1>   0.3300 
 17 N       -3.6720    -4.2740    -0.1280 N.pl3 1 <1>  -0.7940 
 18 N       -3.5340    -1.9700    -0.4930 N.pl3 1 <1>  -0.8330 
 19 C       -4.9880    -1.7430    -0.7160 C.3   1 <1>   0.3290 
 20 C       -5.6670    -1.4050     0.6150 C.3   1 <1>  -0.1600 
 21 C       -7.1810    -1.2250     0.4470 C.3   1 <1>  -0.2400 
 22 H        6.0170    -5.1300     0.5060 H     1 <1>   0.0800 
 23 H        5.3720    -3.6330     1.1690 H     1 <1>   0.0800 
 24 H        5.4750    -3.8620    -0.5870 H     1 <1>   0.0800 
 25 H        1.6470    -5.8500     0.3660 H     1 <1>   0.1500 
 26 H        3.8940    -2.2300    -0.0090 H     1 <1>   0.1500 
 27 H        1.8340    -0.9480    -0.2790 H     1 <1>   0.1500 
 28 H       -1.1310    -6.3510     0.8510 H     1 <1>   0.0800 
 29 H       -1.3790    -6.2430    -0.8630 H     1 <1>   0.0800 
 30 H       -1.0390    -0.8810    -1.8010 H     1 <1>   0.0800 
 31 H       -0.6190    -0.1130    -0.2930 H     1 <1>   0.0800 
 32 H       -3.2810    -5.7220     1.3460 H     1 <1>   0.0800 
 33 H       -3.5860    -6.3930    -0.2270 H     1 <1>   0.0800 
 34 H       -3.0870     0.0210    -1.1170 H     1 <1>   0.0800 
 35 H       -2.7880    -0.2960     0.5600 H     1 <1>   0.0800 
 36 H       -4.6850    -4.2490    -0.1910 H     1 <1>   0.4500 
 37 H       -5.4400    -2.6220    -1.1430 H     1 <1>   0.0800 
 38 H       -5.1320    -0.9380    -1.4180 H     1 <1>   0.0800 
 39 H       -5.2550    -0.4940     1.0110 H     1 <1>   0.0800 
 40 H       -5.4870    -2.1940     1.3240 H     1 <1>   0.0800 
 41 H       -7.3980    -0.4220    -0.2370 H     1 <1>   0.0800 
 42 H       -7.6300    -0.9860     1.3970 H     1 <1>   0.0800 
 43 H       -7.6380    -2.1270     0.0780 H     1 <1>   0.0800 
@<TRIPOS>BOND
  1   1   2  1   
  2   1   3  1   
  3   2   4  ar  
  4   2   5  ar  
  5   3  22  1   
  6   3  23  1   
  7   3  24  1   
  8   4   6  ar  
  9   4  25  1   
 10   5   7  ar  
 11   5  26  1   
 12   6   8  ar  
 13   6   9  1   
 14   7   8  ar  
 15   7  27  1   
 16   8  10  1   
 17   9  11  2   
 18   9  12  1   
 19  10  11  1   
 20  10  13  1   
 21  11  14  1   
 22  12  15  1   
 23  12  28  1   
 24  12  29  1   
 25  13  16  1   
 26  13  30  1   
 27  13  31  1   
 28  14  17  ar  
 29  14  18  ar  
 30  15  17  1   
 31  15  32  1   
 32  15  33  1   
 33  16  18  1   
 34  16  34  1   
 35  16  35  1   
 36  17  36  1   
 37  18  19  1   
 38  19  20  1   
 39  19  37  1   
 40  19  38  1   
 41  20  21  1   
 42  20  39  1   
 43  20  40  1   
 44  21  41  1   
 45  21  42  1   
 46  21  43  1   
@<TRIPOS>SUBSTRUCTURE
  1 ****  11 GROUP 4 **** **** 0

# MOE 2024.06 (io_trps.svl 2023.06)
