@<TRIPOS>MOLECULE
NONAME
48 50 1 0 0 
SMALL
USER_CHARGES


@<TRIPOS>ATOM
  1 BR       1.4540    -0.8700    -2.4150 Br    1 <1>  -0.1110 
  2 C        0.4770    -2.1910    -1.4040 C.ar  1 <1>   0.1110 
  3 C        0.9670    -2.6460    -0.1920 C.ar  1 <1>   0.0820 
  4 C       -0.7150    -2.6520    -1.9310 C.ar  1 <1>  -0.1500 
  5 O        2.1280    -2.1850     0.3170 O.3   1 <1>  -0.5330 
  6 C        0.2450    -3.6030     0.5150 C.ar  1 <1>   0.0830 
  7 C       -1.4480    -3.5930    -1.2200 C.ar  1 <1>  -0.1430 
  8 O        0.7710    -4.0290     1.6990 O.3   1 <1>  -0.3630 
  9 C       -0.9620    -4.0710    -0.0050 C.ar  1 <1>  -0.1500 
 10 C       -2.7740    -4.0860    -1.7700 C.3   1 <1>   0.4860 
 11 C        0.2440    -5.1430     2.3880 C.3   1 <1>   0.0400 
 12 N       -3.8760    -3.4470    -1.0040 N.4   1 <1>  -0.9590 
 13 C       -5.2040    -4.0180    -1.3570 C.3   1 <1>   0.4860 
 14 C       -3.9020    -1.9580    -1.1420 C.3   1 <1>   0.3430 
 15 C       -6.2850    -3.3870    -0.4960 C.ar  1 <1>  -0.1430 
 16 C       -4.8240    -1.3500    -0.0820 C.3   1 <1>  -0.0170 
 17 C       -6.1180    -2.1350     0.0880 C.ar  1 <1>  -0.1430 
 18 C       -7.4700    -4.0820    -0.2960 C.ar  1 <1>  -0.1500 
 19 C       -7.1390    -1.5890     0.8480 C.ar  1 <1>  -0.1500 
 20 C       -8.4850    -3.5460     0.4770 C.ar  1 <1>   0.0830 
 21 C       -8.3280    -2.2730     1.0330 C.ar  1 <1>   0.0830 
 22 O       -9.5930    -4.3090     0.6480 O.3   1 <1>  -0.3620 
 23 O       -9.2940    -1.6560     1.7540 O.3   1 <1>  -0.3620 
 24 C       -9.9400    -4.6580     1.9720 C.3   1 <1>   0.0400 
 25 C      -10.4550    -1.2750     1.0490 C.3   1 <1>   0.0400 
 26 H       -1.0420    -2.2660    -2.8810 H     1 <1>   0.1500 
 27 H        2.3230    -2.6260     1.1690 H     1 <1>   0.4500 
 28 H       -1.5240    -4.8080     0.5360 H     1 <1>   0.1500 
 29 H       -2.8230    -5.1580    -1.6690 H     1 <1>   0.0800 
 30 H       -2.8530    -3.8380    -2.8160 H     1 <1>   0.0800 
 31 H        0.8750    -5.3380     3.2370 H     1 <1>   0.0800 
 32 H        0.2460    -5.9960     1.7330 H     1 <1>   0.0800 
 33 H       -0.7510    -4.9120     2.7240 H     1 <1>   0.0800 
 34 H       -3.7280    -3.6450    -0.0070 H     1 <1>   0.4500 
 35 H       -5.2030    -5.0840    -1.1980 H     1 <1>   0.0800 
 36 H       -5.4260    -3.8280    -2.3950 H     1 <1>   0.0800 
 37 H       -4.2620    -1.6910    -2.1220 H     1 <1>   0.0800 
 38 H       -2.9120    -1.5470    -1.0200 H     1 <1>   0.0800 
 39 H       -5.0480    -0.3340    -0.3560 H     1 <1>   0.0800 
 40 H       -4.3060    -1.3210     0.8610 H     1 <1>   0.0800 
 41 H       -7.6310    -5.0530    -0.7300 H     1 <1>   0.1500 
 42 H       -7.0320    -0.6210     1.3060 H     1 <1>   0.1500 
 43 H      -10.7050    -5.4120     1.9300 H     1 <1>   0.0800 
 44 H      -10.3130    -3.7920     2.4860 H     1 <1>   0.0800 
 45 H       -9.0690    -5.0440     2.4720 H     1 <1>   0.0800 
 46 H      -11.1050    -0.7530     1.7280 H     1 <1>   0.0800 
 47 H      -10.9490    -2.1530     0.6720 H     1 <1>   0.0800 
 48 H      -10.1730    -0.6290     0.2370 H     1 <1>   0.0800 
@<TRIPOS>BOND
  1   1   2  1   
  2   2   3  ar  
  3   2   4  ar  
  4   3   5  1   
  5   3   6  ar  
  6   4   7  ar  
  7   4  26  1   
  8   5  27  1   
  9   6   8  1   
 10   6   9  ar  
 11   7   9  ar  
 12   7  10  1   
 13   8  11  1   
 14   9  28  1   
 15  10  12  1   
 16  10  29  1   
 17  10  30  1   
 18  11  31  1   
 19  11  32  1   
 20  11  33  1   
 21  12  13  1   
 22  12  14  1   
 23  12  34  1   
 24  13  15  1   
 25  13  35  1   
 26  13  36  1   
 27  14  16  1   
 28  14  37  1   
 29  14  38  1   
 30  15  17  ar  
 31  15  18  ar  
 32  16  17  1   
 33  16  39  1   
 34  16  40  1   
 35  17  19  ar  
 36  18  20  ar  
 37  18  41  1   
 38  19  21  ar  
 39  19  42  1   
 40  20  21  ar  
 41  20  22  1   
 42  21  23  1   
 43  22  24  1   
 44  23  25  1   
 45  24  43  1   
 46  24  44  1   
 47  24  45  1   
 48  25  46  1   
 49  25  47  1   
 50  25  48  1   
@<TRIPOS>SUBSTRUCTURE
  1 ****  12 GROUP 4 **** **** 0

# MOE 2024.06 (io_trps.svl 2023.06)
