@<TRIPOS>MOLECULE
NONAME
47 48 1 0 0 
SMALL
USER_CHARGES


@<TRIPOS>ATOM
  1 O       -1.2620    -0.2730    -0.9920 O.3   1 <1>  -0.5600 
  2 C       -0.6850     0.5340     0.0040 C.3   1 <1>   0.4800 
  3 C       -2.1670    -1.2810    -0.6400 C.3   1 <1>   0.1200 
  4 C        0.2160    -0.3360     0.8280 C.1   1 <1>  -0.2000 
  5 C        0.1570     1.5780    -0.7700 C.3   1 <1>  -0.1600 
  6 C       -1.7680     1.2130     0.8810 C.3   1 <1>  -0.1600 
  7 C       -1.9060    -2.5000    -1.5260 C.3   1 <1>   0.0400 
  8 C        0.9580    -1.0740     1.3950 C.1   1 <1>  -0.2000 
  9 C        0.1260     2.9780    -0.1360 C.3   1 <1>  -0.1600 
 10 C       -2.3750     2.4410     0.1880 C.3   1 <1>  -0.1600 
 11 C       -0.6010    -3.1290    -1.1830 C.1   1 <1>   0.3570 
 12 C        1.9160    -2.0530     1.9730 C.3   1 <1>   0.5430 
 13 C       -1.3110     3.5270    -0.0610 C.3   1 <1>  -0.1600 
 14 N        0.3860    -3.6070    -0.8710 N.1   1 <1>  -0.5570 
 15 N        2.5870    -2.7510     0.8510 N.4   1 <1>  -0.9590 
 16 C        3.2920    -3.9820     1.2930 C.3   1 <1>   0.3430 
 17 C        3.4490    -1.8420     0.0430 C.3   1 <1>   0.3430 
 18 C        3.8000    -4.7510     0.0720 C.3   1 <1>  -0.1600 
 19 C        3.9590    -2.5820    -1.1940 C.3   1 <1>  -0.1600 
 20 C        4.6890    -3.8790    -0.8230 C.3   1 <1>  -0.1600 
 21 H       -3.1610    -0.8990    -0.8030 H     1 <1>   0.0800 
 22 H       -2.0540    -1.5480     0.3970 H     1 <1>   0.0800 
 23 H       -0.2310     1.6700    -1.7700 H     1 <1>   0.0800 
 24 H        1.1770     1.2470    -0.8530 H     1 <1>   0.0800 
 25 H       -1.3090     1.5490     1.7950 H     1 <1>   0.0800 
 26 H       -2.5410     0.5270     1.1690 H     1 <1>   0.0800 
 27 H       -1.9140    -2.2100    -2.5600 H     1 <1>   0.0800 
 28 H       -2.6840    -3.2240    -1.3700 H     1 <1>   0.0800 
 29 H        0.7390     3.6550    -0.7070 H     1 <1>   0.0800 
 30 H        0.5410     2.9230     0.8560 H     1 <1>   0.0800 
 31 H       -3.1740     2.8490     0.7840 H     1 <1>   0.0800 
 32 H       -2.7960     2.1330    -0.7550 H     1 <1>   0.0800 
 33 H        1.3740    -2.7610     2.5780 H     1 <1>   0.0800 
 34 H        2.6410    -1.5470     2.5900 H     1 <1>   0.0800 
 35 H       -1.5490     4.0330    -0.9810 H     1 <1>   0.0800 
 36 H       -1.3550     4.2600     0.7260 H     1 <1>   0.0800 
 37 H        1.8220    -3.0550     0.2160 H     1 <1>   0.4500 
 38 H        2.6200    -4.6120     1.8540 H     1 <1>   0.0800 
 39 H        4.1260    -3.7190     1.9250 H     1 <1>   0.0800 
 40 H        4.2850    -1.5080     0.6350 H     1 <1>   0.0800 
 41 H        2.8840    -0.9780    -0.2700 H     1 <1>   0.0800 
 42 H        2.9570    -5.1120    -0.4930 H     1 <1>   0.0800 
 43 H        4.3580    -5.6100     0.4020 H     1 <1>   0.0800 
 44 H        4.6260    -1.9380    -1.7400 H     1 <1>   0.0800 
 45 H        3.1260    -2.8030    -1.8400 H     1 <1>   0.0800 
 46 H        4.9480    -4.4200    -1.7180 H     1 <1>   0.0800 
 47 H        5.6040    -3.6430    -0.3050 H     1 <1>   0.0800 
@<TRIPOS>BOND
  1   1   2  1   
  2   1   3  1   
  3   2   4  1   
  4   2   5  1   
  5   2   6  1   
  6   3   7  1   
  7   3  21  1   
  8   3  22  1   
  9   4   8  3   
 10   5   9  1   
 11   5  23  1   
 12   5  24  1   
 13   6  10  1   
 14   6  25  1   
 15   6  26  1   
 16   7  11  1   
 17   7  27  1   
 18   7  28  1   
 19   8  12  1   
 20   9  13  1   
 21   9  29  1   
 22   9  30  1   
 23  10  13  1   
 24  10  31  1   
 25  10  32  1   
 26  11  14  3   
 27  12  15  1   
 28  12  33  1   
 29  12  34  1   
 30  13  35  1   
 31  13  36  1   
 32  15  16  1   
 33  15  17  1   
 34  15  37  1   
 35  16  18  1   
 36  16  38  1   
 37  16  39  1   
 38  17  19  1   
 39  17  40  1   
 40  17  41  1   
 41  18  20  1   
 42  18  42  1   
 43  18  43  1   
 44  19  20  1   
 45  19  44  1   
 46  19  45  1   
 47  20  46  1   
 48  20  47  1   
@<TRIPOS>SUBSTRUCTURE
  1 ****   4 GROUP 4 **** **** 0

# MOE 2024.06 (io_trps.svl 2023.06)
