@<TRIPOS>MOLECULE
NONAME
56 59 1 0 0 
SMALL
USER_CHARGES


@<TRIPOS>ATOM
  1 CL      -1.5660     1.4700     1.7270 Cl    1 <1>  -0.1770 
  2 C       -0.2410     2.3510     0.9790 C.ar  1 <1>   0.1770 
  3 C       -0.5310     3.2840     0.0120 C.ar  1 <1>   0.0830 
  4 C        1.0790     2.0700     1.3930 C.ar  1 <1>   0.0000 
  5 O       -1.8330     3.4900    -0.3300 O.3   1 <1>  -0.3630 
  6 C        0.5230     3.9870    -0.5860 C.ar  1 <1>  -0.1500 
  7 C        2.1330     2.7850     0.7760 C.ar  1 <1>   0.0000 
  8 C        1.4010     1.1150     2.3850 C.ar  1 <1>  -0.1500 
  9 C       -2.1870     4.2520    -1.4760 C.3   1 <1>   0.1810 
 10 C        1.8280     3.7520    -0.2240 C.ar  1 <1>   0.1000 
 11 C        3.4560     2.5050     1.1820 C.ar  1 <1>  -0.1500 
 12 C        2.6940     0.8710     2.7540 C.ar  1 <1>  -0.1500 
 13 C       -3.6880     4.2250    -1.7330 C.2   1 <1>   0.5690 
 14 N        2.8500     4.4690    -0.8380 N.pl3 1 <1>  -0.8380 
 15 C        3.7360     1.5750     2.1450 C.ar  1 <1>  -0.1500 
 16 O       -4.0910     4.7980    -2.7170 O.2   1 <1>  -0.5700 
 17 N       -4.4980     3.5710    -0.8460 N.am  1 <1>  -0.5470 
 18 C        3.0070     5.9080    -0.4760 C.3   1 <1>   0.2090 
 19 C        3.1290     4.2040    -2.2790 C.3   1 <1>   0.2090 
 20 C       -5.8920     3.3830    -0.7620 C.ar  1 <1>   0.1170 
 21 C        4.3420     6.4630    -1.0060 C.3   1 <1>   0.1200 
 22 C        4.4580     4.8540    -2.7070 C.3   1 <1>   0.1200 
 23 C       -6.4150     2.7940     0.3960 C.ar  1 <1>   0.0830 
 24 C       -6.7700     3.7520    -1.7760 C.ar  1 <1>  -0.1500 
 25 O        4.4770     6.2170    -2.3800 O.3   1 <1>  -0.5600 
 26 O       -5.5270     2.4380     1.3720 O.3   1 <1>  -0.3630 
 27 C       -7.7870     2.5930     0.5200 C.ar  1 <1>  -0.1500 
 28 C       -8.1320     3.5500    -1.6480 C.ar  1 <1>  -0.1500 
 29 C       -5.9650     1.9590     2.6220 C.3   1 <1>   0.1200 
 30 C       -8.6420     2.9710    -0.5000 C.ar  1 <1>  -0.1500 
 31 C       -4.7360     1.7030     3.4890 C.3   1 <1>  -0.2400 
 32 H        0.3340     4.7280    -1.3360 H     1 <1>   0.1500 
 33 H        0.6080     0.5670     2.8610 H     1 <1>   0.1500 
 34 H       -1.6790     3.8400    -2.3290 H     1 <1>   0.0800 
 35 H       -1.8790     5.2690    -1.3180 H     1 <1>   0.0800 
 36 H        4.2590     3.0460     0.7140 H     1 <1>   0.1500 
 37 H        2.9270     0.1420     3.5100 H     1 <1>   0.1500 
 38 H        4.7500     1.3750     2.4420 H     1 <1>   0.1500 
 39 H       -4.0020     3.1540    -0.0500 H     1 <1>   0.3700 
 40 H        2.9740     6.0120     0.5950 H     1 <1>   0.0800 
 41 H        2.1960     6.4780    -0.8950 H     1 <1>   0.0800 
 42 H        2.3320     4.6010    -2.8830 H     1 <1>   0.0800 
 43 H        3.1790     3.1410    -2.4430 H     1 <1>   0.0800 
 44 H        5.1670     6.0030    -0.4910 H     1 <1>   0.0800 
 45 H        4.3880     7.5260    -0.8560 H     1 <1>   0.0800 
 46 H        4.5880     4.7680    -3.7700 H     1 <1>   0.0800 
 47 H        5.2850     4.3700    -2.2160 H     1 <1>   0.0800 
 48 H       -6.4000     4.2000    -2.6780 H     1 <1>   0.1500 
 49 H       -8.2130     2.1440     1.3960 H     1 <1>   0.1500 
 50 H       -8.7940     3.8440    -2.4440 H     1 <1>   0.1500 
 51 H       -6.5140     1.0460     2.4670 H     1 <1>   0.0800 
 52 H       -6.5970     2.7060     3.0700 H     1 <1>   0.0800 
 53 H       -9.7020     2.8150    -0.4030 H     1 <1>   0.1500 
 54 H       -4.1240     0.9410     3.0420 H     1 <1>   0.0800 
 55 H       -5.0410     1.3680     4.4640 H     1 <1>   0.0800 
 56 H       -4.1630     2.6060     3.5980 H     1 <1>   0.0800 
@<TRIPOS>BOND
  1   1   2  1   
  2   2   3  ar  
  3   2   4  ar  
  4   3   5  1   
  5   3   6  ar  
  6   4   7  ar  
  7   4   8  ar  
  8   5   9  1   
  9   6  10  ar  
 10   6  32  1   
 11   7  10  ar  
 12   7  11  ar  
 13   8  12  ar  
 14   8  33  1   
 15   9  13  1   
 16   9  34  1   
 17   9  35  1   
 18  10  14  1   
 19  11  15  ar  
 20  11  36  1   
 21  12  15  ar  
 22  12  37  1   
 23  13  16  2   
 24  13  17  am  
 25  14  18  1   
 26  14  19  1   
 27  15  38  1   
 28  17  20  1   
 29  17  39  1   
 30  18  21  1   
 31  18  40  1   
 32  18  41  1   
 33  19  22  1   
 34  19  42  1   
 35  19  43  1   
 36  20  23  ar  
 37  20  24  ar  
 38  21  25  1   
 39  21  44  1   
 40  21  45  1   
 41  22  25  1   
 42  22  46  1   
 43  22  47  1   
 44  23  26  1   
 45  23  27  ar  
 46  24  28  ar  
 47  24  48  1   
 48  26  29  1   
 49  27  30  ar  
 50  27  49  1   
 51  28  30  ar  
 52  28  50  1   
 53  29  31  1   
 54  29  51  1   
 55  29  52  1   
 56  30  53  1   
 57  31  54  1   
 58  31  55  1   
 59  31  56  1   
@<TRIPOS>SUBSTRUCTURE
  1 ****   5 GROUP 4 **** **** 0

# MOE 2024.06 (io_trps.svl 2023.06)
