@<TRIPOS>MOLECULE
NONAME
38 41 1 0 0 
SMALL
USER_CHARGES


@<TRIPOS>ATOM
  1 S       -1.0140    -0.5810    -0.6700 S.3   1 <1>  -0.0800 
  2 C        0.3400     0.4110    -0.1570 C.2   1 <1>  -0.0360 
  3 C       -2.0280     0.8470    -0.7890 C.2   1 <1>  -0.1400 
  4 N        1.6120    -0.0780     0.1440 N.pl3 1 <1>   0.3790 
  5 C        0.0160     1.7310    -0.0840 C.2   1 <1>  -0.0860 
  6 C       -1.3590     1.9550    -0.4470 C.2   1 <1>  -0.1810 
  7 C       -3.4750     0.7680    -1.2280 C.3   1 <1>   0.3000 
  8 C        2.2970    -1.2330     0.2050 C.2   1 <1>   0.2420 
  9 C        2.5700     0.8070     0.5230 C.2   1 <1>   0.2500 
 10 C        1.0270     2.6830     0.3180 C.2   1 <1>   0.7160 
 11 C       -2.0850     3.2880    -0.4870 C.3   1 <1>   0.0210 
 12 O       -3.9640     2.0690    -1.4580 O.3   1 <1>  -0.5600 
 13 S        1.5630    -2.8300    -0.1900 S.3   1 <1>  -0.2860 
 14 N        3.5210    -1.0930     0.5720 N.2   1 <1>  -0.3380 
 15 N        3.7020     0.2200     0.7780 N.2   1 <1>  -0.3380 
 16 N        2.2980     2.1920     0.6090 N.am  1 <1>  -0.4240 
 17 O        0.7910     3.8760     0.4070 O.2   1 <1>  -0.5700 
 18 C       -3.6250     3.0870    -0.5480 C.3   1 <1>   0.2800 
 19 C        2.9510    -4.0220     0.0670 C.3   1 <1>  -0.0100 
 20 C        3.4040     3.0970     1.0310 C.3   1 <1>   0.0600 
 21 C       -4.2190     2.7450     0.8270 C.3   1 <1>  -0.2400 
 22 C       -4.3020     4.3510    -1.0810 C.3   1 <1>  -0.2400 
 23 H       -4.0810     0.2970    -0.4750 H     1 <1>   0.0800 
 24 H       -3.5620     0.2200    -2.1490 H     1 <1>   0.0800 
 25 H       -1.7510     3.8330    -1.3510 H     1 <1>   0.0800 
 26 H       -1.8390     3.8720     0.3810 H     1 <1>   0.0800 
 27 H        3.7490    -3.7470    -0.5990 H     1 <1>   0.0800 
 28 H        2.5850    -5.0080    -0.1520 H     1 <1>   0.0800 
 29 H        3.2660    -3.9440     1.0930 H     1 <1>   0.0800 
 30 H        3.6530     2.9020     2.0590 H     1 <1>   0.0800 
 31 H        3.1240     4.1310     0.9290 H     1 <1>   0.0800 
 32 H        4.2710     2.9150     0.4210 H     1 <1>   0.0800 
 33 H       -3.7180     1.9040     1.2710 H     1 <1>   0.0800 
 34 H       -5.2690     2.5290     0.7360 H     1 <1>   0.0800 
 35 H       -4.1030     3.5800     1.4940 H     1 <1>   0.0800 
 36 H       -3.9440     4.5760    -2.0690 H     1 <1>   0.0800 
 37 H       -4.0890     5.1890    -0.4420 H     1 <1>   0.0800 
 38 H       -5.3670     4.2140    -1.1210 H     1 <1>   0.0800 
@<TRIPOS>BOND
  1   1   2  1   
  2   1   3  1   
  3   2   4  1   
  4   2   5  2   
  5   3   6  2   
  6   3   7  1   
  7   4   8  1   
  8   4   9  1   
  9   5   6  1   
 10   5  10  1   
 11   6  11  1   
 12   7  12  1   
 13   7  23  1   
 14   7  24  1   
 15   8  13  1   
 16   8  14  2   
 17   9  15  2   
 18   9  16  1   
 19  10  16  am  
 20  10  17  2   
 21  11  18  1   
 22  11  25  1   
 23  11  26  1   
 24  12  18  1   
 25  13  19  1   
 26  14  15  1   
 27  16  20  1   
 28  18  21  1   
 29  18  22  1   
 30  19  27  1   
 31  19  28  1   
 32  19  29  1   
 33  20  30  1   
 34  20  31  1   
 35  20  32  1   
 36  21  33  1   
 37  21  34  1   
 38  21  35  1   
 39  22  36  1   
 40  22  37  1   
 41  22  38  1   
@<TRIPOS>SUBSTRUCTURE
  1 ****   5 GROUP 4 **** **** 0

# MOE 2024.06 (io_trps.svl 2023.06)
