@<TRIPOS>MOLECULE
NONAME
42 44 1 0 0 
SMALL
USER_CHARGES


@<TRIPOS>ATOM
  1 O       -0.2100    -3.7830     2.6280 O.2   1 <1>  -0.5700 
  2 C       -0.7610    -3.8640     1.5610 C.2   1 <1>   0.5690 
  3 N       -0.1100    -4.5360     0.5720 N.am  1 <1>  -0.7300 
  4 C       -2.1110    -3.1630     1.3410 C.3   1 <1>   0.2610 
  5 C       -0.3180    -4.4860    -0.9040 C.3   1 <1>   0.1400 
  6 O       -1.9970    -2.2200     0.2710 O.3   1 <1>  -0.3620 
  7 C       -2.6080    -2.4480     2.6110 C.3   1 <1>   0.1200 
  8 C        0.6030    -3.4520    -1.6000 C.3   1 <1>   0.3430 
  9 C       -3.0030    -1.3200     0.1310 C.ar  1 <1>   0.0820 
 10 O       -3.8070    -1.7440     2.3500 O.3   1 <1>  -0.3630 
 11 N        0.5720    -2.1050    -0.9380 N.4   1 <1>  -0.9590 
 12 C       -3.9050    -1.0840     1.1700 C.ar  1 <1>   0.0820 
 13 C       -3.1310    -0.6340    -1.0650 C.ar  1 <1>  -0.1500 
 14 C        0.7100    -0.9700    -1.9100 C.3   1 <1>   0.3430 
 15 C        1.5930    -1.9630     0.1630 C.3   1 <1>   0.3430 
 16 C       -4.9240    -0.1640     1.0040 C.ar  1 <1>  -0.1500 
 17 C       -4.1510     0.2900    -1.2240 C.ar  1 <1>  -0.1500 
 18 C        0.6760     0.3880    -1.1810 C.3   1 <1>   0.1200 
 19 C        1.5240    -0.5640     0.8020 C.3   1 <1>   0.1200 
 20 C       -5.0450     0.5250    -0.1920 C.ar  1 <1>  -0.1500 
 21 O        1.6540     0.4230    -0.1820 O.3   1 <1>  -0.5600 
 22 H        0.6900    -5.0920     0.8970 H     1 <1>   0.3700 
 23 H       -2.8360    -3.9000     1.0520 H     1 <1>   0.0800 
 24 H       -1.3450    -4.2500    -1.1220 H     1 <1>   0.0800 
 25 H       -0.1260    -5.4620    -1.3170 H     1 <1>   0.0800 
 26 H       -1.8760    -1.7410     2.9610 H     1 <1>   0.0800 
 27 H       -2.8050    -3.1570     3.3950 H     1 <1>   0.0800 
 28 H        0.2780    -3.3580    -2.6230 H     1 <1>   0.0800 
 29 H        1.6130    -3.8260    -1.6170 H     1 <1>   0.0800 
 30 H       -0.3550    -2.0050    -0.4880 H     1 <1>   0.4500 
 31 H       -2.4520    -0.8190    -1.8740 H     1 <1>   0.1500 
 32 H       -0.0880    -1.0030    -2.6340 H     1 <1>   0.0800 
 33 H        1.6450    -1.0500    -2.4390 H     1 <1>   0.0800 
 34 H        2.5840    -2.1080    -0.2340 H     1 <1>   0.0800 
 35 H        1.4320    -2.7030     0.9280 H     1 <1>   0.0800 
 36 H       -5.6160     0.0110     1.8090 H     1 <1>   0.1500 
 37 H       -4.2580     0.8270    -2.1520 H     1 <1>   0.1500 
 38 H       -0.2860     0.5670    -0.7320 H     1 <1>   0.0800 
 39 H        0.8870     1.1870    -1.8710 H     1 <1>   0.0800 
 40 H        2.3300    -0.4360     1.5030 H     1 <1>   0.0800 
 41 H        0.5920    -0.4190     1.3220 H     1 <1>   0.0800 
 42 H       -5.8390     1.2420    -0.3180 H     1 <1>   0.1500 
@<TRIPOS>BOND
  1   1   2  2   
  2   2   3  am  
  3   2   4  1   
  4   3   5  1   
  5   3  22  1   
  6   4   6  1   
  7   4   7  1   
  8   4  23  1   
  9   5   8  1   
 10   5  24  1   
 11   5  25  1   
 12   6   9  1   
 13   7  10  1   
 14   7  26  1   
 15   7  27  1   
 16   8  11  1   
 17   8  28  1   
 18   8  29  1   
 19   9  12  ar  
 20   9  13  ar  
 21  10  12  1   
 22  11  14  1   
 23  11  15  1   
 24  11  30  1   
 25  12  16  ar  
 26  13  17  ar  
 27  13  31  1   
 28  14  18  1   
 29  14  32  1   
 30  14  33  1   
 31  15  19  1   
 32  15  34  1   
 33  15  35  1   
 34  16  20  ar  
 35  16  36  1   
 36  17  20  ar  
 37  17  37  1   
 38  18  21  1   
 39  18  38  1   
 40  18  39  1   
 41  19  21  1   
 42  19  40  1   
 43  19  41  1   
 44  20  42  1   
@<TRIPOS>SUBSTRUCTURE
  1 ****   6 GROUP 4 **** **** 0

# MOE 2024.06 (io_trps.svl 2023.06)
