@<TRIPOS>MOLECULE
NONAME
41 42 1 0 0 
SMALL
USER_CHARGES


@<TRIPOS>ATOM
  1 O        4.1100    -5.2070     0.2930 O.3   1 <1>  -0.3630 
  2 C        5.4430    -5.1890     0.0230 C.ar  1 <1>   0.0830 
  3 C        3.3330    -6.3580     0.0890 C.3   1 <1>   0.1200 
  4 C        6.1320    -4.0020     0.2560 C.ar  1 <1>  -0.1440 
  5 C        6.1310    -6.2960    -0.4700 C.ar  1 <1>  -0.1500 
  6 C        1.9010    -6.0080     0.4960 C.3   1 <1>   0.3430 
  7 C        7.4910    -3.9370    -0.0040 C.ar  1 <1>  -0.1500 
  8 C        5.4130    -2.7730     0.7950 C.3   1 <1>  -0.0960 
  9 C        7.4880    -6.2160    -0.7250 C.ar  1 <1>  -0.1500 
 10 N        0.9750    -7.1680     0.3200 N.4   1 <1>  -0.9060 
 11 C        8.1740    -5.0360    -0.4960 C.ar  1 <1>  -0.1430 
 12 C       -0.4210    -6.8640     0.6900 C.3   1 <1>   0.4230 
 13 C        9.6640    -4.9470    -0.7740 C.3   1 <1>  -0.0970 
 14 C       -1.2050    -8.1690     0.6670 C.3   1 <1>  -0.1600 
 15 C       -1.0780    -6.0580    -0.4270 C.3   1 <1>  -0.1600 
 16 C       -1.5340    -8.4350    -0.8080 C.3   1 <1>  -0.1600 
 17 C       -1.4560    -7.0740    -1.5120 C.3   1 <1>  -0.1600 
 18 H        3.7320    -7.1430     0.7080 H     1 <1>   0.0800 
 19 H        3.3880    -6.6170    -0.9540 H     1 <1>   0.0800 
 20 H        5.6420    -7.2300    -0.6630 H     1 <1>   0.1500 
 21 H        1.5680    -5.1800    -0.1080 H     1 <1>   0.0800 
 22 H        1.9030    -5.6980     1.5290 H     1 <1>   0.0800 
 23 H        8.0270    -3.0220     0.1760 H     1 <1>   0.1500 
 24 H        4.6370    -2.4760     0.1130 H     1 <1>   0.0800 
 25 H        6.0930    -1.9490     0.9180 H     1 <1>   0.0800 
 26 H        4.9730    -2.9970     1.7490 H     1 <1>   0.0800 
 27 H        8.0120    -7.0760    -1.1040 H     1 <1>   0.1500 
 28 H        1.2920    -7.9630     0.8860 H     1 <1>   0.4500 
 29 H        0.9570    -7.4760    -0.6590 H     1 <1>   0.4500 
 30 H       -0.4760    -6.3730     1.6500 H     1 <1>   0.0800 
 31 H        9.9220    -3.9620    -1.1200 H     1 <1>   0.0800 
 32 H        9.9520    -5.6560    -1.5290 H     1 <1>   0.0800 
 33 H       10.2150    -5.1540     0.1260 H     1 <1>   0.0800 
 34 H       -2.1290    -8.0150     1.1990 H     1 <1>   0.0800 
 35 H       -0.6870    -8.9890     1.1330 H     1 <1>   0.0800 
 36 H       -0.4700    -5.2560    -0.8060 H     1 <1>   0.0800 
 37 H       -1.9850    -5.6270    -0.0370 H     1 <1>   0.0800 
 38 H       -2.5170    -8.8680    -0.9070 H     1 <1>   0.0800 
 39 H       -0.8210    -9.1170    -1.2400 H     1 <1>   0.0800 
 40 H       -0.7090    -7.1010    -2.2870 H     1 <1>   0.0800 
 41 H       -2.4010    -6.8160    -1.9630 H     1 <1>   0.0800 
@<TRIPOS>BOND
  1   1   2  1   
  2   1   3  1   
  3   2   4  ar  
  4   2   5  ar  
  5   3   6  1   
  6   3  18  1   
  7   3  19  1   
  8   4   7  ar  
  9   4   8  1   
 10   5   9  ar  
 11   5  20  1   
 12   6  10  1   
 13   6  21  1   
 14   6  22  1   
 15   7  11  ar  
 16   7  23  1   
 17   8  24  1   
 18   8  25  1   
 19   8  26  1   
 20   9  11  ar  
 21   9  27  1   
 22  10  12  1   
 23  10  28  1   
 24  10  29  1   
 25  11  13  1   
 26  12  14  1   
 27  12  15  1   
 28  12  30  1   
 29  13  31  1   
 30  13  32  1   
 31  13  33  1   
 32  14  16  1   
 33  14  34  1   
 34  14  35  1   
 35  15  17  1   
 36  15  36  1   
 37  15  37  1   
 38  16  17  1   
 39  16  38  1   
 40  16  39  1   
 41  17  40  1   
 42  17  41  1   
@<TRIPOS>SUBSTRUCTURE
  1 ****   3 GROUP 4 **** **** 0

# MOE 2024.06 (io_trps.svl 2023.06)
