@<TRIPOS>MOLECULE
NONAME
50 52 1 0 0 
SMALL
USER_CHARGES


@<TRIPOS>ATOM
  1 S        0.3710     0.0400     1.8650 S.o2  1 <1>   1.2040 
  2 O       -0.6570    -0.5940     2.6630 O.2   1 <1>  -0.6500 
  3 O        1.6750     0.1790     2.4710 O.2   1 <1>  -0.6500 
  4 C       -0.2700     1.7090     1.5200 C.ar  1 <1>  -0.0090 
  5 C        0.4820    -0.8740     0.2910 C.3   1 <1>   0.2100 
  6 C        0.5680     2.8130     1.4360 C.ar  1 <1>  -0.1500 
  7 C       -1.6320     1.9390     1.3500 C.ar  1 <1>  -0.1500 
  8 S        2.1820    -0.6990    -0.3370 S.o2  1 <1>   1.2040 
  9 C       -0.5910    -0.3780    -0.7400 C.3   1 <1>  -0.1600 
 10 C        0.2440    -2.4030     0.5450 C.3   1 <1>  -0.1600 
 11 C        0.0870     4.0730     1.1310 C.ar  1 <1>  -0.1500 
 12 C       -2.1260     3.1960     1.0460 C.ar  1 <1>  -0.1500 
 13 O        3.0710    -1.4780     0.4980 O.2   1 <1>  -0.6500 
 14 O        2.1500    -1.0770    -1.7340 O.2   1 <1>  -0.6500 
 15 C        2.7280     1.0300    -0.3240 C.ar  1 <1>  -0.0090 
 16 C       -1.0290    -1.4420    -1.7590 C.3   1 <1>  -0.1600 
 17 C       -1.2150    -2.8540     0.3810 C.3   1 <1>  -0.1600 
 18 C       -1.2660     4.2720     0.9260 C.ar  1 <1>  -0.1430 
 19 C        3.6750     1.4740     0.5920 C.ar  1 <1>  -0.1500 
 20 C        2.2530     1.9490    -1.2530 C.ar  1 <1>  -0.1500 
 21 C       -1.7050    -2.6340    -1.0600 C.3   1 <1>  -0.1600 
 22 C       -1.8040     5.6500     0.5860 C.3   1 <1>  -0.0970 
 23 C        4.1140     2.7860     0.5990 C.ar  1 <1>  -0.1500 
 24 C        2.6820     3.2650    -1.2480 C.ar  1 <1>  -0.1500 
 25 C        3.6130     3.6930    -0.3180 C.ar  1 <1>  -0.1430 
 26 C        4.0880     5.1340    -0.3090 C.3   1 <1>  -0.0970 
 27 H        1.6190     2.7010     1.6260 H     1 <1>   0.1500 
 28 H       -2.3300     1.1260     1.4660 H     1 <1>   0.1500 
 29 H       -0.2480     0.5000    -1.2550 H     1 <1>   0.0800 
 30 H       -1.4880    -0.1080    -0.2170 H     1 <1>   0.0800 
 31 H        0.6000    -2.6710     1.5260 H     1 <1>   0.0800 
 32 H        0.8300    -2.9780    -0.1540 H     1 <1>   0.0800 
 33 H        0.7750     4.8980     1.0600 H     1 <1>   0.1500 
 34 H       -3.1850     3.3350     0.9100 H     1 <1>   0.1500 
 35 H       -0.1780    -1.7940    -2.3170 H     1 <1>   0.0800 
 36 H       -1.7150    -1.0120    -2.4690 H     1 <1>   0.0800 
 37 H       -1.8420    -2.3060     1.0640 H     1 <1>   0.0800 
 38 H       -1.3070    -3.8970     0.6340 H     1 <1>   0.0800 
 39 H        4.0780     0.7820     1.3160 H     1 <1>   0.1500 
 40 H        1.5530     1.6390    -2.0080 H     1 <1>   0.1500 
 41 H       -2.7710    -2.4860    -1.0410 H     1 <1>   0.0800 
 42 H       -1.5170    -3.5210    -1.6420 H     1 <1>   0.0800 
 43 H       -2.7470     5.8140     1.0770 H     1 <1>   0.0800 
 44 H       -1.9460     5.7350    -0.4760 H     1 <1>   0.0800 
 45 H       -1.1200     6.4140     0.9070 H     1 <1>   0.0800 
 46 H        4.8480     3.0960     1.3240 H     1 <1>   0.1500 
 47 H        2.2930     3.9540    -1.9790 H     1 <1>   0.1500 
 48 H        3.3280     5.7850    -0.7040 H     1 <1>   0.0800 
 49 H        4.9730     5.2280    -0.9130 H     1 <1>   0.0800 
 50 H        4.3170     5.4480     0.6930 H     1 <1>   0.0800 
@<TRIPOS>BOND
  1   1   2  2   
  2   1   3  2   
  3   1   4  1   
  4   1   5  1   
  5   4   6  ar  
  6   4   7  ar  
  7   5   8  1   
  8   5   9  1   
  9   5  10  1   
 10   6  11  ar  
 11   6  27  1   
 12   7  12  ar  
 13   7  28  1   
 14   8  13  2   
 15   8  14  2   
 16   8  15  1   
 17   9  16  1   
 18   9  29  1   
 19   9  30  1   
 20  10  17  1   
 21  10  31  1   
 22  10  32  1   
 23  11  18  ar  
 24  11  33  1   
 25  12  18  ar  
 26  12  34  1   
 27  15  19  ar  
 28  15  20  ar  
 29  16  21  1   
 30  16  35  1   
 31  16  36  1   
 32  17  21  1   
 33  17  37  1   
 34  17  38  1   
 35  18  22  1   
 36  19  23  ar  
 37  19  39  1   
 38  20  24  ar  
 39  20  40  1   
 40  21  41  1   
 41  21  42  1   
 42  22  43  1   
 43  22  44  1   
 44  22  45  1   
 45  23  25  ar  
 46  23  46  1   
 47  24  25  ar  
 48  24  47  1   
 49  25  26  1   
 50  26  48  1   
 51  26  49  1   
 52  26  50  1   
@<TRIPOS>SUBSTRUCTURE
  1 ****   4 GROUP 4 **** **** 0

# MOE 2024.06 (io_trps.svl 2023.06)
