@<TRIPOS>MOLECULE
NONAME
38 39 1 0 0 
SMALL
USER_CHARGES


@<TRIPOS>ATOM
  1 O       -0.4940     4.1240     1.0210 O.2   1 <1>  -0.5700 
  2 C       -1.3840     3.9240     0.2160 C.2   1 <1>   0.5440 
  3 N       -1.1420     4.2710    -1.0860 N.am  1 <1>  -0.7300 
  4 C       -2.6350     3.2980     0.6090 C.ar  1 <1>   0.0860 
  5 C       -0.0810     5.2050    -1.5730 C.3   1 <1>   0.1400 
  6 C       -3.8210     3.5050    -0.1010 C.ar  1 <1>  -0.1500 
  7 C       -2.6940     2.4570     1.7210 C.ar  1 <1>  -0.1500 
  8 C        1.2810     4.5060    -1.7660 C.3   1 <1>   0.3430 
  9 C       -5.0060     2.8910     0.2660 C.ar  1 <1>  -0.1440 
 10 C       -3.8720     1.8380     2.0950 C.ar  1 <1>  -0.1500 
 11 N        1.8050     3.9840    -0.4730 N.4   1 <1>  -0.9590 
 12 C       -5.0270     2.0510     1.3660 C.ar  1 <1>  -0.1500 
 13 C       -6.2800     3.1290    -0.5260 C.3   1 <1>  -0.0970 
 14 C        2.5060     4.9770     0.3670 C.3   1 <1>   0.3430 
 15 C        2.6810     2.7990    -0.5730 C.3   1 <1>   0.3430 
 16 C        3.2230     4.1300     1.4060 C.3   1 <1>  -0.1600 
 17 C        3.4230     2.7560     0.7580 C.3   1 <1>  -0.1600 
 18 H       -1.8660     4.0340    -1.7710 H     1 <1>   0.3700 
 19 H        0.0260     6.0190    -0.8760 H     1 <1>   0.0800 
 20 H       -0.3960     5.6240    -2.5140 H     1 <1>   0.0800 
 21 H       -3.8230     4.1640    -0.9490 H     1 <1>   0.1500 
 22 H       -1.8040     2.2860     2.3000 H     1 <1>   0.1500 
 23 H        1.9890     5.1960    -2.1940 H     1 <1>   0.0800 
 24 H        1.1460     3.6930    -2.4590 H     1 <1>   0.0800 
 25 H       -3.8930     1.1900     2.9550 H     1 <1>   0.1500 
 26 H        0.9660     3.7200     0.0900 H     1 <1>   0.4500 
 27 H       -5.9400     1.5650     1.6610 H     1 <1>   0.1500 
 28 H       -6.2350     4.0680    -1.0490 H     1 <1>   0.0800 
 29 H       -7.1300     3.1510     0.1320 H     1 <1>   0.0800 
 30 H       -6.4170     2.3390    -1.2430 H     1 <1>   0.0800 
 31 H        1.8130     5.6650     0.8270 H     1 <1>   0.0800 
 32 H        3.2260     5.5190    -0.2240 H     1 <1>   0.0800 
 33 H        3.3880     2.9320    -1.3760 H     1 <1>   0.0800 
 34 H        2.1100     1.8990    -0.7390 H     1 <1>   0.0800 
 35 H        2.5980     4.0400     2.2780 H     1 <1>   0.0800 
 36 H        4.1550     4.5830     1.6960 H     1 <1>   0.0800 
 37 H        4.4650     2.5440     0.5920 H     1 <1>   0.0800 
 38 H        3.0130     1.9810     1.3830 H     1 <1>   0.0800 
@<TRIPOS>BOND
  1   1   2  2   
  2   2   3  am  
  3   2   4  1   
  4   3   5  1   
  5   3  18  1   
  6   4   6  ar  
  7   4   7  ar  
  8   5   8  1   
  9   5  19  1   
 10   5  20  1   
 11   6   9  ar  
 12   6  21  1   
 13   7  10  ar  
 14   7  22  1   
 15   8  11  1   
 16   8  23  1   
 17   8  24  1   
 18   9  12  ar  
 19   9  13  1   
 20  10  12  ar  
 21  10  25  1   
 22  11  14  1   
 23  11  15  1   
 24  11  26  1   
 25  12  27  1   
 26  13  28  1   
 27  13  29  1   
 28  13  30  1   
 29  14  16  1   
 30  14  31  1   
 31  14  32  1   
 32  15  17  1   
 33  15  33  1   
 34  15  34  1   
 35  16  17  1   
 36  16  35  1   
 37  16  36  1   
 38  17  37  1   
 39  17  38  1   
@<TRIPOS>SUBSTRUCTURE
  1 ****   2 GROUP 4 **** **** 0

# MOE 2024.06 (io_trps.svl 2023.06)
