@<TRIPOS>MOLECULE
NONAME
40 41 1 0 0 
SMALL
USER_CHARGES


@<TRIPOS>ATOM
  1 N        0.0530     0.9130    -0.8730 N.3   1 <1>  -0.8100 
  2 C       -1.2050     0.6830    -1.6200 C.3   1 <1>   0.1100 
  3 C        0.0150     0.2160     0.4390 C.3   1 <1>   0.1100 
  4 C        1.2300     0.5190    -1.6670 C.3   1 <1>   0.2480 
  5 C       -2.4530     1.1240    -0.8140 C.3   1 <1>   0.3430 
  6 C       -1.2490     0.5640     1.2630 C.3   1 <1>   0.3430 
  7 C        2.5050     0.9270    -0.9440 C.2   1 <1>  -0.2760 
  8 N       -2.0770     1.5980     0.5590 N.4   1 <1>  -0.9590 
  9 C        3.3620     0.0160    -0.4440 C.2   1 <1>  -0.1780 
 10 C        2.7010     2.4390    -0.8740 C.3   1 <1>  -0.1020 
 11 C       -3.2350     2.0860     1.3620 C.3   1 <1>   0.2630 
 12 C        4.5870     0.2200     0.2920 C.ar  1 <1>   0.0280 
 13 C        5.7490    -0.4470    -0.0820 C.ar  1 <1>  -0.1500 
 14 C        4.6440     1.0570     1.4030 C.ar  1 <1>  -0.1500 
 15 C        6.9290    -0.2790     0.6200 C.ar  1 <1>  -0.1500 
 16 C        5.8200     1.2310     2.1090 C.ar  1 <1>  -0.1500 
 17 C        6.9670     0.5620     1.7180 C.ar  1 <1>  -0.1500 
 18 H       -1.1780     1.2350    -2.5450 H     1 <1>   0.0800 
 19 H       -1.2960    -0.3610    -1.8690 H     1 <1>   0.0800 
 20 H        0.0580    -0.8500     0.2920 H     1 <1>   0.0800 
 21 H        0.8800     0.4920     1.0180 H     1 <1>   0.0800 
 22 H        1.2210    -0.5460    -1.8310 H     1 <1>   0.0800 
 23 H        1.2020     1.0040    -2.6290 H     1 <1>   0.0800 
 24 H       -3.1390     0.2960    -0.7460 H     1 <1>   0.0800 
 25 H       -2.9490     1.9160    -1.3500 H     1 <1>   0.0800 
 26 H       -0.9440     0.9300     2.2290 H     1 <1>   0.0800 
 27 H       -1.8290    -0.3300     1.4170 H     1 <1>   0.0800 
 28 H       -1.4030     2.3610     0.3770 H     1 <1>   0.4500 
 29 H        3.1530    -1.0300    -0.5850 H     1 <1>   0.1500 
 30 H        2.6170     2.8660    -1.8570 H     1 <1>   0.0800 
 31 H        3.6720     2.6940    -0.4920 H     1 <1>   0.0800 
 32 H        1.9550     2.8820    -0.2410 H     1 <1>   0.0800 
 33 H       -3.9280     1.2810     1.5460 H     1 <1>   0.0800 
 34 H       -3.7500     2.8720     0.8340 H     1 <1>   0.0800 
 35 H       -2.8950     2.4740     2.3090 H     1 <1>   0.0800 
 36 H        5.7270    -1.1010    -0.9350 H     1 <1>   0.1500 
 37 H        3.7560     1.5730     1.7150 H     1 <1>   0.1500 
 38 H        7.8180    -0.8020     0.3130 H     1 <1>   0.1500 
 39 H        5.8450     1.8850     2.9630 H     1 <1>   0.1500 
 40 H        7.8830     0.6950     2.2660 H     1 <1>   0.1500 
@<TRIPOS>BOND
  1   1   2  1   
  2   1   3  1   
  3   1   4  1   
  4   2   5  1   
  5   2  18  1   
  6   2  19  1   
  7   3   6  1   
  8   3  20  1   
  9   3  21  1   
 10   4   7  1   
 11   4  22  1   
 12   4  23  1   
 13   5   8  1   
 14   5  24  1   
 15   5  25  1   
 16   6   8  1   
 17   6  26  1   
 18   6  27  1   
 19   7   9  2   
 20   7  10  1   
 21   8  11  1   
 22   8  28  1   
 23   9  12  1   
 24   9  29  1   
 25  10  30  1   
 26  10  31  1   
 27  10  32  1   
 28  11  33  1   
 29  11  34  1   
 30  11  35  1   
 31  12  13  ar  
 32  12  14  ar  
 33  13  15  ar  
 34  13  36  1   
 35  14  16  ar  
 36  14  37  1   
 37  15  17  ar  
 38  15  38  1   
 39  16  17  ar  
 40  16  39  1   
 41  17  40  1   
@<TRIPOS>SUBSTRUCTURE
  1 ****   7 GROUP 4 **** **** 0

# MOE 2024.06 (io_trps.svl 2023.06)
