@<TRIPOS>MOLECULE
NONAME
48 49 1 0 0 
SMALL
USER_CHARGES


@<TRIPOS>ATOM
  1 O       -0.2830     1.1290    -0.5390 O.2   1 <1>  -0.5700 
  2 C       -0.5820     1.8130     0.4050 C.2   1 <1>   0.5690 
  3 N       -1.8310     1.8260     0.9400 N.am  1 <1>  -0.5470 
  4 C        0.4560     2.7200     1.0140 C.3   1 <1>  -0.1790 
  5 C       -2.9420     1.1520     0.4750 C.ar  1 <1>   0.4270 
  6 N       -3.9460     1.9720     0.2270 N.ar  1 <1>  -0.6200 
  7 C       -3.0020    -0.2330     0.3110 C.ar  1 <1>   0.0730 
  8 C       -5.0470     1.4380    -0.2720 C.ar  1 <1>   0.1670 
  9 C       -1.9290    -1.0690     0.7610 C.1   1 <1>   0.4840 
 10 C       -4.1500    -0.7910    -0.2400 C.ar  1 <1>   0.0000 
 11 C       -5.2030     0.0790    -0.5310 C.ar  1 <1>  -0.1440 
 12 C       -6.1470     2.4630    -0.5410 C.3   1 <1>  -0.0170 
 13 N       -1.1000    -1.7410     1.1690 N.1   1 <1>  -0.5570 
 14 C       -4.2260    -2.2180    -0.4710 C.ar  1 <1>   0.0000 
 15 C       -6.5080    -0.4900    -1.1050 C.3   1 <1>  -0.0170 
 16 C       -7.0200     2.6840     0.7030 C.3   1 <1>  -0.1600 
 17 C       -4.7150    -3.0890     0.5080 C.ar  1 <1>   0.0820 
 18 C       -3.7870    -2.7540    -1.6780 C.ar  1 <1>  -0.1500 
 19 C       -6.4860    -0.4940    -2.6370 C.3   1 <1>  -0.2400 
 20 C       -8.1410     3.6940     0.4350 C.3   1 <1>  -0.2400 
 21 O       -5.1170    -2.5400     1.6820 O.3   1 <1>  -0.3620 
 22 C       -4.7700    -4.4580     0.2610 C.ar  1 <1>  -0.1500 
 23 C       -3.8410    -4.1130    -1.9190 C.ar  1 <1>  -0.1500 
 24 C       -5.3850    -3.3290     2.8190 C.3   1 <1>   0.0400 
 25 C       -4.3350    -4.9670    -0.9490 C.ar  1 <1>  -0.1500 
 26 H       -2.0740     2.6390     1.4990 H     1 <1>   0.3700 
 27 H        0.1910     3.7460     0.8380 H     1 <1>   0.0800 
 28 H        1.4130     2.5260     0.5660 H     1 <1>   0.0800 
 29 H        0.5250     2.5390     2.0710 H     1 <1>   0.0800 
 30 H       -6.7570     2.1640    -1.3710 H     1 <1>   0.0800 
 31 H       -5.6890     3.3970    -0.8190 H     1 <1>   0.0800 
 32 H       -7.3530     0.0760    -0.7600 H     1 <1>   0.0800 
 33 H       -6.6720    -1.4930    -0.7530 H     1 <1>   0.0800 
 34 H       -6.4000     3.0440     1.5070 H     1 <1>   0.0800 
 35 H       -7.4500     1.7480     1.0150 H     1 <1>   0.0800 
 36 H       -3.3950    -2.0940    -2.4330 H     1 <1>   0.1500 
 37 H       -6.3330     0.4990    -3.0190 H     1 <1>   0.0800 
 38 H       -7.4190    -0.8700    -3.0170 H     1 <1>   0.0800 
 39 H       -5.6940    -1.1240    -2.9970 H     1 <1>   0.0800 
 40 H       -7.7290     4.6460     0.1470 H     1 <1>   0.0800 
 41 H       -8.7310     3.8340     1.3240 H     1 <1>   0.0800 
 42 H       -8.7870     3.3430    -0.3510 H     1 <1>   0.0800 
 43 H       -5.1470    -5.1430     0.9960 H     1 <1>   0.1500 
 44 H       -3.4960    -4.5090    -2.8590 H     1 <1>   0.1500 
 45 H       -5.5840    -2.6690     3.6440 H     1 <1>   0.0800 
 46 H       -4.5220    -3.9340     3.0350 H     1 <1>   0.0800 
 47 H       -6.2480    -3.9410     2.6250 H     1 <1>   0.0800 
 48 H       -4.3760    -6.0260    -1.1370 H     1 <1>   0.1500 
@<TRIPOS>BOND
  1   1   2  2   
  2   2   3  am  
  3   2   4  1   
  4   3   5  1   
  5   3  26  1   
  6   4  27  1   
  7   4  28  1   
  8   4  29  1   
  9   5   6  ar  
 10   5   7  ar  
 11   6   8  ar  
 12   7   9  1   
 13   7  10  ar  
 14   8  11  ar  
 15   8  12  1   
 16   9  13  3   
 17  10  11  ar  
 18  10  14  1   
 19  11  15  1   
 20  12  16  1   
 21  12  30  1   
 22  12  31  1   
 23  14  17  ar  
 24  14  18  ar  
 25  15  19  1   
 26  15  32  1   
 27  15  33  1   
 28  16  20  1   
 29  16  34  1   
 30  16  35  1   
 31  17  21  1   
 32  17  22  ar  
 33  18  23  ar  
 34  18  36  1   
 35  19  37  1   
 36  19  38  1   
 37  19  39  1   
 38  20  40  1   
 39  20  41  1   
 40  20  42  1   
 41  21  24  1   
 42  22  25  ar  
 43  22  43  1   
 44  23  25  ar  
 45  23  44  1   
 46  24  45  1   
 47  24  46  1   
 48  24  47  1   
 49  25  48  1   
@<TRIPOS>SUBSTRUCTURE
  1 ****  10 GROUP 4 **** **** 0

# MOE 2024.06 (io_trps.svl 2023.06)
