@<TRIPOS>MOLECULE
NONAME
46 49 1 0 0 
SMALL
USER_CHARGES


@<TRIPOS>ATOM
  1 O        0.7910    -4.4450    -2.6930 O.2   1 <1>  -0.5700 
  2 C        1.0430    -4.2910    -1.5210 C.2   1 <1>   0.5690 
  3 N        0.0870    -4.3010    -0.5610 N.am  1 <1>  -0.7300 
  4 C        2.4920    -4.0610    -1.0790 C.3   1 <1>   0.1710 
  5 C       -1.3700    -4.3990    -0.7580 C.3   1 <1>   0.2200 
  6 N        2.6310    -3.2670     0.1790 N.3   1 <1>  -0.8100 
  7 C       -2.0310    -3.0300    -0.4910 C.3   1 <1>  -0.0800 
  8 C       -1.9680    -5.4540     0.1970 C.3   1 <1>  -0.0800 
  9 C        2.2500    -1.8540    -0.0400 C.3   1 <1>   0.1100 
 10 C        4.0140    -3.3220     0.6890 C.3   1 <1>   0.1100 
 11 C       -1.8430    -2.6070     0.9840 C.3   1 <1>  -0.1600 
 12 C       -3.5420    -3.1530    -0.7790 C.3   1 <1>  -0.1600 
 13 C       -1.7810    -5.0290     1.6720 C.3   1 <1>  -0.1600 
 14 C       -3.4790    -5.5730    -0.0910 C.3   1 <1>  -0.1600 
 15 C        2.4600    -1.0220     1.2380 C.3   1 <1>   0.1200 
 16 C        4.1740    -2.4480     1.9460 C.3   1 <1>   0.1200 
 17 C       -2.4590    -3.6660     1.9190 C.3   1 <1>  -0.0800 
 18 C       -4.1710    -4.2150     0.1440 C.3   1 <1>  -0.0800 
 19 O        3.7830    -1.1310     1.6820 O.3   1 <1>  -0.5600 
 20 C       -3.9630    -3.7930     1.6110 C.3   1 <1>  -0.1600 
 21 H        0.3980    -4.0840     0.3890 H     1 <1>   0.3700 
 22 H        3.0220    -3.5760    -1.8790 H     1 <1>   0.0800 
 23 H        2.9310    -5.0310    -0.9330 H     1 <1>   0.0800 
 24 H       -1.5610    -4.6930    -1.7770 H     1 <1>   0.0800 
 25 H       -1.6040    -2.2940    -1.1490 H     1 <1>   0.0800 
 26 H       -1.4960    -6.4040     0.0200 H     1 <1>   0.0800 
 27 H        1.2160    -1.7940    -0.3290 H     1 <1>   0.0800 
 28 H        2.8440    -1.4280    -0.8310 H     1 <1>   0.0800 
 29 H        4.7020    -2.9770    -0.0650 H     1 <1>   0.0800 
 30 H        4.2650    -4.3400     0.9350 H     1 <1>   0.0800 
 31 H       -0.7980    -2.4850     1.2090 H     1 <1>   0.0800 
 32 H       -2.3190    -1.6570     1.1510 H     1 <1>   0.0800 
 33 H       -3.6950    -3.4280    -1.8080 H     1 <1>   0.0800 
 34 H       -4.0220    -2.2030    -0.6220 H     1 <1>   0.0800 
 35 H       -0.7350    -4.9670     1.9150 H     1 <1>   0.0800 
 36 H       -2.2150    -5.7710     2.3190 H     1 <1>   0.0800 
 37 H       -3.9150    -6.3210     0.5480 H     1 <1>   0.0800 
 38 H       -3.6320    -5.8870    -1.1100 H     1 <1>   0.0800 
 39 H        1.8040    -1.3610     2.0210 H     1 <1>   0.0800 
 40 H        2.2640     0.0170     1.0440 H     1 <1>   0.0800 
 41 H        5.2020    -2.4290     2.2600 H     1 <1>   0.0800 
 42 H        3.5710    -2.8320     2.7510 H     1 <1>   0.0800 
 43 H       -2.3220    -3.3710     2.9450 H     1 <1>   0.0800 
 44 H       -5.2240    -4.3020    -0.0640 H     1 <1>   0.0800 
 45 H       -4.4520    -2.8510     1.7920 H     1 <1>   0.0800 
 46 H       -4.4090    -4.5210     2.2660 H     1 <1>   0.0800 
@<TRIPOS>BOND
  1   1   2  2   
  2   2   3  am  
  3   2   4  1   
  4   3   5  1   
  5   3  21  1   
  6   4   6  1   
  7   4  22  1   
  8   4  23  1   
  9   5   7  1   
 10   5   8  1   
 11   5  24  1   
 12   6   9  1   
 13   6  10  1   
 14   7  11  1   
 15   7  12  1   
 16   7  25  1   
 17   8  13  1   
 18   8  14  1   
 19   8  26  1   
 20   9  15  1   
 21   9  27  1   
 22   9  28  1   
 23  10  16  1   
 24  10  29  1   
 25  10  30  1   
 26  11  17  1   
 27  11  31  1   
 28  11  32  1   
 29  12  18  1   
 30  12  33  1   
 31  12  34  1   
 32  13  17  1   
 33  13  35  1   
 34  13  36  1   
 35  14  18  1   
 36  14  37  1   
 37  14  38  1   
 38  15  19  1   
 39  15  39  1   
 40  15  40  1   
 41  16  19  1   
 42  16  41  1   
 43  16  42  1   
 44  17  20  1   
 45  17  43  1   
 46  18  20  1   
 47  18  44  1   
 48  20  45  1   
 49  20  46  1   
@<TRIPOS>SUBSTRUCTURE
  1 ****   3 GROUP 4 **** **** 0

# MOE 2024.06 (io_trps.svl 2023.06)
