@<TRIPOS>MOLECULE
NONAME
50 52 1 0 0 
SMALL
USER_CHARGES


@<TRIPOS>ATOM
  1 O        0.2570     3.4520    -1.8450 O.2   1 <1>  -0.5700 
  2 C       -0.2350     2.9160    -0.8780 C.2   1 <1>   0.5690 
  3 N        0.3770     1.8450    -0.2980 N.am  1 <1>  -0.7300 
  4 C       -1.5610     3.4350    -0.2610 C.3   1 <1>   0.2040 
  5 C        1.6370     1.2180    -0.7600 C.3   1 <1>   0.1400 
  6 C       -2.3740     2.2060     0.2190 C.ar  1 <1>  -0.1440 
  7 C       -2.4270     4.2270    -1.2760 C.3   1 <1>  -0.1600 
  8 C       -1.2140     4.4040     0.8950 C.3   1 <1>  -0.1600 
  9 C        2.7840     1.6230     0.1640 C.3   1 <1>  -0.0170 
 10 C       -2.7760     1.2650    -0.7260 C.ar  1 <1>  -0.1500 
 11 C       -2.7080     1.9710     1.5510 C.ar  1 <1>  -0.1500 
 12 C       -1.8570     5.6120    -1.6200 C.3   1 <1>   0.1200 
 13 C       -0.6390     5.7220     0.3740 C.3   1 <1>   0.1200 
 14 C        4.0750     0.9560    -0.2800 C.ar  1 <1>  -0.1440 
 15 C       -3.4870     0.1340    -0.3640 C.ar  1 <1>  -0.1500 
 16 C       -3.4180     0.8420     1.9170 C.ar  1 <1>  -0.1500 
 17 O       -1.5930     6.3140    -0.4470 O.3   1 <1>  -0.5600 
 18 C        4.8400     1.5250    -1.2860 C.ar  1 <1>  -0.1500 
 19 C        4.4970    -0.2260     0.3100 C.ar  1 <1>  -0.1500 
 20 C       -3.8140    -0.0840     0.9690 C.ar  1 <1>   0.0820 
 21 C        6.0150     0.9200    -1.6980 C.ar  1 <1>  -0.1500 
 22 C        5.6720    -0.8320    -0.1010 C.ar  1 <1>  -0.1500 
 23 O       -4.5040    -1.1630     1.4140 O.3   1 <1>  -0.3620 
 24 C        6.4310    -0.2590    -1.1060 C.ar  1 <1>  -0.1500 
 25 C       -5.0000    -2.1350     0.5220 C.3   1 <1>   0.0400 
 26 H       -0.1270     1.3510     0.4450 H     1 <1>   0.3700 
 27 H        1.8570     1.5340    -1.7660 H     1 <1>   0.0800 
 28 H        1.5240     0.1470    -0.7610 H     1 <1>   0.0800 
 29 H       -3.4110     4.3670    -0.8660 H     1 <1>   0.0800 
 30 H       -2.5330     3.6690    -2.1880 H     1 <1>   0.0800 
 31 H       -0.5070     3.9470     1.5640 H     1 <1>   0.0800 
 32 H       -2.1010     4.6490     1.4530 H     1 <1>   0.0800 
 33 H        2.5560     1.3350     1.1750 H     1 <1>   0.0800 
 34 H        2.9050     2.6910     0.1340 H     1 <1>   0.0800 
 35 H       -2.5300     1.4000    -1.7650 H     1 <1>   0.1500 
 36 H       -2.4280     2.6480     2.3360 H     1 <1>   0.1500 
 37 H       -2.5740     6.1800    -2.1860 H     1 <1>   0.0800 
 38 H       -0.9470     5.5450    -2.1920 H     1 <1>   0.0800 
 39 H        0.2690     5.5790    -0.1890 H     1 <1>   0.0800 
 40 H       -0.4450     6.3990     1.1880 H     1 <1>   0.0800 
 41 H       -3.7750    -0.5610    -1.1290 H     1 <1>   0.1500 
 42 H       -3.6730     0.6700     2.9480 H     1 <1>   0.1500 
 43 H        4.5240     2.4410    -1.7540 H     1 <1>   0.1500 
 44 H        3.9150    -0.6810     1.0920 H     1 <1>   0.1500 
 45 H        6.6040     1.3660    -2.4800 H     1 <1>   0.1500 
 46 H        5.9950    -1.7480     0.3610 H     1 <1>   0.1500 
 47 H        7.3450    -0.7300    -1.4260 H     1 <1>   0.1500 
 48 H       -5.5290    -2.8750     1.0950 H     1 <1>   0.0800 
 49 H       -4.1730    -2.5920     0.0080 H     1 <1>   0.0800 
 50 H       -5.6720    -1.6610    -0.1720 H     1 <1>   0.0800 
@<TRIPOS>BOND
  1   1   2  2   
  2   2   3  am  
  3   2   4  1   
  4   3   5  1   
  5   3  26  1   
  6   4   6  1   
  7   4   7  1   
  8   4   8  1   
  9   5   9  1   
 10   5  27  1   
 11   5  28  1   
 12   6  10  ar  
 13   6  11  ar  
 14   7  12  1   
 15   7  29  1   
 16   7  30  1   
 17   8  13  1   
 18   8  31  1   
 19   8  32  1   
 20   9  14  1   
 21   9  33  1   
 22   9  34  1   
 23  10  15  ar  
 24  10  35  1   
 25  11  16  ar  
 26  11  36  1   
 27  12  17  1   
 28  12  37  1   
 29  12  38  1   
 30  13  17  1   
 31  13  39  1   
 32  13  40  1   
 33  14  18  ar  
 34  14  19  ar  
 35  15  20  ar  
 36  15  41  1   
 37  16  20  ar  
 38  16  42  1   
 39  18  21  ar  
 40  18  43  1   
 41  19  22  ar  
 42  19  44  1   
 43  20  23  1   
 44  21  24  ar  
 45  21  45  1   
 46  22  24  ar  
 47  22  46  1   
 48  23  25  1   
 49  24  47  1   
 50  25  48  1   
 51  25  49  1   
 52  25  50  1   
@<TRIPOS>SUBSTRUCTURE
  1 ****   3 GROUP 4 **** **** 0

# MOE 2024.06 (io_trps.svl 2023.06)
