@<TRIPOS>MOLECULE
NONAME
62 65 1 0 0 
SMALL
USER_CHARGES


@<TRIPOS>ATOM
  1 O        1.4820     2.6730     0.7860 O.2   1 <1>  -0.5700 
  2 C        1.4810     1.9540    -0.1930 C.2   1 <1>   0.5440 
  3 N        0.3690     1.8830    -0.9880 N.am  1 <1>  -0.7300 
  4 C        2.6600     1.1790    -0.5340 C.ar  1 <1>   0.0860 
  5 C       -1.0000     2.5120    -0.8560 C.3   1 <1>   0.2810 
  6 C        3.9400     1.6670    -0.2740 C.ar  1 <1>  -0.1500 
  7 C        2.5660    -0.0790    -1.1340 C.ar  1 <1>  -0.1500 
  8 C       -1.0270     4.0560    -0.7490 C.2   1 <1>   0.5690 
  9 C       -1.9260     1.7740     0.1660 C.3   1 <1>   0.0000 
 10 C        5.0710     0.9460    -0.6080 C.ar  1 <1>  -0.1500 
 11 C        3.6950    -0.8040    -1.4710 C.ar  1 <1>  -0.1500 
 12 O       -1.7450     4.6590    -1.5160 O.2   1 <1>  -0.5700 
 13 N       -0.2690     4.6940     0.1810 N.am  1 <1>  -0.7300 
 14 C       -1.4770     1.9300     1.6430 C.3   1 <1>  -0.1600 
 15 C       -1.9800     0.2560    -0.1570 C.3   1 <1>  -0.1600 
 16 C       -3.3730     2.3300     0.0520 C.3   1 <1>  -0.1600 
 17 C        4.9560    -0.2940    -1.2130 C.ar  1 <1>  -0.1430 
 18 C       -0.1640     6.1120     0.5130 C.3   1 <1>   0.3000 
 19 C       -2.4360     1.1970     2.6000 C.3   1 <1>  -0.0800 
 20 C       -2.9380    -0.4880     0.7920 C.3   1 <1>  -0.0800 
 21 C       -4.3390     1.5950     0.9980 C.3   1 <1>  -0.0800 
 22 C        6.1970    -1.0880    -1.5800 C.3   1 <1>  -0.0970 
 23 C       -1.5320     6.6390     0.9460 C.3   1 <1>  -0.2400 
 24 C        0.8180     6.2080     1.6770 C.3   1 <1>  -0.2400 
 25 C        0.3800     6.8810    -0.6900 C.3   1 <1>  -0.2400 
 26 C       -2.4590    -0.3000     2.2430 C.3   1 <1>  -0.1600 
 27 C       -3.8530     1.7760     2.4460 C.3   1 <1>  -0.1600 
 28 C       -4.3530     0.0980     0.6450 C.3   1 <1>  -0.1600 
 29 H        0.4730     1.3650    -1.8600 H     1 <1>   0.3700 
 30 H       -1.4640     2.3320    -1.8090 H     1 <1>   0.0800 
 31 H        4.0420     2.6280     0.2000 H     1 <1>   0.1500 
 32 H        1.5980    -0.5030    -1.3310 H     1 <1>   0.1500 
 33 H        6.0440     1.3540    -0.3920 H     1 <1>   0.1500 
 34 H        3.5900    -1.7710    -1.9320 H     1 <1>   0.1500 
 35 H        0.4050     4.1010     0.6870 H     1 <1>   0.3700 
 36 H       -1.4370     2.9690     1.9140 H     1 <1>   0.0800 
 37 H       -0.4950     1.5190     1.7750 H     1 <1>   0.0800 
 38 H       -1.0000    -0.1770    -0.0590 H     1 <1>   0.0800 
 39 H       -2.3030     0.1080    -1.1730 H     1 <1>   0.0800 
 40 H       -3.7260     2.2330    -0.9600 H     1 <1>   0.0800 
 41 H       -3.3900     3.3780     0.2970 H     1 <1>   0.0800 
 42 H       -2.1000     1.3230     3.6150 H     1 <1>   0.0800 
 43 H       -2.9520    -1.5360     0.5480 H     1 <1>   0.0800 
 44 H       -5.3300     2.0030     0.8940 H     1 <1>   0.0800 
 45 H        7.0120    -0.4260    -1.8150 H     1 <1>   0.0800 
 46 H        6.0080    -1.7100    -2.4360 H     1 <1>   0.0800 
 47 H        6.4860    -1.7130    -0.7540 H     1 <1>   0.0800 
 48 H       -2.2270     6.6040     0.1270 H     1 <1>   0.0800 
 49 H       -1.4500     7.6600     1.2680 H     1 <1>   0.0800 
 50 H       -1.9200     6.0520     1.7580 H     1 <1>   0.0800 
 51 H        0.4540     5.6520     2.5230 H     1 <1>   0.0800 
 52 H        0.9430     7.2330     1.9740 H     1 <1>   0.0800 
 53 H        1.7790     5.8180     1.3910 H     1 <1>   0.0800 
 54 H       -0.3130     6.8360    -1.5100 H     1 <1>   0.0800 
 55 H        1.3200     6.4670    -1.0050 H     1 <1>   0.0800 
 56 H        0.5270     7.9140    -0.4340 H     1 <1>   0.0800 
 57 H       -3.1160    -0.8250     2.9150 H     1 <1>   0.0800 
 58 H       -1.4730    -0.7160     2.3590 H     1 <1>   0.0800 
 59 H       -4.5260     1.2780     3.1220 H     1 <1>   0.0800 
 60 H       -3.8490     2.8220     2.7020 H     1 <1>   0.0800 
 61 H       -5.0330    -0.4230     1.2980 H     1 <1>   0.0800 
 62 H       -4.7020    -0.0360    -0.3640 H     1 <1>   0.0800 
@<TRIPOS>BOND
  1   1   2  2   
  2   2   3  am  
  3   2   4  1   
  4   3   5  1   
  5   3  29  1   
  6   4   6  ar  
  7   4   7  ar  
  8   5   8  1   
  9   5   9  1   
 10   5  30  1   
 11   6  10  ar  
 12   6  31  1   
 13   7  11  ar  
 14   7  32  1   
 15   8  12  2   
 16   8  13  am  
 17   9  14  1   
 18   9  15  1   
 19   9  16  1   
 20  10  17  ar  
 21  10  33  1   
 22  11  17  ar  
 23  11  34  1   
 24  13  18  1   
 25  13  35  1   
 26  14  19  1   
 27  14  36  1   
 28  14  37  1   
 29  15  20  1   
 30  15  38  1   
 31  15  39  1   
 32  16  21  1   
 33  16  40  1   
 34  16  41  1   
 35  17  22  1   
 36  18  23  1   
 37  18  24  1   
 38  18  25  1   
 39  19  26  1   
 40  19  27  1   
 41  19  42  1   
 42  20  26  1   
 43  20  28  1   
 44  20  43  1   
 45  21  27  1   
 46  21  28  1   
 47  21  44  1   
 48  22  45  1   
 49  22  46  1   
 50  22  47  1   
 51  23  48  1   
 52  23  49  1   
 53  23  50  1   
 54  24  51  1   
 55  24  52  1   
 56  24  53  1   
 57  25  54  1   
 58  25  55  1   
 59  25  56  1   
 60  26  57  1   
 61  26  58  1   
 62  27  59  1   
 63  27  60  1   
 64  28  61  1   
 65  28  62  1   
@<TRIPOS>SUBSTRUCTURE
  1 ****   3 GROUP 4 **** **** 0

# MOE 2024.06 (io_trps.svl 2023.06)
