@<TRIPOS>MOLECULE
NONAME
46 48 1 0 0 
SMALL
USER_CHARGES


@<TRIPOS>ATOM
  1 O       -0.7180    -2.2720     3.1000 O.2   1 <1>  -0.5700 
  2 C       -0.0640    -2.1040     2.0980 C.2   1 <1>   0.5690 
  3 N       -0.5610    -1.6520     0.9100 N.am  1 <1>  -0.5470 
  4 C        1.4360    -2.4050     2.1260 C.3   1 <1>   0.1710 
  5 C       -1.8380    -1.2580     0.4800 C.ar  1 <1>   0.1170 
  6 N        2.2100    -1.6720     1.0790 N.3   1 <1>  -0.8100 
  7 C       -1.9620    -0.6820    -0.7790 C.ar  1 <1>  -0.1500 
  8 C       -2.9860    -1.4160     1.2500 C.ar  1 <1>  -0.1500 
  9 C        2.3730    -0.2410     1.4430 C.3   1 <1>   0.1100 
 10 C        3.5460    -2.2820     0.8830 C.3   1 <1>   0.1100 
 11 C       -3.1920    -0.2720    -1.2620 C.ar  1 <1>  -0.1500 
 12 C       -4.2190    -1.0070     0.7730 C.ar  1 <1>  -0.1500 
 13 C        3.1790     0.5430     0.3880 C.3   1 <1>   0.2090 
 14 C        4.3710    -1.5400    -0.1860 C.3   1 <1>   0.2090 
 15 C       -4.3330    -0.4330    -0.4820 C.ar  1 <1>   0.0820 
 16 N        4.5050    -0.0900     0.1480 N.pl3 1 <1>  -0.8380 
 17 O       -5.5800    -0.0590    -0.8740 O.3   1 <1>  -0.3620 
 18 C        5.4070     0.6550    -0.5830 C.ar  1 <1>   0.4100 
 19 C       -5.7990     0.5270    -2.1380 C.3   1 <1>   0.0400 
 20 N        5.5590     0.3480    -1.8670 N.ar  1 <1>  -0.6200 
 21 C        6.0990     1.6900     0.0410 C.ar  1 <1>  -0.1500 
 22 C        6.4200     1.0930    -2.5400 C.ar  1 <1>   0.1600 
 23 C        6.9900     2.4580    -0.6700 C.ar  1 <1>  -0.1500 
 24 C        7.1490     2.1410    -2.0040 C.ar  1 <1>  -0.1500 
 25 H        0.1970    -1.5350     0.2290 H     1 <1>   0.3700 
 26 H        1.5440    -3.4640     1.9720 H     1 <1>   0.0800 
 27 H        1.8220    -2.1740     3.1030 H     1 <1>   0.0800 
 28 H       -1.0870    -0.5540    -1.3900 H     1 <1>   0.1500 
 29 H       -2.9280    -1.8600     2.2260 H     1 <1>   0.1500 
 30 H        2.8840    -0.1610     2.3880 H     1 <1>   0.0800 
 31 H        1.4070     0.2210     1.5490 H     1 <1>   0.0800 
 32 H        3.4300    -3.3060     0.5740 H     1 <1>   0.0800 
 33 H        4.0950    -2.2710     1.8090 H     1 <1>   0.0800 
 34 H       -3.2420     0.1680    -2.2400 H     1 <1>   0.1500 
 35 H       -5.1010    -1.1320     1.3740 H     1 <1>   0.1500 
 36 H        3.3180     1.5550     0.7240 H     1 <1>   0.0800 
 37 H        2.6270     0.5700    -0.5360 H     1 <1>   0.0800 
 38 H        3.8910    -1.6450    -1.1440 H     1 <1>   0.0800 
 39 H        5.3520    -1.9780    -0.2550 H     1 <1>   0.0800 
 40 H       -6.8490     0.7350    -2.2320 H     1 <1>   0.0800 
 41 H       -5.4940    -0.1670    -2.9020 H     1 <1>   0.0800 
 42 H       -5.2380     1.4420    -2.2000 H     1 <1>   0.0800 
 43 H        5.9240     1.8690     1.0840 H     1 <1>   0.1500 
 44 H        6.5530     0.8540    -3.5810 H     1 <1>   0.1500 
 45 H        7.5380     3.2620    -0.2120 H     1 <1>   0.1500 
 46 H        7.8300     2.6980    -2.6210 H     1 <1>   0.1500 
@<TRIPOS>BOND
  1   1   2  2   
  2   2   3  am  
  3   2   4  1   
  4   3   5  1   
  5   3  25  1   
  6   4   6  1   
  7   4  26  1   
  8   4  27  1   
  9   5   7  ar  
 10   5   8  ar  
 11   6   9  1   
 12   6  10  1   
 13   7  11  ar  
 14   7  28  1   
 15   8  12  ar  
 16   8  29  1   
 17   9  13  1   
 18   9  30  1   
 19   9  31  1   
 20  10  14  1   
 21  10  32  1   
 22  10  33  1   
 23  11  15  ar  
 24  11  34  1   
 25  12  15  ar  
 26  12  35  1   
 27  13  16  1   
 28  13  36  1   
 29  13  37  1   
 30  14  16  1   
 31  14  38  1   
 32  14  39  1   
 33  15  17  1   
 34  16  18  1   
 35  17  19  1   
 36  18  20  ar  
 37  18  21  ar  
 38  19  40  1   
 39  19  41  1   
 40  19  42  1   
 41  20  22  ar  
 42  21  23  ar  
 43  21  43  1   
 44  22  24  ar  
 45  22  44  1   
 46  23  24  ar  
 47  23  45  1   
 48  24  46  1   
@<TRIPOS>SUBSTRUCTURE
  1 ****   9 GROUP 4 **** **** 0

# MOE 2024.06 (io_trps.svl 2023.06)
