@<TRIPOS>MOLECULE
NONAME
38 39 1 0 0 
SMALL
USER_CHARGES


@<TRIPOS>ATOM
  1 F       -1.2450     0.0440    -0.3750 F     1 <1>  -0.3400 
  2 C       -1.2650    -1.1790     0.1540 C.3   1 <1>   1.0810 
  3 F       -1.5240    -1.0070     1.4490 F     1 <1>  -0.3400 
  4 F       -0.0050    -1.6100     0.1030 F     1 <1>  -0.3400 
  5 C       -2.2830    -2.1190    -0.5510 C.2   1 <1>   0.4950 
  6 O       -1.8400    -2.9830    -1.3000 O.2   1 <1>  -0.5700 
  7 C       -3.6900    -1.9480    -0.3390 C.2   1 <1>  -0.1240 
  8 C       -4.7370    -2.7950    -0.5720 C.2   1 <1>  -0.0380 
  9 C       -4.2350    -0.6370     0.2210 C.3   1 <1>  -0.0220 
 10 N       -4.7740    -4.0860    -1.0000 N.pl3 1 <1>  -0.5200 
 11 C       -6.0730    -2.1600    -0.2680 C.3   1 <1>  -0.0220 
 12 C       -5.7420    -0.6850    -0.0440 C.3   1 <1>  -0.1600 
 13 N       -3.6500    -5.0010    -0.9360 N.am  1 <1>  -0.4100 
 14 C       -3.4880    -6.0170    -0.0320 C.2   1 <1>   0.5440 
 15 O       -4.4420    -6.3300     0.6690 O.2   1 <1>  -0.5700 
 16 C       -2.2240    -6.7280     0.0880 C.ar  1 <1>   0.0860 
 17 C       -2.1410    -7.9140     0.8240 C.ar  1 <1>  -0.1500 
 18 C       -1.0410    -6.2780    -0.5100 C.ar  1 <1>  -0.1500 
 19 C       -0.9540    -8.6110     0.9520 C.ar  1 <1>  -0.1500 
 20 C        0.1500    -6.9680    -0.3860 C.ar  1 <1>  -0.1500 
 21 C        0.2020    -8.1470     0.3500 C.ar  1 <1>   0.0820 
 22 O        1.3240    -8.8820     0.5210 O.3   1 <1>  -0.3620 
 23 C        2.5590    -8.4910    -0.0370 C.3   1 <1>   0.0400 
 24 H       -3.8090     0.2270    -0.2590 H     1 <1>   0.0800 
 25 H       -4.0590    -0.5870     1.2830 H     1 <1>   0.0800 
 26 H       -5.6770    -4.5550    -1.1670 H     1 <1>   0.4000 
 27 H       -6.4830    -2.6010     0.6240 H     1 <1>   0.0800 
 28 H       -6.7640    -2.2810    -1.0840 H     1 <1>   0.0800 
 29 H       -5.9590    -0.1380    -0.9460 H     1 <1>   0.0800 
 30 H       -6.3090    -0.2650     0.7680 H     1 <1>   0.0800 
 31 H       -2.8450    -4.7130    -1.5090 H     1 <1>   0.3700 
 32 H       -3.0270    -8.2940     1.3040 H     1 <1>   0.1500 
 33 H       -1.0380    -5.3690    -1.0830 H     1 <1>   0.1500 
 34 H       -0.9160    -9.5220     1.5230 H     1 <1>   0.1500 
 35 H        1.0270    -6.5760    -0.8670 H     1 <1>   0.1500 
 36 H        3.2970    -9.2210     0.2420 H     1 <1>   0.0800 
 37 H        2.8300    -7.5280     0.3570 H     1 <1>   0.0800 
 38 H        2.4630    -8.4580    -1.1070 H     1 <1>   0.0800 
@<TRIPOS>BOND
  1   1   2  1   
  2   2   3  1   
  3   2   4  1   
  4   2   5  1   
  5   5   6  2   
  6   5   7  1   
  7   7   8  2   
  8   7   9  1   
  9   8  10  1   
 10   8  11  1   
 11   9  12  1   
 12   9  24  1   
 13   9  25  1   
 14  10  13  1   
 15  10  26  1   
 16  11  12  1   
 17  11  27  1   
 18  11  28  1   
 19  12  29  1   
 20  12  30  1   
 21  13  14  am  
 22  13  31  1   
 23  14  15  2   
 24  14  16  1   
 25  16  17  ar  
 26  16  18  ar  
 27  17  19  ar  
 28  17  32  1   
 29  18  20  ar  
 30  18  33  1   
 31  19  21  ar  
 32  19  34  1   
 33  20  21  ar  
 34  20  35  1   
 35  21  22  1   
 36  22  23  1   
 37  23  36  1   
 38  23  37  1   
 39  23  38  1   
@<TRIPOS>SUBSTRUCTURE
  1 ****  13 GROUP 4 **** **** 0

# MOE 2024.06 (io_trps.svl 2023.06)
