@<TRIPOS>MOLECULE
NONAME
37 38 1 0 0 
SMALL
USER_CHARGES


@<TRIPOS>ATOM
  1 S        0.1110     0.1430     0.8730 S.o2  1 <1>   1.4470 
  2 O        0.1420    -1.1470     0.2190 O.2   1 <1>  -0.6500 
  3 O        0.4450     0.2360     2.2790 O.2   1 <1>  -0.6500 
  4 N        1.1810     1.1690     0.0470 N.am  1 <1>  -0.8490 
  5 C       -1.5060     0.9080     0.5600 C.ar  1 <1>  -0.0090 
  6 C        2.4660     0.5000    -0.1800 C.3   1 <1>   0.1960 
  7 C        1.3170     2.4610     0.7330 C.3   1 <1>   0.1960 
  8 C       -1.9120     1.2140    -0.7320 C.ar  1 <1>  -0.1500 
  9 C       -2.3820     1.2100     1.5950 C.ar  1 <1>  -0.1500 
 10 C        3.4110     1.2800    -1.1040 C.3   1 <1>  -0.1600 
 11 C        1.6920     3.5590    -0.2650 C.3   1 <1>  -0.1600 
 12 C       -3.1400     1.8010    -0.9830 C.ar  1 <1>  -0.1500 
 13 C       -3.6100     1.7970     1.3470 C.ar  1 <1>  -0.1500 
 14 C        4.0610     2.4960    -0.4300 C.3   1 <1>  -0.1600 
 15 C        3.2020     3.7670    -0.4660 C.3   1 <1>  -0.1600 
 16 C       -4.0250     2.1040     0.0520 C.ar  1 <1>   0.0860 
 17 C       -5.3220     2.7140    -0.1910 C.2   1 <1>   0.5440 
 18 O       -5.8960     3.3510     0.6640 O.2   1 <1>  -0.5700 
 19 N       -5.9640     2.5930    -1.3750 N.am  1 <1>  -0.8000 
 20 H        2.2840    -0.4510    -0.6530 H     1 <1>   0.0800 
 21 H        2.9490     0.3010     0.7640 H     1 <1>   0.0800 
 22 H        2.0260     2.3990     1.5420 H     1 <1>   0.0800 
 23 H        0.3670     2.7360     1.1610 H     1 <1>   0.0800 
 24 H       -1.2480     0.9900    -1.5520 H     1 <1>   0.1500 
 25 H       -2.0970     0.9850     2.6110 H     1 <1>   0.1500 
 26 H        2.9010     1.5600    -2.0090 H     1 <1>   0.0800 
 27 H        4.2000     0.6050    -1.3840 H     1 <1>   0.0800 
 28 H        1.2790     4.4890     0.0830 H     1 <1>   0.0800 
 29 H        1.2230     3.3450    -1.2100 H     1 <1>   0.0800 
 30 H       -3.4080     2.0320    -1.9980 H     1 <1>   0.1500 
 31 H       -4.2670     2.0240     2.1700 H     1 <1>   0.1500 
 32 H        4.9920     2.7120    -0.9260 H     1 <1>   0.0800 
 33 H        4.3020     2.2510     0.5910 H     1 <1>   0.0800 
 34 H        3.5680     4.4370     0.2930 H     1 <1>   0.0800 
 35 H        3.3460     4.2570    -1.4140 H     1 <1>   0.0800 
 36 H       -6.8880     3.0170    -1.4690 H     1 <1>   0.3700 
 37 H       -5.6690     1.9700    -2.1250 H     1 <1>   0.3700 
@<TRIPOS>BOND
  1   1   2  2   
  2   1   3  2   
  3   1   4  am  
  4   1   5  1   
  5   4   6  1   
  6   4   7  1   
  7   5   8  ar  
  8   5   9  ar  
  9   6  10  1   
 10   6  20  1   
 11   6  21  1   
 12   7  11  1   
 13   7  22  1   
 14   7  23  1   
 15   8  12  ar  
 16   8  24  1   
 17   9  13  ar  
 18   9  25  1   
 19  10  14  1   
 20  10  26  1   
 21  10  27  1   
 22  11  15  1   
 23  11  28  1   
 24  11  29  1   
 25  12  16  ar  
 26  12  30  1   
 27  13  16  ar  
 28  13  31  1   
 29  14  15  1   
 30  14  32  1   
 31  14  33  1   
 32  15  34  1   
 33  15  35  1   
 34  16  17  1   
 35  17  18  2   
 36  17  19  am  
 37  19  36  1   
 38  19  37  1   
@<TRIPOS>SUBSTRUCTURE
  1 ****   5 GROUP 4 **** **** 0

# MOE 2024.06 (io_trps.svl 2023.06)
