@<TRIPOS>MOLECULE
NONAME
23 24 1 0 0 
SMALL
USER_CHARGES


@<TRIPOS>ATOM
  1 BR       0.0180    -0.0580    -1.3180 Br    1 <1>  -0.1110 
  2 C        1.6240    -0.9030    -0.6880 C.ar  1 <1>   0.1110 
  3 C        2.8420    -0.3100    -0.9560 C.ar  1 <1>  -0.1500 
  4 C        1.5260    -2.0840     0.0210 C.ar  1 <1>  -0.1500 
  5 C        3.9950    -0.9250    -0.5000 C.ar  1 <1>  -0.1500 
  6 C        2.6890    -2.6850     0.4680 C.ar  1 <1>  -0.1500 
  7 C        3.9470    -2.1290     0.2140 C.ar  1 <1>   0.0860 
  8 C        5.1530    -2.7890     0.6830 C.2   1 <1>   0.5440 
  9 O        5.1370    -3.4500     1.7030 O.2   1 <1>  -0.5700 
 10 N        6.3180    -2.6870    -0.0290 N.am  1 <1>  -0.5790 
 11 C        7.6080    -3.2890     0.3380 C.3   1 <1>   0.0490 
 12 C        8.8540    -2.5670    -0.0530 C.3   1 <1>  -0.2000 
 13 C        8.4640    -3.8320    -0.7570 C.3   1 <1>  -0.2000 
 14 H        2.8810     0.6150    -1.5050 H     1 <1>   0.1500 
 15 H        0.5620    -2.5200     0.2180 H     1 <1>   0.1500 
 16 H        4.9440    -0.4570    -0.6930 H     1 <1>   0.1500 
 17 H        2.6320    -3.6050     1.0260 H     1 <1>   0.1500 
 18 H        6.3060    -2.2260    -0.9360 H     1 <1>   0.3700 
 19 H        7.5860    -3.8090     1.2840 H     1 <1>   0.1000 
 20 H        9.6960    -2.5970     0.6160 H     1 <1>   0.1000 
 21 H        8.7720    -1.6300    -0.5740 H     1 <1>   0.1000 
 22 H        8.1070    -3.7820    -1.7710 H     1 <1>   0.1000 
 23 H        9.0410    -4.7200    -0.5650 H     1 <1>   0.1000 
@<TRIPOS>BOND
  1   1   2  1   
  2   2   3  ar  
  3   2   4  ar  
  4   3   5  ar  
  5   3  14  1   
  6   4   6  ar  
  7   4  15  1   
  8   5   7  ar  
  9   5  16  1   
 10   6   7  ar  
 11   6  17  1   
 12   7   8  1   
 13   8   9  2   
 14   8  10  am  
 15  10  11  1   
 16  10  18  1   
 17  11  12  1   
 18  11  13  1   
 19  11  19  1   
 20  12  13  1   
 21  12  20  1   
 22  12  21  1   
 23  13  22  1   
 24  13  23  1   
@<TRIPOS>SUBSTRUCTURE
  1 ****   7 GROUP 4 **** **** 0

# MOE 2024.06 (io_trps.svl 2023.06)
