@<TRIPOS>MOLECULE
NONAME
39 40 1 0 0 
SMALL
USER_CHARGES


@<TRIPOS>ATOM
  1 O       -0.9020     0.4780    -1.0040 O.2   1 <1>  -0.5700 
  2 C       -1.1540     1.6630    -1.1110 C.2   1 <1>   0.5440 
  3 N       -2.4220     2.0030    -1.5340 N.am  1 <1>  -0.6600 
  4 C       -0.1790     2.6860    -0.7650 C.ar  1 <1>   0.0860 
  5 C       -3.2930     0.9780    -2.1800 C.3   1 <1>   0.1400 
  6 C       -3.1840     3.0980    -0.8700 C.3   1 <1>   0.1400 
  7 C        0.5370     2.6960     0.4410 C.ar  1 <1>  -0.1440 
  8 C        0.0480     3.7300    -1.6640 C.ar  1 <1>  -0.1500 
  9 C       -4.2200     0.3580    -1.1220 C.3   1 <1>   0.3430 
 10 C       -4.1550     2.5020     0.1710 C.3   1 <1>   0.3430 
 11 C        1.4260     3.7230     0.7170 C.ar  1 <1>  -0.1500 
 12 C        0.3710     1.5880     1.4750 C.3   1 <1>  -0.0970 
 13 C        0.9340     4.7520    -1.3830 C.ar  1 <1>  -0.1500 
 14 N       -5.0290     1.4100    -0.4030 N.4   1 <1>  -0.9590 
 15 C        1.6240     4.7500    -0.1870 C.ar  1 <1>  -0.1500 
 16 C       -5.8940     0.7940     0.6250 C.3   1 <1>   0.4810 
 17 C       -6.9700     1.8000     0.9600 C.2   1 <1>  -0.2880 
 18 C       -8.2400     1.7360     0.5450 C.2   1 <1>  -0.3000 
 19 H       -2.6890     0.2060    -2.6280 H     1 <1>   0.0800 
 20 H       -3.8700     1.4350    -2.9640 H     1 <1>   0.0800 
 21 H       -3.7300     3.6560    -1.6110 H     1 <1>   0.0800 
 22 H       -2.5120     3.7810    -0.3770 H     1 <1>   0.0800 
 23 H       -0.4780     3.7360    -2.6030 H     1 <1>   0.1500 
 24 H       -3.6060    -0.1790    -0.4170 H     1 <1>   0.0800 
 25 H       -4.8760    -0.3510    -1.6000 H     1 <1>   0.0800 
 26 H       -4.7690     3.2930     0.5690 H     1 <1>   0.0800 
 27 H       -3.5690     2.1010     0.9820 H     1 <1>   0.0800 
 28 H        1.9800     3.7310     1.6400 H     1 <1>   0.1500 
 29 H       -0.6680     1.4240     1.6900 H     1 <1>   0.0800 
 30 H        0.8720     1.8340     2.3940 H     1 <1>   0.0800 
 31 H        0.7940     0.6730     1.0960 H     1 <1>   0.0800 
 32 H        1.0920     5.5460    -2.0940 H     1 <1>   0.1500 
 33 H       -5.6680     1.8440    -1.0800 H     1 <1>   0.4500 
 34 H        2.3180     5.5420     0.0380 H     1 <1>   0.1500 
 35 H       -5.3280     0.5240     1.5030 H     1 <1>   0.0800 
 36 H       -6.3580    -0.0940     0.2260 H     1 <1>   0.0800 
 37 H       -6.6220     2.5980     1.5930 H     1 <1>   0.1500 
 38 H       -8.9920     2.4650     0.8040 H     1 <1>   0.1500 
 39 H       -8.6520     0.9610    -0.0810 H     1 <1>   0.1500 
@<TRIPOS>BOND
  1   1   2  2   
  2   2   3  am  
  3   2   4  1   
  4   3   5  1   
  5   3   6  1   
  6   4   7  ar  
  7   4   8  ar  
  8   5   9  1   
  9   5  19  1   
 10   5  20  1   
 11   6  10  1   
 12   6  21  1   
 13   6  22  1   
 14   7  11  ar  
 15   7  12  1   
 16   8  13  ar  
 17   8  23  1   
 18   9  14  1   
 19   9  24  1   
 20   9  25  1   
 21  10  14  1   
 22  10  26  1   
 23  10  27  1   
 24  11  15  ar  
 25  11  28  1   
 26  12  29  1   
 27  12  30  1   
 28  12  31  1   
 29  13  15  ar  
 30  13  32  1   
 31  14  16  1   
 32  14  33  1   
 33  15  34  1   
 34  16  17  1   
 35  16  35  1   
 36  16  36  1   
 37  17  18  2   
 38  17  37  1   
 39  18  38  1   
 40  18  39  1   
@<TRIPOS>SUBSTRUCTURE
  1 ****   3 GROUP 4 **** **** 0

# MOE 2024.06 (io_trps.svl 2023.06)
