@<TRIPOS>MOLECULE
NONAME
29 30 1 0 0 
SMALL
USER_CHARGES


@<TRIPOS>ATOM
  1 CL      -1.7160     0.7230    -1.5500 Cl    1 <1>  -0.1770 
  2 C       -0.8800     2.0080    -0.7110 C.ar  1 <1>   0.1770 
  3 C       -1.3980     2.5030     0.4760 C.ar  1 <1>  -0.1440 
  4 C        0.2820     2.5140    -1.2600 C.ar  1 <1>  -0.1500 
  5 C       -0.7210     3.5270     1.1240 C.ar  1 <1>  -0.1500 
  6 C       -2.6780     1.9300     1.0500 C.3   1 <1>   0.4870 
  7 C        0.9470     3.5380    -0.6090 C.ar  1 <1>  -0.1500 
  8 C        0.4460     4.0410     0.5800 C.ar  1 <1>  -0.1500 
  9 N       -3.8230     2.3180     0.1800 N.4   1 <1>  -0.9590 
 10 C       -3.9810     3.8130     0.0560 C.3   1 <1>   0.3430 
 11 C       -5.0940     1.6110     0.5340 C.3   1 <1>   0.3430 
 12 C       -5.2780     4.2370    -0.6580 C.3   1 <1>   0.0700 
 13 C       -6.0220     1.4940    -0.6900 C.3   1 <1>   0.0700 
 14 S       -5.8190     2.9270    -1.7970 S.3   1 <1>  -0.4600 
 15 H        0.6630     2.1130    -2.1840 H     1 <1>   0.1500 
 16 H       -1.0820     3.9340     2.0540 H     1 <1>   0.1500 
 17 H       -2.8300     2.2970     2.0510 H     1 <1>   0.0800 
 18 H       -2.5940     0.8550     1.0890 H     1 <1>   0.0800 
 19 H        1.8560     3.9420    -1.0250 H     1 <1>   0.1500 
 20 H        0.9720     4.8360     1.0840 H     1 <1>   0.1500 
 21 H       -3.5840     1.9950    -0.7730 H     1 <1>   0.4500 
 22 H       -3.1440     4.2040    -0.5020 H     1 <1>   0.0800 
 23 H       -3.9590     4.2700     1.0310 H     1 <1>   0.0800 
 24 H       -5.6020     2.1520     1.3170 H     1 <1>   0.0800 
 25 H       -4.8830     0.6190     0.9000 H     1 <1>   0.0800 
 26 H       -5.1330     5.1330    -1.2350 H     1 <1>   0.0800 
 27 H       -6.0770     4.3950     0.0440 H     1 <1>   0.0800 
 28 H       -7.0550     1.4540    -0.3920 H     1 <1>   0.0800 
 29 H       -5.7890     0.6180    -1.2710 H     1 <1>   0.0800 
@<TRIPOS>BOND
  1   1   2  1   
  2   2   3  ar  
  3   2   4  ar  
  4   3   5  ar  
  5   3   6  1   
  6   4   7  ar  
  7   4  15  1   
  8   5   8  ar  
  9   5  16  1   
 10   6   9  1   
 11   6  17  1   
 12   6  18  1   
 13   7   8  ar  
 14   7  19  1   
 15   8  20  1   
 16   9  10  1   
 17   9  11  1   
 18   9  21  1   
 19  10  12  1   
 20  10  22  1   
 21  10  23  1   
 22  11  13  1   
 23  11  24  1   
 24  11  25  1   
 25  12  14  1   
 26  12  26  1   
 27  12  27  1   
 28  13  14  1   
 29  13  28  1   
 30  13  29  1   
@<TRIPOS>SUBSTRUCTURE
  1 ****   3 GROUP 4 **** **** 0

# MOE 2024.06 (io_trps.svl 2023.06)
