@<TRIPOS>MOLECULE
NONAME
36 38 1 0 0 
SMALL
USER_CHARGES


@<TRIPOS>ATOM
  1 S        0.3620    -0.2590     0.2110 S.3   1 <1>  -0.2860 
  2 C       -1.3130    -0.5420    -0.3720 C.2   1 <1>   0.2420 
  3 C        1.3910    -0.9090    -1.1980 C.3   1 <1>   0.1310 
  4 N       -1.5870    -1.0230    -1.5310 N.2   1 <1>  -0.3380 
  5 N       -2.3880    -0.2720     0.3650 N.pl3 1 <1>   0.0480 
  6 C        2.8770    -0.7100    -0.9460 C.2   1 <1>   0.5690 
  7 N       -2.9220    -1.0870    -1.5860 N.2   1 <1>  -0.3380 
  8 C       -3.3770    -0.6440    -0.4590 C.2   1 <1>   0.1010 
  9 C       -2.4540     0.2740     1.7360 C.3   1 <1>   0.0160 
 10 O        3.6470    -1.4300    -1.5330 O.2   1 <1>  -0.5700 
 11 N        3.2690     0.2730    -0.0760 N.am  1 <1>  -0.5470 
 12 C       -4.8520    -0.5500    -0.1020 C.3   1 <1>  -0.0150 
 13 C        4.5380     0.7170     0.3280 C.ar  1 <1>   0.1170 
 14 C       -5.4280    -1.4430     0.9550 C.3   1 <1>  -0.2000 
 15 C       -5.7890    -1.6540    -0.4820 C.3   1 <1>  -0.2000 
 16 C        5.7020     0.4540    -0.3880 C.ar  1 <1>  -0.1500 
 17 C        4.6370     1.4690     1.4930 C.ar  1 <1>  -0.1500 
 18 C        6.9270     0.9240     0.0500 C.ar  1 <1>  -0.1500 
 19 C        5.8600     1.9430     1.9350 C.ar  1 <1>  -0.1500 
 20 C        7.0080     1.6700     1.2130 C.ar  1 <1>  -0.1500 
 21 H        1.0890    -0.3840    -2.0850 H     1 <1>   0.0800 
 22 H        1.1650    -1.9540    -1.3010 H     1 <1>   0.0800 
 23 H       -1.7320     1.0640     1.8420 H     1 <1>   0.0800 
 24 H       -2.2340    -0.5080     2.4390 H     1 <1>   0.0800 
 25 H       -3.4360     0.6650     1.9280 H     1 <1>   0.0800 
 26 H        2.4910     0.7250     0.4050 H     1 <1>   0.3700 
 27 H       -5.2300     0.4540    -0.1840 H     1 <1>   0.1000 
 28 H       -6.1760    -1.0500     1.6200 H     1 <1>   0.1000 
 29 H       -4.7970    -2.1770     1.4270 H     1 <1>   0.1000 
 30 H       -5.3870    -2.5050    -1.0060 H     1 <1>   0.1000 
 31 H       -6.7760    -1.3920    -0.8210 H     1 <1>   0.1000 
 32 H        5.6600    -0.1190    -1.2960 H     1 <1>   0.1500 
 33 H        3.7540     1.6860     2.0640 H     1 <1>   0.1500 
 34 H        7.8170     0.7090    -0.5150 H     1 <1>   0.1500 
 35 H        5.9210     2.5220     2.8400 H     1 <1>   0.1500 
 36 H        7.9610     2.0360     1.5540 H     1 <1>   0.1500 
@<TRIPOS>BOND
  1   1   2  1   
  2   1   3  1   
  3   2   4  2   
  4   2   5  1   
  5   3   6  1   
  6   3  21  1   
  7   3  22  1   
  8   4   7  1   
  9   5   8  1   
 10   5   9  1   
 11   6  10  2   
 12   6  11  am  
 13   7   8  2   
 14   8  12  1   
 15   9  23  1   
 16   9  24  1   
 17   9  25  1   
 18  11  13  1   
 19  11  26  1   
 20  12  14  1   
 21  12  15  1   
 22  12  27  1   
 23  13  16  ar  
 24  13  17  ar  
 25  14  15  1   
 26  14  28  1   
 27  14  29  1   
 28  15  30  1   
 29  15  31  1   
 30  16  18  ar  
 31  16  32  1   
 32  17  19  ar  
 33  17  33  1   
 34  18  20  ar  
 35  18  34  1   
 36  19  20  ar  
 37  19  35  1   
 38  20  36  1   
@<TRIPOS>SUBSTRUCTURE
  1 ****   1 GROUP 4 **** **** 0

# MOE 2024.06 (io_trps.svl 2023.06)
