@<TRIPOS>MOLECULE
NONAME
40 41 1 0 0 
SMALL
USER_CHARGES


@<TRIPOS>ATOM
  1 F        1.4010    -0.2250    -0.7950 F     1 <1>  -0.1900 
  2 C        1.2350    -1.4900    -0.4990 C.ar  1 <1>   0.1900 
  3 C        2.3380    -2.2740    -0.1740 C.ar  1 <1>   0.0830 
  4 C       -0.0520    -1.9930    -0.5240 C.ar  1 <1>  -0.1500 
  5 O        3.5730    -1.6990    -0.1730 O.3   1 <1>  -0.3630 
  6 C        2.1160    -3.6150     0.1350 C.ar  1 <1>  -0.1500 
  7 C       -0.2530    -3.3280    -0.2140 C.ar  1 <1>  -0.1500 
  8 C        4.7300    -2.4380     0.1440 C.3   1 <1>   0.1200 
  9 C        0.8280    -4.1320     0.1140 C.ar  1 <1>  -0.1500 
 10 C        5.9320    -1.4990     0.0500 C.3   1 <1>  -0.1600 
 11 C        7.2370    -2.2350     0.3810 C.3   1 <1>  -0.1600 
 12 C        8.4380    -1.2940     0.2890 C.3   1 <1>   0.1200 
 13 O        9.5970    -2.0320     0.6050 O.3   1 <1>  -0.3630 
 14 C       10.8290    -1.6150     0.1980 C.ar  1 <1>   0.0830 
 15 C       11.2350    -0.2770     0.0470 C.ar  1 <1>   0.0830 
 16 C       11.7270    -2.6360    -0.0740 C.ar  1 <1>  -0.1500 
 17 O       10.3710     0.7350     0.3540 O.3   1 <1>  -0.3630 
 18 C       12.5290    -0.0140    -0.4010 C.ar  1 <1>  -0.1500 
 19 C       13.0090    -2.3590    -0.5110 C.ar  1 <1>  -0.1500 
 20 C       10.7840     2.0830     0.4040 C.3   1 <1>   0.0400 
 21 C       13.4080    -1.0470    -0.6780 C.ar  1 <1>  -0.1500 
 22 H       -0.8750    -1.3510    -0.7800 H     1 <1>   0.1500 
 23 H        2.9250    -4.2700     0.3940 H     1 <1>   0.1500 
 24 H       -1.2480    -3.7400    -0.2270 H     1 <1>   0.1500 
 25 H        4.8220    -3.2450    -0.5630 H     1 <1>   0.0800 
 26 H        4.6250    -2.8230     1.1430 H     1 <1>   0.0800 
 27 H        0.6650    -5.1690     0.3540 H     1 <1>   0.1500 
 28 H        5.7940    -0.6850     0.7400 H     1 <1>   0.0800 
 29 H        5.9870    -1.1010    -0.9480 H     1 <1>   0.0800 
 30 H        7.3790    -3.0480    -0.3100 H     1 <1>   0.0800 
 31 H        7.1840    -2.6330     1.3800 H     1 <1>   0.0800 
 32 H        8.3460    -0.4900     0.9970 H     1 <1>   0.0800 
 33 H        8.5430    -0.9010    -0.7080 H     1 <1>   0.0800 
 34 H       11.4100    -3.6550     0.0570 H     1 <1>   0.1500 
 35 H       12.8780     0.9900    -0.5420 H     1 <1>   0.1500 
 36 H       13.6920    -3.1640    -0.7200 H     1 <1>   0.1500 
 37 H        9.9530     2.6740     0.7450 H     1 <1>   0.0800 
 38 H       11.0740     2.3980    -0.5830 H     1 <1>   0.0800 
 39 H       11.6030     2.1720     1.0960 H     1 <1>   0.0800 
 40 H       14.4040    -0.8290    -1.0210 H     1 <1>   0.1500 
@<TRIPOS>BOND
  1   1   2  1   
  2   2   3  ar  
  3   2   4  ar  
  4   3   5  1   
  5   3   6  ar  
  6   4   7  ar  
  7   4  22  1   
  8   5   8  1   
  9   6   9  ar  
 10   6  23  1   
 11   7   9  ar  
 12   7  24  1   
 13   8  10  1   
 14   8  25  1   
 15   8  26  1   
 16   9  27  1   
 17  10  11  1   
 18  10  28  1   
 19  10  29  1   
 20  11  12  1   
 21  11  30  1   
 22  11  31  1   
 23  12  13  1   
 24  12  32  1   
 25  12  33  1   
 26  13  14  1   
 27  14  15  ar  
 28  14  16  ar  
 29  15  17  1   
 30  15  18  ar  
 31  16  19  ar  
 32  16  34  1   
 33  17  20  1   
 34  18  21  ar  
 35  18  35  1   
 36  19  21  ar  
 37  19  36  1   
 38  20  37  1   
 39  20  38  1   
 40  20  39  1   
 41  21  40  1   
@<TRIPOS>SUBSTRUCTURE
  1 ****  10 GROUP 4 **** **** 0

# MOE 2024.06 (io_trps.svl 2023.06)
