@<TRIPOS>MOLECULE
NONAME
43 45 1 0 0 
SMALL
USER_CHARGES


@<TRIPOS>ATOM
  1 BR       2.2310     1.6010    -2.4450 Br    1 <1>  -0.1110 
  2 C        1.2040     2.3960    -1.0160 C.ar  1 <1>   0.1110 
  3 C        1.6630     2.3020     0.2910 C.ar  1 <1>   0.0820 
  4 C        0.0350     3.0530    -1.3460 C.ar  1 <1>  -0.1500 
  5 O        2.8250     1.6440     0.5310 O.3   1 <1>  -0.3630 
  6 C        0.9040     2.8940     1.2950 C.ar  1 <1>  -0.1500 
  7 C       -0.7110     3.6450    -0.3380 C.ar  1 <1>  -0.1430 
  8 C        3.6310     2.0070     1.6430 C.3   1 <1>   0.1810 
  9 C       -0.2710     3.5590     0.9760 C.ar  1 <1>  -0.1500 
 10 C       -2.0040     4.3730    -0.6700 C.3   1 <1>  -0.0160 
 11 C        5.0210     1.3790     1.5540 C.2   1 <1>   0.5690 
 12 C       -3.1910     3.4100    -0.6180 C.3   1 <1>  -0.2400 
 13 O        5.3410     0.6360     2.4550 O.2   1 <1>  -0.5700 
 14 N        5.8840     1.6600     0.5220 N.am  1 <1>  -0.6600 
 15 C        7.2330     1.0240     0.4830 C.3   1 <1>   0.2840 
 16 C        5.5570     2.4800    -0.6780 C.3   1 <1>   0.1400 
 17 C        8.2980     1.9100    -0.1630 C.ar  1 <1>  -0.1430 
 18 C        6.5570     3.6280    -0.8010 C.3   1 <1>  -0.0170 
 19 C        7.9900     3.1230    -0.7710 C.ar  1 <1>  -0.1430 
 20 C        9.6160     1.4770    -0.1430 C.ar  1 <1>  -0.1500 
 21 C        8.9960     3.8830    -1.3460 C.ar  1 <1>  -0.1500 
 22 C       10.6180     2.2380    -0.7190 C.ar  1 <1>  -0.1500 
 23 C       10.3070     3.4430    -1.3220 C.ar  1 <1>  -0.1500 
 24 H       -0.2820     3.0980    -2.3720 H     1 <1>   0.1500 
 25 H        1.2050     2.8390     2.3240 H     1 <1>   0.1500 
 26 H        3.1440     1.6630     2.5360 H     1 <1>   0.0800 
 27 H        3.7240     3.0760     1.6660 H     1 <1>   0.0800 
 28 H       -0.8510     4.0100     1.7630 H     1 <1>   0.1500 
 29 H       -1.9350     4.8070    -1.6530 H     1 <1>   0.0800 
 30 H       -2.1590     5.1760     0.0300 H     1 <1>   0.0800 
 31 H       -3.0550     2.6130    -1.3280 H     1 <1>   0.0800 
 32 H       -4.1020     3.9310    -0.8520 H     1 <1>   0.0800 
 33 H       -3.2800     2.9820     0.3660 H     1 <1>   0.0800 
 34 H        7.1590     0.1040    -0.0700 H     1 <1>   0.0800 
 35 H        7.5500     0.7840     1.4830 H     1 <1>   0.0800 
 36 H        4.5640     2.8850    -0.6260 H     1 <1>   0.0800 
 37 H        5.6160     1.8550    -1.5530 H     1 <1>   0.0800 
 38 H        6.4080     4.3180     0.0100 H     1 <1>   0.0800 
 39 H        6.3730     4.1520    -1.7220 H     1 <1>   0.0800 
 40 H        9.8700     0.5420     0.3240 H     1 <1>   0.1500 
 41 H        8.7640     4.8230    -1.8140 H     1 <1>   0.1500 
 42 H       11.6370     1.8940    -0.6980 H     1 <1>   0.1500 
 43 H       11.0840     4.0380    -1.7700 H     1 <1>   0.1500 
@<TRIPOS>BOND
  1   1   2  1   
  2   2   3  ar  
  3   2   4  ar  
  4   3   5  1   
  5   3   6  ar  
  6   4   7  ar  
  7   4  24  1   
  8   5   8  1   
  9   6   9  ar  
 10   6  25  1   
 11   7   9  ar  
 12   7  10  1   
 13   8  11  1   
 14   8  26  1   
 15   8  27  1   
 16   9  28  1   
 17  10  12  1   
 18  10  29  1   
 19  10  30  1   
 20  11  13  2   
 21  11  14  am  
 22  12  31  1   
 23  12  32  1   
 24  12  33  1   
 25  14  15  1   
 26  14  16  1   
 27  15  17  1   
 28  15  34  1   
 29  15  35  1   
 30  16  18  1   
 31  16  36  1   
 32  16  37  1   
 33  17  19  ar  
 34  17  20  ar  
 35  18  19  1   
 36  18  38  1   
 37  18  39  1   
 38  19  21  ar  
 39  20  22  ar  
 40  20  40  1   
 41  21  23  ar  
 42  21  41  1   
 43  22  23  ar  
 44  22  42  1   
 45  23  43  1   
@<TRIPOS>SUBSTRUCTURE
  1 ****  16 GROUP 4 **** **** 0

# MOE 2024.06 (io_trps.svl 2023.06)
