@<TRIPOS>MOLECULE
NONAME
29 29 1 0 0 
SMALL
USER_CHARGES


@<TRIPOS>ATOM
  1 S        0.1990     0.1560    -0.4080 S.3   1 <1>  -0.3320 
  2 C       -1.3650     1.0060    -0.1750 C.ar  1 <1>   0.4120 
  3 C       -0.2140    -1.6220    -0.0930 C.3   1 <1>   0.2700 
  4 N       -2.3610     0.2060     0.1470 N.ar  1 <1>  -0.6200 
  5 C       -1.4330     2.3850    -0.3380 C.ar  1 <1>   0.0730 
  6 C        1.0080    -2.4590    -0.2570 C.1   1 <1>   0.3570 
  7 C       -3.5270     0.7970     0.3280 C.ar  1 <1>   0.1660 
  8 C       -0.2470     3.1150    -0.6770 C.1   1 <1>   0.4840 
  9 C       -2.6720     2.9940    -0.1510 C.ar  1 <1>  -0.1430 
 10 N        1.9210    -3.1280    -0.3750 N.1   1 <1>  -0.5570 
 11 C       -3.7420     2.1720     0.1970 C.ar  1 <1>  -0.1440 
 12 C       -4.6430    -0.1650     0.7080 C.3   1 <1>  -0.0960 
 13 N        0.6700     3.7370    -0.9470 N.1   1 <1>  -0.5570 
 14 C       -2.8360     4.5120    -0.3100 C.3   1 <1>  -0.0960 
 15 C       -5.1370     2.7660     0.4430 C.3   1 <1>  -0.0160 
 16 C       -5.9620     2.8060    -0.8490 C.3   1 <1>  -0.2400 
 17 H       -0.9700    -1.9080    -0.8000 H     1 <1>   0.0800 
 18 H       -0.5920    -1.6930     0.9100 H     1 <1>   0.0800 
 19 H       -4.3340    -1.1830     0.5520 H     1 <1>   0.0800 
 20 H       -5.5180     0.0060     0.1120 H     1 <1>   0.0800 
 21 H       -4.8880    -0.0440     1.7470 H     1 <1>   0.0800 
 22 H       -2.0380     4.9610    -0.8720 H     1 <1>   0.0800 
 23 H       -2.8660     4.9780     0.6590 H     1 <1>   0.0800 
 24 H       -3.7440     4.7500    -0.8330 H     1 <1>   0.0800 
 25 H       -5.0610     3.7580     0.8480 H     1 <1>   0.0800 
 26 H       -5.6680     2.1950     1.1840 H     1 <1>   0.0800 
 27 H       -5.4720     3.4030    -1.5960 H     1 <1>   0.0800 
 28 H       -6.9310     3.2300    -0.6540 H     1 <1>   0.0800 
 29 H       -6.0970     1.8160    -1.2460 H     1 <1>   0.0800 
@<TRIPOS>BOND
  1   1   2  1   
  2   1   3  1   
  3   2   4  ar  
  4   2   5  ar  
  5   3   6  1   
  6   3  17  1   
  7   3  18  1   
  8   4   7  ar  
  9   5   8  1   
 10   5   9  ar  
 11   6  10  3   
 12   7  11  ar  
 13   7  12  1   
 14   8  13  3   
 15   9  11  ar  
 16   9  14  1   
 17  11  15  1   
 18  12  19  1   
 19  12  20  1   
 20  12  21  1   
 21  14  22  1   
 22  14  23  1   
 23  14  24  1   
 24  15  16  1   
 25  15  25  1   
 26  15  26  1   
 27  16  27  1   
 28  16  28  1   
 29  16  29  1   
@<TRIPOS>SUBSTRUCTURE
  1 ****   2 GROUP 4 **** **** 0

# MOE 2024.06 (io_trps.svl 2023.06)
