@<TRIPOS>MOLECULE
NONAME
50 52 1 0 0 
SMALL
USER_CHARGES


@<TRIPOS>ATOM
  1 CL       0.9170    -2.1060    -2.9420 Cl    1 <1>  -0.1770 
  2 C        2.1620    -2.2370    -1.7280 C.ar  1 <1>   0.1770 
  3 C        2.1690    -1.3540    -0.6650 C.ar  1 <1>  -0.1500 
  4 C        3.1230    -3.2230    -1.8450 C.ar  1 <1>  -0.1500 
  5 C        3.1610    -1.4590     0.2960 C.ar  1 <1>  -0.1500 
  6 C        4.1130    -3.3220    -0.8820 C.ar  1 <1>  -0.1500 
  7 C        4.1420    -2.4370     0.1890 C.ar  1 <1>  -0.1430 
  8 C        5.2370    -2.5480     1.2420 C.3   1 <1>   0.3390 
  9 N        6.4450    -1.8220     0.8000 N.am  1 <1>  -0.6930 
 10 S        6.4810    -0.1080     1.0190 S.o2  1 <1>   1.3330 
 11 C        7.5520    -2.5250     0.3650 C.ar  1 <1>   0.1990 
 12 O        5.3930     0.2430     1.9000 O.2   1 <1>  -0.6500 
 13 O        7.8370     0.2610     1.3470 O.2   1 <1>  -0.6500 
 14 C        6.1080     0.4740    -0.6210 C.3   1 <1>  -0.1350 
 15 C        8.6130    -2.7820     1.2250 C.ar  1 <1>  -0.1500 
 16 C        7.6320    -2.9920    -0.9410 C.ar  1 <1>  -0.1500 
 17 C        9.7190    -3.4860     0.7910 C.ar  1 <1>  -0.1500 
 18 C        8.7400    -3.6950    -1.3720 C.ar  1 <1>  -0.1500 
 19 C        9.8170    -3.9520    -0.5220 C.ar  1 <1>   0.0860 
 20 C       10.9790    -4.6780    -0.9890 C.2   1 <1>   0.5440 
 21 O       10.8190    -5.7370    -1.5690 O.2   1 <1>  -0.5700 
 22 N       12.2630    -4.2020    -0.8100 N.am  1 <1>  -0.6600 
 23 C       12.5890    -2.7690    -0.5700 C.3   1 <1>   0.1400 
 24 C       13.4540    -5.0700    -1.0210 C.3   1 <1>   0.1400 
 25 C       13.5050    -2.6460     0.6520 C.3   1 <1>  -0.1600 
 26 C       14.3900    -4.9650     0.1890 C.3   1 <1>  -0.1600 
 27 C       14.7660    -3.5080     0.4960 C.3   1 <1>  -0.1600 
 28 H        1.4080    -0.5990    -0.5920 H     1 <1>   0.1500 
 29 H        3.0920    -3.9010    -2.6790 H     1 <1>   0.1500 
 30 H        3.1630    -0.7720     1.1270 H     1 <1>   0.1500 
 31 H        4.8600    -4.0930    -0.9680 H     1 <1>   0.1500 
 32 H        5.4820    -3.5850     1.3950 H     1 <1>   0.0800 
 33 H        4.8950    -2.1550     2.1850 H     1 <1>   0.0800 
 34 H        5.1520     0.1080    -0.9380 H     1 <1>   0.0800 
 35 H        6.8550     0.1350    -1.3110 H     1 <1>   0.0800 
 36 H        6.0880     1.5460    -0.6340 H     1 <1>   0.0800 
 37 H        8.5640    -2.4170     2.2360 H     1 <1>   0.1500 
 38 H        6.8220    -2.7970    -1.6190 H     1 <1>   0.1500 
 39 H       10.5290    -3.6820     1.4720 H     1 <1>   0.1500 
 40 H        8.7900    -4.0590    -2.3850 H     1 <1>   0.1500 
 41 H       11.6990    -2.1840    -0.4220 H     1 <1>   0.0800 
 42 H       13.0950    -2.3810    -1.4380 H     1 <1>   0.0800 
 43 H       13.9650    -4.7520    -1.9140 H     1 <1>   0.0800 
 44 H       13.1560    -6.0970    -1.1540 H     1 <1>   0.0800 
 45 H       12.9630    -2.9510     1.5290 H     1 <1>   0.0800 
 46 H       13.7860    -1.6160     0.7830 H     1 <1>   0.0800 
 47 H       15.2810    -5.5370    -0.0020 H     1 <1>   0.0800 
 48 H       13.8980    -5.4000     1.0410 H     1 <1>   0.0800 
 49 H       15.3510    -3.4650     1.3980 H     1 <1>   0.0800 
 50 H       15.3660    -3.1180    -0.3090 H     1 <1>   0.0800 
@<TRIPOS>BOND
  1   1   2  1   
  2   2   3  ar  
  3   2   4  ar  
  4   3   5  ar  
  5   3  28  1   
  6   4   6  ar  
  7   4  29  1   
  8   5   7  ar  
  9   5  30  1   
 10   6   7  ar  
 11   6  31  1   
 12   7   8  1   
 13   8   9  1   
 14   8  32  1   
 15   8  33  1   
 16   9  10  am  
 17   9  11  1   
 18  10  12  2   
 19  10  13  2   
 20  10  14  1   
 21  11  15  ar  
 22  11  16  ar  
 23  14  34  1   
 24  14  35  1   
 25  14  36  1   
 26  15  17  ar  
 27  15  37  1   
 28  16  18  ar  
 29  16  38  1   
 30  17  19  ar  
 31  17  39  1   
 32  18  19  ar  
 33  18  40  1   
 34  19  20  1   
 35  20  21  2   
 36  20  22  am  
 37  22  23  1   
 38  22  24  1   
 39  23  25  1   
 40  23  41  1   
 41  23  42  1   
 42  24  26  1   
 43  24  43  1   
 44  24  44  1   
 45  25  27  1   
 46  25  45  1   
 47  25  46  1   
 48  26  27  1   
 49  26  47  1   
 50  26  48  1   
 51  27  49  1   
 52  27  50  1   
@<TRIPOS>SUBSTRUCTURE
  1 ****  11 GROUP 4 **** **** 0

# MOE 2024.06 (io_trps.svl 2023.06)
