@<TRIPOS>MOLECULE
NONAME
47 49 1 0 0 
SMALL
USER_CHARGES


@<TRIPOS>ATOM
  1 O       -0.5490    -0.0330    -1.0780 O.2   1 <1>  -0.5700 
  2 C       -1.3660     0.5540    -0.4100 C.2   1 <1>   0.5690 
  3 N       -1.1580     1.7640     0.1870 N.am  1 <1>  -0.5470 
  4 C       -2.7470    -0.0710    -0.2030 C.3   1 <1>   0.1710 
  5 C       -0.0720     2.6520     0.2200 C.ar  1 <1>   0.1170 
  6 N       -3.8120     0.9250     0.1240 N.3   1 <1>  -0.8100 
  7 C        1.1920     2.3310    -0.2660 C.ar  1 <1>  -0.1500 
  8 C       -0.2660     3.9130     0.7700 C.ar  1 <1>  -0.1500 
  9 C       -4.1950     1.7030    -1.0850 C.3   1 <1>   0.1100 
 10 C       -5.0150     0.2490     0.6630 C.3   1 <1>   0.1100 
 11 C        2.2310     3.2440    -0.2120 C.ar  1 <1>  -0.1500 
 12 C        0.7680     4.8300     0.8270 C.ar  1 <1>  -0.1500 
 13 C       -5.2990     2.7350    -0.7870 C.3   1 <1>   0.2090 
 14 C       -6.1390     1.2470     1.0030 C.3   1 <1>   0.2090 
 15 C        2.0220     4.5060     0.3370 C.ar  1 <1>   0.0820 
 16 N       -6.4940     2.0800    -0.1820 N.pl3 1 <1>  -0.8380 
 17 O        2.9820     5.4630     0.4290 O.3   1 <1>  -0.3620 
 18 C       -7.6240     2.8780    -0.0540 C.ar  1 <1>   0.1000 
 19 C        4.2870     5.2280    -0.0520 C.3   1 <1>   0.0400 
 20 C       -7.6710     3.9410     0.8430 C.ar  1 <1>  -0.1500 
 21 C       -8.7390     2.6180    -0.8380 C.ar  1 <1>  -0.1500 
 22 C       -8.8070     4.7230     0.9520 C.ar  1 <1>  -0.1500 
 23 C       -9.8770     3.3970    -0.7340 C.ar  1 <1>  -0.1500 
 24 C       -9.9120     4.4520     0.1630 C.ar  1 <1>  -0.1500 
 25 H       -2.0160     2.0890     0.6440 H     1 <1>   0.3700 
 26 H       -2.6550    -0.7710     0.6070 H     1 <1>   0.0800 
 27 H       -3.0170    -0.6240    -1.0870 H     1 <1>   0.0800 
 28 H        1.3750     1.3620    -0.6910 H     1 <1>   0.1500 
 29 H       -1.2310     4.1840     1.1550 H     1 <1>   0.1500 
 30 H       -4.5530     1.0360    -1.8510 H     1 <1>   0.0800 
 31 H       -3.3370     2.2220    -1.4740 H     1 <1>   0.0800 
 32 H       -4.7530    -0.2900     1.5570 H     1 <1>   0.0800 
 33 H       -5.3920    -0.4580    -0.0570 H     1 <1>   0.0800 
 34 H        3.1880     2.9540    -0.6000 H     1 <1>   0.1500 
 35 H        0.6110     5.8050     1.2520 H     1 <1>   0.1500 
 36 H       -5.5900     3.2220    -1.7010 H     1 <1>   0.0800 
 37 H       -4.9160     3.4820    -0.1150 H     1 <1>   0.0800 
 38 H       -5.8170     1.8820     1.8090 H     1 <1>   0.0800 
 39 H       -7.0120     0.7080     1.3280 H     1 <1>   0.0800 
 40 H        4.8700     6.1140     0.1190 H     1 <1>   0.0800 
 41 H        4.2380     5.0190    -1.1060 H     1 <1>   0.0800 
 42 H        4.7130     4.4000     0.4870 H     1 <1>   0.0800 
 43 H       -6.8140     4.1500     1.4540 H     1 <1>   0.1500 
 44 H       -8.6990     1.7970    -1.5300 H     1 <1>   0.1500 
 45 H       -8.8320     5.5420     1.6490 H     1 <1>   0.1500 
 46 H      -10.7330     3.1820    -1.3480 H     1 <1>   0.1500 
 47 H      -10.7970     5.0590     0.2460 H     1 <1>   0.1500 
@<TRIPOS>BOND
  1   1   2  2   
  2   2   3  am  
  3   2   4  1   
  4   3   5  1   
  5   3  25  1   
  6   4   6  1   
  7   4  26  1   
  8   4  27  1   
  9   5   7  ar  
 10   5   8  ar  
 11   6   9  1   
 12   6  10  1   
 13   7  11  ar  
 14   7  28  1   
 15   8  12  ar  
 16   8  29  1   
 17   9  13  1   
 18   9  30  1   
 19   9  31  1   
 20  10  14  1   
 21  10  32  1   
 22  10  33  1   
 23  11  15  ar  
 24  11  34  1   
 25  12  15  ar  
 26  12  35  1   
 27  13  16  1   
 28  13  36  1   
 29  13  37  1   
 30  14  16  1   
 31  14  38  1   
 32  14  39  1   
 33  15  17  1   
 34  16  18  1   
 35  17  19  1   
 36  18  20  ar  
 37  18  21  ar  
 38  19  40  1   
 39  19  41  1   
 40  19  42  1   
 41  20  22  ar  
 42  20  43  1   
 43  21  23  ar  
 44  21  44  1   
 45  22  24  ar  
 46  22  45  1   
 47  23  24  ar  
 48  23  46  1   
 49  24  47  1   
@<TRIPOS>SUBSTRUCTURE
  1 ****   9 GROUP 4 **** **** 0

# MOE 2024.06 (io_trps.svl 2023.06)
