@<TRIPOS>MOLECULE
NONAME
47 49 1 0 0 
SMALL
USER_CHARGES


@<TRIPOS>ATOM
  1 S        0.6240    -0.4540     0.5050 S.o2  1 <1>   1.4470 
  2 O        1.6940     0.1230    -0.2720 O.2   1 <1>  -0.6500 
  3 O        0.8640    -0.7640     1.9000 O.2   1 <1>  -0.6500 
  4 N        0.1450    -1.9140    -0.2020 N.am  1 <1>  -0.8490 
  5 C       -0.8400     0.6050     0.3360 C.ar  1 <1>  -0.0090 
  6 C       -0.9720    -2.5060     0.5430 C.3   1 <1>   0.3390 
  7 C        1.2730    -2.8860    -0.3000 C.3   1 <1>   0.2570 
  8 C       -1.4150     0.8230    -0.9100 C.ar  1 <1>  -0.1500 
  9 C       -1.4250     1.2160     1.4400 C.ar  1 <1>  -0.1500 
 10 C       -1.5530    -3.7240    -0.1660 C.ar  1 <1>  -0.1440 
 11 C        2.4130    -2.5330    -1.2720 C.2   1 <1>   0.5690 
 12 C       -2.5400     1.6160    -1.0530 C.ar  1 <1>  -0.1500 
 13 C       -2.5500     2.0110     1.3060 C.ar  1 <1>  -0.1500 
 14 C       -1.8530    -4.8710     0.5550 C.ar  1 <1>  -0.1500 
 15 C       -1.7930    -3.7020    -1.5330 C.ar  1 <1>  -0.1500 
 16 O        2.1810    -2.5900    -2.4600 O.2   1 <1>  -0.5700 
 17 N        3.6690    -2.2230    -0.8110 N.am  1 <1>  -0.6600 
 18 C       -3.1100     2.2110     0.0570 C.ar  1 <1>  -0.1500 
 19 C       -2.3810    -5.9810    -0.0830 C.ar  1 <1>  -0.1500 
 20 C       -2.3200    -4.8110    -2.1710 C.ar  1 <1>  -0.1500 
 21 C        4.0720    -2.0370     0.6020 C.3   1 <1>   0.1400 
 22 C        4.7230    -1.7320    -1.7250 C.3   1 <1>   0.1400 
 23 C       -2.6150    -5.9510    -1.4460 C.ar  1 <1>  -0.1500 
 24 C        5.5400    -1.6300     0.5410 C.3   1 <1>  -0.1600 
 25 C        5.6970    -0.9780    -0.8290 C.3   1 <1>  -0.1600 
 26 H       -1.7670    -1.7880     0.6470 H     1 <1>   0.0800 
 27 H       -0.6470    -2.7820     1.5330 H     1 <1>   0.0800 
 28 H        0.8960    -3.8300    -0.6500 H     1 <1>   0.0800 
 29 H        1.6770    -3.0590     0.6800 H     1 <1>   0.0800 
 30 H       -0.9730     0.3630    -1.7800 H     1 <1>   0.1500 
 31 H       -0.9960     1.0700     2.4170 H     1 <1>   0.1500 
 32 H       -2.9700     1.7710    -2.0280 H     1 <1>   0.1500 
 33 H       -2.9890     2.4760     2.1720 H     1 <1>   0.1500 
 34 H       -1.6780    -4.9120     1.6160 H     1 <1>   0.1500 
 35 H       -1.5590    -2.8210    -2.1070 H     1 <1>   0.1500 
 36 H       -3.9850     2.8290    -0.0510 H     1 <1>   0.1500 
 37 H       -2.6120    -6.8680     0.4810 H     1 <1>   0.1500 
 38 H       -2.4980    -4.7840    -3.2320 H     1 <1>   0.1500 
 39 H        3.9430    -2.9430     1.1680 H     1 <1>   0.0800 
 40 H        3.4910    -1.2430     1.0400 H     1 <1>   0.0800 
 41 H        4.3050    -1.0910    -2.4830 H     1 <1>   0.0800 
 42 H        5.2040    -2.5760    -2.1890 H     1 <1>   0.0800 
 43 H       -3.0250    -6.8130    -1.9420 H     1 <1>   0.1500 
 44 H        6.1520    -2.5120     0.5990 H     1 <1>   0.0800 
 45 H        5.8030    -0.9640     1.3440 H     1 <1>   0.0800 
 46 H        5.3920     0.0530    -0.7800 H     1 <1>   0.0800 
 47 H        6.7050    -1.0300    -1.2000 H     1 <1>   0.0800 
@<TRIPOS>BOND
  1   1   2  2   
  2   1   3  2   
  3   1   4  am  
  4   1   5  1   
  5   4   6  1   
  6   4   7  1   
  7   5   8  ar  
  8   5   9  ar  
  9   6  10  1   
 10   6  26  1   
 11   6  27  1   
 12   7  11  1   
 13   7  28  1   
 14   7  29  1   
 15   8  12  ar  
 16   8  30  1   
 17   9  13  ar  
 18   9  31  1   
 19  10  14  ar  
 20  10  15  ar  
 21  11  16  2   
 22  11  17  am  
 23  12  18  ar  
 24  12  32  1   
 25  13  18  ar  
 26  13  33  1   
 27  14  19  ar  
 28  14  34  1   
 29  15  20  ar  
 30  15  35  1   
 31  17  21  1   
 32  17  22  1   
 33  18  36  1   
 34  19  23  ar  
 35  19  37  1   
 36  20  23  ar  
 37  20  38  1   
 38  21  24  1   
 39  21  39  1   
 40  21  40  1   
 41  22  25  1   
 42  22  41  1   
 43  22  42  1   
 44  23  43  1   
 45  24  25  1   
 46  24  44  1   
 47  24  45  1   
 48  25  46  1   
 49  25  47  1   
@<TRIPOS>SUBSTRUCTURE
  1 ****   4 GROUP 4 **** **** 0

# MOE 2024.06 (io_trps.svl 2023.06)
