@<TRIPOS>MOLECULE
NONAME
37 39 1 0 0 
SMALL
USER_CHARGES


@<TRIPOS>ATOM
  1 S       -0.4500    -0.0680    -0.3310 S.3   1 <1>  -0.2860 
  2 C       -1.0100     1.6270    -0.0730 C.2   1 <1>   0.2420 
  3 C        1.1900    -0.1060     0.5170 C.3   1 <1>   0.0700 
  4 N       -0.3260     2.5330     0.5510 N.2   1 <1>  -0.3380 
  5 N       -2.1960     2.0720    -0.5210 N.pl3 1 <1>   0.5050 
  6 C        1.8190    -1.4740     0.2720 C.3   1 <1>   0.0700 
  7 N       -1.0690     3.6540     0.5360 N.2   1 <1>  -0.3380 
  8 N       -3.3780     1.7980    -1.1950 N.2   1 <1>  -0.6520 
  9 C       -2.1640     3.3320    -0.1080 C.2   1 <1>   0.2700 
 10 S        3.4260    -1.5380     1.1120 S.3   1 <1>  -0.4600 
 11 C       -4.0080     2.9210    -1.1530 C.2   1 <1>   0.4400 
 12 N       -3.3270     3.9210    -0.4990 N.pl3 1 <1>  -0.1450 
 13 C        4.4820    -0.4440     0.1250 C.3   1 <1>   0.1500 
 14 N       -3.7350     5.3080    -0.2600 N.3   1 <1>  -0.7090 
 15 C        5.7520    -1.2200    -0.2360 C.3   1 <1>  -0.1600 
 16 C        4.7900     0.8020     0.9610 C.3   1 <1>  -0.1600 
 17 C        6.7580    -0.3140    -0.9610 C.3   1 <1>  -0.1600 
 18 C        5.7950     1.7090     0.2370 C.3   1 <1>  -0.1600 
 19 C        7.0730     0.9400    -0.1310 C.3   1 <1>  -0.1600 
 20 H        1.0160     0.0690     1.5640 H     1 <1>   0.0800 
 21 H        1.7820     0.6880     0.0980 H     1 <1>   0.0800 
 22 H        1.9900    -1.6550    -0.7750 H     1 <1>   0.0800 
 23 H        1.2140    -2.2590     0.6900 H     1 <1>   0.0800 
 24 H       -4.9800     3.1000    -1.5790 H     1 <1>   0.0600 
 25 H        3.9410    -0.1800    -0.7670 H     1 <1>   0.0800 
 26 H       -2.9860     5.8960    -0.6510 H     1 <1>   0.3600 
 27 H       -3.6810     5.4480     0.7580 H     1 <1>   0.3600 
 28 H        5.4980    -2.0570    -0.8630 H     1 <1>   0.0800 
 29 H        6.2020    -1.6000     0.6650 H     1 <1>   0.0800 
 30 H        5.2060     0.4990     1.9070 H     1 <1>   0.0800 
 31 H        3.8840     1.3470     1.1540 H     1 <1>   0.0800 
 32 H        6.3510    -0.0180    -1.9130 H     1 <1>   0.0800 
 33 H        7.6670    -0.8610    -1.1460 H     1 <1>   0.0800 
 34 H        6.0470     2.5440     0.8690 H     1 <1>   0.0800 
 35 H        5.3430     2.0990    -0.6590 H     1 <1>   0.0800 
 36 H        7.7330     1.5840    -0.6880 H     1 <1>   0.0800 
 37 H        7.5830     0.6490     0.7710 H     1 <1>   0.0800 
@<TRIPOS>BOND
  1   1   2  1   
  2   1   3  1   
  3   2   4  2   
  4   2   5  1   
  5   3   6  1   
  6   3  20  1   
  7   3  21  1   
  8   4   7  1   
  9   5   8  1   
 10   5   9  1   
 11   6  10  1   
 12   6  22  1   
 13   6  23  1   
 14   7   9  2   
 15   8  11  2   
 16   9  12  1   
 17  10  13  1   
 18  11  12  1   
 19  11  24  1   
 20  12  14  1   
 21  13  15  1   
 22  13  16  1   
 23  13  25  1   
 24  14  26  1   
 25  14  27  1   
 26  15  17  1   
 27  15  28  1   
 28  15  29  1   
 29  16  18  1   
 30  16  30  1   
 31  16  31  1   
 32  17  19  1   
 33  17  32  1   
 34  17  33  1   
 35  18  19  1   
 36  18  34  1   
 37  18  35  1   
 38  19  36  1   
 39  19  37  1   
@<TRIPOS>SUBSTRUCTURE
  1 ****   3 GROUP 4 **** **** 0

# MOE 2024.06 (io_trps.svl 2023.06)
