@<TRIPOS>MOLECULE
NONAME
54 56 1 0 0 
SMALL
USER_CHARGES


@<TRIPOS>ATOM
  1 CL       0.9440     1.7730     0.6400 Cl    1 <1>  -0.1770 
  2 C        2.6060     1.2480     0.6890 C.ar  1 <1>   0.1770 
  3 C        3.0940     0.4450    -0.3240 C.ar  1 <1>  -0.1500 
  4 C        3.4110     1.6420     1.7400 C.ar  1 <1>  -0.1500 
  5 C        4.4150     0.0310    -0.2860 C.ar  1 <1>  -0.1500 
  6 C        4.7310     1.2270     1.7760 C.ar  1 <1>  -0.1500 
  7 C        5.2410     0.4250     0.7610 C.ar  1 <1>  -0.1430 
  8 C        6.6930    -0.0170     0.7960 C.3   1 <1>   0.4870 
  9 N        7.4610     0.7890    -0.1890 N.4   1 <1>  -0.9590 
 10 C        8.8560     0.2610    -0.3750 C.3   1 <1>   0.3430 
 11 C        7.4870     2.2480     0.1870 C.3   1 <1>   0.3430 
 12 C        9.6710     1.1220    -1.3620 C.3   1 <1>   0.1100 
 13 C        8.3210     3.0800    -0.8040 C.3   1 <1>   0.1100 
 14 N        9.6890     2.5330    -0.9410 N.3   1 <1>  -0.8100 
 15 C       10.5400     3.3600    -1.8230 C.3   1 <1>   0.2530 
 16 C       10.6580     4.7800    -1.2870 C.ar  1 <1>  -0.1430 
 17 C       11.1020     5.0000     0.0070 C.ar  1 <1>  -0.1500 
 18 C       10.3130     5.8660    -2.0780 C.ar  1 <1>  -0.1500 
 19 C       11.1960     6.2880     0.5110 C.ar  1 <1>   0.0830 
 20 C       10.4010     7.1560    -1.5800 C.ar  1 <1>  -0.1500 
 21 O       11.6150     6.4650     1.7890 O.3   1 <1>  -0.3630 
 22 C       10.8390     7.3820    -0.2790 C.ar  1 <1>   0.0830 
 23 C       12.9800     6.2390     2.0620 C.3   1 <1>   0.1200 
 24 O       10.9430     8.6300     0.2630 O.3   1 <1>  -0.3630 
 25 C       13.7950     7.4550     1.6210 C.3   1 <1>  -0.2400 
 26 C       10.5870     9.7830    -0.4640 C.3   1 <1>   0.0400 
 27 H        2.4400     0.1490    -1.1260 H     1 <1>   0.1500 
 28 H        3.0000     2.2620     2.5180 H     1 <1>   0.1500 
 29 H        4.7800    -0.6020    -1.0770 H     1 <1>   0.1500 
 30 H        5.3480     1.5350     2.6050 H     1 <1>   0.1500 
 31 H        6.7500    -1.0640     0.5450 H     1 <1>   0.0800 
 32 H        7.0970     0.1190     1.7860 H     1 <1>   0.0800 
 33 H        6.9660     0.7270    -1.0860 H     1 <1>   0.4500 
 34 H        8.8230    -0.7540    -0.7360 H     1 <1>   0.0800 
 35 H        9.3720     0.2620     0.5720 H     1 <1>   0.0800 
 36 H        7.9180     2.3640     1.1680 H     1 <1>   0.0800 
 37 H        6.4830     2.6400     0.2180 H     1 <1>   0.0800 
 38 H        9.2550     1.0360    -2.3520 H     1 <1>   0.0800 
 39 H       10.6810     0.7490    -1.3920 H     1 <1>   0.0800 
 40 H        8.3660     4.0900    -0.4300 H     1 <1>   0.0800 
 41 H        7.8330     3.1070    -1.7630 H     1 <1>   0.0800 
 42 H       10.1320     3.3730    -2.8200 H     1 <1>   0.0800 
 43 H       11.5280     2.9330    -1.8720 H     1 <1>   0.0800 
 44 H       11.3660     4.1690     0.6350 H     1 <1>   0.1500 
 45 H        9.9710     5.7170    -3.0870 H     1 <1>   0.1500 
 46 H       10.1240     7.9700    -2.2220 H     1 <1>   0.1500 
 47 H       13.3010     5.3470     1.5540 H     1 <1>   0.0800 
 48 H       13.0740     6.0940     3.1240 H     1 <1>   0.0800 
 49 H       13.7300     7.5820     0.5560 H     1 <1>   0.0800 
 50 H       14.8270     7.3180     1.8870 H     1 <1>   0.0800 
 51 H       13.4250     8.3390     2.1080 H     1 <1>   0.0800 
 52 H       10.7430    10.6370     0.1710 H     1 <1>   0.0800 
 53 H        9.5490     9.7170    -0.7370 H     1 <1>   0.0800 
 54 H       11.2140     9.8560    -1.3340 H     1 <1>   0.0800 
@<TRIPOS>BOND
  1   1   2  1   
  2   2   3  ar  
  3   2   4  ar  
  4   3   5  ar  
  5   3  27  1   
  6   4   6  ar  
  7   4  28  1   
  8   5   7  ar  
  9   5  29  1   
 10   6   7  ar  
 11   6  30  1   
 12   7   8  1   
 13   8   9  1   
 14   8  31  1   
 15   8  32  1   
 16   9  10  1   
 17   9  11  1   
 18   9  33  1   
 19  10  12  1   
 20  10  34  1   
 21  10  35  1   
 22  11  13  1   
 23  11  36  1   
 24  11  37  1   
 25  12  14  1   
 26  12  38  1   
 27  12  39  1   
 28  13  14  1   
 29  13  40  1   
 30  13  41  1   
 31  14  15  1   
 32  15  16  1   
 33  15  42  1   
 34  15  43  1   
 35  16  17  ar  
 36  16  18  ar  
 37  17  19  ar  
 38  17  44  1   
 39  18  20  ar  
 40  18  45  1   
 41  19  21  1   
 42  19  22  ar  
 43  20  22  ar  
 44  20  46  1   
 45  21  23  1   
 46  22  24  1   
 47  23  25  1   
 48  23  47  1   
 49  23  48  1   
 50  24  26  1   
 51  25  49  1   
 52  25  50  1   
 53  25  51  1   
 54  26  52  1   
 55  26  53  1   
 56  26  54  1   
@<TRIPOS>SUBSTRUCTURE
  1 ****  13 GROUP 4 **** **** 0

# MOE 2024.06 (io_trps.svl 2023.06)
