@<TRIPOS>MOLECULE
NONAME
44 45 1 0 0 
SMALL
USER_CHARGES


@<TRIPOS>ATOM
  1 O        0.3980     0.4540    -0.2490 O.3   1 <1>  -0.3630 
  2 C       -0.8380     1.0100    -0.1750 C.ar  1 <1>   0.0830 
  3 C        1.5540     1.2000     0.0380 C.3   1 <1>   0.1200 
  4 C       -1.0770     2.3340     0.1830 C.ar  1 <1>  -0.1500 
  5 C       -1.9080     0.1890    -0.4800 C.ar  1 <1>  -0.1500 
  6 C        2.7550     0.2700    -0.1440 C.3   1 <1>  -0.1600 
  7 C       -2.3720     2.8290     0.2350 C.ar  1 <1>  -0.1440 
  8 C       -3.2000     0.6770    -0.4300 C.ar  1 <1>  -0.1500 
  9 C        4.0830     0.9860     0.1390 C.3   1 <1>  -0.1600 
 10 C       -3.4420     1.9950    -0.0730 C.ar  1 <1>  -0.1430 
 11 C       -2.5930     4.2830     0.6320 C.3   1 <1>  -0.0970 
 12 C        5.2580     0.0230    -0.0470 C.3   1 <1>   0.3430 
 13 C       -4.8790     2.4940    -0.0300 C.3   1 <1>  -0.0970 
 14 N        6.5410     0.6930     0.2970 N.4   1 <1>  -0.9590 
 15 C        6.9550     1.7500    -0.6610 C.3   1 <1>   0.3430 
 16 C        7.6790    -0.2550     0.3620 C.3   1 <1>   0.3430 
 17 C        8.4470     1.9230    -0.4140 C.3   1 <1>  -0.1600 
 18 C        8.9140     0.6290     0.2590 C.3   1 <1>  -0.1600 
 19 H        1.4850     1.5520     1.0530 H     1 <1>   0.0800 
 20 H        1.5980     2.0300    -0.6460 H     1 <1>   0.0800 
 21 H       -0.2650     2.9890     0.4240 H     1 <1>   0.1500 
 22 H       -1.7230    -0.8330    -0.7570 H     1 <1>   0.1500 
 23 H        2.7490    -0.1000    -1.1560 H     1 <1>   0.0800 
 24 H        2.6420    -0.5660     0.5270 H     1 <1>   0.0800 
 25 H       -4.0160     0.0200    -0.6710 H     1 <1>   0.1500 
 26 H        4.0730     1.3530     1.1510 H     1 <1>   0.0800 
 27 H        4.1760     1.8190    -0.5360 H     1 <1>   0.0800 
 28 H       -1.6600     4.7770     0.8350 H     1 <1>   0.0800 
 29 H       -3.2000     4.3340     1.5170 H     1 <1>   0.0800 
 30 H       -3.0860     4.8100    -0.1640 H     1 <1>   0.0800 
 31 H        5.2850    -0.3280    -1.0660 H     1 <1>   0.0800 
 32 H        5.1130    -0.8300     0.5970 H     1 <1>   0.0800 
 33 H       -5.1220     2.8310     0.9620 H     1 <1>   0.0800 
 34 H       -5.5670     1.7130    -0.2980 H     1 <1>   0.0800 
 35 H       -5.0080     3.3070    -0.7200 H     1 <1>   0.0800 
 36 H        6.4540     1.1300     1.2240 H     1 <1>   0.4500 
 37 H        6.4140     2.6700    -0.5010 H     1 <1>   0.0800 
 38 H        6.7940     1.4100    -1.6710 H     1 <1>   0.0800 
 39 H        7.6470    -0.9250    -0.4820 H     1 <1>   0.0800 
 40 H        7.6730    -0.8290     1.2760 H     1 <1>   0.0800 
 41 H        8.6160     2.7670     0.2330 H     1 <1>   0.0800 
 42 H        8.9620     2.0980    -1.3440 H     1 <1>   0.0800 
 43 H        9.6840     0.1360    -0.3100 H     1 <1>   0.0800 
 44 H        9.2980     0.8360     1.2440 H     1 <1>   0.0800 
@<TRIPOS>BOND
  1   1   2  1   
  2   1   3  1   
  3   2   4  ar  
  4   2   5  ar  
  5   3   6  1   
  6   3  19  1   
  7   3  20  1   
  8   4   7  ar  
  9   4  21  1   
 10   5   8  ar  
 11   5  22  1   
 12   6   9  1   
 13   6  23  1   
 14   6  24  1   
 15   7  10  ar  
 16   7  11  1   
 17   8  10  ar  
 18   8  25  1   
 19   9  12  1   
 20   9  26  1   
 21   9  27  1   
 22  10  13  1   
 23  11  28  1   
 24  11  29  1   
 25  11  30  1   
 26  12  14  1   
 27  12  31  1   
 28  12  32  1   
 29  13  33  1   
 30  13  34  1   
 31  13  35  1   
 32  14  15  1   
 33  14  16  1   
 34  14  36  1   
 35  15  17  1   
 36  15  37  1   
 37  15  38  1   
 38  16  18  1   
 39  16  39  1   
 40  16  40  1   
 41  17  18  1   
 42  17  41  1   
 43  17  42  1   
 44  18  43  1   
 45  18  44  1   
@<TRIPOS>SUBSTRUCTURE
  1 ****   3 GROUP 4 **** **** 0

# MOE 2024.06 (io_trps.svl 2023.06)
