@<TRIPOS>MOLECULE
NONAME
48 48 1 0 0 
SMALL
USER_CHARGES


@<TRIPOS>ATOM
  1 O       -0.2010     0.1470     2.2480 O.2   1 <1>  -0.5700 
  2 C       -0.7050     0.5330     1.2360 C.2   1 <1>   0.4480 
  3 C        0.1490     0.8370     0.0190 C.3   1 <1>   0.1030 
  4 C       -2.2120     0.7110     1.1640 C.3   1 <1>   0.0420 
  5 C       -0.6880     1.2250    -1.1810 C.2   1 <1>   0.4480 
  6 C        1.1880     1.9050     0.3250 C.2   1 <1>   0.3280 
  7 C       -2.8260    -0.5700     0.6320 C.2   1 <1>   0.6590 
  8 C       -2.6130     2.0010     0.3980 C.3   1 <1>   0.0000 
  9 O       -0.4060     0.8190    -2.2680 O.2   1 <1>  -0.5700 
 10 C       -1.9300     2.0860    -0.9930 C.3   1 <1>  -0.0990 
 11 N        0.9730     3.1240     0.0590 N.2   1 <1>  -0.5130 
 12 C        2.4860     1.3750     0.9450 C.3   1 <1>  -0.0990 
 13 O       -3.8180    -1.0420     1.1250 O.2   1 <1>  -0.5700 
 14 O       -2.2290    -1.1360    -0.4100 O.3   1 <1>  -0.4300 
 15 C       -2.2270     3.2290     1.2520 C.3   1 <1>  -0.2400 
 16 C       -4.1420     2.0750     0.2110 C.3   1 <1>  -0.2400 
 17 O        1.9060     4.0150     0.3240 O.3   1 <1>  -0.2170 
 18 C        3.4800     0.9210    -0.1350 C.3   1 <1>  -0.1600 
 19 C       -2.7230    -2.3160    -1.0090 C.3   1 <1>   0.0400 
 20 C        1.6390     5.3290    -0.0990 C.3   1 <1>   0.2580 
 21 C        4.7780     0.3990     0.4880 C.3   1 <1>  -0.2400 
 22 C        2.7950     6.2160     0.3250 C.2   1 <1>  -0.2880 
 23 C        3.5470     6.9560    -0.4970 C.2   1 <1>  -0.3000 
 24 H        0.6630    -0.0680    -0.2440 H     1 <1>   0.0800 
 25 H       -2.5670     0.8040     2.1750 H     1 <1>   0.0800 
 26 H       -1.6690     3.1040    -1.2230 H     1 <1>   0.0800 
 27 H       -2.6250     1.7750    -1.7540 H     1 <1>   0.0800 
 28 H        2.9440     2.1430     1.5420 H     1 <1>   0.0800 
 29 H        2.2700     0.5570     1.6070 H     1 <1>   0.0800 
 30 H       -1.1800     3.2460     1.4880 H     1 <1>   0.0800 
 31 H       -2.7670     3.2280     2.1830 H     1 <1>   0.0800 
 32 H       -2.4650     4.1430     0.7370 H     1 <1>   0.0800 
 33 H       -4.4230     3.0060    -0.2500 H     1 <1>   0.0800 
 34 H       -4.6470     2.0060     1.1600 H     1 <1>   0.0800 
 35 H       -4.5040     1.2770    -0.4140 H     1 <1>   0.0800 
 36 H        3.0410     0.1470    -0.7410 H     1 <1>   0.0800 
 37 H        3.7060     1.7560    -0.7790 H     1 <1>   0.0800 
 38 H       -3.7260    -2.1370    -1.3550 H     1 <1>   0.0800 
 39 H       -2.7170    -3.1070    -0.2790 H     1 <1>   0.0800 
 40 H       -2.0860    -2.5690    -1.8380 H     1 <1>   0.0800 
 41 H        1.5250     5.3190    -1.1690 H     1 <1>   0.0800 
 42 H        0.7220     5.6490     0.3620 H     1 <1>   0.0800 
 43 H        4.5790    -0.4470     1.1220 H     1 <1>   0.0800 
 44 H        5.2500     1.1690     1.0730 H     1 <1>   0.0800 
 45 H        5.4600     0.0930    -0.2860 H     1 <1>   0.0800 
 46 H        2.9560     6.1860     1.3890 H     1 <1>   0.1500 
 47 H        4.3640     7.5760    -0.1670 H     1 <1>   0.1500 
 48 H        3.4140     7.0040    -1.5640 H     1 <1>   0.1500 
@<TRIPOS>BOND
  1   1   2  2   
  2   2   3  1   
  3   2   4  1   
  4   3   5  1   
  5   3   6  1   
  6   3  24  1   
  7   4   7  1   
  8   4   8  1   
  9   4  25  1   
 10   5   9  2   
 11   5  10  1   
 12   6  11  2   
 13   6  12  1   
 14   7  13  2   
 15   7  14  1   
 16   8  10  1   
 17   8  15  1   
 18   8  16  1   
 19  10  26  1   
 20  10  27  1   
 21  11  17  1   
 22  12  18  1   
 23  12  28  1   
 24  12  29  1   
 25  14  19  1   
 26  15  30  1   
 27  15  31  1   
 28  15  32  1   
 29  16  33  1   
 30  16  34  1   
 31  16  35  1   
 32  17  20  1   
 33  18  21  1   
 34  18  36  1   
 35  18  37  1   
 36  19  38  1   
 37  19  39  1   
 38  19  40  1   
 39  20  22  1   
 40  20  41  1   
 41  20  42  1   
 42  21  43  1   
 43  21  44  1   
 44  21  45  1   
 45  22  23  2   
 46  22  46  1   
 47  23  47  1   
 48  23  48  1   
@<TRIPOS>SUBSTRUCTURE
  1 ****   3 GROUP 4 **** **** 0

# MOE 2024.06 (io_trps.svl 2023.06)
