@<TRIPOS>MOLECULE
NONAME
54 56 1 0 0 
SMALL
USER_CHARGES


@<TRIPOS>ATOM
  1 O        0.5350     0.4350     0.9110 O.3   1 <1>  -0.5600 
  2 C        1.3320    -0.6130     0.4310 C.3   1 <1>   0.2000 
  3 C        0.2850     1.5080     0.0420 C.3   1 <1>   0.2000 
  4 C        2.7350    -0.0800     0.0340 C.3   1 <1>   0.3430 
  5 C        0.6060    -1.3400    -0.7080 C.3   1 <1>  -0.2400 
  6 C        1.5690     1.9190    -0.7240 C.3   1 <1>   0.3430 
  7 C       -0.2390     2.6450     0.9170 C.3   1 <1>  -0.2400 
  8 N        2.8020     1.4350     0.0020 N.4   1 <1>  -0.9590 
  9 C        4.1010     2.0040    -0.4770 C.3   1 <1>   0.4230 
 10 C        5.2650     1.4530     0.3600 C.3   1 <1>  -0.1600 
 11 C        4.0790     3.5370    -0.3830 C.3   1 <1>  -0.1600 
 12 C        6.5990     2.1000    -0.0150 C.3   1 <1>   0.3430 
 13 C        5.4310     4.1520    -0.7480 C.3   1 <1>   0.3430 
 14 N        6.5050     3.5830     0.1120 N.4   1 <1>  -0.9590 
 15 C        7.8100     4.2520    -0.2210 C.3   1 <1>   0.3430 
 16 C        8.8920     3.9800     0.8270 C.3   1 <1>  -0.0170 
 17 C       10.1200     4.7860     0.4550 C.ar  1 <1>  -0.1440 
 18 C       10.2800     6.0770     0.9340 C.ar  1 <1>  -0.1500 
 19 C       11.0870     4.2430    -0.3790 C.ar  1 <1>  -0.1500 
 20 C       11.3910     6.8210     0.5770 C.ar  1 <1>  -0.1500 
 21 C       12.1980     4.9880    -0.7350 C.ar  1 <1>  -0.1500 
 22 C       12.3490     6.2780    -0.2590 C.ar  1 <1>  -0.1500 
 23 H        1.4460    -1.3080     1.2470 H     1 <1>   0.0800 
 24 H       -0.4860     1.2150    -0.6520 H     1 <1>   0.0800 
 25 H        2.9950    -0.4840    -0.9300 H     1 <1>   0.0800 
 26 H        3.4480    -0.4630     0.7450 H     1 <1>   0.0800 
 27 H        0.5240    -0.7350    -1.5910 H     1 <1>   0.0800 
 28 H       -0.3790    -1.6300    -0.3830 H     1 <1>   0.0800 
 29 H        1.1420    -2.2360    -0.9680 H     1 <1>   0.0800 
 30 H        1.5710     2.9890    -0.8290 H     1 <1>   0.0800 
 31 H        1.5370     1.4930    -1.7130 H     1 <1>   0.0800 
 32 H        0.4920     2.9400     1.6480 H     1 <1>   0.0800 
 33 H       -1.1310     2.3250     1.4280 H     1 <1>   0.0800 
 34 H       -0.4930     3.4980     0.3140 H     1 <1>   0.0800 
 35 H        2.6320     1.7130     0.9820 H     1 <1>   0.4500 
 36 H        4.2500     1.7210    -1.5080 H     1 <1>   0.0800 
 37 H        5.3720     0.3960     0.1970 H     1 <1>   0.0800 
 38 H        5.0850     1.6150     1.4090 H     1 <1>   0.0800 
 39 H        3.8110     3.8500     0.6110 H     1 <1>   0.0800 
 40 H        3.3570     3.9410    -1.0690 H     1 <1>   0.0800 
 41 H        6.8600     1.8390    -1.0290 H     1 <1>   0.0800 
 42 H        7.3730     1.7220     0.6350 H     1 <1>   0.0800 
 43 H        5.3850     5.2230    -0.6170 H     1 <1>   0.0800 
 44 H        5.6530     3.9550    -1.7860 H     1 <1>   0.0800 
 45 H        6.2980     3.8240     1.0940 H     1 <1>   0.4500 
 46 H        7.6650     5.3190    -0.2740 H     1 <1>   0.0800 
 47 H        8.1620     3.9240    -1.1860 H     1 <1>   0.0800 
 48 H        9.1540     2.9380     0.8550 H     1 <1>   0.0800 
 49 H        8.5550     4.2810     1.8030 H     1 <1>   0.0800 
 50 H        9.5500     6.5200     1.5900 H     1 <1>   0.1500 
 51 H       10.9940     3.2410    -0.7580 H     1 <1>   0.1500 
 52 H       11.5130     7.8230     0.9510 H     1 <1>   0.1500 
 53 H       12.9480     4.5660    -1.3820 H     1 <1>   0.1500 
 54 H       13.2140     6.8570    -0.5350 H     1 <1>   0.1500 
@<TRIPOS>BOND
  1   1   2  1   
  2   1   3  1   
  3   2   4  1   
  4   2   5  1   
  5   2  23  1   
  6   3   6  1   
  7   3   7  1   
  8   3  24  1   
  9   4   8  1   
 10   4  25  1   
 11   4  26  1   
 12   5  27  1   
 13   5  28  1   
 14   5  29  1   
 15   6   8  1   
 16   6  30  1   
 17   6  31  1   
 18   7  32  1   
 19   7  33  1   
 20   7  34  1   
 21   8   9  1   
 22   8  35  1   
 23   9  10  1   
 24   9  11  1   
 25   9  36  1   
 26  10  12  1   
 27  10  37  1   
 28  10  38  1   
 29  11  13  1   
 30  11  39  1   
 31  11  40  1   
 32  12  14  1   
 33  12  41  1   
 34  12  42  1   
 35  13  14  1   
 36  13  43  1   
 37  13  44  1   
 38  14  15  1   
 39  14  45  1   
 40  15  16  1   
 41  15  46  1   
 42  15  47  1   
 43  16  17  1   
 44  16  48  1   
 45  16  49  1   
 46  17  18  ar  
 47  17  19  ar  
 48  18  20  ar  
 49  18  50  1   
 50  19  21  ar  
 51  19  51  1   
 52  20  22  ar  
 53  20  52  1   
 54  21  22  ar  
 55  21  53  1   
 56  22  54  1   
@<TRIPOS>SUBSTRUCTURE
  1 ****  14 GROUP 4 **** **** 0

# MOE 2024.06 (io_trps.svl 2023.06)
