@<TRIPOS>MOLECULE
NONAME
59 62 1 0 0 
SMALL
USER_CHARGES


@<TRIPOS>ATOM
  1 O       -0.7040     0.4580    -0.6050 O.2   1 <1>  -0.5700 
  2 C       -1.1060     1.4020     0.0380 C.2   1 <1>   0.5690 
  3 N       -2.3110     1.3670     0.6840 N.am  1 <1>  -0.7300 
  4 C       -0.2450     2.6790     0.1640 C.3   1 <1>   0.0610 
  5 C       -3.4570     0.4170     0.5930 C.3   1 <1>   0.1400 
  6 C       -1.0190     3.9020    -0.3900 C.3   1 <1>  -0.1600 
  7 C        1.0850     2.5580    -0.6270 C.3   1 <1>  -0.1600 
  8 C        0.1060     2.9480     1.6490 C.3   1 <1>  -0.1600 
  9 C       -3.0780    -1.0090     0.1780 C.3   1 <1>  -0.1600 
 10 C       -0.1910     5.1970    -0.2560 C.3   1 <1>   0.0000 
 11 C        1.9370     3.8370    -0.5000 C.3   1 <1>   0.0000 
 12 C        0.9420     4.2330     1.7900 C.3   1 <1>  -0.0800 
 13 C       -2.0150    -1.6060     1.1040 C.3   1 <1>   0.3430 
 14 C        1.1240     5.0290    -1.0420 C.3   1 <1>  -0.1600 
 15 C        0.1430     5.4230     1.2320 C.3   1 <1>  -0.1600 
 16 C       -0.9850     6.3890    -0.8060 C.3   1 <1>  -0.2400 
 17 C        2.2470     4.0800     0.9900 C.3   1 <1>  -0.1600 
 18 C        3.2410     3.6840    -1.2920 C.3   1 <1>  -0.2400 
 19 N       -1.4260    -2.8290     0.4930 N.4   1 <1>  -0.9590 
 20 C       -0.7660    -3.6950     1.5260 C.3   1 <1>   0.3430 
 21 C       -0.4210    -2.4510    -0.5670 C.3   1 <1>   0.3430 
 22 C       -0.0400    -4.8890     0.8770 C.3   1 <1>   0.1200 
 23 C        0.3110    -3.6860    -1.1250 C.3   1 <1>   0.1200 
 24 O        0.8700    -4.4400    -0.0860 O.3   1 <1>  -0.5600 
 25 H       -2.5560     2.2320     1.1760 H     1 <1>   0.3700 
 26 H       -4.1690     0.8100    -0.1140 H     1 <1>   0.0800 
 27 H       -3.9440     0.3830     1.5540 H     1 <1>   0.0800 
 28 H       -1.9470     4.0250     0.1390 H     1 <1>   0.0800 
 29 H       -1.2570     3.7320    -1.4260 H     1 <1>   0.0800 
 30 H        0.8680     2.3740    -1.6650 H     1 <1>   0.0800 
 31 H        1.6460     1.7160    -0.2610 H     1 <1>   0.0800 
 32 H        0.6600     2.1160     2.0460 H     1 <1>   0.0800 
 33 H       -0.7900     3.0520     2.2350 H     1 <1>   0.0800 
 34 H       -2.7440    -0.9800    -0.8430 H     1 <1>   0.0800 
 35 H       -3.9620    -1.6200     0.2140 H     1 <1>   0.0800 
 36 H        1.1740     4.4060     2.8280 H     1 <1>   0.0800 
 37 H       -2.4690    -1.8430     2.0520 H     1 <1>   0.0800 
 38 H       -1.2350    -0.8830     1.2790 H     1 <1>   0.0800 
 39 H        0.9070     4.8750    -2.0840 H     1 <1>   0.0800 
 40 H        1.7090     5.9290    -0.9620 H     1 <1>   0.0800 
 41 H       -0.7630     5.5480     1.7990 H     1 <1>   0.0800 
 42 H        0.7200     6.3250     1.3430 H     1 <1>   0.0800 
 43 H       -1.2210     6.2380    -1.8440 H     1 <1>   0.0800 
 44 H       -0.4100     7.2940    -0.7170 H     1 <1>   0.0800 
 45 H       -1.9040     6.5160    -0.2620 H     1 <1>   0.0800 
 46 H        2.8410     4.9710     1.0990 H     1 <1>   0.0800 
 47 H        2.8200     3.2590     1.3860 H     1 <1>   0.0800 
 48 H        3.0320     3.5100    -2.3320 H     1 <1>   0.0800 
 49 H        3.8160     2.8560    -0.9170 H     1 <1>   0.0800 
 50 H        3.8370     4.5760    -1.2100 H     1 <1>   0.0800 
 51 H       -2.1730    -3.3700     0.0420 H     1 <1>   0.4500 
 52 H       -1.5000    -4.0620     2.2250 H     1 <1>   0.0800 
 53 H       -0.0410    -3.1170     2.0760 H     1 <1>   0.0800 
 54 H        0.3120    -1.7790    -0.1500 H     1 <1>   0.0800 
 55 H       -0.9080    -1.9280    -1.3740 H     1 <1>   0.0800 
 56 H       -0.7360    -5.5630     0.4090 H     1 <1>   0.0800 
 57 H        0.5160    -5.4340     1.6200 H     1 <1>   0.0800 
 58 H        1.1130    -3.3770    -1.7720 H     1 <1>   0.0800 
 59 H       -0.3590    -4.3130    -1.6870 H     1 <1>   0.0800 
@<TRIPOS>BOND
  1   1   2  2   
  2   2   3  am  
  3   2   4  1   
  4   3   5  1   
  5   3  25  1   
  6   4   6  1   
  7   4   7  1   
  8   4   8  1   
  9   5   9  1   
 10   5  26  1   
 11   5  27  1   
 12   6  10  1   
 13   6  28  1   
 14   6  29  1   
 15   7  11  1   
 16   7  30  1   
 17   7  31  1   
 18   8  12  1   
 19   8  32  1   
 20   8  33  1   
 21   9  13  1   
 22   9  34  1   
 23   9  35  1   
 24  10  14  1   
 25  10  15  1   
 26  10  16  1   
 27  11  14  1   
 28  11  17  1   
 29  11  18  1   
 30  12  15  1   
 31  12  17  1   
 32  12  36  1   
 33  13  19  1   
 34  13  37  1   
 35  13  38  1   
 36  14  39  1   
 37  14  40  1   
 38  15  41  1   
 39  15  42  1   
 40  16  43  1   
 41  16  44  1   
 42  16  45  1   
 43  17  46  1   
 44  17  47  1   
 45  18  48  1   
 46  18  49  1   
 47  18  50  1   
 48  19  20  1   
 49  19  21  1   
 50  19  51  1   
 51  20  22  1   
 52  20  52  1   
 53  20  53  1   
 54  21  23  1   
 55  21  54  1   
 56  21  55  1   
 57  22  24  1   
 58  22  56  1   
 59  22  57  1   
 60  23  24  1   
 61  23  58  1   
 62  23  59  1   
@<TRIPOS>SUBSTRUCTURE
  1 ****   2 GROUP 4 **** **** 0

# MOE 2024.06 (io_trps.svl 2023.06)
