@<TRIPOS>MOLECULE
NONAME
58 59 1 0 0 
SMALL
USER_CHARGES


@<TRIPOS>ATOM
  1 O       -0.5600    -1.7550     0.8070 O.3   1 <1>  -0.3630 
  2 C       -1.7350    -1.0710     0.8060 C.ar  1 <1>   0.0830 
  3 C        0.3960    -1.5880    -0.2180 C.3   1 <1>   0.1200 
  4 C       -2.6160    -1.3020     1.8590 C.ar  1 <1>  -0.1440 
  5 C       -2.0820    -0.1640    -0.1930 C.ar  1 <1>  -0.1500 
  6 C        1.6020    -2.4800     0.0970 C.3   1 <1>   0.2000 
  7 C       -3.8240    -0.6250     1.9010 C.ar  1 <1>  -0.1500 
  8 C       -2.2710    -2.2880     2.9660 C.3   1 <1>  -0.0960 
  9 C       -3.2910     0.5040    -0.1380 C.ar  1 <1>  -0.1500 
 10 O        1.9840    -2.2660     1.4260 O.3   1 <1>  -0.6800 
 11 C        2.7980    -2.2200    -0.8540 C.3   1 <1>   0.3430 
 12 C       -4.1690     0.2770     0.9080 C.ar  1 <1>  -0.1440 
 13 N        4.1140    -2.2060    -0.1110 N.4   1 <1>  -0.9590 
 14 C       -5.4960     1.0120     0.9720 C.3   1 <1>  -0.0970 
 15 C        4.8240    -0.8800    -0.1510 C.3   1 <1>   0.5030 
 16 C        4.9110    -3.4770    -0.2260 C.3   1 <1>   0.5030 
 17 C        6.0860    -0.9180     0.7230 C.3   1 <1>  -0.1600 
 18 C        5.1690    -0.4440    -1.5840 C.3   1 <1>  -0.2400 
 19 C        3.8980     0.1880     0.4480 C.3   1 <1>  -0.2400 
 20 C        6.1620    -3.4060     0.6610 C.3   1 <1>  -0.1600 
 21 C        4.0560    -4.6420     0.2920 C.3   1 <1>  -0.2400 
 22 C        5.2990    -3.8030    -1.6780 C.3   1 <1>  -0.2400 
 23 C        6.9540    -2.1300     0.4280 C.3   1 <1>   0.2000 
 24 O        8.0250    -2.1190     1.2900 O.3   1 <1>  -0.6800 
 25 H        0.6830    -0.5510    -0.2450 H     1 <1>   0.0800 
 26 H       -0.0560    -1.8700    -1.1530 H     1 <1>   0.0800 
 27 H       -1.4340     0.0420    -1.0210 H     1 <1>   0.1500 
 28 H        1.2960    -3.5080     0.0120 H     1 <1>   0.0800 
 29 H       -4.5070    -0.7980     2.7140 H     1 <1>   0.1500 
 30 H       -1.4070    -1.9440     3.5040 H     1 <1>   0.0800 
 31 H       -2.0580    -3.2530     2.5430 H     1 <1>   0.0800 
 32 H       -3.0860    -2.3930     3.6590 H     1 <1>   0.0800 
 33 H       -3.5490     1.2050    -0.9130 H     1 <1>   0.1500 
 34 H        1.1610    -2.2020     1.9690 H     1 <1>   0.4000 
 35 H        2.6420    -1.2720    -1.3380 H     1 <1>   0.0800 
 36 H        2.7990    -2.9660    -1.6280 H     1 <1>   0.0800 
 37 H        3.7660    -2.2390     0.8650 H     1 <1>   0.4500 
 38 H       -6.2520     0.3810     1.4030 H     1 <1>   0.0800 
 39 H       -5.8170     1.2990    -0.0130 H     1 <1>   0.0800 
 40 H       -5.3930     1.8950     1.5760 H     1 <1>   0.0800 
 41 H        5.8000    -0.9330     1.7600 H     1 <1>   0.0800 
 42 H        6.6640    -0.0250     0.5570 H     1 <1>   0.0800 
 43 H        5.9570    -1.0260    -2.0130 H     1 <1>   0.0800 
 44 H        5.5260     0.5710    -1.5700 H     1 <1>   0.0800 
 45 H        4.3180    -0.4700    -2.2360 H     1 <1>   0.0800 
 46 H        3.5690    -0.0910     1.4330 H     1 <1>   0.0800 
 47 H        3.0400     0.3780    -0.1690 H     1 <1>   0.0800 
 48 H        4.4270     1.1210     0.5390 H     1 <1>   0.0800 
 49 H        6.7950    -4.2530     0.4590 H     1 <1>   0.0800 
 50 H        5.8680    -3.4570     1.6950 H     1 <1>   0.0800 
 51 H        3.6850    -4.4410     1.2820 H     1 <1>   0.0800 
 52 H        4.6520    -5.5360     0.3470 H     1 <1>   0.0800 
 53 H        3.2330    -4.8580    -0.3620 H     1 <1>   0.0800 
 54 H        6.0300    -3.1300    -2.0710 H     1 <1>   0.0800 
 55 H        4.4500    -3.8220    -2.3340 H     1 <1>   0.0800 
 56 H        5.7460    -4.7810    -1.7140 H     1 <1>   0.0800 
 57 H        7.3550    -2.0920    -0.5710 H     1 <1>   0.0800 
 58 H        7.7420    -2.1500     2.2240 H     1 <1>   0.4000 
@<TRIPOS>BOND
  1   1   2  1   
  2   1   3  1   
  3   2   4  ar  
  4   2   5  ar  
  5   3   6  1   
  6   3  25  1   
  7   3  26  1   
  8   4   7  ar  
  9   4   8  1   
 10   5   9  ar  
 11   5  27  1   
 12   6  10  1   
 13   6  11  1   
 14   6  28  1   
 15   7  12  ar  
 16   7  29  1   
 17   8  30  1   
 18   8  31  1   
 19   8  32  1   
 20   9  12  ar  
 21   9  33  1   
 22  10  34  1   
 23  11  13  1   
 24  11  35  1   
 25  11  36  1   
 26  12  14  1   
 27  13  15  1   
 28  13  16  1   
 29  13  37  1   
 30  14  38  1   
 31  14  39  1   
 32  14  40  1   
 33  15  17  1   
 34  15  18  1   
 35  15  19  1   
 36  16  20  1   
 37  16  21  1   
 38  16  22  1   
 39  17  23  1   
 40  17  41  1   
 41  17  42  1   
 42  18  43  1   
 43  18  44  1   
 44  18  45  1   
 45  19  46  1   
 46  19  47  1   
 47  19  48  1   
 48  20  23  1   
 49  20  49  1   
 50  20  50  1   
 51  21  51  1   
 52  21  52  1   
 53  21  53  1   
 54  22  54  1   
 55  22  55  1   
 56  22  56  1   
 57  23  24  1   
 58  23  57  1   
 59  24  58  1   
@<TRIPOS>SUBSTRUCTURE
  1 ****   6 GROUP 4 **** **** 0

# MOE 2024.06 (io_trps.svl 2023.06)
