@<TRIPOS>MOLECULE
NONAME
35 36 1 0 0 
SMALL
USER_CHARGES


@<TRIPOS>ATOM
  1 F        2.4940    -1.1210     1.8860 F     1 <1>  -0.1900 
  2 C        1.9630    -1.9530     1.0340 C.ar  1 <1>   0.1900 
  3 C        2.0140    -1.6640    -0.3280 C.ar  1 <1>   0.0860 
  4 C        1.3690    -3.0930     1.5420 C.ar  1 <1>  -0.1500 
  5 C        2.6500    -0.4740    -0.8470 C.2   1 <1>   0.5440 
  6 C        1.4090    -2.5860    -1.1830 C.ar  1 <1>  -0.1500 
  7 C        0.7890    -3.9940     0.6660 C.ar  1 <1>  -0.1500 
  8 O        1.9610     0.3550    -1.4110 O.2   1 <1>  -0.5700 
  9 N        4.0140    -0.2690    -0.7650 N.am  1 <1>  -0.6600 
 10 C        0.8090    -3.7350    -0.6960 C.ar  1 <1>  -0.1500 
 11 C        4.6240     1.0420    -1.1210 C.3   1 <1>   0.1400 
 12 C        4.9870    -1.3260    -0.3720 C.3   1 <1>   0.1400 
 13 C        5.4830     1.5430     0.0430 C.3   1 <1>  -0.1600 
 14 C        5.8470    -0.8290     0.7930 C.3   1 <1>  -0.1600 
 15 C        6.5450     0.5060     0.4570 C.3   1 <1>  -0.0190 
 16 C        7.4060     1.0240     1.6210 C.2   1 <1>   0.6590 
 17 O        7.1650     0.7140     2.7560 O.2   1 <1>  -0.5700 
 18 O        8.4320     1.8380     1.3740 O.3   1 <1>  -0.4300 
 19 C        8.9780     2.1600     0.1120 C.3   1 <1>   0.0400 
 20 H        1.3610    -3.2680     2.6030 H     1 <1>   0.1500 
 21 H        1.4130    -2.3880    -2.2420 H     1 <1>   0.1500 
 22 H        0.3200    -4.8880     1.0400 H     1 <1>   0.1500 
 23 H        0.3510    -4.4320    -1.3790 H     1 <1>   0.1500 
 24 H        3.8610     1.7710    -1.3370 H     1 <1>   0.0800 
 25 H        5.2250     0.9190    -2.0050 H     1 <1>   0.0800 
 26 H        5.6130    -1.5510    -1.2180 H     1 <1>   0.0800 
 27 H        4.4830    -2.2310    -0.0850 H     1 <1>   0.0800 
 28 H        4.8380     1.7530     0.8810 H     1 <1>   0.0800 
 29 H        5.9510     2.4670    -0.2410 H     1 <1>   0.0800 
 30 H        6.5860    -1.5740     1.0320 H     1 <1>   0.0800 
 31 H        5.2200    -0.7070     1.6590 H     1 <1>   0.0800 
 32 H        7.1860     0.3170    -0.3830 H     1 <1>   0.0800 
 33 H        9.8060     2.8280     0.2700 H     1 <1>   0.0800 
 34 H        8.2310     2.6470    -0.4880 H     1 <1>   0.0800 
 35 H        9.3260     1.2590    -0.3610 H     1 <1>   0.0800 
@<TRIPOS>BOND
  1   1   2  1   
  2   2   3  ar  
  3   2   4  ar  
  4   3   5  1   
  5   3   6  ar  
  6   4   7  ar  
  7   4  20  1   
  8   5   8  2   
  9   5   9  am  
 10   6  10  ar  
 11   6  21  1   
 12   7  10  ar  
 13   7  22  1   
 14   9  11  1   
 15   9  12  1   
 16  10  23  1   
 17  11  13  1   
 18  11  24  1   
 19  11  25  1   
 20  12  14  1   
 21  12  26  1   
 22  12  27  1   
 23  13  15  1   
 24  13  28  1   
 25  13  29  1   
 26  14  15  1   
 27  14  30  1   
 28  14  31  1   
 29  15  16  1   
 30  15  32  1   
 31  16  17  2   
 32  16  18  1   
 33  18  19  1   
 34  19  33  1   
 35  19  34  1   
 36  19  35  1   
@<TRIPOS>SUBSTRUCTURE
  1 ****   9 GROUP 4 **** **** 0

# MOE 2024.06 (io_trps.svl 2023.06)
