@<TRIPOS>MOLECULE
NONAME
37 38 1 0 0 
SMALL
USER_CHARGES


@<TRIPOS>ATOM
  1 S        2.4450    -0.4060    -1.0550 S.3   1 <1>  -0.0800 
  2 C        2.8140    -0.6730     0.6060 C.2   1 <1>   0.4340 
  3 C        2.0140     1.2040    -0.5780 C.2   1 <1>   0.1980 
  4 S        3.4290    -2.2890     1.0420 S.3   1 <1>  -0.2860 
  5 N        2.6150     0.3300     1.3640 N.2   1 <1>  -0.3380 
  6 N        2.1520     1.4180     0.6710 N.2   1 <1>  -0.3380 
  7 C        1.5380     2.1540    -1.6520 C.3   1 <1>  -0.0600 
  8 C        4.1990    -2.0260     2.7120 C.3   1 <1>   0.1310 
  9 C        5.6740    -2.4030     2.6860 C.2   1 <1>   0.5690 
 10 O        6.0500    -3.3100     3.3850 O.2   1 <1>  -0.5700 
 11 N        6.5770    -1.7550     1.8980 N.am  1 <1>  -0.5470 
 12 C        6.4030    -0.7200     0.9740 C.ar  1 <1>   0.1170 
 13 C        6.7290    -0.8690    -0.3800 C.ar  1 <1>  -0.1430 
 14 C        5.9000     0.4960     1.4240 C.ar  1 <1>  -0.1500 
 15 C        6.5130     0.2000    -1.2400 C.ar  1 <1>  -0.1500 
 16 C        7.3110    -2.1530    -0.9940 C.3   1 <1>   0.0630 
 17 C        5.6890     1.5480     0.5550 C.ar  1 <1>  -0.1500 
 18 C        5.9950     1.3990    -0.7830 C.ar  1 <1>  -0.1500 
 19 C        6.3360    -3.3330    -0.9220 C.3   1 <1>  -0.2400 
 20 C        8.6810    -2.5200    -0.4100 C.3   1 <1>  -0.2400 
 21 H        0.6550     1.7610    -2.1220 H     1 <1>   0.0800 
 22 H        2.3060     2.2830    -2.3920 H     1 <1>   0.0800 
 23 H        1.3070     3.1090    -1.2170 H     1 <1>   0.0800 
 24 H        3.6670    -2.6550     3.4010 H     1 <1>   0.0800 
 25 H        4.0730    -0.9990     2.9910 H     1 <1>   0.0800 
 26 H        7.4910    -2.2050     1.8910 H     1 <1>   0.3700 
 27 H        5.6680     0.6270     2.4640 H     1 <1>   0.1500 
 28 H        6.7470     0.1140    -2.2870 H     1 <1>   0.1500 
 29 H        7.4760    -1.9670    -2.0420 H     1 <1>   0.0800 
 30 H        5.2830     2.4760     0.9190 H     1 <1>   0.1500 
 31 H        5.8320     2.2140    -1.4660 H     1 <1>   0.1500 
 32 H        6.1910    -3.6630     0.0900 H     1 <1>   0.0800 
 33 H        6.7140    -4.1610    -1.4940 H     1 <1>   0.0800 
 34 H        5.3830    -3.0450    -1.3280 H     1 <1>   0.0800 
 35 H        8.5990    -2.8860     0.5950 H     1 <1>   0.0800 
 36 H        9.3240    -1.6580    -0.4160 H     1 <1>   0.0800 
 37 H        9.1370    -3.2890    -1.0070 H     1 <1>   0.0800 
@<TRIPOS>BOND
  1   1   2  1   
  2   1   3  1   
  3   2   4  1   
  4   2   5  2   
  5   3   6  2   
  6   3   7  1   
  7   4   8  1   
  8   5   6  1   
  9   7  21  1   
 10   7  22  1   
 11   7  23  1   
 12   8   9  1   
 13   8  24  1   
 14   8  25  1   
 15   9  10  2   
 16   9  11  am  
 17  11  12  1   
 18  11  26  1   
 19  12  13  ar  
 20  12  14  ar  
 21  13  15  ar  
 22  13  16  1   
 23  14  17  ar  
 24  14  27  1   
 25  15  18  ar  
 26  15  28  1   
 27  16  19  1   
 28  16  20  1   
 29  16  29  1   
 30  17  18  ar  
 31  17  30  1   
 32  18  31  1   
 33  19  32  1   
 34  19  33  1   
 35  19  34  1   
 36  20  35  1   
 37  20  36  1   
 38  20  37  1   
@<TRIPOS>SUBSTRUCTURE
  1 ****  12 GROUP 4 **** **** 0

# MOE 2024.06 (io_trps.svl 2023.06)
