@<TRIPOS>MOLECULE
NONAME
47 49 1 0 0 
SMALL
USER_CHARGES


@<TRIPOS>ATOM
  1 O       -0.4480    -0.6960    -1.2030 O.2   1 <1>  -0.5700 
  2 C        0.5960    -1.0750    -0.6980 C.2   1 <1>   0.5440 
  3 N        1.4290    -0.1290    -0.1380 N.am  1 <1>  -0.6600 
  4 C        0.9090    -2.4910    -0.6730 C.ar  1 <1>   0.0860 
  5 C        2.4290    -0.4090     0.9350 C.3   1 <1>   0.1400 
  6 C        1.2620     1.3290    -0.4100 C.3   1 <1>   0.1400 
  7 C       -0.0340    -3.4320    -0.2280 C.ar  1 <1>   0.1170 
  8 C        2.1590    -2.9470    -1.0960 C.ar  1 <1>  -0.1500 
  9 C        3.7360     0.3540     0.6640 C.3   1 <1>   0.1200 
 10 C        2.6330     2.0030    -0.5960 C.3   1 <1>   0.1200 
 11 N       -1.3130    -2.9870     0.1380 N.am  1 <1>  -0.5470 
 12 C        0.3180    -4.7790    -0.1860 C.ar  1 <1>  -0.1500 
 13 C        2.4920    -4.2860    -1.0520 C.ar  1 <1>  -0.1500 
 14 O        3.4800     1.7180     0.4820 O.3   1 <1>  -0.5600 
 15 C       -2.3400    -3.5490     0.8400 C.2   1 <1>   0.5690 
 16 C        1.5670    -5.2050    -0.5900 C.ar  1 <1>  -0.1500 
 17 O       -2.2970    -4.6410     1.3490 O.2   1 <1>  -0.5700 
 18 C       -3.6030    -2.7290     0.9770 C.3   1 <1>  -0.0990 
 19 C       -4.4270    -2.7540    -0.3150 C.3   1 <1>  -0.0170 
 20 C       -5.6180    -1.8190    -0.1940 C.ar  1 <1>  -0.1430 
 21 C       -6.8080    -2.2680     0.3560 C.ar  1 <1>  -0.1500 
 22 C       -5.5200    -0.5060    -0.6280 C.ar  1 <1>  -0.1500 
 23 C       -7.8900    -1.4120     0.4710 C.ar  1 <1>  -0.1500 
 24 C       -6.6010     0.3500    -0.5140 C.ar  1 <1>  -0.1500 
 25 C       -7.7870    -0.1030     0.0360 C.ar  1 <1>  -0.1500 
 26 H        2.6340    -1.4610     1.0140 H     1 <1>   0.0800 
 27 H        2.0280    -0.0840     1.8800 H     1 <1>   0.0800 
 28 H        0.7470     1.7880     0.4150 H     1 <1>   0.0800 
 29 H        0.6710     1.4790    -1.2970 H     1 <1>   0.0800 
 30 H        2.8770    -2.2350    -1.4650 H     1 <1>   0.1500 
 31 H        4.2240    -0.0260    -0.2160 H     1 <1>   0.0800 
 32 H        4.4040     0.2550     1.5010 H     1 <1>   0.0800 
 33 H        2.5160     3.0710    -0.6490 H     1 <1>   0.0800 
 34 H        3.1010     1.6610    -1.5030 H     1 <1>   0.0800 
 35 H       -1.5040    -2.0380    -0.2100 H     1 <1>   0.3700 
 36 H       -0.3920    -5.5100     0.1580 H     1 <1>   0.1500 
 37 H        3.4630    -4.6190    -1.3780 H     1 <1>   0.1500 
 38 H        1.8190    -6.2520    -0.5500 H     1 <1>   0.1500 
 39 H       -3.3400    -1.7160     1.2230 H     1 <1>   0.0800 
 40 H       -4.1910    -3.1220     1.7870 H     1 <1>   0.0800 
 41 H       -4.7670    -3.7580    -0.5080 H     1 <1>   0.0800 
 42 H       -3.8180    -2.4510    -1.1490 H     1 <1>   0.0800 
 43 H       -6.8970    -3.2840     0.6980 H     1 <1>   0.1500 
 44 H       -4.6010    -0.1430    -1.0570 H     1 <1>   0.1500 
 45 H       -8.8120    -1.7660     0.8990 H     1 <1>   0.1500 
 46 H       -6.5190     1.3680    -0.8530 H     1 <1>   0.1500 
 47 H       -8.6280     0.5630     0.1250 H     1 <1>   0.1500 
@<TRIPOS>BOND
  1   1   2  2   
  2   2   3  am  
  3   2   4  1   
  4   3   5  1   
  5   3   6  1   
  6   4   7  ar  
  7   4   8  ar  
  8   5   9  1   
  9   5  26  1   
 10   5  27  1   
 11   6  10  1   
 12   6  28  1   
 13   6  29  1   
 14   7  11  1   
 15   7  12  ar  
 16   8  13  ar  
 17   8  30  1   
 18   9  14  1   
 19   9  31  1   
 20   9  32  1   
 21  10  14  1   
 22  10  33  1   
 23  10  34  1   
 24  11  15  am  
 25  11  35  1   
 26  12  16  ar  
 27  12  36  1   
 28  13  16  ar  
 29  13  37  1   
 30  15  17  2   
 31  15  18  1   
 32  16  38  1   
 33  18  19  1   
 34  18  39  1   
 35  18  40  1   
 36  19  20  1   
 37  19  41  1   
 38  19  42  1   
 39  20  21  ar  
 40  20  22  ar  
 41  21  23  ar  
 42  21  43  1   
 43  22  24  ar  
 44  22  44  1   
 45  23  25  ar  
 46  23  45  1   
 47  24  25  ar  
 48  24  46  1   
 49  25  47  1   
@<TRIPOS>SUBSTRUCTURE
  1 ****  11 GROUP 4 **** **** 0

# MOE 2024.06 (io_trps.svl 2023.06)
