@<TRIPOS>MOLECULE
NONAME
45 47 1 0 0 
SMALL
USER_CHARGES


@<TRIPOS>ATOM
  1 S        0.2970     0.0760    -0.6320 S.3   1 <1>  -0.0800 
  2 C        1.7600     0.9130    -0.1360 C.2   1 <1>   0.1660 
  3 C       -0.6190     1.5710    -0.5280 C.2   1 <1>  -0.1400 
  4 N        2.9420     0.2720    -0.0090 N.2   1 <1>  -0.5760 
  5 C        1.5290     2.2350     0.0880 C.2   1 <1>  -0.0860 
  6 C        0.1530     2.5910    -0.1360 C.2   1 <1>  -0.1810 
  7 C       -2.0980     1.6340    -0.8490 C.3   1 <1>   0.3000 
  8 C        3.9220     1.0290     0.3530 C.2   1 <1>   0.6510 
  9 C        2.6450     3.0210     0.4950 C.2   1 <1>   0.7160 
 10 C       -0.4700     3.9670     0.0140 C.3   1 <1>   0.0210 
 11 O       -2.5080     2.9810    -0.9010 O.3   1 <1>  -0.5600 
 12 S        5.5020     0.2220     0.5360 S.3   1 <1>  -0.3710 
 13 N        3.8630     2.3810     0.6130 N.am  1 <1>  -0.4200 
 14 O        2.5380     4.2130     0.7530 O.2   1 <1>  -0.5700 
 15 C       -2.0210     3.8740     0.0720 C.3   1 <1>   0.2800 
 16 C        5.1530    -1.5530     0.0930 C.3   1 <1>   0.1310 
 17 C        5.0650     3.1800     0.9640 C.3   1 <1>   0.2780 
 18 C       -2.6440     5.2280    -0.2690 C.3   1 <1>  -0.2400 
 19 C       -2.5230     3.4270     1.4540 C.3   1 <1>  -0.2400 
 20 C        6.3830    -2.4530     0.1930 C.2   1 <1>   0.6590 
 21 C        5.7820     3.5980    -0.3080 C.2   1 <1>  -0.2880 
 22 O        7.4580    -2.0370     0.5340 O.2   1 <1>  -0.5700 
 23 O        6.2470    -3.7440    -0.1100 O.3   1 <1>  -0.4300 
 24 C        5.8520     4.8500    -0.7720 C.2   1 <1>  -0.3000 
 25 C        5.0500    -4.3700    -0.5220 C.3   1 <1>   0.0400 
 26 H       -2.6760     1.1240    -0.0990 H     1 <1>   0.0800 
 27 H       -2.2950     1.1950    -1.8110 H     1 <1>   0.0800 
 28 H       -0.1690     4.5720    -0.8220 H     1 <1>   0.0800 
 29 H       -0.1090     4.4430     0.9070 H     1 <1>   0.0800 
 30 H        4.7780    -1.5500    -0.9130 H     1 <1>   0.0800 
 31 H        4.3910    -1.8940     0.7690 H     1 <1>   0.0800 
 32 H        5.7270     2.6190     1.6000 H     1 <1>   0.0800 
 33 H        4.7770     4.0570     1.5190 H     1 <1>   0.0800 
 34 H       -2.3530     5.5320    -1.2590 H     1 <1>   0.0800 
 35 H       -2.3180     5.9770     0.4280 H     1 <1>   0.0800 
 36 H       -3.7170     5.1650    -0.2270 H     1 <1>   0.0800 
 37 H       -2.0510     2.5130     1.7640 H     1 <1>   0.0800 
 38 H       -3.5890     3.2910     1.4370 H     1 <1>   0.0800 
 39 H       -2.2890     4.1760     2.1880 H     1 <1>   0.0800 
 40 H        6.2430     2.7680    -0.8160 H     1 <1>   0.1500 
 41 H        6.3670     5.1270    -1.6760 H     1 <1>   0.1500 
 42 H        5.3980     5.7010    -0.2930 H     1 <1>   0.1500 
 43 H        5.2610    -5.4120    -0.6910 H     1 <1>   0.0800 
 44 H        4.7090    -3.9180    -1.4370 H     1 <1>   0.0800 
 45 H        4.3120    -4.2730     0.2550 H     1 <1>   0.0800 
@<TRIPOS>BOND
  1   1   2  1   
  2   1   3  1   
  3   2   4  1   
  4   2   5  2   
  5   3   6  2   
  6   3   7  1   
  7   4   8  2   
  8   5   6  1   
  9   5   9  1   
 10   6  10  1   
 11   7  11  1   
 12   7  26  1   
 13   7  27  1   
 14   8  12  1   
 15   8  13  1   
 16   9  13  am  
 17   9  14  2   
 18  10  15  1   
 19  10  28  1   
 20  10  29  1   
 21  11  15  1   
 22  12  16  1   
 23  13  17  1   
 24  15  18  1   
 25  15  19  1   
 26  16  20  1   
 27  16  30  1   
 28  16  31  1   
 29  17  21  1   
 30  17  32  1   
 31  17  33  1   
 32  18  34  1   
 33  18  35  1   
 34  18  36  1   
 35  19  37  1   
 36  19  38  1   
 37  19  39  1   
 38  20  22  2   
 39  20  23  1   
 40  21  24  2   
 41  21  40  1   
 42  23  25  1   
 43  24  41  1   
 44  24  42  1   
 45  25  43  1   
 46  25  44  1   
 47  25  45  1   
@<TRIPOS>SUBSTRUCTURE
  1 ****   2 GROUP 4 **** **** 0

# MOE 2024.06 (io_trps.svl 2023.06)
