@<TRIPOS>MOLECULE
NONAME
44 46 1 0 0 
SMALL
USER_CHARGES


@<TRIPOS>ATOM
  1 O        0.0040     0.9330     1.5870 O.2   1 <1>  -0.5700 
  2 C       -0.4260     1.8630     0.9450 C.2   1 <1>   0.5690 
  3 N        0.3250     2.7840     0.2650 N.am  1 <1>  -0.2370 
  4 C       -1.9250     2.1980     0.8660 C.3   1 <1>   0.2510 
  5 C        1.7160     2.6970     0.0280 C.ar  1 <1>   0.1170 
  6 C       -0.4820     3.8090    -0.1480 C.2   1 <1>   0.5690 
  7 N       -2.7510     1.3170    -0.0110 N.3   1 <1>  -0.8100 
  8 C       -1.9130     3.6160     0.2830 C.3   1 <1>  -0.0990 
  9 C        2.2340     2.9100    -1.2440 C.ar  1 <1>  -0.1500 
 10 C        2.6040     2.3950     1.0550 C.ar  1 <1>  -0.1500 
 11 O       -0.1430     4.7850    -0.7660 O.2   1 <1>  -0.5700 
 12 C       -4.2000     1.5570     0.1900 C.3   1 <1>   0.1100 
 13 C       -2.4750    -0.1250     0.2100 C.3   1 <1>   0.1100 
 14 C        3.5930     2.8230    -1.4840 C.ar  1 <1>  -0.1500 
 15 C        3.9630     2.3060     0.8160 C.ar  1 <1>  -0.1500 
 16 C       -5.0510     0.6200    -0.6850 C.3   1 <1>   0.1200 
 17 C       -3.3910    -1.0190    -0.6450 C.3   1 <1>   0.1200 
 18 C        4.4730     2.5190    -0.4560 C.ar  1 <1>  -0.1430 
 19 O       -4.7360    -0.7130    -0.4130 O.3   1 <1>  -0.5600 
 20 C        5.9710     2.4240    -0.7380 C.3   1 <1>   0.0630 
 21 C        6.4930     1.0130    -0.4460 C.3   1 <1>  -0.2400 
 22 C        6.7480     3.4690     0.0690 C.3   1 <1>  -0.2400 
 23 H       -2.3250     2.1970     1.8660 H     1 <1>   0.0800 
 24 H       -2.1520     4.3440     1.0350 H     1 <1>   0.0800 
 25 H       -2.5610     3.7320    -0.5660 H     1 <1>   0.0800 
 26 H        1.5700     3.1520    -2.0550 H     1 <1>   0.1500 
 27 H        2.2320     2.2220     2.0490 H     1 <1>   0.1500 
 28 H       -4.4450     2.5730    -0.0620 H     1 <1>   0.0800 
 29 H       -4.4620     1.3940     1.2220 H     1 <1>   0.0800 
 30 H       -2.6120    -0.3750     1.2490 H     1 <1>   0.0800 
 31 H       -1.4560    -0.3490    -0.0560 H     1 <1>   0.0800 
 32 H        3.9620     2.9960    -2.4800 H     1 <1>   0.1500 
 33 H        4.6240     2.0680     1.6310 H     1 <1>   0.1500 
 34 H       -4.8760     0.8120    -1.7290 H     1 <1>   0.0800 
 35 H       -6.0970     0.7580    -0.4750 H     1 <1>   0.0800 
 36 H       -3.2410    -2.0530    -0.3940 H     1 <1>   0.0800 
 37 H       -3.1820    -0.8800    -1.6910 H     1 <1>   0.0800 
 38 H        6.1400     2.6260    -1.7820 H     1 <1>   0.0800 
 39 H        6.3960     0.7770     0.5980 H     1 <1>   0.0800 
 40 H        7.5290     0.9350    -0.7220 H     1 <1>   0.0800 
 41 H        5.9320     0.2930    -1.0130 H     1 <1>   0.0800 
 42 H        6.6550     3.2860     1.1240 H     1 <1>   0.0800 
 43 H        6.3640     4.4520    -0.1430 H     1 <1>   0.0800 
 44 H        7.7900     3.4450    -0.1940 H     1 <1>   0.0800 
@<TRIPOS>BOND
  1   1   2  2   
  2   2   3  am  
  3   2   4  1   
  4   3   5  1   
  5   3   6  am  
  6   4   7  1   
  7   4   8  1   
  8   4  23  1   
  9   5   9  ar  
 10   5  10  ar  
 11   6   8  1   
 12   6  11  2   
 13   7  12  1   
 14   7  13  1   
 15   8  24  1   
 16   8  25  1   
 17   9  14  ar  
 18   9  26  1   
 19  10  15  ar  
 20  10  27  1   
 21  12  16  1   
 22  12  28  1   
 23  12  29  1   
 24  13  17  1   
 25  13  30  1   
 26  13  31  1   
 27  14  18  ar  
 28  14  32  1   
 29  15  18  ar  
 30  15  33  1   
 31  16  19  1   
 32  16  34  1   
 33  16  35  1   
 34  17  19  1   
 35  17  36  1   
 36  17  37  1   
 37  18  20  1   
 38  20  21  1   
 39  20  22  1   
 40  20  38  1   
 41  21  39  1   
 42  21  40  1   
 43  21  41  1   
 44  22  42  1   
 45  22  43  1   
 46  22  44  1   
@<TRIPOS>SUBSTRUCTURE
  1 ****   3 GROUP 4 **** **** 0

# MOE 2024.06 (io_trps.svl 2023.06)
