@<TRIPOS>MOLECULE
NONAME
55 56 1 0 0 
SMALL
USER_CHARGES


@<TRIPOS>ATOM
  1 O       -0.8460    -0.4290     0.3250 O.2   1 <1>  -0.5700 
  2 C       -0.6450    -0.7150    -0.8370 C.2   1 <1>   0.6900 
  3 N        0.5950    -1.0300    -1.3060 N.am  1 <1>  -0.5470 
  4 N       -1.6760    -0.7480    -1.7180 N.am  1 <1>  -0.7300 
  5 C        1.8480    -0.9870    -0.6730 C.ar  1 <1>   0.1170 
  6 C       -3.0710    -0.3620    -1.3810 C.3   1 <1>   0.1400 
  7 C        2.8550    -1.8340    -1.1180 C.ar  1 <1>  -0.1500 
  8 C        2.1290    -0.1120     0.3700 C.ar  1 <1>  -0.1500 
  9 C       -3.7300    -1.4220    -0.4980 C.3   1 <1>   0.1200 
 10 C        4.1190    -1.8190    -0.5360 C.ar  1 <1>   0.0830 
 11 C        3.3800    -0.0840     0.9600 C.ar  1 <1>  -0.1500 
 12 O       -5.1080    -1.1310    -0.4090 O.3   1 <1>  -0.3630 
 13 O        5.1260    -2.6430    -0.9500 O.3   1 <1>  -0.3630 
 14 C        4.3860    -0.9360     0.5140 C.ar  1 <1>   0.0830 
 15 C       -5.9690    -1.9290     0.2780 C.ar  1 <1>   0.0830 
 16 C        4.9150    -3.6580    -1.9040 C.3   1 <1>   0.0400 
 17 O        5.6380    -0.9470     1.0640 O.3   1 <1>  -0.3630 
 18 C       -7.3340    -1.6400     0.2140 C.ar  1 <1>  -0.1430 
 19 C       -5.5260    -3.0150     1.0320 C.ar  1 <1>  -0.1500 
 20 C        5.9540    -0.1490     2.1820 C.3   1 <1>   0.0400 
 21 C       -8.2210    -2.4540     0.9060 C.ar  1 <1>  -0.1500 
 22 C       -7.8750    -0.4540    -0.5950 C.3   1 <1>   0.0630 
 23 C       -6.4220    -3.8160     1.7180 C.ar  1 <1>  -0.1430 
 24 C       -7.7730    -3.5310     1.6490 C.ar  1 <1>  -0.1500 
 25 C       -8.5810     0.5540     0.3180 C.3   1 <1>  -0.2400 
 26 C       -8.8160    -0.9310    -1.7070 C.3   1 <1>  -0.2400 
 27 C       -5.9260    -4.9960     2.5340 C.3   1 <1>  -0.0970 
 28 H        0.5930    -1.4490    -2.2280 H     1 <1>   0.3700 
 29 H       -1.4720    -0.8200    -2.7130 H     1 <1>   0.3700 
 30 H       -3.6360    -0.2550    -2.2910 H     1 <1>   0.0800 
 31 H       -3.0640     0.5800    -0.8580 H     1 <1>   0.0800 
 32 H        2.6330    -2.5040    -1.9230 H     1 <1>   0.1500 
 33 H        1.3670     0.5570     0.7260 H     1 <1>   0.1500 
 34 H       -3.3090    -1.3970     0.4920 H     1 <1>   0.0800 
 35 H       -3.6220    -2.3980    -0.9360 H     1 <1>   0.0800 
 36 H        3.5450     0.6090     1.7610 H     1 <1>   0.1500 
 37 H        5.8350    -4.2020    -2.0170 H     1 <1>   0.0800 
 38 H        4.6410    -3.2070    -2.8410 H     1 <1>   0.0800 
 39 H        4.1430    -4.3170    -1.5480 H     1 <1>   0.0800 
 40 H       -4.4830    -3.2520     1.1000 H     1 <1>   0.1500 
 41 H        6.9730    -0.3510     2.4570 H     1 <1>   0.0800 
 42 H        5.2970    -0.4100     2.9930 H     1 <1>   0.0800 
 43 H        5.8460     0.8860     1.9130 H     1 <1>   0.0800 
 44 H       -9.2760    -2.2530     0.8730 H     1 <1>   0.1500 
 45 H       -7.0630     0.0670    -1.0710 H     1 <1>   0.0800 
 46 H       -8.4840    -4.1440     2.1730 H     1 <1>   0.1500 
 47 H       -9.4490     0.1170     0.7770 H     1 <1>   0.0800 
 48 H       -8.8870     1.4160    -0.2470 H     1 <1>   0.0800 
 49 H       -7.9070     0.8740     1.0920 H     1 <1>   0.0800 
 50 H       -9.6920    -1.4000    -1.2980 H     1 <1>   0.0800 
 51 H       -8.3050    -1.6430    -2.3310 H     1 <1>   0.0800 
 52 H       -9.1230    -0.1000    -2.3160 H     1 <1>   0.0800 
 53 H       -4.9850    -4.7600     2.9980 H     1 <1>   0.0800 
 54 H       -5.7940    -5.8500     1.8950 H     1 <1>   0.0800 
 55 H       -6.6310    -5.2450     3.3060 H     1 <1>   0.0800 
@<TRIPOS>BOND
  1   1   2  2   
  2   2   3  am  
  3   2   4  am  
  4   3   5  1   
  5   3  28  1   
  6   4   6  1   
  7   4  29  1   
  8   5   7  ar  
  9   5   8  ar  
 10   6   9  1   
 11   6  30  1   
 12   6  31  1   
 13   7  10  ar  
 14   7  32  1   
 15   8  11  ar  
 16   8  33  1   
 17   9  12  1   
 18   9  34  1   
 19   9  35  1   
 20  10  13  1   
 21  10  14  ar  
 22  11  14  ar  
 23  11  36  1   
 24  12  15  1   
 25  13  16  1   
 26  14  17  1   
 27  15  18  ar  
 28  15  19  ar  
 29  16  37  1   
 30  16  38  1   
 31  16  39  1   
 32  17  20  1   
 33  18  21  ar  
 34  18  22  1   
 35  19  23  ar  
 36  19  40  1   
 37  20  41  1   
 38  20  42  1   
 39  20  43  1   
 40  21  24  ar  
 41  21  44  1   
 42  22  25  1   
 43  22  26  1   
 44  22  45  1   
 45  23  24  ar  
 46  23  27  1   
 47  24  46  1   
 48  25  47  1   
 49  25  48  1   
 50  25  49  1   
 51  26  50  1   
 52  26  51  1   
 53  26  52  1   
 54  27  53  1   
 55  27  54  1   
 56  27  55  1   
@<TRIPOS>SUBSTRUCTURE
  1 ****   1 GROUP 4 **** **** 0

# MOE 2024.06 (io_trps.svl 2023.06)
