@<TRIPOS>MOLECULE
NONAME
45 48 1 0 0 
SMALL
USER_CHARGES


@<TRIPOS>ATOM
  1 O        2.0530     1.3210     2.4440 O.2   1 <1>  -0.5700 
  2 C        2.0720     1.2340     1.2300 C.2   1 <1>   0.5690 
  3 N        2.7410     0.1550     0.6760 N.am  1 <1>  -0.6600 
  4 C        1.3600     2.3920     0.4500 C.3   1 <1>   0.0610 
  5 C        2.7860    -0.3910    -0.7100 C.3   1 <1>   0.1140 
  6 C        3.5400    -0.7060     1.5360 C.3   1 <1>   0.1400 
  7 C        1.3490     3.6690     1.3390 C.3   1 <1>  -0.1600 
  8 C       -0.1010     1.9800     0.1370 C.3   1 <1>  -0.1600 
  9 C        2.0980     2.8030    -0.8460 C.3   1 <1>  -0.1600 
 10 C        1.4690    -0.6490    -1.5070 C.2   1 <1>   0.9060 
 11 C        3.5860    -1.6970    -0.5900 C.3   1 <1>  -0.1600 
 12 C        4.4940    -1.4470     0.6080 C.3   1 <1>  -0.1600 
 13 C        0.7490     4.9390     0.7080 C.3   1 <1>  -0.0800 
 14 C       -0.8810     2.9070    -0.8190 C.3   1 <1>  -0.0800 
 15 C        1.3530     3.9210    -1.5820 C.3   1 <1>  -0.0800 
 16 O        0.5890    -1.3860    -1.0030 O.co2 1 <1>  -0.9000 
 17 O        1.3900    -0.1300    -2.6450 O.co2 1 <1>  -0.9000 
 18 C       -0.7840     4.9690     0.8220 C.3   1 <1>  -0.1600 
 19 C        1.2740     5.1880    -0.7170 C.3   1 <1>  -0.1600 
 20 C       -1.6020     4.0680    -0.1160 C.3   1 <1>  -0.1600 
 21 C       -0.0240     3.3920    -2.0000 C.3   1 <1>  -0.1600 
 22 H        3.3870     0.2850    -1.3150 H     1 <1>   0.0800 
 23 H        2.8800    -1.4140     2.0430 H     1 <1>   0.0800 
 24 H        4.1000    -0.1290     2.2740 H     1 <1>   0.0800 
 25 H        2.3690     3.8870     1.6060 H     1 <1>   0.0800 
 26 H        0.8320     3.4640     2.2600 H     1 <1>   0.0800 
 27 H       -0.6460     1.8590     1.0560 H     1 <1>   0.0800 
 28 H       -0.0810     1.0120    -0.3210 H     1 <1>   0.0800 
 29 H        2.1580     1.9830    -1.5250 H     1 <1>   0.0800 
 30 H        3.1020     3.1110    -0.6170 H     1 <1>   0.0800 
 31 H        4.1480    -1.9020    -1.5010 H     1 <1>   0.0800 
 32 H        2.9040    -2.5220    -0.3710 H     1 <1>   0.0800 
 33 H        4.8520    -2.3750     1.0530 H     1 <1>   0.0800 
 34 H        5.3200    -0.7920     0.3270 H     1 <1>   0.0800 
 35 H        1.0930     5.7630     1.3110 H     1 <1>   0.0800 
 36 H       -1.6630     2.3040    -1.2500 H     1 <1>   0.0800 
 37 H        1.8990     4.1580    -2.4800 H     1 <1>   0.0800 
 38 H       -1.1110     5.9830     0.6700 H     1 <1>   0.0800 
 39 H       -1.0470     4.7210     1.8360 H     1 <1>   0.0800 
 40 H        2.2700     5.5850    -0.6350 H     1 <1>   0.0800 
 41 H        0.6740     5.9330    -1.2080 H     1 <1>   0.0800 
 42 H       -2.4150     3.6550     0.4550 H     1 <1>   0.0800 
 43 H       -2.0520     4.6870    -0.8720 H     1 <1>   0.0800 
 44 H        0.1310     2.5520    -2.6580 H     1 <1>   0.0800 
 45 H       -0.5500     4.1390    -2.5660 H     1 <1>   0.0800 
@<TRIPOS>BOND
  1   1   2  2   
  2   2   3  am  
  3   2   4  1   
  4   3   5  1   
  5   3   6  1   
  6   4   7  1   
  7   4   8  1   
  8   4   9  1   
  9   5  10  1   
 10   5  11  1   
 11   5  22  1   
 12   6  12  1   
 13   6  23  1   
 14   6  24  1   
 15   7  13  1   
 16   7  25  1   
 17   7  26  1   
 18   8  14  1   
 19   8  27  1   
 20   8  28  1   
 21   9  15  1   
 22   9  29  1   
 23   9  30  1   
 24  10  16  ar  
 25  10  17  ar  
 26  11  12  1   
 27  11  31  1   
 28  11  32  1   
 29  12  33  1   
 30  12  34  1   
 31  13  18  1   
 32  13  19  1   
 33  13  35  1   
 34  14  20  1   
 35  14  21  1   
 36  14  36  1   
 37  15  19  1   
 38  15  21  1   
 39  15  37  1   
 40  18  20  1   
 41  18  38  1   
 42  18  39  1   
 43  19  40  1   
 44  19  41  1   
 45  20  42  1   
 46  20  43  1   
 47  21  44  1   
 48  21  45  1   
@<TRIPOS>SUBSTRUCTURE
  1 ****   4 GROUP 4 **** **** 0

# MOE 2024.06 (io_trps.svl 2023.06)
