@<TRIPOS>MOLECULE
NONAME
50 52 1 0 0 
SMALL
USER_CHARGES


@<TRIPOS>ATOM
  1 O       -7.5840     1.5130    -0.0430 O.2   1 <1>  -0.5700 
  2 C       -7.5050     0.3120    -0.2110 C.2   1 <1>   0.6340 
  3 O       -8.6050    -0.3960    -0.5550 O.3   1 <1>  -0.0870 
  4 C       -6.2630    -0.4200    -0.0540 C.ar  1 <1>   0.0860 
  5 N       -9.7930     0.1660    -0.7860 N.2   1 <1>  -0.5130 
  6 C       -6.1790    -1.7980    -0.2590 C.ar  1 <1>  -0.1500 
  7 C       -5.0890     0.2390     0.3160 C.ar  1 <1>  -0.1500 
  8 C      -10.8110    -0.5480    -0.9740 C.2   1 <1>   0.3280 
  9 C       -4.9970    -2.4970    -0.1070 C.ar  1 <1>   0.0830 
 10 C       -3.8820    -0.4340     0.4680 C.ar  1 <1>   0.0830 
 11 C      -12.1540     0.1140    -1.2310 C.3   1 <1>  -0.0990 
 12 C      -10.8440    -2.0750    -0.9300 C.3   1 <1>  -0.0990 
 13 O       -5.0870    -3.8390    -0.3250 O.3   1 <1>  -0.3620 
 14 C       -3.8260    -1.8110     0.2390 C.ar  1 <1>   0.0830 
 15 O       -2.7350     0.2080     0.8370 O.3   1 <1>  -0.3630 
 16 C      -13.2680    -0.5760    -0.4300 C.3   1 <1>   0.4230 
 17 C      -12.0820    -2.5680    -0.1630 C.3   1 <1>   0.4230 
 18 C       -4.3210    -4.7410     0.4460 C.3   1 <1>   0.0400 
 19 O       -2.6400    -2.4630     0.3500 O.3   1 <1>  -0.3620 
 20 C       -2.7360     1.5590     1.2450 C.3   1 <1>   0.0400 
 21 N      -13.3160    -2.0190    -0.7770 N.4   1 <1>  -0.9590 
 22 C      -12.9240    -0.6360     1.0610 C.3   1 <1>  -0.1600 
 23 C      -12.1430    -1.9520     1.2380 C.3   1 <1>  -0.1600 
 24 C       -1.7400    -2.3040    -0.7230 C.3   1 <1>   0.0400 
 25 C      -13.5560    -2.3550    -2.2200 C.3   1 <1>   0.2630 
 26 H       -7.0510    -2.3570    -0.5450 H     1 <1>   0.1500 
 27 H       -5.1470     1.2990     0.4790 H     1 <1>   0.1500 
 28 H      -12.0980     1.1470    -0.9350 H     1 <1>   0.0800 
 29 H      -12.3740     0.1040    -2.2810 H     1 <1>   0.0800 
 30 H      -10.8340    -2.4680    -1.9290 H     1 <1>   0.0800 
 31 H       -9.9680    -2.4550    -0.4380 H     1 <1>   0.0800 
 32 H      -14.2170    -0.0910    -0.5980 H     1 <1>   0.0800 
 33 H      -12.1020    -3.6460    -0.1210 H     1 <1>   0.0800 
 34 H       -4.8010    -5.7020     0.4150 H     1 <1>   0.0800 
 35 H       -4.2690    -4.3860     1.4610 H     1 <1>   0.0800 
 36 H       -3.3370    -4.8150     0.0200 H     1 <1>   0.0800 
 37 H       -1.7380     1.8140     1.5530 H     1 <1>   0.0800 
 38 H       -3.4130     1.6740     2.0730 H     1 <1>   0.0800 
 39 H       -3.0300     2.1760     0.4150 H     1 <1>   0.0800 
 40 H      -14.0970    -2.4090    -0.2330 H     1 <1>   0.4500 
 41 H      -12.3470     0.2200     1.3710 H     1 <1>   0.0800 
 42 H      -13.8290    -0.6570     1.6430 H     1 <1>   0.0800 
 43 H      -12.6710    -2.6130     1.9030 H     1 <1>   0.0800 
 44 H      -11.1590    -1.7840     1.6450 H     1 <1>   0.0800 
 45 H       -0.8700    -2.9030    -0.5230 H     1 <1>   0.0800 
 46 H       -1.4620    -1.2680    -0.8010 H     1 <1>   0.0800 
 47 H       -2.2180    -2.6340    -1.6280 H     1 <1>   0.0800 
 48 H      -12.7640    -1.9700    -2.8410 H     1 <1>   0.0800 
 49 H      -14.4890    -1.9290    -2.5520 H     1 <1>   0.0800 
 50 H      -13.6030    -3.4240    -2.3510 H     1 <1>   0.0800 
@<TRIPOS>BOND
  1   1   2  2   
  2   2   3  1   
  3   2   4  1   
  4   3   5  1   
  5   4   6  ar  
  6   4   7  ar  
  7   5   8  2   
  8   6   9  ar  
  9   6  26  1   
 10   7  10  ar  
 11   7  27  1   
 12   8  11  1   
 13   8  12  1   
 14   9  13  1   
 15   9  14  ar  
 16  10  14  ar  
 17  10  15  1   
 18  11  16  1   
 19  11  28  1   
 20  11  29  1   
 21  12  17  1   
 22  12  30  1   
 23  12  31  1   
 24  13  18  1   
 25  14  19  1   
 26  15  20  1   
 27  16  21  1   
 28  16  22  1   
 29  16  32  1   
 30  17  21  1   
 31  17  23  1   
 32  17  33  1   
 33  18  34  1   
 34  18  35  1   
 35  18  36  1   
 36  19  24  1   
 37  20  37  1   
 38  20  38  1   
 39  20  39  1   
 40  21  25  1   
 41  21  40  1   
 42  22  23  1   
 43  22  41  1   
 44  22  42  1   
 45  23  43  1   
 46  23  44  1   
 47  24  45  1   
 48  24  46  1   
 49  24  47  1   
 50  25  48  1   
 51  25  49  1   
 52  25  50  1   
@<TRIPOS>SUBSTRUCTURE
  1 ****   3 GROUP 4 **** **** 0

# MOE 2024.06 (io_trps.svl 2023.06)
