@<TRIPOS>MOLECULE
NONAME
51 53 1 0 0 
SMALL
USER_CHARGES


@<TRIPOS>ATOM
  1 S        0.5760     1.6140    -3.5060 S.o2  1 <1>   1.4470 
  2 O        1.7770     1.2020    -4.1930 O.2   1 <1>  -0.6500 
  3 O       -0.2530     2.6780    -4.0150 O.2   1 <1>  -0.6500 
  4 N        1.0510     2.1950    -1.9620 N.am  1 <1>  -0.7570 
  5 C       -0.4420     0.1780    -3.0690 C.ar  1 <1>  -0.0090 
  6 C        1.5330     1.4200    -0.9170 C.ar  1 <1>   0.1990 
  7 C       -1.4760     0.2840    -2.1510 C.ar  1 <1>  -0.1500 
  8 C       -0.2000    -1.0710    -3.6250 C.ar  1 <1>  -0.1500 
  9 C        1.0860     1.6640     0.3740 C.ar  1 <1>  -0.1500 
 10 C        2.4430     0.3890    -1.1240 C.ar  1 <1>  -0.1500 
 11 C       -2.2410    -0.8080    -1.7510 C.ar  1 <1>   0.0860 
 12 C       -0.9550    -2.1720    -3.2640 C.ar  1 <1>  -0.1500 
 13 C        1.5140     0.8880     1.4370 C.ar  1 <1>   0.0830 
 14 C        2.8790    -0.3910    -0.0690 C.ar  1 <1>  -0.1500 
 15 C       -1.9690    -2.0500    -2.3300 C.ar  1 <1>  -0.1430 
 16 C       -3.2660    -0.6290    -0.7410 C.2   1 <1>   0.5440 
 17 O        1.0050     1.1920     2.6570 O.3   1 <1>  -0.3630 
 18 C        2.4160    -0.1480     1.2130 C.ar  1 <1>  -0.1500 
 19 C       -2.7840    -3.2760    -1.9380 C.3   1 <1>  -0.0970 
 20 O       -4.4330    -0.5740    -1.0810 O.2   1 <1>  -0.5700 
 21 N       -2.9390    -0.5150     0.5950 N.am  1 <1>  -0.6600 
 22 C        1.4930     0.5740     3.8280 C.3   1 <1>   0.0400 
 23 C       -1.5460    -0.5950     1.1220 C.3   1 <1>   0.1400 
 24 C       -3.9770    -0.3660     1.6530 C.3   1 <1>   0.1400 
 25 C       -1.4290    -1.7750     2.0910 C.3   1 <1>  -0.1600 
 26 C       -3.8800    -1.5370     2.6370 C.3   1 <1>  -0.1600 
 27 C       -2.4660    -1.6790     3.2190 C.3   1 <1>  -0.1600 
 28 H        0.5240     3.0340    -1.7430 H     1 <1>   0.4200 
 29 H       -1.7000     1.2420    -1.7150 H     1 <1>   0.1500 
 30 H        0.5920    -1.1860    -4.3470 H     1 <1>   0.1500 
 31 H        0.3930     2.4610     0.5630 H     1 <1>   0.1500 
 32 H        2.8210     0.1980    -2.1120 H     1 <1>   0.1500 
 33 H       -0.7440    -3.1260    -3.7160 H     1 <1>   0.1500 
 34 H        3.5830    -1.1860    -0.2460 H     1 <1>   0.1500 
 35 H        2.7680    -0.7690     2.0150 H     1 <1>   0.1500 
 36 H       -3.8180    -3.1220    -2.1900 H     1 <1>   0.0800 
 37 H       -2.7110    -3.4450    -0.8780 H     1 <1>   0.0800 
 38 H       -2.4360    -4.1560    -2.4480 H     1 <1>   0.0800 
 39 H        0.9900     1.0130     4.6710 H     1 <1>   0.0800 
 40 H        2.5510     0.7520     3.9010 H     1 <1>   0.0800 
 41 H        1.2810    -0.4790     3.7840 H     1 <1>   0.0800 
 42 H       -1.3200     0.3210     1.6390 H     1 <1>   0.0800 
 43 H       -0.8300    -0.7160     0.3290 H     1 <1>   0.0800 
 44 H       -4.9630    -0.3380     1.2230 H     1 <1>   0.0800 
 45 H       -3.8150     0.5630     2.1720 H     1 <1>   0.0800 
 46 H       -0.4390    -1.7910     2.5080 H     1 <1>   0.0800 
 47 H       -1.5700    -2.6900     1.5420 H     1 <1>   0.0800 
 48 H       -4.1560    -2.4410     2.1230 H     1 <1>   0.0800 
 49 H       -4.5860    -1.3880     3.4350 H     1 <1>   0.0800 
 50 H       -2.2460    -0.8230     3.8330 H     1 <1>   0.0800 
 51 H       -2.4140    -2.5580     3.8390 H     1 <1>   0.0800 
@<TRIPOS>BOND
  1   1   2  2   
  2   1   3  2   
  3   1   4  am  
  4   1   5  1   
  5   4   6  1   
  6   4  28  1   
  7   5   7  ar  
  8   5   8  ar  
  9   6   9  ar  
 10   6  10  ar  
 11   7  11  ar  
 12   7  29  1   
 13   8  12  ar  
 14   8  30  1   
 15   9  13  ar  
 16   9  31  1   
 17  10  14  ar  
 18  10  32  1   
 19  11  15  ar  
 20  11  16  1   
 21  12  15  ar  
 22  12  33  1   
 23  13  17  1   
 24  13  18  ar  
 25  14  18  ar  
 26  14  34  1   
 27  15  19  1   
 28  16  20  2   
 29  16  21  am  
 30  17  22  1   
 31  18  35  1   
 32  19  36  1   
 33  19  37  1   
 34  19  38  1   
 35  21  23  1   
 36  21  24  1   
 37  22  39  1   
 38  22  40  1   
 39  22  41  1   
 40  23  25  1   
 41  23  42  1   
 42  23  43  1   
 43  24  26  1   
 44  24  44  1   
 45  24  45  1   
 46  25  27  1   
 47  25  46  1   
 48  25  47  1   
 49  26  27  1   
 50  26  48  1   
 51  26  49  1   
 52  27  50  1   
 53  27  51  1   
@<TRIPOS>SUBSTRUCTURE
  1 ****   7 GROUP 4 **** **** 0

# MOE 2024.06 (io_trps.svl 2023.06)
