@<TRIPOS>MOLECULE
NONAME
48 51 1 0 0 
SMALL
USER_CHARGES


@<TRIPOS>ATOM
  1 S        0.5720     1.2430    -1.9970 S.3   1 <1>  -0.0800 
  2 C        0.2020    -0.2840    -1.1990 C.2   1 <1>   0.3250 
  3 C       -1.0150     1.2780    -2.6950 C.2   1 <1>  -0.1100 
  4 N       -0.9960    -0.6890    -1.4570 N.2   1 <1>  -0.5650 
  5 C        1.2090    -0.9170    -0.3740 C.ar  1 <1>   0.0530 
  6 C       -1.6770     0.1820    -2.2950 C.2   1 <1>   0.0460 
  7 C        1.1070    -2.2730    -0.0610 C.ar  1 <1>  -0.1500 
  8 C        2.3040    -0.2270     0.1510 C.ar  1 <1>  -0.1500 
  9 C       -3.1090    -0.1910    -2.6520 C.3   1 <1>   0.5240 
 10 C        2.0430    -2.9090     0.7320 C.ar  1 <1>  -0.1500 
 11 C        3.2440    -0.8590     0.9450 C.ar  1 <1>  -0.1500 
 12 N       -3.7630    -0.6880    -1.4110 N.4   1 <1>  -0.9590 
 13 C        3.1190    -2.2040     1.2430 C.ar  1 <1>  -0.1430 
 14 C       -4.9630    -1.5530    -1.6860 C.3   1 <1>   0.3430 
 15 C       -4.0460     0.4410    -0.4520 C.3   1 <1>   0.3430 
 16 C        4.1520    -2.8990     2.1120 C.3   1 <1>  -0.0970 
 17 C       -5.6610    -2.0200    -0.3880 C.3   1 <1>   0.1400 
 18 C       -4.7310    -0.0630     0.8320 C.3   1 <1>   0.1400 
 19 N       -5.9540    -0.8450     0.4800 N.am  1 <1>  -0.6600 
 20 C       -7.1430    -0.1710     0.2970 C.2   1 <1>   0.7150 
 21 O       -7.0640     0.9970    -0.0430 O.2   1 <1>  -0.5700 
 22 C       -8.4120    -0.8540     0.4310 C.2   1 <1>   0.0550 
 23 O       -9.4930    -0.4260    -0.2150 O.3   1 <1>  -0.2800 
 24 C       -8.7530    -1.9630     1.1460 C.2   1 <1>  -0.1500 
 25 C      -10.5010    -1.2190     0.0680 C.2   1 <1>  -0.0100 
 26 C      -10.1080    -2.1980     0.9090 C.2   1 <1>  -0.1500 
 27 H       -1.2640     2.1160    -3.3220 H     1 <1>   0.1500 
 28 H        0.2820    -2.8420    -0.4500 H     1 <1>   0.1500 
 29 H        2.4350     0.8210    -0.0520 H     1 <1>   0.1500 
 30 H       -3.0820    -0.9760    -3.3890 H     1 <1>   0.0800 
 31 H       -3.6380     0.6550    -3.0590 H     1 <1>   0.0800 
 32 H        1.9340    -3.9570     0.9510 H     1 <1>   0.1500 
 33 H        4.0770    -0.2980     1.3320 H     1 <1>   0.1500 
 34 H       -3.0140    -1.2560    -0.9760 H     1 <1>   0.4500 
 35 H       -4.6690    -2.4170    -2.2590 H     1 <1>   0.0800 
 36 H       -5.6790    -0.9970    -2.2690 H     1 <1>   0.0800 
 37 H       -4.6980     1.1630    -0.9170 H     1 <1>   0.0800 
 38 H       -3.1270     0.9410    -0.1900 H     1 <1>   0.0800 
 39 H        3.7000    -3.7060     2.6610 H     1 <1>   0.0800 
 40 H        4.5770    -2.2080     2.8170 H     1 <1>   0.0800 
 41 H        4.9390    -3.2950     1.4960 H     1 <1>   0.0800 
 42 H       -5.0300    -2.7120     0.1420 H     1 <1>   0.0800 
 43 H       -6.5730    -2.5330    -0.6410 H     1 <1>   0.0800 
 44 H       -5.0010     0.7800     1.4470 H     1 <1>   0.0800 
 45 H       -4.0530    -0.6790     1.3990 H     1 <1>   0.0800 
 46 H       -8.1240    -2.5580     1.7850 H     1 <1>   0.1500 
 47 H      -11.4650    -1.0160    -0.3680 H     1 <1>   0.1500 
 48 H      -10.6950    -2.9980     1.3260 H     1 <1>   0.1500 
@<TRIPOS>BOND
  1   1   2  1   
  2   1   3  1   
  3   2   4  2   
  4   2   5  1   
  5   3   6  2   
  6   3  27  1   
  7   4   6  1   
  8   5   7  ar  
  9   5   8  ar  
 10   6   9  1   
 11   7  10  ar  
 12   7  28  1   
 13   8  11  ar  
 14   8  29  1   
 15   9  12  1   
 16   9  30  1   
 17   9  31  1   
 18  10  13  ar  
 19  10  32  1   
 20  11  13  ar  
 21  11  33  1   
 22  12  14  1   
 23  12  15  1   
 24  12  34  1   
 25  13  16  1   
 26  14  17  1   
 27  14  35  1   
 28  14  36  1   
 29  15  18  1   
 30  15  37  1   
 31  15  38  1   
 32  16  39  1   
 33  16  40  1   
 34  16  41  1   
 35  17  19  1   
 36  17  42  1   
 37  17  43  1   
 38  18  19  1   
 39  18  44  1   
 40  18  45  1   
 41  19  20  am  
 42  20  21  2   
 43  20  22  1   
 44  22  23  1   
 45  22  24  2   
 46  23  25  1   
 47  24  26  1   
 48  24  46  1   
 49  25  26  2   
 50  25  47  1   
 51  26  48  1   
@<TRIPOS>SUBSTRUCTURE
  1 ****  12 GROUP 4 **** **** 0

# MOE 2024.06 (io_trps.svl 2023.06)
