@<TRIPOS>MOLECULE
NONAME
48 50 1 0 0 
SMALL
USER_CHARGES


@<TRIPOS>ATOM
  1 O       -2.0950     0.5560     0.8290 O.2   1 <1>  -0.5700 
  2 C       -1.4430     1.3890     1.4270 C.2   1 <1>   0.6900 
  3 N       -0.1990     1.7680     1.0310 N.am  1 <1>  -0.5470 
  4 N       -1.9960     2.0000     2.5040 N.am  1 <1>  -0.7300 
  5 C        0.6110     1.2700    -0.0020 C.ar  1 <1>   0.1170 
  6 C       -3.2280     1.5310     3.2080 C.3   1 <1>   0.1400 
  7 C        1.5190     2.1250    -0.6150 C.ar  1 <1>  -0.1500 
  8 C        0.5590    -0.0540    -0.4270 C.ar  1 <1>  -0.1500 
  9 C       -4.5230     2.0240     2.5250 C.3   1 <1>   0.3430 
 10 C        2.3510     1.6790    -1.6270 C.ar  1 <1>  -0.1500 
 11 C        1.3880    -0.5050    -1.4380 C.ar  1 <1>  -0.1500 
 12 N       -4.6700     1.4850     1.1400 N.4   1 <1>  -0.9590 
 13 C        2.2890     0.3530    -2.0450 C.ar  1 <1>   0.0830 
 14 C       -5.3710     2.4290     0.2280 C.3   1 <1>   0.4860 
 15 C       -5.2750     0.1250     1.0880 C.3   1 <1>   0.3430 
 16 O        3.0690    -0.1710    -3.0280 O.3   1 <1>  -0.3630 
 17 C       -5.5230     1.8480    -1.1690 C.ar  1 <1>  -0.1430 
 18 C       -5.0630    -0.4900    -0.2980 C.3   1 <1>  -0.0170 
 19 C        4.0050     0.6280    -3.7160 C.3   1 <1>   0.0400 
 20 C       -5.3930     0.4850    -1.4170 C.ar  1 <1>  -0.1430 
 21 C       -5.8090     2.7080    -2.2190 C.ar  1 <1>  -0.1500 
 22 C       -5.5480     0.0020    -2.7060 C.ar  1 <1>  -0.1500 
 23 C       -5.9650     2.2200    -3.5030 C.ar  1 <1>  -0.1500 
 24 C       -5.8340     0.8660    -3.7470 C.ar  1 <1>  -0.1500 
 25 H        0.1770     2.5850     1.5010 H     1 <1>   0.3700 
 26 H       -1.3720     2.5770     3.0730 H     1 <1>   0.3700 
 27 H       -3.2080     1.8990     4.2190 H     1 <1>   0.0800 
 28 H       -3.2280     0.4550     3.2540 H     1 <1>   0.0800 
 29 H        1.5780     3.1520    -0.3050 H     1 <1>   0.1500 
 30 H       -0.1260    -0.7420     0.0320 H     1 <1>   0.1500 
 31 H       -4.4910     3.1000     2.4940 H     1 <1>   0.0800 
 32 H       -5.3760     1.7360     3.1170 H     1 <1>   0.0800 
 33 H        3.0370     2.3720    -2.0760 H     1 <1>   0.1500 
 34 H        1.3420    -1.5290    -1.7640 H     1 <1>   0.1500 
 35 H       -3.7070     1.3580     0.7580 H     1 <1>   0.4500 
 36 H       -4.8140     3.3500     0.1650 H     1 <1>   0.0800 
 37 H       -6.3500     2.6510     0.6170 H     1 <1>   0.0800 
 38 H       -6.3310     0.1890     1.2910 H     1 <1>   0.0800 
 39 H       -4.8190    -0.5150     1.8250 H     1 <1>   0.0800 
 40 H       -5.6760    -1.3680    -0.3870 H     1 <1>   0.0800 
 41 H       -4.0370    -0.8000    -0.3960 H     1 <1>   0.0800 
 42 H        4.4980     0.0110    -4.4460 H     1 <1>   0.0800 
 43 H        4.7240     1.0070    -3.0130 H     1 <1>   0.0800 
 44 H        3.4840     1.4300    -4.2090 H     1 <1>   0.0800 
 45 H       -5.9150     3.7670    -2.0540 H     1 <1>   0.1500 
 46 H       -5.4430    -1.0500    -2.9120 H     1 <1>   0.1500 
 47 H       -6.1860     2.8910    -4.3160 H     1 <1>   0.1500 
 48 H       -5.9530     0.4850    -4.7470 H     1 <1>   0.1500 
@<TRIPOS>BOND
  1   1   2  2   
  2   2   3  am  
  3   2   4  am  
  4   3   5  1   
  5   3  25  1   
  6   4   6  1   
  7   4  26  1   
  8   5   7  ar  
  9   5   8  ar  
 10   6   9  1   
 11   6  27  1   
 12   6  28  1   
 13   7  10  ar  
 14   7  29  1   
 15   8  11  ar  
 16   8  30  1   
 17   9  12  1   
 18   9  31  1   
 19   9  32  1   
 20  10  13  ar  
 21  10  33  1   
 22  11  13  ar  
 23  11  34  1   
 24  12  14  1   
 25  12  15  1   
 26  12  35  1   
 27  13  16  1   
 28  14  17  1   
 29  14  36  1   
 30  14  37  1   
 31  15  18  1   
 32  15  38  1   
 33  15  39  1   
 34  16  19  1   
 35  17  20  ar  
 36  17  21  ar  
 37  18  20  1   
 38  18  40  1   
 39  18  41  1   
 40  19  42  1   
 41  19  43  1   
 42  19  44  1   
 43  20  22  ar  
 44  21  23  ar  
 45  21  45  1   
 46  22  24  ar  
 47  22  46  1   
 48  23  24  ar  
 49  23  47  1   
 50  24  48  1   
@<TRIPOS>SUBSTRUCTURE
  1 ****   1 GROUP 4 **** **** 0

# MOE 2024.06 (io_trps.svl 2023.06)
