@<TRIPOS>MOLECULE
NONAME
36 37 1 0 0 
SMALL
USER_CHARGES


@<TRIPOS>ATOM
  1 O       -0.4390    -1.6710    -2.8310 O.2   1 <1>  -0.5700 
  2 C        0.0030    -1.2550    -1.7880 C.2   1 <1>   0.5690 
  3 N       -0.8000    -0.9130    -0.7480 N.am  1 <1>  -0.7300 
  4 C        1.5080    -1.1330    -1.6200 C.3   1 <1>   0.0440 
  5 C       -2.2730    -1.0990    -0.6880 C.3   1 <1>   0.1400 
  6 C        1.9330    -1.1770    -0.1490 C.ar  1 <1>  -0.1430 
  7 C       -2.6290    -2.3580     0.1150 C.3   1 <1>   0.2000 
  8 C        1.9600    -2.3670     0.5750 C.ar  1 <1>  -0.1440 
  9 C        2.2760     0.0120     0.4790 C.ar  1 <1>  -0.1500 
 10 O       -4.0010    -2.4000     0.3280 O.3   1 <1>  -0.5600 
 11 C       -2.0390    -2.4150     1.5190 C.3   1 <1>  -0.1600 
 12 C        2.3280    -2.3430     1.9110 C.ar  1 <1>  -0.1500 
 13 C        1.5940    -3.7030    -0.0600 C.3   1 <1>  -0.0970 
 14 C        2.6420     0.0260     1.8120 C.ar  1 <1>  -0.1500 
 15 C       -4.2960    -3.2320     1.4050 C.3   1 <1>   0.1200 
 16 C       -3.0380    -3.2780     2.2710 C.3   1 <1>  -0.1600 
 17 C        2.6670    -1.1540     2.5300 C.ar  1 <1>  -0.1500 
 18 H       -0.3420    -0.6680     0.1360 H     1 <1>   0.3700 
 19 H        1.8170    -0.2100    -2.0710 H     1 <1>   0.0800 
 20 H        1.9840    -1.9270    -2.1640 H     1 <1>   0.0800 
 21 H       -2.6670    -1.1930    -1.6850 H     1 <1>   0.0800 
 22 H       -2.7160    -0.2370    -0.2210 H     1 <1>   0.0800 
 23 H       -2.3630    -3.2380    -0.4450 H     1 <1>   0.0800 
 24 H        2.2610     0.9400    -0.0670 H     1 <1>   0.1500 
 25 H       -2.0130    -1.4260     1.9430 H     1 <1>   0.0800 
 26 H       -1.0460    -2.8290     1.5200 H     1 <1>   0.0800 
 27 H        2.3560    -3.2540     2.4830 H     1 <1>   0.1500 
 28 H        0.5990    -3.6680    -0.4650 H     1 <1>   0.0800 
 29 H        1.6310    -4.4970     0.6640 H     1 <1>   0.0800 
 30 H        2.2850    -3.9380    -0.8490 H     1 <1>   0.0800 
 31 H        2.9070     0.9530     2.2900 H     1 <1>   0.1500 
 32 H       -4.5430    -4.2060     1.0190 H     1 <1>   0.0800 
 33 H       -5.1380    -2.8190     1.9320 H     1 <1>   0.0800 
 34 H       -3.2290    -2.8980     3.2580 H     1 <1>   0.0800 
 35 H       -2.6910    -4.2940     2.3470 H     1 <1>   0.0800 
 36 H        2.9520    -1.1480     3.5670 H     1 <1>   0.1500 
@<TRIPOS>BOND
  1   1   2  2   
  2   2   3  am  
  3   2   4  1   
  4   3   5  1   
  5   3  18  1   
  6   4   6  1   
  7   4  19  1   
  8   4  20  1   
  9   5   7  1   
 10   5  21  1   
 11   5  22  1   
 12   6   8  ar  
 13   6   9  ar  
 14   7  10  1   
 15   7  11  1   
 16   7  23  1   
 17   8  12  ar  
 18   8  13  1   
 19   9  14  ar  
 20   9  24  1   
 21  10  15  1   
 22  11  16  1   
 23  11  25  1   
 24  11  26  1   
 25  12  17  ar  
 26  12  27  1   
 27  13  28  1   
 28  13  29  1   
 29  13  30  1   
 30  14  17  ar  
 31  14  31  1   
 32  15  16  1   
 33  15  32  1   
 34  15  33  1   
 35  16  34  1   
 36  16  35  1   
 37  17  36  1   
@<TRIPOS>SUBSTRUCTURE
  1 ****   3 GROUP 4 **** **** 0

# MOE 2024.06 (io_trps.svl 2023.06)
