@<TRIPOS>MOLECULE
NONAME
46 49 1 0 0 
SMALL
USER_CHARGES


@<TRIPOS>ATOM
  1 O       -0.1020    -1.0210    -2.6630 O.2   1 <1>  -0.5700 
  2 C        0.0390    -1.8650    -1.8060 C.2   1 <1>   0.5690 
  3 N       -1.0270    -2.3080    -1.0540 N.am  1 <1>  -0.6600 
  4 C        1.4440    -2.4390    -1.6320 C.3   1 <1>   0.1810 
  5 C       -2.3710    -1.6860    -1.1870 C.3   1 <1>   0.1400 
  6 C       -0.9310    -3.3350     0.0180 C.3   1 <1>   0.1400 
  7 O        1.9140    -2.2890    -0.3000 O.3   1 <1>  -0.3620 
  8 C       -3.4440    -2.7760    -1.1740 C.3   1 <1>  -0.1600 
  9 C       -2.1290    -4.2820    -0.0750 C.3   1 <1>  -0.1600 
 10 C        3.0760    -2.8620     0.0990 C.ar  1 <1>   0.0820 
 11 C       -3.4670    -3.5000     0.2290 C.3   1 <1>   0.5600 
 12 C        3.9670    -3.4880    -0.7720 C.ar  1 <1>  -0.1500 
 13 C        3.3600    -2.8090     1.4580 C.ar  1 <1>  -0.1500 
 14 O       -4.6160    -2.7610     0.5620 O.3   1 <1>  -0.5600 
 15 O       -3.4750    -4.0680     1.5160 O.3   1 <1>  -0.5600 
 16 C        5.1200    -4.0530    -0.2570 C.ar  1 <1>  -0.1430 
 17 C        4.5190    -3.3780     1.9610 C.ar  1 <1>  -0.1500 
 18 C       -5.5820    -3.5760     1.1070 C.3   1 <1>   0.1200 
 19 C       -4.7230    -4.5600     1.8270 C.3   1 <1>   0.1200 
 20 C        5.3920    -3.9990     1.0870 C.ar  1 <1>  -0.1430 
 21 C        6.2120    -4.7740    -1.0070 C.3   1 <1>  -0.0170 
 22 C        6.6980    -4.6790     1.4120 C.3   1 <1>  -0.0170 
 23 C        7.3430    -4.8910     0.0310 C.3   1 <1>  -0.1600 
 24 H        2.1230    -1.9230    -2.2840 H     1 <1>   0.0800 
 25 H        1.4300    -3.4850    -1.8750 H     1 <1>   0.0800 
 26 H       -2.4380    -1.1290    -2.1060 H     1 <1>   0.0800 
 27 H       -2.5300    -1.0060    -0.3670 H     1 <1>   0.0800 
 28 H       -0.9230    -2.8470     0.9790 H     1 <1>   0.0800 
 29 H       -0.0260    -3.9070    -0.0770 H     1 <1>   0.0800 
 30 H       -3.2790    -3.4360    -2.0060 H     1 <1>   0.0800 
 31 H       -4.3660    -2.2900    -1.4590 H     1 <1>   0.0800 
 32 H       -1.9130    -5.1040     0.5920 H     1 <1>   0.0800 
 33 H       -2.1170    -4.7700    -1.0320 H     1 <1>   0.0800 
 34 H        3.7890    -3.5420    -1.8280 H     1 <1>   0.1500 
 35 H        2.6680    -2.3190     2.1170 H     1 <1>   0.1500 
 36 H        4.7360    -3.3360     3.0140 H     1 <1>   0.1500 
 37 H       -6.1580    -4.0330     0.3220 H     1 <1>   0.0800 
 38 H       -6.2050    -3.0010     1.7690 H     1 <1>   0.0800 
 39 H       -4.8620    -4.5360     2.8930 H     1 <1>   0.0800 
 40 H       -4.8280    -5.5570     1.4390 H     1 <1>   0.0800 
 41 H        6.5280    -4.2220    -1.8740 H     1 <1>   0.0800 
 42 H        5.8630    -5.7480    -1.2990 H     1 <1>   0.0800 
 43 H        6.5020    -5.6230     1.8890 H     1 <1>   0.0800 
 44 H        7.3160    -4.0680     2.0460 H     1 <1>   0.0800 
 45 H        8.0540    -4.1020    -0.1430 H     1 <1>   0.0800 
 46 H        7.8490    -5.8380    -0.0340 H     1 <1>   0.0800 
@<TRIPOS>BOND
  1   1   2  2   
  2   2   3  am  
  3   2   4  1   
  4   3   5  1   
  5   3   6  1   
  6   4   7  1   
  7   4  24  1   
  8   4  25  1   
  9   5   8  1   
 10   5  26  1   
 11   5  27  1   
 12   6   9  1   
 13   6  28  1   
 14   6  29  1   
 15   7  10  1   
 16   8  11  1   
 17   8  30  1   
 18   8  31  1   
 19   9  11  1   
 20   9  32  1   
 21   9  33  1   
 22  10  12  ar  
 23  10  13  ar  
 24  11  14  1   
 25  11  15  1   
 26  12  16  ar  
 27  12  34  1   
 28  13  17  ar  
 29  13  35  1   
 30  14  18  1   
 31  15  19  1   
 32  16  20  ar  
 33  16  21  1   
 34  17  20  ar  
 35  17  36  1   
 36  18  19  1   
 37  18  37  1   
 38  18  38  1   
 39  19  39  1   
 40  19  40  1   
 41  20  22  1   
 42  21  23  1   
 43  21  41  1   
 44  21  42  1   
 45  22  23  1   
 46  22  43  1   
 47  22  44  1   
 48  23  45  1   
 49  23  46  1   
@<TRIPOS>SUBSTRUCTURE
  1 ****   7 GROUP 4 **** **** 0

# MOE 2024.06 (io_trps.svl 2023.06)
