@<TRIPOS>MOLECULE
NONAME
30 31 1 0 0 
SMALL
USER_CHARGES


@<TRIPOS>ATOM
  1 S       -1.3720     0.7830    -1.7160 S.3   1 <1>  -0.0800 
  2 C       -1.6480     0.8270     0.0200 C.2   1 <1>  -0.1400 
  3 C        0.0810     1.7540    -1.5540 C.2   1 <1>  -0.1100 
  4 C       -0.6800     1.5360     0.6320 C.2   1 <1>  -0.1500 
  5 C       -2.8690     0.1000     0.5540 C.3   1 <1>   0.2900 
  6 C        0.3030     2.0640    -0.2640 C.2   1 <1>  -0.1500 
  7 N       -4.1130     0.6780     0.0030 N.3   1 <1>  -0.8100 
  8 C       -4.2740     2.1110     0.3300 C.3   1 <1>   0.1100 
  9 C       -5.3010    -0.1090     0.3760 C.3   1 <1>   0.1100 
 10 C       -5.5320     2.6930    -0.3440 C.3   1 <1>   0.3430 
 11 C       -6.5710     0.4520    -0.2970 C.3   1 <1>   0.3430 
 12 N       -6.7700     1.9130     0.0100 N.4   1 <1>  -0.9590 
 13 C       -7.9670     2.4550    -0.6980 C.3   1 <1>   0.2630 
 14 H        0.6210     1.9890    -2.4540 H     1 <1>   0.1500 
 15 H       -0.6050     1.7160     1.6900 H     1 <1>   0.1500 
 16 H       -2.8810     0.1570     1.6290 H     1 <1>   0.0800 
 17 H       -2.7970    -0.9360     0.2700 H     1 <1>   0.0800 
 18 H        1.1290     2.6490     0.1030 H     1 <1>   0.1500 
 19 H       -3.4210     2.6630    -0.0280 H     1 <1>   0.0800 
 20 H       -4.3310     2.2450     1.3970 H     1 <1>   0.0800 
 21 H       -5.4250    -0.1110     1.4460 H     1 <1>   0.0800 
 22 H       -5.1650    -1.1280     0.0550 H     1 <1>   0.0800 
 23 H       -5.3810     2.6690    -1.4100 H     1 <1>   0.0800 
 24 H       -5.6470     3.7230    -0.0470 H     1 <1>   0.0800 
 25 H       -7.4260    -0.1140     0.0320 H     1 <1>   0.0800 
 26 H       -6.4720     0.3180    -1.3620 H     1 <1>   0.0800 
 27 H       -6.9070     1.9990     1.0260 H     1 <1>   0.4500 
 28 H       -7.8380     2.3730    -1.7650 H     1 <1>   0.0800 
 29 H       -8.1120     3.4940    -0.4470 H     1 <1>   0.0800 
 30 H       -8.8510     1.9070    -0.4140 H     1 <1>   0.0800 
@<TRIPOS>BOND
  1   1   2  1   
  2   1   3  1   
  3   2   4  2   
  4   2   5  1   
  5   3   6  2   
  6   3  14  1   
  7   4   6  1   
  8   4  15  1   
  9   5   7  1   
 10   5  16  1   
 11   5  17  1   
 12   6  18  1   
 13   7   8  1   
 14   7   9  1   
 15   8  10  1   
 16   8  19  1   
 17   8  20  1   
 18   9  11  1   
 19   9  21  1   
 20   9  22  1   
 21  10  12  1   
 22  10  23  1   
 23  10  24  1   
 24  11  12  1   
 25  11  25  1   
 26  11  26  1   
 27  12  13  1   
 28  12  27  1   
 29  13  28  1   
 30  13  29  1   
 31  13  30  1   
@<TRIPOS>SUBSTRUCTURE
  1 ****   7 GROUP 4 **** **** 0

# MOE 2024.06 (io_trps.svl 2023.06)
