@<TRIPOS>MOLECULE
NONAME
44 46 1 0 0 
SMALL
USER_CHARGES


@<TRIPOS>ATOM
  1 O       -0.7420    -0.3840     0.6260 O.2   1 <1>  -0.5700 
  2 C       -1.8140    -0.8900     0.3870 C.2   1 <1>   0.6900 
  3 N       -3.0110    -0.2420     0.6460 N.am  1 <1>  -0.4360 
  4 N       -1.8350    -2.1400    -0.1590 N.am  1 <1>  -0.4900 
  5 C       -4.1860    -0.9050     0.3180 C.2   1 <1>   0.4260 
  6 C       -3.0410     1.1200     1.2550 C.3   1 <1>   0.0600 
  7 C       -2.9790    -2.8100    -0.4850 C.2   1 <1>   0.7030 
  8 N       -5.4600    -0.4680     0.4630 N.pl3 1 <1>  -0.7000 
  9 C       -4.2280    -2.1470    -0.2290 C.2   1 <1>   0.2770 
 10 O       -2.8920    -3.9180    -0.9730 O.2   1 <1>  -0.5700 
 11 C       -6.2800    -1.4140     0.0190 C.cat 1 <1>   0.6560 
 12 N       -5.5800    -2.4590    -0.4130 N.pl3 1 <1>  -0.7640 
 13 C       -7.8080    -1.2380     0.0430 C.3   1 <1>   0.2540 
 14 C       -6.0550    -3.7470    -0.9840 C.3   1 <1>   0.3540 
 15 N       -8.2030     0.1950     0.1020 N.3   1 <1>  -0.8100 
 16 C       -6.1340    -4.7960     0.1270 C.3   1 <1>  -0.1600 
 17 C       -9.5910     0.3450     0.5960 C.3   1 <1>   0.1100 
 18 C       -8.0900     0.8510    -1.2250 C.3   1 <1>   0.1100 
 19 C       -6.6580    -6.1380    -0.3980 C.3   1 <1>  -0.2400 
 20 C      -10.0330     1.8200     0.5910 C.3   1 <1>   0.1200 
 21 C       -8.5700     2.3120    -1.1680 C.3   1 <1>   0.1200 
 22 O       -9.8790     2.3640    -0.6860 O.3   1 <1>  -0.5600 
 23 H       -0.9390    -2.5900    -0.3340 H     1 <1>   0.3700 
 24 H       -2.0520     1.4300     1.5500 H     1 <1>   0.0800 
 25 H       -3.6680     1.1190     2.1290 H     1 <1>   0.0800 
 26 H       -3.4210     1.8300     0.5410 H     1 <1>   0.0800 
 27 H       -5.8100     0.4240     0.8260 H     1 <1>   0.4500 
 28 H       -8.1740    -1.7430     0.9190 H     1 <1>   0.0800 
 29 H       -8.2480    -1.7050    -0.8200 H     1 <1>   0.0800 
 30 H       -5.3780    -4.0790    -1.7550 H     1 <1>   0.0800 
 31 H       -7.0260    -3.6170    -1.4320 H     1 <1>   0.0800 
 32 H       -6.7860    -4.4500     0.9090 H     1 <1>   0.0800 
 33 H       -5.1520    -4.9510     0.5420 H     1 <1>   0.0800 
 34 H       -9.6620    -0.0330     1.6020 H     1 <1>   0.0800 
 35 H      -10.2710    -0.2170    -0.0220 H     1 <1>   0.0800 
 36 H       -8.6910     0.3280    -1.9520 H     1 <1>   0.0800 
 37 H       -7.0690     0.8360    -1.5620 H     1 <1>   0.0800 
 38 H       -7.6500    -6.0330    -0.8040 H     1 <1>   0.0800 
 39 H       -6.6970    -6.8560     0.4040 H     1 <1>   0.0800 
 40 H       -6.0080    -6.5270    -1.1640 H     1 <1>   0.0800 
 41 H       -9.4510     2.3980     1.2870 H     1 <1>   0.0800 
 42 H      -11.0720     1.9000     0.8580 H     1 <1>   0.0800 
 43 H       -8.5660     2.7470    -2.1510 H     1 <1>   0.0800 
 44 H       -7.9410     2.9000    -0.5240 H     1 <1>   0.0800 
@<TRIPOS>BOND
  1   1   2  2   
  2   2   3  am  
  3   2   4  am  
  4   3   5  1   
  5   3   6  1   
  6   4   7  am  
  7   4  23  1   
  8   5   8  1   
  9   5   9  2   
 10   6  24  1   
 11   6  25  1   
 12   6  26  1   
 13   7   9  1   
 14   7  10  2   
 15   8  11  ar  
 16   8  27  1   
 17   9  12  1   
 18  11  12  ar  
 19  11  13  1   
 20  12  14  1   
 21  13  15  1   
 22  13  28  1   
 23  13  29  1   
 24  14  16  1   
 25  14  30  1   
 26  14  31  1   
 27  15  17  1   
 28  15  18  1   
 29  16  19  1   
 30  16  32  1   
 31  16  33  1   
 32  17  20  1   
 33  17  34  1   
 34  17  35  1   
 35  18  21  1   
 36  18  36  1   
 37  18  37  1   
 38  19  38  1   
 39  19  39  1   
 40  19  40  1   
 41  20  22  1   
 42  20  41  1   
 43  20  42  1   
 44  21  22  1   
 45  21  43  1   
 46  21  44  1   
@<TRIPOS>SUBSTRUCTURE
  1 ****  11 GROUP 4 **** **** 0

# MOE 2024.06 (io_trps.svl 2023.06)
