@<TRIPOS>MOLECULE
NONAME
38 40 1 0 0 
SMALL
USER_CHARGES


@<TRIPOS>ATOM
  1 S        0.0910    -0.0910     0.2320 S.o2  1 <1>   1.5000 
  2 O        0.2500     0.0100     1.6660 O.2   1 <1>  -0.6500 
  3 O        0.0980     1.1190    -0.5600 O.2   1 <1>  -0.6500 
  4 N        1.3720    -1.0550    -0.3220 N.am  1 <1>  -0.8490 
  5 C       -1.3900    -1.0610    -0.1460 C.2   1 <1>  -0.0220 
  6 C        1.5770    -2.2540     0.5150 C.3   1 <1>   0.1960 
  7 C        2.6190    -0.2770    -0.4260 C.3   1 <1>   0.1960 
  8 S       -1.4860    -1.8640    -1.7140 S.3   1 <1>  -0.0800 
  9 C       -2.5210    -1.3070     0.5490 C.2   1 <1>  -0.1500 
 10 C        2.6990    -3.1510    -0.0330 C.3   1 <1>   0.1400 
 11 C        3.7700    -1.1210    -0.9990 C.3   1 <1>   0.1400 
 12 C       -3.0730    -2.5170    -1.3540 C.2   1 <1>  -0.1100 
 13 C       -3.4730    -2.1330    -0.1300 C.2   1 <1>  -0.1500 
 14 N        3.9590    -2.3670    -0.1990 N.am  1 <1>  -0.6600 
 15 C        5.1670    -2.8170     0.2810 C.2   1 <1>   0.7150 
 16 O        5.2780    -3.9950     0.5680 O.2   1 <1>  -0.5700 
 17 C        6.2870    -1.9360     0.4460 C.2   1 <1>  -0.2370 
 18 N        7.5650    -2.2650     0.1260 N.pl3 1 <1>   0.3140 
 19 C        6.3580    -0.6660     0.9370 C.2   1 <1>  -0.1500 
 20 N        8.4220    -1.2610     0.3660 N.2   1 <1>  -0.7070 
 21 C        8.0470    -3.5420    -0.4250 C.3   1 <1>   0.0160 
 22 C        7.6900    -0.3090     0.8580 C.2   1 <1>   0.1390 
 23 H        0.6670    -2.8280     0.5530 H     1 <1>   0.0800 
 24 H        1.8280    -1.9640     1.5230 H     1 <1>   0.0800 
 25 H        2.8980     0.1010     0.5440 H     1 <1>   0.0800 
 26 H        2.4640     0.5680    -1.0770 H     1 <1>   0.0800 
 27 H       -2.7270    -0.9290     1.5360 H     1 <1>   0.1500 
 28 H        2.4030    -3.5540    -0.9860 H     1 <1>   0.0800 
 29 H        2.8540    -3.9740     0.6430 H     1 <1>   0.0800 
 30 H        4.6700    -0.5350    -1.0290 H     1 <1>   0.0800 
 31 H        3.5270    -1.3920    -2.0120 H     1 <1>   0.0800 
 32 H       -3.5430    -3.1250    -2.1080 H     1 <1>   0.1500 
 33 H       -4.4090    -2.3940     0.3330 H     1 <1>   0.1500 
 34 H        5.5620    -0.0540     1.3180 H     1 <1>   0.1500 
 35 H        7.4640    -3.8010    -1.2890 H     1 <1>   0.0800 
 36 H        7.9460    -4.3070     0.3230 H     1 <1>   0.0800 
 37 H        9.0800    -3.4420    -0.7010 H     1 <1>   0.0800 
 38 H        8.0930     0.6420     1.1650 H     1 <1>   0.1500 
@<TRIPOS>BOND
  1   1   2  2   
  2   1   3  2   
  3   1   4  am  
  4   1   5  1   
  5   4   6  1   
  6   4   7  1   
  7   5   8  1   
  8   5   9  2   
  9   6  10  1   
 10   6  23  1   
 11   6  24  1   
 12   7  11  1   
 13   7  25  1   
 14   7  26  1   
 15   8  12  1   
 16   9  13  1   
 17   9  27  1   
 18  10  14  1   
 19  10  28  1   
 20  10  29  1   
 21  11  14  1   
 22  11  30  1   
 23  11  31  1   
 24  12  13  2   
 25  12  32  1   
 26  13  33  1   
 27  14  15  am  
 28  15  16  2   
 29  15  17  1   
 30  17  18  1   
 31  17  19  2   
 32  18  20  1   
 33  18  21  1   
 34  19  22  1   
 35  19  34  1   
 36  20  22  2   
 37  21  35  1   
 38  21  36  1   
 39  21  37  1   
 40  22  38  1   
@<TRIPOS>SUBSTRUCTURE
  1 ****   7 GROUP 4 **** **** 0

# MOE 2024.06 (io_trps.svl 2023.06)
