@<TRIPOS>MOLECULE
NONAME
57 59 1 0 0 
SMALL
USER_CHARGES


@<TRIPOS>ATOM
  1 O       -6.3980    -7.8630    -0.4000 O.3   1 <1>  -0.3630 
  2 C       -7.1150    -8.8950     0.0940 C.ar  1 <1>   0.0820 
  3 C       -5.5090    -8.1710    -1.4530 C.3   1 <1>   0.1200 
  4 C       -8.3340    -9.2330    -0.4900 C.ar  1 <1>  -0.1440 
  5 C       -6.6310    -9.5990     1.1940 C.ar  1 <1>  -0.1440 
  6 C       -4.7770    -6.8980    -1.9000 C.3   1 <1>   0.2000 
  7 C       -9.0500   -10.3030     0.0200 C.ar  1 <1>  -0.1500 
  8 C       -8.9020    -8.4570    -1.6710 C.3   1 <1>  -0.0960 
  9 C       -7.3650   -10.6650     1.6880 C.ar  1 <1>  -0.1500 
 10 C       -5.3180    -9.2230     1.8660 C.3   1 <1>  -0.0960 
 11 O       -3.8580    -7.2450    -2.8850 O.3   1 <1>  -0.6800 
 12 C       -4.0430    -6.1620    -0.7540 C.3   1 <1>   0.1100 
 13 C       -8.5670   -11.0180     1.1020 C.ar  1 <1>  -0.1500 
 14 N       -4.6250    -4.8310    -0.4550 N.3   1 <1>  -0.8100 
 15 C       -5.9760    -4.9320     0.1630 C.3   1 <1>   0.1100 
 16 C       -3.7240    -4.0290     0.4030 C.3   1 <1>   0.1100 
 17 C       -6.5320    -3.5660     0.6310 C.3   1 <1>   0.3430 
 18 C       -4.2610    -2.5930     0.6280 C.3   1 <1>   0.3430 
 19 N       -5.6660    -2.4490     0.1280 N.4   1 <1>  -0.9590 
 20 C       -6.2460    -1.0950     0.3090 C.3   1 <1>   0.4860 
 21 C       -7.6060    -1.0500    -0.3600 C.ar  1 <1>  -0.1440 
 22 C       -7.7100    -1.0630    -1.7440 C.ar  1 <1>  -0.1500 
 23 C       -8.7600    -1.0050     0.4110 C.ar  1 <1>  -0.1500 
 24 C       -8.9540    -1.0410    -2.3490 C.ar  1 <1>  -0.1500 
 25 C      -10.0030    -0.9830    -0.1960 C.ar  1 <1>  -0.1500 
 26 C      -10.1010    -1.0030    -1.5760 C.ar  1 <1>  -0.1500 
 27 H       -6.0800    -8.5780    -2.2690 H     1 <1>   0.0800 
 28 H       -4.8130    -8.9070    -1.0930 H     1 <1>   0.0800 
 29 H       -5.4790    -6.2320    -2.3700 H     1 <1>   0.0800 
 30 H       -9.9890   -10.5880    -0.4210 H     1 <1>   0.1500 
 31 H       -9.9680    -8.5830    -1.7300 H     1 <1>   0.0800 
 32 H       -8.6940    -7.4080    -1.5670 H     1 <1>   0.0800 
 33 H       -8.4640    -8.8120    -2.5860 H     1 <1>   0.0800 
 34 H       -7.0070   -11.2280     2.5320 H     1 <1>   0.1500 
 35 H       -5.2600    -8.1570     1.9940 H     1 <1>   0.0800 
 36 H       -4.4920    -9.5510     1.2630 H     1 <1>   0.0800 
 37 H       -5.2390    -9.6820     2.8350 H     1 <1>   0.0800 
 38 H       -3.1870    -7.8670    -2.5430 H     1 <1>   0.4000 
 39 H       -3.0150    -6.0250    -1.0450 H     1 <1>   0.0800 
 40 H       -4.0530    -6.7670     0.1370 H     1 <1>   0.0800 
 41 H       -9.1300   -11.8490     1.4900 H     1 <1>   0.1500 
 42 H       -5.9540    -5.6070     1.0020 H     1 <1>   0.0800 
 43 H       -6.6650    -5.3410    -0.5570 H     1 <1>   0.0800 
 44 H       -2.7500    -3.9650    -0.0540 H     1 <1>   0.0800 
 45 H       -3.6020    -4.5160     1.3560 H     1 <1>   0.0800 
 46 H       -6.5720    -3.5470     1.7070 H     1 <1>   0.0800 
 47 H       -7.5390    -3.4590     0.2610 H     1 <1>   0.0800 
 48 H       -3.6200    -1.9010     0.1070 H     1 <1>   0.0800 
 49 H       -4.2120    -2.3600     1.6790 H     1 <1>   0.0800 
 50 H       -5.6030    -2.6500    -0.8810 H     1 <1>   0.4500 
 51 H       -5.6050    -0.3530    -0.1390 H     1 <1>   0.0800 
 52 H       -6.3480    -0.8710     1.3580 H     1 <1>   0.0800 
 53 H       -6.8330    -1.0870    -2.3680 H     1 <1>   0.1500 
 54 H       -8.7090    -0.9840     1.4870 H     1 <1>   0.1500 
 55 H       -9.0350    -1.0520    -3.4230 H     1 <1>   0.1500 
 56 H      -10.8990    -0.9480     0.4020 H     1 <1>   0.1500 
 57 H      -11.0690    -0.9850    -2.0480 H     1 <1>   0.1500 
@<TRIPOS>BOND
  1   1   2  1   
  2   1   3  1   
  3   2   4  ar  
  4   2   5  ar  
  5   3   6  1   
  6   3  27  1   
  7   3  28  1   
  8   4   7  ar  
  9   4   8  1   
 10   5   9  ar  
 11   5  10  1   
 12   6  11  1   
 13   6  12  1   
 14   6  29  1   
 15   7  13  ar  
 16   7  30  1   
 17   8  31  1   
 18   8  32  1   
 19   8  33  1   
 20   9  13  ar  
 21   9  34  1   
 22  10  35  1   
 23  10  36  1   
 24  10  37  1   
 25  11  38  1   
 26  12  14  1   
 27  12  39  1   
 28  12  40  1   
 29  13  41  1   
 30  14  15  1   
 31  14  16  1   
 32  15  17  1   
 33  15  42  1   
 34  15  43  1   
 35  16  18  1   
 36  16  44  1   
 37  16  45  1   
 38  17  19  1   
 39  17  46  1   
 40  17  47  1   
 41  18  19  1   
 42  18  48  1   
 43  18  49  1   
 44  19  20  1   
 45  19  50  1   
 46  20  21  1   
 47  20  51  1   
 48  20  52  1   
 49  21  22  ar  
 50  21  23  ar  
 51  22  24  ar  
 52  22  53  1   
 53  23  25  ar  
 54  23  54  1   
 55  24  26  ar  
 56  24  55  1   
 57  25  26  ar  
 58  25  56  1   
 59  26  57  1   
@<TRIPOS>SUBSTRUCTURE
  1 ****  15 GROUP 4 **** **** 0

# MOE 2024.06 (io_trps.svl 2023.06)
