@<TRIPOS>MOLECULE
NONAME
42 43 1 0 0 
SMALL
USER_CHARGES


@<TRIPOS>ATOM
  1 O        1.0090     1.0220    -2.7440 O.2   1 <1>  -0.5700 
  2 C        2.0220     0.7770    -2.1280 C.2   1 <1>   0.6900 
  3 N        1.9720     0.0290    -1.0000 N.am  1 <1>  -0.5390 
  4 N        3.2090     1.2450    -2.5450 N.am  1 <1>  -0.7300 
  5 C        3.0450    -0.1890    -0.1610 C.2   1 <1>  -0.0290 
  6 C        4.4360     1.1740    -1.7270 C.3   1 <1>   0.5020 
  7 C        4.2660     0.3450    -0.4460 C.2   1 <1>  -0.1240 
  8 C        2.6970    -1.0470     1.0460 C.3   1 <1>  -0.1020 
  9 C        4.9200     2.6060    -1.4810 C.ar  1 <1>  -0.1440 
 10 C        5.4720     0.2470     0.3200 C.2   1 <1>   0.7060 
 11 C        4.2440     3.4790    -0.6300 C.ar  1 <1>   0.0830 
 12 C        6.0670     3.0480    -2.1280 C.ar  1 <1>  -0.1500 
 13 O        5.5070     0.0160     1.5140 O.2   1 <1>  -0.5700 
 14 O        6.6410     0.4070    -0.3180 O.3   1 <1>  -0.4300 
 15 O        3.1250     3.0230    -0.0150 O.3   1 <1>  -0.3630 
 16 C        4.7240     4.7720    -0.4370 C.ar  1 <1>  -0.1500 
 17 C        6.5390     4.3340    -1.9350 C.ar  1 <1>  -0.1500 
 18 C        7.8750     0.3800     0.3720 C.3   1 <1>   0.0400 
 19 C        2.2610     3.8620     0.7110 C.3   1 <1>   0.1200 
 20 C        5.8670     5.1960    -1.0880 C.ar  1 <1>  -0.1500 
 21 C        1.0500     3.0290     1.1290 C.3   1 <1>  -0.1600 
 22 C        0.0480     3.8610     1.9380 C.3   1 <1>  -0.2400 
 23 H        1.0360    -0.3020    -0.7710 H     1 <1>   0.3700 
 24 H        3.1740     2.0050    -3.2190 H     1 <1>   0.3700 
 25 H        5.1700     0.6700    -2.3320 H     1 <1>   0.0800 
 26 H        2.1480    -0.4600     1.7600 H     1 <1>   0.0800 
 27 H        3.5690    -1.4440     1.5290 H     1 <1>   0.0800 
 28 H        2.0910    -1.8820     0.7440 H     1 <1>   0.0800 
 29 H        6.6060     2.3910    -2.7890 H     1 <1>   0.1500 
 30 H        4.2240     5.4600     0.2180 H     1 <1>   0.1500 
 31 H        7.4290     4.6640    -2.4420 H     1 <1>   0.1500 
 32 H        8.6670     0.5380    -0.3380 H     1 <1>   0.0800 
 33 H        7.9880    -0.5780     0.8490 H     1 <1>   0.0800 
 34 H        7.8770     1.1640     1.1090 H     1 <1>   0.0800 
 35 H        1.9610     4.6760     0.0730 H     1 <1>   0.0800 
 36 H        2.7890     4.2310     1.5720 H     1 <1>   0.0800 
 37 H        6.2350     6.1960    -0.9370 H     1 <1>   0.1500 
 38 H        1.3850     2.1970     1.7240 H     1 <1>   0.0800 
 39 H        0.5650     2.6470     0.2470 H     1 <1>   0.0800 
 40 H        0.5090     4.2390     2.8330 H     1 <1>   0.0800 
 41 H       -0.7920     3.2510     2.2170 H     1 <1>   0.0800 
 42 H       -0.3110     4.6890     1.3520 H     1 <1>   0.0800 
@<TRIPOS>BOND
  1   1   2  2   
  2   2   3  am  
  3   2   4  am  
  4   3   5  1   
  5   3  23  1   
  6   4   6  1   
  7   4  24  1   
  8   5   7  2   
  9   5   8  1   
 10   6   7  1   
 11   6   9  1   
 12   6  25  1   
 13   7  10  1   
 14   8  26  1   
 15   8  27  1   
 16   8  28  1   
 17   9  11  ar  
 18   9  12  ar  
 19  10  13  2   
 20  10  14  1   
 21  11  15  1   
 22  11  16  ar  
 23  12  17  ar  
 24  12  29  1   
 25  14  18  1   
 26  15  19  1   
 27  16  20  ar  
 28  16  30  1   
 29  17  20  ar  
 30  17  31  1   
 31  18  32  1   
 32  18  33  1   
 33  18  34  1   
 34  19  21  1   
 35  19  35  1   
 36  19  36  1   
 37  20  37  1   
 38  21  22  1   
 39  21  38  1   
 40  21  39  1   
 41  22  40  1   
 42  22  41  1   
 43  22  42  1   
@<TRIPOS>SUBSTRUCTURE
  1 ****   6 GROUP 4 **** **** 0

# MOE 2024.06 (io_trps.svl 2023.06)
