@<TRIPOS>MOLECULE
NONAME
40 42 1 0 0 
SMALL
USER_CHARGES


@<TRIPOS>ATOM
  1 S        0.4050    -0.1590     0.7840 S.3   1 <1>  -0.0800 
  2 C       -0.6390    -0.9660    -0.3710 C.2   1 <1>  -0.1100 
  3 C       -0.5250    -0.7880     2.1300 C.2   1 <1>  -0.1100 
  4 C       -1.6180    -1.6440     0.2600 C.2   1 <1>  -0.1810 
  5 C       -1.5460    -1.5470     1.6910 C.2   1 <1>  -0.1500 
  6 C       -2.7080    -2.4400    -0.4260 C.3   1 <1>   0.5240 
  7 N       -4.0030    -1.7610    -0.1760 N.4   1 <1>  -0.9590 
  8 C       -5.1600    -2.5730    -0.6370 C.3   1 <1>   0.4860 
  9 C       -4.0600    -0.3890    -0.7670 C.3   1 <1>   0.3430 
 10 C       -6.4590    -1.8570    -0.3090 C.ar  1 <1>  -0.1430 
 11 C       -5.2600     0.3750    -0.2010 C.3   1 <1>  -0.0170 
 12 C       -6.5160    -0.4830    -0.1180 C.ar  1 <1>  -0.1430 
 13 C       -7.6210    -2.6020    -0.2090 C.ar  1 <1>  -0.1500 
 14 C       -7.7290     0.1210     0.1690 C.ar  1 <1>  -0.1500 
 15 C       -8.8410    -2.0140     0.0770 C.ar  1 <1>   0.0830 
 16 C       -8.9040    -0.6230     0.2720 C.ar  1 <1>   0.0830 
 17 O       -9.8730    -2.9050     0.1360 O.3   1 <1>  -0.3620 
 18 O      -10.0930    -0.0180     0.5600 O.3   1 <1>  -0.3620 
 19 C      -11.2180    -2.5350     0.3430 C.3   1 <1>   0.0400 
 20 C      -10.2220     1.3740     0.7550 C.3   1 <1>   0.0400 
 21 H       -0.3910    -0.8330    -1.4110 H     1 <1>   0.1500 
 22 H       -0.1970    -0.5220     3.1210 H     1 <1>   0.1500 
 23 H       -2.2450    -2.0480     2.3390 H     1 <1>   0.1500 
 24 H       -2.7240    -3.4410    -0.0250 H     1 <1>   0.0800 
 25 H       -2.5130    -2.4940    -1.4840 H     1 <1>   0.0800 
 26 H       -4.1040    -1.6480     0.8390 H     1 <1>   0.4500 
 27 H       -5.1540    -3.5350    -0.1500 H     1 <1>   0.0800 
 28 H       -5.1040    -2.7290    -1.7020 H     1 <1>   0.0800 
 29 H       -4.1560    -0.4610    -1.8390 H     1 <1>   0.0800 
 30 H       -3.1570     0.1580    -0.5430 H     1 <1>   0.0800 
 31 H       -5.4460     1.2350    -0.8200 H     1 <1>   0.0800 
 32 H       -5.0150     0.7340     0.7830 H     1 <1>   0.0800 
 33 H       -7.6080    -3.6680    -0.3540 H     1 <1>   0.1500 
 34 H       -7.7440     1.1840     0.3150 H     1 <1>   0.1500 
 35 H      -11.8210    -3.4230     0.3030 H     1 <1>   0.0800 
 36 H      -11.5160    -1.8540    -0.4350 H     1 <1>   0.0800 
 37 H      -11.3080    -2.0760     1.3110 H     1 <1>   0.0800 
 38 H      -11.2550     1.5870     0.9610 H     1 <1>   0.0800 
 39 H       -9.9170     1.8830    -0.1420 H     1 <1>   0.0800 
 40 H       -9.6170     1.6670     1.5950 H     1 <1>   0.0800 
@<TRIPOS>BOND
  1   1   2  1   
  2   1   3  1   
  3   2   4  2   
  4   2  21  1   
  5   3   5  2   
  6   3  22  1   
  7   4   5  1   
  8   4   6  1   
  9   5  23  1   
 10   6   7  1   
 11   6  24  1   
 12   6  25  1   
 13   7   8  1   
 14   7   9  1   
 15   7  26  1   
 16   8  10  1   
 17   8  27  1   
 18   8  28  1   
 19   9  11  1   
 20   9  29  1   
 21   9  30  1   
 22  10  12  ar  
 23  10  13  ar  
 24  11  12  1   
 25  11  31  1   
 26  11  32  1   
 27  12  14  ar  
 28  13  15  ar  
 29  13  33  1   
 30  14  16  ar  
 31  14  34  1   
 32  15  16  ar  
 33  15  17  1   
 34  16  18  1   
 35  17  19  1   
 36  18  20  1   
 37  19  35  1   
 38  19  36  1   
 39  19  37  1   
 40  20  38  1   
 41  20  39  1   
 42  20  40  1   
@<TRIPOS>SUBSTRUCTURE
  1 ****  12 GROUP 4 **** **** 0

# MOE 2024.06 (io_trps.svl 2023.06)
