@<TRIPOS>MOLECULE
NONAME
41 43 1 0 0 
SMALL
USER_CHARGES


@<TRIPOS>ATOM
  1 S       -0.0930     0.2920     0.1890 S.o2  1 <1>   1.3330 
  2 O        0.4540    -0.8790    -0.4630 O.2   1 <1>  -0.6500 
  3 O       -0.0300     0.4090     1.6300 O.2   1 <1>  -0.6500 
  4 N       -1.7320     0.3780    -0.2400 N.am  1 <1>  -0.8490 
  5 C        0.5910     1.7620    -0.5910 C.3   1 <1>   0.0890 
  6 C       -2.5260     1.2160     0.6870 C.3   1 <1>   0.1960 
  7 C       -2.3510    -0.9620    -0.3280 C.3   1 <1>   0.1960 
  8 C        2.0840     1.9590    -0.3580 C.ar  1 <1>  -0.1440 
  9 C       -3.9970     1.3390     0.2480 C.3   1 <1>   0.2090 
 10 C       -3.8270    -0.9060    -0.7710 C.3   1 <1>   0.2090 
 11 C        3.0020     1.1720    -1.0350 C.ar  1 <1>  -0.1500 
 12 C        2.5360     2.9200     0.5330 C.ar  1 <1>  -0.1500 
 13 N       -4.6320    -0.0060     0.1040 N.pl3 1 <1>  -0.8380 
 14 C        4.3590     1.3490    -0.8300 C.ar  1 <1>  -0.1500 
 15 C        3.8930     3.0980     0.7380 C.ar  1 <1>  -0.1500 
 16 C       -6.0020    -0.0560    -0.0630 C.ar  1 <1>   0.4100 
 17 C        4.8060     2.3140     0.0560 C.ar  1 <1>  -0.1500 
 18 N       -6.5750     0.9510    -0.7120 N.ar  1 <1>  -0.6200 
 19 C       -6.7120    -1.1450     0.4360 C.ar  1 <1>  -0.1500 
 20 C       -7.8860     0.8650    -0.8690 C.ar  1 <1>   0.1600 
 21 C       -8.0740    -1.2230     0.2650 C.ar  1 <1>  -0.1500 
 22 C       -8.6710    -0.1780    -0.4110 C.ar  1 <1>  -0.1500 
 23 H        0.0680     2.6250    -0.2320 H     1 <1>   0.0800 
 24 H        0.4190     1.7030    -1.6480 H     1 <1>   0.0800 
 25 H       -2.1000     2.2020     0.7410 H     1 <1>   0.0800 
 26 H       -2.5050     0.7920     1.6770 H     1 <1>   0.0800 
 27 H       -2.2890    -1.4540     0.6290 H     1 <1>   0.0800 
 28 H       -1.8140    -1.5630    -1.0420 H     1 <1>   0.0800 
 29 H       -4.0470     1.8620    -0.6920 H     1 <1>   0.0800 
 30 H       -4.5440     1.9110     0.9780 H     1 <1>   0.0800 
 31 H       -4.2420    -1.8980    -0.7480 H     1 <1>   0.0800 
 32 H       -3.8780    -0.5480    -1.7850 H     1 <1>   0.0800 
 33 H        2.6680     0.4120    -1.7220 H     1 <1>   0.1500 
 34 H        1.8400     3.5350     1.0770 H     1 <1>   0.1500 
 35 H        5.0670     0.7340    -1.3580 H     1 <1>   0.1500 
 36 H        4.2410     3.8450     1.4310 H     1 <1>   0.1500 
 37 H        5.8610     2.4510     0.2160 H     1 <1>   0.1500 
 38 H       -6.1760    -1.9140     0.9580 H     1 <1>   0.1500 
 39 H       -8.3630     1.6740    -1.3940 H     1 <1>   0.1500 
 40 H       -8.6470    -2.0520     0.6410 H     1 <1>   0.1500 
 41 H       -9.7320    -0.1730    -0.5810 H     1 <1>   0.1500 
@<TRIPOS>BOND
  1   1   2  2   
  2   1   3  2   
  3   1   4  am  
  4   1   5  1   
  5   4   6  1   
  6   4   7  1   
  7   5   8  1   
  8   5  23  1   
  9   5  24  1   
 10   6   9  1   
 11   6  25  1   
 12   6  26  1   
 13   7  10  1   
 14   7  27  1   
 15   7  28  1   
 16   8  11  ar  
 17   8  12  ar  
 18   9  13  1   
 19   9  29  1   
 20   9  30  1   
 21  10  13  1   
 22  10  31  1   
 23  10  32  1   
 24  11  14  ar  
 25  11  33  1   
 26  12  15  ar  
 27  12  34  1   
 28  13  16  1   
 29  14  17  ar  
 30  14  35  1   
 31  15  17  ar  
 32  15  36  1   
 33  16  18  ar  
 34  16  19  ar  
 35  17  37  1   
 36  18  20  ar  
 37  19  21  ar  
 38  19  38  1   
 39  20  22  ar  
 40  20  39  1   
 41  21  22  ar  
 42  21  40  1   
 43  22  41  1   
@<TRIPOS>SUBSTRUCTURE
  1 ****   4 GROUP 4 **** **** 0

# MOE 2024.06 (io_trps.svl 2023.06)
