@<TRIPOS>MOLECULE
NONAME
46 47 1 0 0 
SMALL
USER_CHARGES


@<TRIPOS>ATOM
  1 N        0.0810    -0.0340    -0.0610 N.4   1 <1>  -0.9590 
  2 C       -1.0590    -1.0070     0.1450 C.3   1 <1>   0.3430 
  3 C       -0.2100     0.9330    -1.1610 C.3   1 <1>   0.3430 
  4 C        1.3330    -0.8000    -0.3650 C.3   1 <1>   0.3430 
  5 C       -2.3760    -0.4190     0.7380 C.3   1 <1>   0.3430 
  6 C       -0.9030     2.1960    -0.6450 C.3   1 <1>  -0.1600 
  7 C        2.5570     0.0770    -0.1020 C.3   1 <1>  -0.1600 
  8 N       -2.8880     0.8640     0.1200 N.4   1 <1>  -0.9590 
  9 C       -2.0030     2.0310     0.4060 C.3   1 <1>   0.3430 
 10 C        3.8730    -0.6980    -0.2680 C.3   1 <1>   0.0630 
 11 C       -4.2610     1.1540     0.6610 C.3   1 <1>   0.2630 
 12 C        5.0270     0.1950     0.1770 C.ar  1 <1>  -0.1430 
 13 C        4.0860    -1.2010    -1.7030 C.3   1 <1>  -0.2400 
 14 C        5.4060     1.3110    -0.5590 C.ar  1 <1>  -0.1500 
 15 C        5.7120    -0.0990     1.3480 C.ar  1 <1>  -0.1500 
 16 C        6.4440     2.1190    -0.1290 C.ar  1 <1>  -0.1500 
 17 C        6.7500     0.7090     1.7790 C.ar  1 <1>  -0.1500 
 18 C        7.1160     1.8190     1.0410 C.ar  1 <1>  -0.1500 
 19 H        0.2840     0.4810     0.8080 H     1 <1>   0.4500 
 20 H       -0.7310    -1.7940     0.8060 H     1 <1>   0.0800 
 21 H       -1.2930    -1.4760    -0.7970 H     1 <1>   0.0800 
 22 H       -0.8260     0.4560    -1.9060 H     1 <1>   0.0800 
 23 H        0.7060     1.2280    -1.6490 H     1 <1>   0.0800 
 24 H        1.3310    -1.1370    -1.3910 H     1 <1>   0.0800 
 25 H        1.3960    -1.6680     0.2720 H     1 <1>   0.0800 
 26 H       -2.2270    -0.2610     1.7940 H     1 <1>   0.0800 
 27 H       -3.1380    -1.1770     0.6470 H     1 <1>   0.0800 
 28 H       -1.3170     2.7140    -1.4920 H     1 <1>   0.0800 
 29 H       -0.1540     2.8530    -0.2400 H     1 <1>   0.0800 
 30 H        2.5220     0.4450     0.9090 H     1 <1>   0.0800 
 31 H        2.5710     0.9190    -0.7690 H     1 <1>   0.0800 
 32 H       -3.0020     0.7620    -0.9010 H     1 <1>   0.4500 
 33 H       -2.5880     2.9390     0.4230 H     1 <1>   0.0800 
 34 H       -1.5620     1.9180     1.3830 H     1 <1>   0.0800 
 35 H        3.8520    -1.5600     0.3780 H     1 <1>   0.0800 
 36 H       -4.2280     1.2900     1.7310 H     1 <1>   0.0800 
 37 H       -4.9350     0.3410     0.4400 H     1 <1>   0.0800 
 38 H       -4.6600     2.0520     0.2160 H     1 <1>   0.0800 
 39 H        4.0210    -0.3970    -2.4140 H     1 <1>   0.0800 
 40 H        3.3680    -1.9570    -1.9640 H     1 <1>   0.0800 
 41 H        5.0660    -1.6380    -1.7850 H     1 <1>   0.0800 
 42 H        4.9030     1.5650    -1.4730 H     1 <1>   0.1500 
 43 H        5.4480    -0.9580     1.9380 H     1 <1>   0.1500 
 44 H        6.7330     2.9810    -0.7060 H     1 <1>   0.1500 
 45 H        7.2750     0.4730     2.6890 H     1 <1>   0.1500 
 46 H        7.9240     2.4470     1.3760 H     1 <1>   0.1500 
@<TRIPOS>BOND
  1   1   2  1   
  2   1   3  1   
  3   1   4  1   
  4   1  19  1   
  5   2   5  1   
  6   2  20  1   
  7   2  21  1   
  8   3   6  1   
  9   3  22  1   
 10   3  23  1   
 11   4   7  1   
 12   4  24  1   
 13   4  25  1   
 14   5   8  1   
 15   5  26  1   
 16   5  27  1   
 17   6   9  1   
 18   6  28  1   
 19   6  29  1   
 20   7  10  1   
 21   7  30  1   
 22   7  31  1   
 23   8   9  1   
 24   8  11  1   
 25   8  32  1   
 26   9  33  1   
 27   9  34  1   
 28  10  12  1   
 29  10  13  1   
 30  10  35  1   
 31  11  36  1   
 32  11  37  1   
 33  11  38  1   
 34  12  14  ar  
 35  12  15  ar  
 36  13  39  1   
 37  13  40  1   
 38  13  41  1   
 39  14  16  ar  
 40  14  42  1   
 41  15  17  ar  
 42  15  43  1   
 43  16  18  ar  
 44  16  44  1   
 45  17  18  ar  
 46  17  45  1   
 47  18  46  1   
@<TRIPOS>SUBSTRUCTURE
  1 ****   7 GROUP 4 **** **** 0

# MOE 2024.06 (io_trps.svl 2023.06)
