@<TRIPOS>MOLECULE
NONAME
42 43 1 0 0 
SMALL
USER_CHARGES


@<TRIPOS>ATOM
  1 CL       0.1570    -0.4900     1.1820 Cl    1 <1>  -0.1770 
  2 C        1.8450    -0.1700     0.8230 C.ar  1 <1>   0.1770 
  3 C        2.4590     0.9410     1.3870 C.ar  1 <1>  -0.1440 
  4 C        2.5330    -1.0360    -0.0170 C.ar  1 <1>  -0.1440 
  5 C        3.7920     1.1870     1.0990 C.ar  1 <1>  -0.1500 
  6 C        1.6880     1.8780     2.3070 C.3   1 <1>  -0.0960 
  7 C        3.8640    -0.7720    -0.2930 C.ar  1 <1>  -0.1500 
  8 C        1.8510    -2.2510    -0.6290 C.3   1 <1>  -0.0960 
  9 C        4.4990     0.3310     0.2570 C.ar  1 <1>   0.0830 
 10 O        5.8040     0.5050    -0.0740 O.3   1 <1>  -0.3630 
 11 C        6.5360     1.6260     0.3750 C.3   1 <1>   0.1200 
 12 C        7.9580     1.5330    -0.1930 C.3   1 <1>   0.2000 
 13 O        8.4880     0.2770     0.1110 O.3   1 <1>  -0.6800 
 14 C        8.8960     2.6220     0.3690 C.3   1 <1>   0.3430 
 15 N       10.3240     2.2020     0.2280 N.4   1 <1>  -0.9590 
 16 C       11.2710     2.8470     1.1630 C.3   1 <1>   0.3430 
 17 C       10.8880     2.3460    -1.1320 C.3   1 <1>   0.3430 
 18 C       12.6400     2.5840     0.5510 C.3   1 <1>  -0.1600 
 19 C       12.3920     2.2430    -0.9230 C.3   1 <1>  -0.1600 
 20 H        4.2620     2.0450     1.5370 H     1 <1>   0.1500 
 21 H        1.3240     1.3350     3.1620 H     1 <1>   0.0800 
 22 H        0.8480     2.2980     1.7820 H     1 <1>   0.0800 
 23 H        2.3090     2.6830     2.6550 H     1 <1>   0.0800 
 24 H        4.4240    -1.4230    -0.9400 H     1 <1>   0.1500 
 25 H        1.4940    -2.9020     0.1490 H     1 <1>   0.0800 
 26 H        2.5300    -2.8040    -1.2510 H     1 <1>   0.0800 
 27 H        1.0150    -1.9390    -1.2300 H     1 <1>   0.0800 
 28 H        6.5530     1.6110     1.4510 H     1 <1>   0.0800 
 29 H        6.0410     2.5160     0.0260 H     1 <1>   0.0800 
 30 H        7.9100     1.6170    -1.2650 H     1 <1>   0.0800 
 31 H        7.7850    -0.3990    -0.0350 H     1 <1>   0.4000 
 32 H        8.6690     2.7510     1.4140 H     1 <1>   0.0800 
 33 H        8.7230     3.5630    -0.1270 H     1 <1>   0.0800 
 34 H       10.3020     1.1820     0.4260 H     1 <1>   0.4500 
 35 H       11.1920     2.4370     2.1570 H     1 <1>   0.0800 
 36 H       11.0880     3.9090     1.1940 H     1 <1>   0.0800 
 37 H       10.6450     3.3190    -1.5290 H     1 <1>   0.0800 
 38 H       10.5230     1.5800    -1.7980 H     1 <1>   0.0800 
 39 H       13.1100     1.7560     1.0530 H     1 <1>   0.0800 
 40 H       13.2710     3.4490     0.6600 H     1 <1>   0.0800 
 41 H       12.9120     2.9150    -1.5830 H     1 <1>   0.0800 
 42 H       12.7180     1.2380    -1.1340 H     1 <1>   0.0800 
@<TRIPOS>BOND
  1   1   2  1   
  2   2   3  ar  
  3   2   4  ar  
  4   3   5  ar  
  5   3   6  1   
  6   4   7  ar  
  7   4   8  1   
  8   5   9  ar  
  9   5  20  1   
 10   6  21  1   
 11   6  22  1   
 12   6  23  1   
 13   7   9  ar  
 14   7  24  1   
 15   8  25  1   
 16   8  26  1   
 17   8  27  1   
 18   9  10  1   
 19  10  11  1   
 20  11  12  1   
 21  11  28  1   
 22  11  29  1   
 23  12  13  1   
 24  12  14  1   
 25  12  30  1   
 26  13  31  1   
 27  14  15  1   
 28  14  32  1   
 29  14  33  1   
 30  15  16  1   
 31  15  17  1   
 32  15  34  1   
 33  16  18  1   
 34  16  35  1   
 35  16  36  1   
 36  17  19  1   
 37  17  37  1   
 38  17  38  1   
 39  18  19  1   
 40  18  39  1   
 41  18  40  1   
 42  19  41  1   
 43  19  42  1   
@<TRIPOS>SUBSTRUCTURE
  1 ****  11 GROUP 4 **** **** 0

# MOE 2024.06 (io_trps.svl 2023.06)
