@<TRIPOS>MOLECULE
NONAME
37 39 1 0 0 
SMALL
USER_CHARGES


@<TRIPOS>ATOM
  1 O       -1.1490    -0.4150     1.4360 O.2   1 <1>  -0.5700 
  2 C       -1.3320     0.7040     1.0040 C.2   1 <1>   0.5690 
  3 N       -0.2400     1.5210     0.9440 N.am  1 <1>  -0.3940 
  4 C       -2.7800     1.0740     0.5760 C.3   1 <1>   0.0610 
  5 O       -0.1240     2.8550     0.5090 O.3   1 <1>  -0.4360 
  6 C       -3.2450     0.0910    -0.5310 C.3   1 <1>  -0.1600 
  7 C       -3.7280     0.9090     1.7920 C.3   1 <1>  -0.1600 
  8 C       -2.9710     2.5140     0.0290 C.3   1 <1>  -0.1600 
  9 C       -4.7120     0.3360    -0.9380 C.3   1 <1>   0.0000 
 10 C       -5.2010     1.1640     1.4120 C.3   1 <1>   0.0000 
 11 C       -4.4340     2.7800    -0.3700 C.3   1 <1>  -0.0800 
 12 C       -5.6070     0.1680     0.3070 C.3   1 <1>  -0.1600 
 13 C       -4.8500     1.7790    -1.4600 C.3   1 <1>  -0.1600 
 14 C       -5.1300    -0.6600    -2.0270 C.3   1 <1>  -0.2400 
 15 C       -5.3340     2.5970     0.8630 C.3   1 <1>  -0.1600 
 16 C       -6.1010     0.9840     2.6410 C.3   1 <1>  -0.2400 
 17 H        0.6510     1.0880     1.2080 H     1 <1>   0.3700 
 18 H       -0.2560     3.4860     1.2480 H     1 <1>   0.4000 
 19 H       -3.1420    -0.9200    -0.1770 H     1 <1>   0.0800 
 20 H       -2.6060     0.1970    -1.3900 H     1 <1>   0.0800 
 21 H       -3.6340    -0.0900     2.1850 H     1 <1>   0.0800 
 22 H       -3.4300     1.5880     2.5710 H     1 <1>   0.0800 
 23 H       -2.3440     2.6610    -0.8330 H     1 <1>   0.0800 
 24 H       -2.6850     3.2300     0.7780 H     1 <1>   0.0800 
 25 H       -4.5310     3.7850    -0.7450 H     1 <1>   0.0800 
 26 H       -5.5210    -0.8390     0.6790 H     1 <1>   0.0800 
 27 H       -6.6360     0.3280     0.0360 H     1 <1>   0.0800 
 28 H       -4.2320     1.9160    -2.3300 H     1 <1>   0.0800 
 29 H       -5.8690     1.9680    -1.7500 H     1 <1>   0.0800 
 30 H       -6.1530    -0.4950    -2.3150 H     1 <1>   0.0800 
 31 H       -5.0350    -1.6700    -1.6690 H     1 <1>   0.0800 
 32 H       -4.5080    -0.5480    -2.8980 H     1 <1>   0.0800 
 33 H       -5.0570     3.3090     1.6210 H     1 <1>   0.0800 
 34 H       -6.3570     2.7920     0.5920 H     1 <1>   0.0800 
 35 H       -6.0130    -0.0150     3.0280 H     1 <1>   0.0800 
 36 H       -7.1300     1.1590     2.3810 H     1 <1>   0.0800 
 37 H       -5.8230     1.6760     3.4160 H     1 <1>   0.0800 
@<TRIPOS>BOND
  1   1   2  2   
  2   2   3  am  
  3   2   4  1   
  4   3   5  1   
  5   3  17  1   
  6   4   6  1   
  7   4   7  1   
  8   4   8  1   
  9   5  18  1   
 10   6   9  1   
 11   6  19  1   
 12   6  20  1   
 13   7  10  1   
 14   7  21  1   
 15   7  22  1   
 16   8  11  1   
 17   8  23  1   
 18   8  24  1   
 19   9  12  1   
 20   9  13  1   
 21   9  14  1   
 22  10  12  1   
 23  10  15  1   
 24  10  16  1   
 25  11  13  1   
 26  11  15  1   
 27  11  25  1   
 28  12  26  1   
 29  12  27  1   
 30  13  28  1   
 31  13  29  1   
 32  14  30  1   
 33  14  31  1   
 34  14  32  1   
 35  15  33  1   
 36  15  34  1   
 37  16  35  1   
 38  16  36  1   
 39  16  37  1   
@<TRIPOS>SUBSTRUCTURE
  1 ****   4 GROUP 4 **** **** 0

# MOE 2024.06 (io_trps.svl 2023.06)
