@<TRIPOS>MOLECULE
NONAME
41 43 1 0 0 
SMALL
USER_CHARGES


@<TRIPOS>ATOM
  1 CL      -1.2350     3.6050    -2.3060 Cl    1 <1>  -0.1770 
  2 C       -0.0220     2.9020    -1.2600 C.ar  1 <1>   0.1770 
  3 C       -0.3720     2.4120    -0.0090 C.ar  1 <1>  -0.1440 
  4 C        1.2830     2.8540    -1.7150 C.ar  1 <1>  -0.1500 
  5 C        0.6200     1.8560     0.7860 C.ar  1 <1>  -0.1500 
  6 C       -1.8110     2.4550     0.4910 C.3   1 <1>   0.0890 
  7 C        2.2640     2.3040    -0.9100 C.ar  1 <1>  -0.1500 
  8 C        1.9300     1.8050     0.3380 C.ar  1 <1>  -0.1500 
  9 S       -2.7090     0.9200     0.2240 S.o2  1 <1>   1.3330 
 10 O       -2.7260     0.5680    -1.1780 O.2   1 <1>  -0.6500 
 11 O       -2.2440    -0.0440     1.1970 O.2   1 <1>  -0.6500 
 12 N       -4.3000     1.3360     0.6450 N.am  1 <1>  -0.8490 
 13 C       -5.0600     0.1660     1.1240 C.3   1 <1>   0.1960 
 14 C       -5.0310     1.9650    -0.4740 C.3   1 <1>   0.1960 
 15 C       -6.4660     0.5610     1.6070 C.3   1 <1>   0.1400 
 16 C       -6.4400     2.4280    -0.0620 C.3   1 <1>   0.1400 
 17 N       -7.2210     1.3130     0.5550 N.am  1 <1>  -0.6600 
 18 C       -8.4810     0.9220     0.1400 C.2   1 <1>   0.7150 
 19 O       -8.8310    -0.2200     0.3840 O.2   1 <1>  -0.5700 
 20 C       -9.3990     1.7930    -0.5720 C.2   1 <1>   0.0550 
 21 O       -9.2900     3.1210    -0.5600 O.3   1 <1>  -0.2800 
 22 C      -10.4930     1.4660    -1.3160 C.2   1 <1>  -0.1500 
 23 C      -10.2680     3.6370    -1.2700 C.2   1 <1>  -0.0100 
 24 C      -11.0520     2.6600    -1.7700 C.2   1 <1>  -0.1500 
 25 H        1.5240     3.2420    -2.6880 H     1 <1>   0.1500 
 26 H        0.3800     1.4530     1.7560 H     1 <1>   0.1500 
 27 H       -2.3320     3.2590     0.0150 H     1 <1>   0.0800 
 28 H       -1.8040     2.6700     1.5420 H     1 <1>   0.0800 
 29 H        3.2840     2.2600    -1.2530 H     1 <1>   0.1500 
 30 H        2.6920     1.3710     0.9630 H     1 <1>   0.1500 
 31 H       -4.5440    -0.2920     1.9510 H     1 <1>   0.0800 
 32 H       -5.1430    -0.5680     0.3400 H     1 <1>   0.0800 
 33 H       -5.1260     1.2660    -1.2890 H     1 <1>   0.0800 
 34 H       -4.4810     2.8150    -0.8370 H     1 <1>   0.0800 
 35 H       -6.3730     1.1830     2.4790 H     1 <1>   0.0800 
 36 H       -6.9980    -0.3280     1.8970 H     1 <1>   0.0800 
 37 H       -6.9360     2.7970    -0.9410 H     1 <1>   0.0800 
 38 H       -6.3610     3.2370     0.6440 H     1 <1>   0.0800 
 39 H      -10.8680     0.4770    -1.5160 H     1 <1>   0.1500 
 40 H      -10.3380     4.7070    -1.3700 H     1 <1>   0.1500 
 41 H      -11.9290     2.7500    -2.3870 H     1 <1>   0.1500 
@<TRIPOS>BOND
  1   1   2  1   
  2   2   3  ar  
  3   2   4  ar  
  4   3   5  ar  
  5   3   6  1   
  6   4   7  ar  
  7   4  25  1   
  8   5   8  ar  
  9   5  26  1   
 10   6   9  1   
 11   6  27  1   
 12   6  28  1   
 13   7   8  ar  
 14   7  29  1   
 15   8  30  1   
 16   9  10  2   
 17   9  11  2   
 18   9  12  am  
 19  12  13  1   
 20  12  14  1   
 21  13  15  1   
 22  13  31  1   
 23  13  32  1   
 24  14  16  1   
 25  14  33  1   
 26  14  34  1   
 27  15  17  1   
 28  15  35  1   
 29  15  36  1   
 30  16  17  1   
 31  16  37  1   
 32  16  38  1   
 33  17  18  am  
 34  18  19  2   
 35  18  20  1   
 36  20  21  1   
 37  20  22  2   
 38  21  23  1   
 39  22  24  1   
 40  22  39  1   
 41  23  24  2   
 42  23  40  1   
 43  24  41  1   
@<TRIPOS>SUBSTRUCTURE
  1 ****  14 GROUP 4 **** **** 0

# MOE 2024.06 (io_trps.svl 2023.06)
