@<TRIPOS>MOLECULE
NONAME
53 54 1 0 0 
SMALL
USER_CHARGES


@<TRIPOS>ATOM
  1 S       -0.9900     1.3500    -0.0910 S.o2  1 <1>   1.4470 
  2 O       -1.6560     0.4020    -0.9580 O.2   1 <1>  -0.6500 
  3 O       -1.4900     2.7050    -0.0450 O.2   1 <1>  -0.6500 
  4 N       -1.1730     0.7630     1.4670 N.am  1 <1>  -0.9140 
  5 C        0.8010     1.3210    -0.3560 C.ar  1 <1>  -0.0090 
  6 C       -2.5420     0.3500     1.7770 C.3   1 <1>   0.3370 
  7 C        1.4940     0.1180    -0.4060 C.ar  1 <1>  -0.1500 
  8 C        1.5300     2.4960    -0.5020 C.ar  1 <1>  -0.1500 
  9 C       -3.5420     1.5440     1.8500 C.2   1 <1>   0.5690 
 10 C       -2.4670    -0.4150     3.1010 C.3   1 <1>  -0.2400 
 11 C        2.8650     0.0730    -0.5990 C.ar  1 <1>  -0.1440 
 12 C        2.8990     2.4720    -0.6950 C.ar  1 <1>  -0.1500 
 13 O       -3.4930     2.2340     2.8430 O.2   1 <1>  -0.5700 
 14 N       -4.4240     1.8640     0.8330 N.am  1 <1>  -0.6600 
 15 C        3.5780     1.2580    -0.7450 C.ar  1 <1>   0.0830 
 16 C        3.5790    -1.2710    -0.6490 C.3   1 <1>  -0.0970 
 17 C       -4.5410     1.1360    -0.4730 C.3   1 <1>   0.1400 
 18 C       -5.0730     3.2170     0.8450 C.3   1 <1>   0.1400 
 19 O        4.9200     1.1710    -0.9320 O.3   1 <1>  -0.3620 
 20 C       -5.9790     1.1560    -1.0260 C.3   1 <1>   0.3430 
 21 C       -6.4990     3.1890     0.2680 C.3   1 <1>   0.3430 
 22 C        5.7240     2.3150    -1.1100 C.3   1 <1>   0.0400 
 23 N       -6.5420     2.5470    -1.0930 N.4   1 <1>  -0.9590 
 24 C       -7.9090     2.5370    -1.6750 C.3   1 <1>   0.3430 
 25 C       -8.3020     3.9510    -2.0880 C.3   1 <1>  -0.2400 
 26 H       -0.9950     1.5670     2.0700 H     1 <1>   0.4200 
 27 H       -2.8690    -0.3590     1.0410 H     1 <1>   0.0800 
 28 H        0.9420    -0.8000    -0.2920 H     1 <1>   0.1500 
 29 H        1.0200     3.4450    -0.4660 H     1 <1>   0.1500 
 30 H       -2.1050     0.2220     3.8890 H     1 <1>   0.0800 
 31 H       -1.8130    -1.2630     3.0030 H     1 <1>   0.0800 
 32 H       -3.4440    -0.7680     3.3750 H     1 <1>   0.0800 
 33 H        3.4170     3.4050    -0.8040 H     1 <1>   0.1500 
 34 H        2.8910    -2.0850    -0.5160 H     1 <1>   0.0800 
 35 H        4.3220    -1.3170     0.1270 H     1 <1>   0.0800 
 36 H        4.0690    -1.3860    -1.6000 H     1 <1>   0.0800 
 37 H       -4.2410     0.1100    -0.3700 H     1 <1>   0.0800 
 38 H       -3.8870     1.5990    -1.1910 H     1 <1>   0.0800 
 39 H       -4.4640     3.8990     0.2770 H     1 <1>   0.0800 
 40 H       -5.1280     3.6020     1.8500 H     1 <1>   0.0800 
 41 H       -6.5980     0.5450    -0.3900 H     1 <1>   0.0800 
 42 H       -5.9780     0.7130    -2.0090 H     1 <1>   0.0800 
 43 H       -6.8670     4.2000     0.2120 H     1 <1>   0.0800 
 44 H       -7.1320     2.6450     0.9490 H     1 <1>   0.0800 
 45 H        6.7400     1.9910    -1.2470 H     1 <1>   0.0800 
 46 H        5.6530     2.9320    -0.2320 H     1 <1>   0.0800 
 47 H        5.3890     2.8450    -1.9840 H     1 <1>   0.0800 
 48 H       -5.9330     3.0970    -1.7150 H     1 <1>   0.4500 
 49 H       -8.6180     2.1470    -0.9620 H     1 <1>   0.0800 
 50 H       -7.9270     1.9040    -2.5490 H     1 <1>   0.0800 
 51 H       -8.3940     4.6010    -1.2370 H     1 <1>   0.0800 
 52 H       -9.2600     3.9190    -2.5770 H     1 <1>   0.0800 
 53 H       -7.5910     4.3600    -2.7840 H     1 <1>   0.0800 
@<TRIPOS>BOND
  1   1   2  2   
  2   1   3  2   
  3   1   4  am  
  4   1   5  1   
  5   4   6  1   
  6   4  26  1   
  7   5   7  ar  
  8   5   8  ar  
  9   6   9  1   
 10   6  10  1   
 11   6  27  1   
 12   7  11  ar  
 13   7  28  1   
 14   8  12  ar  
 15   8  29  1   
 16   9  13  2   
 17   9  14  am  
 18  10  30  1   
 19  10  31  1   
 20  10  32  1   
 21  11  15  ar  
 22  11  16  1   
 23  12  15  ar  
 24  12  33  1   
 25  14  17  1   
 26  14  18  1   
 27  15  19  1   
 28  16  34  1   
 29  16  35  1   
 30  16  36  1   
 31  17  20  1   
 32  17  37  1   
 33  17  38  1   
 34  18  21  1   
 35  18  39  1   
 36  18  40  1   
 37  19  22  1   
 38  20  23  1   
 39  20  41  1   
 40  20  42  1   
 41  21  23  1   
 42  21  43  1   
 43  21  44  1   
 44  22  45  1   
 45  22  46  1   
 46  22  47  1   
 47  23  24  1   
 48  23  48  1   
 49  24  25  1   
 50  24  49  1   
 51  24  50  1   
 52  25  51  1   
 53  25  52  1   
 54  25  53  1   
@<TRIPOS>SUBSTRUCTURE
  1 ****   1 GROUP 4 **** **** 0

# MOE 2024.06 (io_trps.svl 2023.06)
