@<TRIPOS>MOLECULE
NONAME
36 37 1 0 0 
SMALL
USER_CHARGES


@<TRIPOS>ATOM
  1 CL      -2.8340     1.4010    -1.8040 Cl    1 <1>  -0.1770 
  2 C       -1.6530     2.3960    -0.9770 C.ar  1 <1>   0.1770 
  3 C       -1.6980     2.5570     0.4030 C.ar  1 <1>  -0.1440 
  4 C       -0.6850     3.0140    -1.7500 C.ar  1 <1>  -0.1500 
  5 C       -0.7320     3.3700     0.9810 C.ar  1 <1>   0.1770 
  6 C       -2.7670     1.8620     1.2350 C.3   1 <1>   0.2540 
  7 C        0.2680     3.8190    -1.1500 C.ar  1 <1>  -0.1500 
  8 CL      -0.7120     3.6460     2.7080 Cl    1 <1>  -0.1770 
  9 C        0.2420     3.9970     0.2230 C.ar  1 <1>  -0.1500 
 10 N       -4.0900     2.4050     0.8790 N.3   1 <1>  -0.8100 
 11 C       -5.2030     1.4860     1.2170 C.3   1 <1>   0.1100 
 12 C       -4.3110     3.7780     1.3620 C.3   1 <1>   0.1100 
 13 C       -6.4870     1.8220     0.4270 C.3   1 <1>   0.3430 
 14 C       -4.8910     4.6230     0.2210 C.3   1 <1>  -0.1600 
 15 N       -6.1510     2.7170    -0.7210 N.4   1 <1>  -0.9590 
 16 C       -6.2380     4.1470    -0.3330 C.3   1 <1>   0.3430 
 17 C       -6.8810     2.3870    -1.9760 C.3   1 <1>   0.2630 
 18 H       -0.6790     2.8640    -2.8160 H     1 <1>   0.1500 
 19 H       -2.5980     1.9680     2.2930 H     1 <1>   0.0800 
 20 H       -2.7310     0.8100     1.0070 H     1 <1>   0.0800 
 21 H        1.0250     4.3020    -1.7450 H     1 <1>   0.1500 
 22 H        0.9750     4.6190     0.7070 H     1 <1>   0.1500 
 23 H       -5.4000     1.5000     2.2760 H     1 <1>   0.0800 
 24 H       -4.9200     0.4810     0.9560 H     1 <1>   0.0800 
 25 H       -3.3790     4.2240     1.6700 H     1 <1>   0.0800 
 26 H       -4.9670     3.7840     2.2170 H     1 <1>   0.0800 
 27 H       -7.2010     2.3010     1.0760 H     1 <1>   0.0800 
 28 H       -6.9250     0.9030     0.0730 H     1 <1>   0.0800 
 29 H       -4.1720     4.6630    -0.5790 H     1 <1>   0.0800 
 30 H       -5.0130     5.6300     0.5760 H     1 <1>   0.0800 
 31 H       -5.1270     2.5480    -0.8320 H     1 <1>   0.4500 
 32 H       -6.4860     4.7460    -1.1950 H     1 <1>   0.0800 
 33 H       -7.0120     4.2840     0.4050 H     1 <1>   0.0800 
 34 H       -7.9390     2.5460    -1.8470 H     1 <1>   0.0800 
 35 H       -6.7130     1.3560    -2.2430 H     1 <1>   0.0800 
 36 H       -6.5310     3.0100    -2.7830 H     1 <1>   0.0800 
@<TRIPOS>BOND
  1   1   2  1   
  2   2   3  ar  
  3   2   4  ar  
  4   3   5  ar  
  5   3   6  1   
  6   4   7  ar  
  7   4  18  1   
  8   5   8  1   
  9   5   9  ar  
 10   6  10  1   
 11   6  19  1   
 12   6  20  1   
 13   7   9  ar  
 14   7  21  1   
 15   9  22  1   
 16  10  11  1   
 17  10  12  1   
 18  11  13  1   
 19  11  23  1   
 20  11  24  1   
 21  12  14  1   
 22  12  25  1   
 23  12  26  1   
 24  13  15  1   
 25  13  27  1   
 26  13  28  1   
 27  14  16  1   
 28  14  29  1   
 29  14  30  1   
 30  15  16  1   
 31  15  17  1   
 32  15  31  1   
 33  16  32  1   
 34  16  33  1   
 35  17  34  1   
 36  17  35  1   
 37  17  36  1   
@<TRIPOS>SUBSTRUCTURE
  1 ****  10 GROUP 4 **** **** 0

# MOE 2024.06 (io_trps.svl 2023.06)
