@<TRIPOS>MOLECULE
NONAME
33 34 1 0 0 
SMALL
USER_CHARGES


@<TRIPOS>ATOM
  1 S       -0.3190    -0.2010    -1.0180 S.o2  1 <1>   1.4470 
  2 O       -0.9150    -1.4770    -1.3510 O.2   1 <1>  -0.6500 
  3 O        0.4410     0.5070    -2.0270 O.2   1 <1>  -0.6500 
  4 N        0.7360    -0.4670     0.2880 N.am  1 <1>  -0.8490 
  5 C       -1.5910     0.8880    -0.3180 C.ar  1 <1>  -0.0090 
  6 C        1.5050     0.7250     0.6680 C.3   1 <1>   0.1160 
  7 C        1.6460    -1.5870     0.0320 C.3   1 <1>   0.1160 
  8 C       -1.4590     2.2680    -0.3840 C.ar  1 <1>  -0.1500 
  9 C       -2.7050     0.3730     0.3350 C.ar  1 <1>  -0.1500 
 10 C       -2.3850     3.1310     0.1910 C.ar  1 <1>   0.1170 
 11 C       -3.6520     1.2100     0.8990 C.ar  1 <1>  -0.1500 
 12 N       -2.1890     4.5290     0.1410 N.am  1 <1>  -0.2370 
 13 C       -3.4920     2.5810     0.8270 C.ar  1 <1>  -0.1500 
 14 C       -1.0080     5.1610     0.4330 C.2   1 <1>   0.5690 
 15 C       -3.1420     5.4570    -0.1910 C.2   1 <1>   0.5690 
 16 O        0.0230     4.6350     0.7670 O.2   1 <1>  -0.5700 
 17 C       -1.1280     6.6600     0.2870 C.3   1 <1>  -0.0990 
 18 O       -4.2890     5.2380    -0.4820 O.2   1 <1>  -0.5700 
 19 C       -2.5870     6.8620    -0.1470 C.3   1 <1>  -0.0990 
 20 H        0.8410     1.5290     0.9400 H     1 <1>   0.0800 
 21 H        2.1300     1.0500    -0.1470 H     1 <1>   0.0800 
 22 H        2.1260     0.5070     1.5200 H     1 <1>   0.0800 
 23 H        1.0800    -2.4860    -0.1500 H     1 <1>   0.0800 
 24 H        2.2780    -1.7550     0.8870 H     1 <1>   0.0800 
 25 H        2.2590    -1.3830    -0.8300 H     1 <1>   0.0800 
 26 H       -0.6030     2.6810    -0.8900 H     1 <1>   0.1500 
 27 H       -2.8290    -0.6950     0.4010 H     1 <1>   0.1500 
 28 H       -4.5130     0.7930     1.3940 H     1 <1>   0.1500 
 29 H       -4.2320     3.2250     1.2690 H     1 <1>   0.1500 
 30 H       -0.4400     7.0120    -0.4600 H     1 <1>   0.0800 
 31 H       -0.9250     7.1370     1.2290 H     1 <1>   0.0800 
 32 H       -3.1350     7.4520     0.5650 H     1 <1>   0.0800 
 33 H       -2.6520     7.3100    -1.1230 H     1 <1>   0.0800 
@<TRIPOS>BOND
  1   1   2  2   
  2   1   3  2   
  3   1   4  am  
  4   1   5  1   
  5   4   6  1   
  6   4   7  1   
  7   5   8  ar  
  8   5   9  ar  
  9   6  20  1   
 10   6  21  1   
 11   6  22  1   
 12   7  23  1   
 13   7  24  1   
 14   7  25  1   
 15   8  10  ar  
 16   8  26  1   
 17   9  11  ar  
 18   9  27  1   
 19  10  12  1   
 20  10  13  ar  
 21  11  13  ar  
 22  11  28  1   
 23  12  14  am  
 24  12  15  am  
 25  13  29  1   
 26  14  16  2   
 27  14  17  1   
 28  15  18  2   
 29  15  19  1   
 30  17  19  1   
 31  17  30  1   
 32  17  31  1   
 33  19  32  1   
 34  19  33  1   
@<TRIPOS>SUBSTRUCTURE
  1 ****   8 GROUP 4 **** **** 0

# MOE 2024.06 (io_trps.svl 2023.06)
