@<TRIPOS>MOLECULE
NONAME
54 57 1 0 0 
SMALL
USER_CHARGES


@<TRIPOS>ATOM
  1 S       -0.1970    -0.4670     1.6330 S.3   1 <1>  -0.2860 
  2 C       -0.7440     1.1180     0.9780 C.2   1 <1>   0.2420 
  3 C        1.4800    -0.1390     2.3740 C.3   1 <1>   0.1310 
  4 N       -0.0400     2.1910     1.0460 N.2   1 <1>  -0.3380 
  5 N       -1.9220     1.2760     0.3650 N.pl3 1 <1>   0.3260 
  6 C        2.5480    -1.0040     1.7120 C.2   1 <1>   0.5690 
  7 N       -0.7580     3.1340     0.4460 N.2   1 <1>  -0.3380 
  8 C       -2.9720     0.3370     0.1770 C.ar  1 <1>  -0.0230 
  9 C       -1.8740     2.5930     0.0350 C.2   1 <1>   0.1330 
 10 O        2.6970    -2.1040     2.1890 O.2   1 <1>  -0.5700 
 11 N        3.2990    -0.5320     0.6520 N.am  1 <1>  -0.6600 
 12 C       -4.2310     0.5680     0.7240 C.ar  1 <1>  -0.1500 
 13 C       -2.7670    -0.8180    -0.5710 C.ar  1 <1>  -0.1500 
 14 C       -2.9110     3.3150    -0.6640 C.ar  1 <1>   0.0530 
 15 C        2.7820     0.5520    -0.2420 C.3   1 <1>   0.2200 
 16 C        4.4670    -1.2470     0.0490 C.3   1 <1>   0.2200 
 17 C       -5.2630    -0.3300     0.5200 C.ar  1 <1>  -0.1500 
 18 C       -3.7990    -1.7170    -0.7720 C.ar  1 <1>  -0.1500 
 19 C       -3.1990     4.6370    -0.3550 C.ar  1 <1>  -0.1500 
 20 C       -3.6870     2.7790    -1.6860 C.ar  1 <1>  -0.1500 
 21 C        2.9800     0.2080    -1.7350 C.3   1 <1>  -0.1600 
 22 C        3.4490     1.8790     0.1180 C.3   1 <1>  -0.2400 
 23 C        3.9700    -2.0610    -1.1570 C.3   1 <1>  -0.1600 
 24 C        5.3110    -2.0780     1.0190 C.3   1 <1>  -0.2400 
 25 C       -5.0480    -1.4730    -0.2290 C.ar  1 <1>  -0.1500 
 26 C       -4.2000     5.3140    -1.0240 C.ar  1 <1>   0.1600 
 27 C       -4.6670     3.5400    -2.2930 C.ar  1 <1>   0.1600 
 28 C        2.9070    -1.3080    -1.9860 C.3   1 <1>  -0.1600 
 29 N       -4.9460     4.7950    -1.9840 N.ar  1 <1>  -0.6200 
 30 H        1.4070    -0.3940     3.4140 H     1 <1>   0.0800 
 31 H        1.7090     0.9030     2.2860 H     1 <1>   0.0800 
 32 H       -4.4120     1.4530     1.3100 H     1 <1>   0.1500 
 33 H       -1.7990    -1.0230    -0.9960 H     1 <1>   0.1500 
 34 H        1.7240     0.6480    -0.0930 H     1 <1>   0.0800 
 35 H        5.1330    -0.4870    -0.3250 H     1 <1>   0.0800 
 36 H       -6.2350    -0.1420     0.9450 H     1 <1>   0.1500 
 37 H       -3.6310    -2.6100    -1.3500 H     1 <1>   0.1500 
 38 H       -2.6380     5.1380     0.4120 H     1 <1>   0.1500 
 39 H       -3.5330     1.7700    -2.0190 H     1 <1>   0.1500 
 40 H        3.9330     0.5740    -2.0750 H     1 <1>   0.0800 
 41 H        2.2260     0.7130    -2.3130 H     1 <1>   0.0800 
 42 H        4.5100     1.8310    -0.0470 H     1 <1>   0.0800 
 43 H        3.2640     2.1270     1.1470 H     1 <1>   0.0800 
 44 H        3.0410     2.6660    -0.4910 H     1 <1>   0.0800 
 45 H        3.5550    -2.9920    -0.8140 H     1 <1>   0.0800 
 46 H        4.8160    -2.2930    -1.7790 H     1 <1>   0.0800 
 47 H        4.8070    -2.9860     1.2960 H     1 <1>   0.0800 
 48 H        5.5320    -1.5060     1.9010 H     1 <1>   0.0800 
 49 H        6.2360    -2.3510     0.5470 H     1 <1>   0.0800 
 50 H       -5.8510    -2.1730    -0.3870 H     1 <1>   0.1500 
 51 H       -4.3980     6.3390    -0.7580 H     1 <1>   0.1500 
 52 H       -5.2560     3.0940    -3.0780 H     1 <1>   0.1500 
 53 H        3.0340    -1.5240    -3.0330 H     1 <1>   0.0800 
 54 H        1.9310    -1.6550    -1.6920 H     1 <1>   0.0800 
@<TRIPOS>BOND
  1   1   2  1   
  2   1   3  1   
  3   2   4  2   
  4   2   5  1   
  5   3   6  1   
  6   3  30  1   
  7   3  31  1   
  8   4   7  1   
  9   5   8  1   
 10   5   9  1   
 11   6  10  2   
 12   6  11  am  
 13   7   9  2   
 14   8  12  ar  
 15   8  13  ar  
 16   9  14  1   
 17  11  15  1   
 18  11  16  1   
 19  12  17  ar  
 20  12  32  1   
 21  13  18  ar  
 22  13  33  1   
 23  14  19  ar  
 24  14  20  ar  
 25  15  21  1   
 26  15  22  1   
 27  15  34  1   
 28  16  23  1   
 29  16  24  1   
 30  16  35  1   
 31  17  25  ar  
 32  17  36  1   
 33  18  25  ar  
 34  18  37  1   
 35  19  26  ar  
 36  19  38  1   
 37  20  27  ar  
 38  20  39  1   
 39  21  28  1   
 40  21  40  1   
 41  21  41  1   
 42  22  42  1   
 43  22  43  1   
 44  22  44  1   
 45  23  28  1   
 46  23  45  1   
 47  23  46  1   
 48  24  47  1   
 49  24  48  1   
 50  24  49  1   
 51  25  50  1   
 52  26  29  ar  
 53  26  51  1   
 54  27  29  ar  
 55  27  52  1   
 56  28  53  1   
 57  28  54  1   
@<TRIPOS>SUBSTRUCTURE
  1 ****   2 GROUP 4 **** **** 0

# MOE 2024.06 (io_trps.svl 2023.06)
