@<TRIPOS>MOLECULE
NONAME
41 42 1 0 0 
SMALL
USER_CHARGES


@<TRIPOS>ATOM
  1 S        0.0680     0.8700    -1.0880 S.3   1 <1>  -0.0800 
  2 C        1.5180     0.9600    -0.0930 C.2   1 <1>  -0.0450 
  3 C       -0.3130     2.5490    -0.8350 C.2   1 <1>  -0.1400 
  4 C        1.6350     2.2300     0.3910 C.2   1 <1>   0.1250 
  5 C        2.2980    -0.2330     0.0600 C.2   1 <1>   0.8050 
  6 C        0.6080     3.1360    -0.0270 C.2   1 <1>  -0.0860 
  7 C       -1.5660     3.0550    -1.5270 C.3   1 <1>  -0.0600 
  8 N        2.6310     2.6570     1.2410 N.2   1 <1>  -0.5750 
  9 O        1.7900    -1.3240     0.2200 O.2   1 <1>  -0.5700 
 10 O        3.6340    -0.2190    -0.0190 O.3   1 <1>  -0.4300 
 11 C        0.6920     4.4890     0.4600 C.2   1 <1>   0.7160 
 12 C        2.6630     3.8620     1.6570 C.2   1 <1>   0.4490 
 13 C        4.3570     0.7780    -0.7030 C.3   1 <1>   0.1200 
 14 O       -0.1320     5.3290     0.1520 O.2   1 <1>  -0.5700 
 15 N        1.7320     4.8260     1.3020 N.am  1 <1>  -0.4200 
 16 C        3.7980     4.2320     2.5950 C.3   1 <1>  -0.1790 
 17 C        5.6740     0.1640    -1.1650 C.3   1 <1>  -0.2400 
 18 C        1.8630     6.2600     1.7370 C.3   1 <1>   0.2010 
 19 C        2.8470     7.0390     0.8770 C.2   1 <1>   0.6590 
 20 O        3.8710     7.4690     1.3430 O.2   1 <1>  -0.5700 
 21 O        2.5170     7.2100    -0.3970 O.3   1 <1>  -0.4300 
 22 C        3.3120     7.9370    -1.3080 C.3   1 <1>   0.1200 
 23 C        2.9510     9.4170    -1.2020 C.3   1 <1>  -0.2400 
 24 H       -1.4750     2.9210    -2.5900 H     1 <1>   0.0800 
 25 H       -1.7300     4.0980    -1.3290 H     1 <1>   0.0800 
 26 H       -2.4210     2.5040    -1.1810 H     1 <1>   0.0800 
 27 H        4.5440     1.5930    -0.0260 H     1 <1>   0.0800 
 28 H        3.7820     1.1200    -1.5470 H     1 <1>   0.0800 
 29 H        4.4120     3.3700     2.7870 H     1 <1>   0.0800 
 30 H        4.4220     4.9880     2.1560 H     1 <1>   0.0800 
 31 H        3.4130     4.5770     3.5360 H     1 <1>   0.0800 
 32 H        6.2380    -0.1800    -0.3170 H     1 <1>   0.0800 
 33 H        6.2560     0.9000    -1.6890 H     1 <1>   0.0800 
 34 H        5.4850    -0.6610    -1.8280 H     1 <1>   0.0800 
 35 H        2.1860     6.3060     2.7600 H     1 <1>   0.0800 
 36 H        0.9130     6.7590     1.6930 H     1 <1>   0.0800 
 37 H        3.0950     7.5680    -2.2960 H     1 <1>   0.0800 
 38 H        4.3530     7.7680    -1.0890 H     1 <1>   0.0800 
 39 H        1.9050     9.5610    -1.4060 H     1 <1>   0.0800 
 40 H        3.5200     9.9790    -1.9210 H     1 <1>   0.0800 
 41 H        3.1840     9.7900    -0.2210 H     1 <1>   0.0800 
@<TRIPOS>BOND
  1   1   2  1   
  2   1   3  1   
  3   2   4  2   
  4   2   5  1   
  5   3   6  2   
  6   3   7  1   
  7   4   6  1   
  8   4   8  1   
  9   5   9  2   
 10   5  10  1   
 11   6  11  1   
 12   7  24  1   
 13   7  25  1   
 14   7  26  1   
 15   8  12  2   
 16  10  13  1   
 17  11  14  2   
 18  11  15  am  
 19  12  15  1   
 20  12  16  1   
 21  13  17  1   
 22  13  27  1   
 23  13  28  1   
 24  15  18  1   
 25  16  29  1   
 26  16  30  1   
 27  16  31  1   
 28  17  32  1   
 29  17  33  1   
 30  17  34  1   
 31  18  19  1   
 32  18  35  1   
 33  18  36  1   
 34  19  20  2   
 35  19  21  1   
 36  21  22  1   
 37  22  23  1   
 38  22  37  1   
 39  22  38  1   
 40  23  39  1   
 41  23  40  1   
 42  23  41  1   
@<TRIPOS>SUBSTRUCTURE
  1 ****   4 GROUP 4 **** **** 0

# MOE 2024.06 (io_trps.svl 2023.06)
