@<TRIPOS>MOLECULE
NONAME
47 49 1 0 0 
SMALL
USER_CHARGES


@<TRIPOS>ATOM
  1 O       -1.4720     0.9820    -0.6120 O.2   1 <1>  -0.5700 
  2 C       -1.3180     1.5260     0.4640 C.2   1 <1>   0.6900 
  3 N       -2.3630     1.5500     1.3390 N.am  1 <1>  -0.6600 
  4 N       -0.1690     2.1540     0.8330 N.am  1 <1>  -0.5470 
  5 C       -3.1770     2.7970     1.3670 C.3   1 <1>   0.1400 
  6 C       -3.1920     0.3140     1.4460 C.3   1 <1>   0.1400 
  7 C        1.0290     2.4040     0.1460 C.ar  1 <1>   0.1170 
  8 C       -4.2270     2.7670     0.2370 C.3   1 <1>   0.3430 
  9 C       -4.2480     0.2710     0.3210 C.3   1 <1>   0.3430 
 10 C        1.1430     2.3430    -1.2410 C.ar  1 <1>  -0.1500 
 11 C        2.1570     2.7450     0.8840 C.ar  1 <1>  -0.1500 
 12 N       -5.0830     1.5240     0.2770 N.4   1 <1>  -0.9590 
 13 C        2.3470     2.6100    -1.8670 C.ar  1 <1>  -0.1500 
 14 C        3.3630     3.0140     0.2610 C.ar  1 <1>  -0.1500 
 15 C       -6.0280     1.4930    -0.8720 C.3   1 <1>   0.4860 
 16 C        3.4600     2.9470    -1.1170 C.ar  1 <1>  -0.1500 
 17 C       -6.9630     2.6790    -0.7510 C.ar  1 <1>  -0.1440 
 18 C       -7.9820     2.6770     0.1900 C.ar  1 <1>  -0.1500 
 19 C       -6.8000     3.7830    -1.5760 C.ar  1 <1>  -0.1500 
 20 C       -8.8180     3.7730     0.3120 C.ar  1 <1>  -0.1500 
 21 C       -7.6380     4.8760    -1.4490 C.ar  1 <1>  -0.1500 
 22 C       -8.6490     4.8780    -0.5050 C.ar  1 <1>  -0.1440 
 23 C       -9.5690     6.0790    -0.3680 C.3   1 <1>  -0.0970 
 24 H       -0.1520     2.3870     1.8210 H     1 <1>   0.3700 
 25 H       -2.5360     3.6530     1.2330 H     1 <1>   0.0800 
 26 H       -3.6610     2.8940     2.3230 H     1 <1>   0.0800 
 27 H       -3.6710     0.2800     2.4090 H     1 <1>   0.0800 
 28 H       -2.5550    -0.5510     1.3650 H     1 <1>   0.0800 
 29 H       -3.7050     2.8130    -0.7060 H     1 <1>   0.0800 
 30 H       -4.8490     3.6450     0.3120 H     1 <1>   0.0800 
 31 H       -4.8790    -0.5910     0.4610 H     1 <1>   0.0800 
 32 H       -3.7270     0.1500    -0.6160 H     1 <1>   0.0800 
 33 H        0.2930     2.0870    -1.8440 H     1 <1>   0.1500 
 34 H        2.1000     2.7990     1.9550 H     1 <1>   0.1500 
 35 H       -5.6560     1.5790     1.1270 H     1 <1>   0.4500 
 36 H        2.4180     2.5560    -2.9400 H     1 <1>   0.1500 
 37 H        4.2280     3.2750     0.8470 H     1 <1>   0.1500 
 38 H       -6.6050     0.5830    -0.8580 H     1 <1>   0.0800 
 39 H       -5.4860     1.5420    -1.8030 H     1 <1>   0.0800 
 40 H        4.3970     3.1540    -1.6050 H     1 <1>   0.1500 
 41 H       -8.1470     1.8300     0.8340 H     1 <1>   0.1500 
 42 H       -6.0270     3.8080    -2.3260 H     1 <1>   0.1500 
 43 H       -9.6070     3.7650     1.0460 H     1 <1>   0.1500 
 44 H       -7.5030     5.7300    -2.0930 H     1 <1>   0.1500 
 45 H      -10.5480     5.7690    -0.0460 H     1 <1>   0.0800 
 46 H       -9.6700     6.5870    -1.3100 H     1 <1>   0.0800 
 47 H       -9.1680     6.7660     0.3550 H     1 <1>   0.0800 
@<TRIPOS>BOND
  1   1   2  2   
  2   2   3  am  
  3   2   4  am  
  4   3   5  1   
  5   3   6  1   
  6   4   7  1   
  7   4  24  1   
  8   5   8  1   
  9   5  25  1   
 10   5  26  1   
 11   6   9  1   
 12   6  27  1   
 13   6  28  1   
 14   7  10  ar  
 15   7  11  ar  
 16   8  12  1   
 17   8  29  1   
 18   8  30  1   
 19   9  12  1   
 20   9  31  1   
 21   9  32  1   
 22  10  13  ar  
 23  10  33  1   
 24  11  14  ar  
 25  11  34  1   
 26  12  15  1   
 27  12  35  1   
 28  13  16  ar  
 29  13  36  1   
 30  14  16  ar  
 31  14  37  1   
 32  15  17  1   
 33  15  38  1   
 34  15  39  1   
 35  16  40  1   
 36  17  18  ar  
 37  17  19  ar  
 38  18  20  ar  
 39  18  41  1   
 40  19  21  ar  
 41  19  42  1   
 42  20  22  ar  
 43  20  43  1   
 44  21  22  ar  
 45  21  44  1   
 46  22  23  1   
 47  23  45  1   
 48  23  46  1   
 49  23  47  1   
@<TRIPOS>SUBSTRUCTURE
  1 ****   8 GROUP 4 **** **** 0

# MOE 2024.06 (io_trps.svl 2023.06)
