@<TRIPOS>MOLECULE
NONAME
46 48 1 0 0 
SMALL
USER_CHARGES


@<TRIPOS>ATOM
  1 F       -0.8580    -1.0710     2.1140 F     1 <1>  -0.1900 
  2 C       -2.0050    -1.3710     1.5620 C.ar  1 <1>   0.1900 
  3 C       -2.0410    -1.6560     0.2110 C.ar  1 <1>  -0.1500 
  4 C       -3.1400    -1.3910     2.3490 C.ar  1 <1>  -0.1500 
  5 C       -3.2590    -1.9730    -0.3660 C.ar  1 <1>  -0.1500 
  6 C       -4.3510    -1.7090     1.7570 C.ar  1 <1>  -0.1500 
  7 C       -4.4270    -2.0070     0.3950 C.ar  1 <1>   0.1170 
  8 N       -5.6340    -2.3230    -0.2480 N.am  1 <1>  -0.5470 
  9 C       -6.8100    -2.8200     0.2470 C.2   1 <1>   0.5690 
 10 O       -6.9710    -3.1110     1.4070 O.2   1 <1>  -0.5700 
 11 C       -7.9620    -3.0290    -0.7350 C.3   1 <1>  -0.0190 
 12 C       -9.2650    -2.3760    -0.2320 C.3   1 <1>  -0.1600 
 13 C       -8.1910    -4.5270    -1.0090 C.3   1 <1>  -0.1600 
 14 C      -10.4360    -2.6290    -1.1860 C.3   1 <1>   0.1400 
 15 C       -9.3620    -4.7570    -1.9680 C.3   1 <1>   0.1400 
 16 N      -10.5800    -4.0910    -1.4310 N.am  1 <1>  -0.6600 
 17 C      -11.7340    -4.8000    -1.1560 C.2   1 <1>   0.5440 
 18 O      -11.7940    -5.9790    -1.4520 O.2   1 <1>  -0.5700 
 19 C      -12.8760    -4.1680    -0.5250 C.ar  1 <1>   0.0860 
 20 C      -13.0410    -4.1450     0.8650 C.ar  1 <1>  -0.1430 
 21 C      -13.8430    -3.5450    -1.3120 C.ar  1 <1>  -0.1500 
 22 C      -14.1300    -3.5000     1.4280 C.ar  1 <1>  -0.1500 
 23 C      -12.0270    -4.8350     1.7690 C.3   1 <1>  -0.0970 
 24 C      -14.9300    -2.9050    -0.7470 C.ar  1 <1>  -0.1500 
 25 C      -15.0720    -2.8800     0.6270 C.ar  1 <1>  -0.1500 
 26 H       -1.1360    -1.6300    -0.3680 H     1 <1>   0.1500 
 27 H       -3.0760    -1.1640     3.3970 H     1 <1>   0.1500 
 28 H       -3.2980    -2.2000    -1.4150 H     1 <1>   0.1500 
 29 H       -5.2380    -1.7210     2.3630 H     1 <1>   0.1500 
 30 H       -5.6120    -2.2010    -1.2580 H     1 <1>   0.3700 
 31 H       -7.7030    -2.5580    -1.6670 H     1 <1>   0.0800 
 32 H       -9.1210    -1.3170    -0.1200 H     1 <1>   0.0800 
 33 H       -9.5190    -2.7710     0.7360 H     1 <1>   0.0800 
 34 H       -8.3990    -5.0370    -0.0830 H     1 <1>   0.0800 
 35 H       -7.3010    -4.9630    -1.4260 H     1 <1>   0.0800 
 36 H      -10.2550    -2.1370    -2.1260 H     1 <1>   0.0800 
 37 H      -11.3340    -2.2140    -0.7640 H     1 <1>   0.0800 
 38 H       -9.5230    -5.8150    -2.0860 H     1 <1>   0.0800 
 39 H       -9.1370    -4.3470    -2.9370 H     1 <1>   0.0800 
 40 H      -13.7330    -3.5700    -2.3820 H     1 <1>   0.1500 
 41 H      -14.2560    -3.4800     2.4970 H     1 <1>   0.1500 
 42 H      -11.0530    -4.4000     1.6380 H     1 <1>   0.0800 
 43 H      -11.9710    -5.8800     1.5230 H     1 <1>   0.0800 
 44 H      -12.3030    -4.7450     2.8040 H     1 <1>   0.0800 
 45 H      -15.6640    -2.4290    -1.3740 H     1 <1>   0.1500 
 46 H      -15.9160    -2.3820     1.0740 H     1 <1>   0.1500 
@<TRIPOS>BOND
  1   1   2  1   
  2   2   3  ar  
  3   2   4  ar  
  4   3   5  ar  
  5   3  26  1   
  6   4   6  ar  
  7   4  27  1   
  8   5   7  ar  
  9   5  28  1   
 10   6   7  ar  
 11   6  29  1   
 12   7   8  1   
 13   8   9  am  
 14   8  30  1   
 15   9  10  2   
 16   9  11  1   
 17  11  12  1   
 18  11  13  1   
 19  11  31  1   
 20  12  14  1   
 21  12  32  1   
 22  12  33  1   
 23  13  15  1   
 24  13  34  1   
 25  13  35  1   
 26  14  16  1   
 27  14  36  1   
 28  14  37  1   
 29  15  16  1   
 30  15  38  1   
 31  15  39  1   
 32  16  17  am  
 33  17  18  2   
 34  17  19  1   
 35  19  20  ar  
 36  19  21  ar  
 37  20  22  ar  
 38  20  23  1   
 39  21  24  ar  
 40  21  40  1   
 41  22  25  ar  
 42  22  41  1   
 43  23  42  1   
 44  23  43  1   
 45  23  44  1   
 46  24  25  ar  
 47  24  45  1   
 48  25  46  1   
@<TRIPOS>SUBSTRUCTURE
  1 ****  11 GROUP 4 **** **** 0

# MOE 2024.06 (io_trps.svl 2023.06)
