@<TRIPOS>MOLECULE
NONAME
41 43 1 0 0 
SMALL
USER_CHARGES


@<TRIPOS>ATOM
  1 CL       1.6840     1.4740    -3.1600 Cl    1 <1>  -0.1770 
  2 C        2.3050     1.5020    -1.5290 C.ar  1 <1>   0.1770 
  3 C        3.5260     0.9170    -1.2640 C.ar  1 <1>  -0.1500 
  4 C        1.5620     2.1090    -0.5330 C.ar  1 <1>  -0.1500 
  5 C        4.0300     0.9330     0.0310 C.ar  1 <1>   0.1000 
  6 C        2.0600     2.1280     0.7590 C.ar  1 <1>  -0.1500 
  7 N        5.2550     0.3540     0.3410 N.pl3 1 <1>  -0.8380 
  8 C        3.2850     1.5430     1.0340 C.ar  1 <1>  -0.1500 
  9 C        6.4660     1.0060    -0.2400 C.3   1 <1>   0.2090 
 10 C        5.2990    -1.1360     0.3450 C.3   1 <1>   0.2090 
 11 C        7.7470     0.4870     0.4470 C.3   1 <1>   0.3430 
 12 C        6.5860    -1.6420     1.0320 C.3   1 <1>   0.3430 
 13 N        7.8350    -1.0230     0.4530 N.4   1 <1>  -0.9590 
 14 C        9.0600    -1.4960     1.1510 C.3   1 <1>   0.4860 
 15 C       10.2710    -0.9930     0.3890 C.ar  1 <1>  -0.1430 
 16 C       10.6140    -1.5630    -0.8310 C.ar  1 <1>  -0.1500 
 17 C       11.0420     0.0430     0.9030 C.ar  1 <1>  -0.1500 
 18 C       11.7070    -1.0900    -1.5350 C.ar  1 <1>  -0.1500 
 19 C       12.1370     0.5140     0.2000 C.ar  1 <1>  -0.1500 
 20 C       12.4630    -0.0530    -1.0200 C.ar  1 <1>   0.0830 
 21 O       13.5170     0.3900    -1.7180 O.3   1 <1>  -0.5330 
 22 H        4.0750     0.4540    -2.0610 H     1 <1>   0.1500 
 23 H        0.6140     2.5570    -0.7680 H     1 <1>   0.1500 
 24 H        1.4950     2.5960     1.5470 H     1 <1>   0.1500 
 25 H        3.6740     1.5570     2.0350 H     1 <1>   0.1500 
 26 H        6.3940     2.0720    -0.1030 H     1 <1>   0.0800 
 27 H        6.5130     0.8120    -1.2980 H     1 <1>   0.0800 
 28 H        5.2510    -1.5040    -0.6650 H     1 <1>   0.0800 
 29 H        4.4390    -1.5130     0.8750 H     1 <1>   0.0800 
 30 H        7.7500     0.8520     1.4600 H     1 <1>   0.0800 
 31 H        8.6040     0.9040    -0.0560 H     1 <1>   0.0800 
 32 H        6.6300    -2.7150     0.9440 H     1 <1>   0.0800 
 33 H        6.5170    -1.3990     2.0790 H     1 <1>   0.0800 
 34 H        7.9220    -1.3150    -0.5280 H     1 <1>   0.4500 
 35 H        9.0820    -2.5730     1.1800 H     1 <1>   0.0800 
 36 H        9.0810    -1.1260     2.1640 H     1 <1>   0.0800 
 37 H       10.0490    -2.3790    -1.2480 H     1 <1>   0.1500 
 38 H       10.8060     0.4910     1.8540 H     1 <1>   0.1500 
 39 H       11.9860    -1.5210    -2.4820 H     1 <1>   0.1500 
 40 H       12.7330     1.3150     0.6010 H     1 <1>   0.1500 
 41 H       14.0210     1.0930    -1.2690 H     1 <1>   0.4500 
@<TRIPOS>BOND
  1   1   2  1   
  2   2   3  ar  
  3   2   4  ar  
  4   3   5  ar  
  5   3  22  1   
  6   4   6  ar  
  7   4  23  1   
  8   5   7  1   
  9   5   8  ar  
 10   6   8  ar  
 11   6  24  1   
 12   7   9  1   
 13   7  10  1   
 14   8  25  1   
 15   9  11  1   
 16   9  26  1   
 17   9  27  1   
 18  10  12  1   
 19  10  28  1   
 20  10  29  1   
 21  11  13  1   
 22  11  30  1   
 23  11  31  1   
 24  12  13  1   
 25  12  32  1   
 26  12  33  1   
 27  13  14  1   
 28  13  34  1   
 29  14  15  1   
 30  14  35  1   
 31  14  36  1   
 32  15  16  ar  
 33  15  17  ar  
 34  16  18  ar  
 35  16  37  1   
 36  17  19  ar  
 37  17  38  1   
 38  18  20  ar  
 39  18  39  1   
 40  19  20  ar  
 41  19  40  1   
 42  20  21  1   
 43  21  41  1   
@<TRIPOS>SUBSTRUCTURE
  1 ****  11 GROUP 4 **** **** 0

# MOE 2024.06 (io_trps.svl 2023.06)
