@<TRIPOS>MOLECULE
NONAME
29 29 1 0 0 
SMALL
USER_CHARGES


@<TRIPOS>ATOM
  1 F       -0.9890     0.5320     1.2320 F     1 <1>  -0.1900 
  2 C       -1.9270     0.9690     0.4340 C.ar  1 <1>   0.1900 
  3 C       -3.2150     0.5060     0.6090 C.ar  1 <1>  -0.1500 
  4 C       -1.5890     1.8760    -0.5520 C.ar  1 <1>  -0.1500 
  5 C       -4.2220     0.9610    -0.2340 C.ar  1 <1>   0.1170 
  6 C       -2.5900     2.3340    -1.3910 C.ar  1 <1>  -0.1500 
  7 N       -5.5300     0.4930    -0.0360 N.am  1 <1>  -0.5470 
  8 C       -3.8900     1.8810    -1.2280 C.ar  1 <1>  -0.1500 
  9 C       -6.5720     0.3950    -0.9200 C.2   1 <1>   0.5690 
 10 O       -6.4720     0.6390    -2.0930 O.2   1 <1>  -0.5700 
 11 C       -7.9070    -0.0970    -0.4020 C.3   1 <1>  -0.0990 
 12 C       -8.9060     1.0230     0.0110 C.3   1 <1>   0.2800 
 13 O       -9.2860     1.6860    -1.1990 O.3   1 <1>  -0.6800 
 14 C      -10.1470     0.3860     0.7020 C.3   1 <1>   1.0200 
 15 C       -8.2890     2.0130     1.0470 C.3   1 <1>   1.0200 
 16 F       -9.8910    -0.1150     1.9040 F     1 <1>  -0.3400 
 17 F      -11.1600     1.2310     0.8540 F     1 <1>  -0.3400 
 18 F      -10.6430    -0.6290     0.0030 F     1 <1>  -0.3400 
 19 F       -9.1720     2.8070     1.6380 F     1 <1>  -0.3400 
 20 F       -7.6350     1.3920     2.0250 F     1 <1>  -0.3400 
 21 F       -7.4040     2.8370     0.5040 F     1 <1>  -0.3400 
 22 H       -3.4210    -0.2000     1.3900 H     1 <1>   0.1500 
 23 H       -0.5730     2.2110    -0.6570 H     1 <1>   0.1500 
 24 H       -2.3600     3.0420    -2.1690 H     1 <1>   0.1500 
 25 H       -5.7080     0.1630     0.9120 H     1 <1>   0.3700 
 26 H       -4.6540     2.2550    -1.8860 H     1 <1>   0.1500 
 27 H       -7.7230    -0.7510     0.4310 H     1 <1>   0.0800 
 28 H       -8.3530    -0.7010    -1.1740 H     1 <1>   0.0800 
 29 H       -9.9240     2.4160    -1.0450 H     1 <1>   0.4000 
@<TRIPOS>BOND
  1   1   2  1   
  2   2   3  ar  
  3   2   4  ar  
  4   3   5  ar  
  5   3  22  1   
  6   4   6  ar  
  7   4  23  1   
  8   5   7  1   
  9   5   8  ar  
 10   6   8  ar  
 11   6  24  1   
 12   7   9  am  
 13   7  25  1   
 14   8  26  1   
 15   9  10  2   
 16   9  11  1   
 17  11  12  1   
 18  11  27  1   
 19  11  28  1   
 20  12  13  1   
 21  12  14  1   
 22  12  15  1   
 23  13  29  1   
 24  14  16  1   
 25  14  17  1   
 26  14  18  1   
 27  15  19  1   
 28  15  20  1   
 29  15  21  1   
@<TRIPOS>SUBSTRUCTURE
  1 ****   7 GROUP 4 **** **** 0

# MOE 2024.06 (io_trps.svl 2023.06)
