@<TRIPOS>MOLECULE
NONAME
40 41 1 0 0 
SMALL
USER_CHARGES


@<TRIPOS>ATOM
  1 S        0.1020    -0.3730    -0.1230 S.3   1 <1>  -0.3710 
  2 C       -1.4100     0.5780     0.0540 C.2   1 <1>   0.6510 
  3 C        1.3900     0.9270    -0.3760 C.3   1 <1>   0.0700 
  4 N       -1.2970     1.8470    -0.0230 N.2   1 <1>  -0.6210 
  5 N       -2.5700    -0.1420     0.2600 N.am  1 <1>  -0.2370 
  6 C        2.7420     0.2320    -0.5420 C.3   1 <1>  -0.1600 
  7 C       -2.4300     2.5970     0.1080 C.2   1 <1>   0.0210 
  8 C       -3.7360     0.6060     0.4030 C.2   1 <1>   0.6160 
  9 C       -2.5940    -1.5480     0.3170 C.ar  1 <1>   0.1170 
 10 C        3.8640     1.2550    -0.7570 C.3   1 <1>  -0.1600 
 11 O       -2.2780     3.8180     0.0240 O.3   1 <1>  -0.8500 
 12 C       -3.6640     1.9940     0.3220 C.2   1 <1>  -0.1240 
 13 O       -4.8060    -0.0050     0.5990 O.2   1 <1>  -0.5700 
 14 C       -2.4500    -2.2090     1.5310 C.ar  1 <1>  -0.1500 
 15 C       -2.7600    -2.3000    -0.8400 C.ar  1 <1>  -0.1500 
 16 C        5.2190     0.5620    -0.9240 C.3   1 <1>  -0.2400 
 17 C       -4.9180     2.8520     0.4660 C.3   1 <1>  -0.0220 
 18 C       -2.4670    -3.5910     1.5880 C.ar  1 <1>  -0.1500 
 19 C       -2.7770    -3.6820    -0.7870 C.ar  1 <1>  -0.1500 
 20 C       -5.6320     2.9980    -0.8800 C.3   1 <1>  -0.2400 
 21 C       -2.6300    -4.3290     0.4280 C.ar  1 <1>  -0.1500 
 22 H        1.3670     1.5700     0.4880 H     1 <1>   0.0800 
 23 H        1.1100     1.4870    -1.2520 H     1 <1>   0.0800 
 24 H        2.6910    -0.4330    -1.3860 H     1 <1>   0.0800 
 25 H        2.9460    -0.3500     0.3390 H     1 <1>   0.0800 
 26 H        3.9070     1.9240     0.0860 H     1 <1>   0.0800 
 27 H        3.6520     1.8420    -1.6350 H     1 <1>   0.0800 
 28 H       -2.3270    -1.6310     2.4300 H     1 <1>   0.1500 
 29 H       -2.8750    -1.7930    -1.7810 H     1 <1>   0.1500 
 30 H        5.4570    -0.0130    -0.0460 H     1 <1>   0.0800 
 31 H        5.9910     1.2960    -1.0730 H     1 <1>   0.0800 
 32 H        5.2010    -0.0960    -1.7750 H     1 <1>   0.0800 
 33 H       -4.6400     3.8270     0.8290 H     1 <1>   0.0800 
 34 H       -5.5820     2.4130     1.1880 H     1 <1>   0.0800 
 35 H       -2.3550    -4.0910     2.5340 H     1 <1>   0.1500 
 36 H       -2.9050    -4.2530    -1.6900 H     1 <1>   0.1500 
 37 H       -4.9570     3.4480    -1.5890 H     1 <1>   0.0800 
 38 H       -6.4970     3.6250    -0.7750 H     1 <1>   0.0800 
 39 H       -5.9330     2.0340    -1.2470 H     1 <1>   0.0800 
 40 H       -2.6430    -5.4050     0.4710 H     1 <1>   0.1500 
@<TRIPOS>BOND
  1   1   2  1   
  2   1   3  1   
  3   2   4  2   
  4   2   5  1   
  5   3   6  1   
  6   3  22  1   
  7   3  23  1   
  8   4   7  1   
  9   5   8  am  
 10   5   9  1   
 11   6  10  1   
 12   6  24  1   
 13   6  25  1   
 14   7  11  1   
 15   7  12  2   
 16   8  12  1   
 17   8  13  2   
 18   9  14  ar  
 19   9  15  ar  
 20  10  16  1   
 21  10  26  1   
 22  10  27  1   
 23  12  17  1   
 24  14  18  ar  
 25  14  28  1   
 26  15  19  ar  
 27  15  29  1   
 28  16  30  1   
 29  16  31  1   
 30  16  32  1   
 31  17  20  1   
 32  17  33  1   
 33  17  34  1   
 34  18  21  ar  
 35  18  35  1   
 36  19  21  ar  
 37  19  36  1   
 38  20  37  1   
 39  20  38  1   
 40  20  39  1   
 41  21  40  1   
@<TRIPOS>SUBSTRUCTURE
  1 ****   2 GROUP 4 **** **** 0

# MOE 2024.06 (io_trps.svl 2023.06)
