@<TRIPOS>MOLECULE
NONAME
44 46 1 0 0 
SMALL
USER_CHARGES


@<TRIPOS>ATOM
  1 O        0.1910    -0.0810    -0.3610 O.2   1 <1>  -0.5700 
  2 C        0.0960     1.0510     0.0760 C.2   1 <1>   0.6900 
  3 N        1.2210     1.7930     0.3390 N.am  1 <1>  -0.6600 
  4 N       -1.1260     1.6260     0.2850 N.am  1 <1>  -0.5470 
  5 C        2.5400     1.3170    -0.1680 C.3   1 <1>   0.1400 
  6 C        1.2250     2.9420     1.2840 C.3   1 <1>   0.1400 
  7 C       -2.4270     1.1150     0.2340 C.ar  1 <1>   0.1170 
  8 C        3.5470     2.4410    -0.4540 C.3   1 <1>  -0.1600 
  9 C        1.0880     4.2580     0.5100 C.3   1 <1>  -0.1600 
 10 C       -3.4840     1.9800     0.0640 C.ar  1 <1>  -0.1500 
 11 C       -2.7060    -0.2560     0.3710 C.ar  1 <1>  -0.1500 
 12 C        2.9560     3.6640    -1.1780 C.3   1 <1>  -0.1600 
 13 C        2.3710     4.7030    -0.2090 C.3   1 <1>  -0.1600 
 14 C       -4.8100     1.5380     0.0190 C.ar  1 <1>   0.3100 
 15 C       -3.9940    -0.7190     0.3280 C.ar  1 <1>  -0.1500 
 16 N       -5.8040     2.4470    -0.1480 N.ar  1 <1>  -0.6200 
 17 C       -5.0780     0.1540     0.1520 C.ar  1 <1>   0.3100 
 18 C       -6.9970     1.9420    -0.1770 C.ar  1 <1>   0.1670 
 19 N       -6.3380    -0.3430     0.1190 N.ar  1 <1>  -0.6200 
 20 C       -7.2640     0.5510    -0.0440 C.ar  1 <1>   0.1670 
 21 C       -8.1360     2.9310    -0.3650 C.3   1 <1>  -0.0970 
 22 C       -8.6910     0.0300    -0.0880 C.3   1 <1>  -0.0970 
 23 H       -1.0490     2.6310     0.3920 H     1 <1>   0.3700 
 24 H        2.3770     0.7750    -1.0850 H     1 <1>   0.0800 
 25 H        2.9590     0.6270     0.5440 H     1 <1>   0.0800 
 26 H        2.1310     2.9390     1.8660 H     1 <1>   0.0800 
 27 H        0.4060     2.8400     1.9740 H     1 <1>   0.0800 
 28 H        4.3190     2.0200    -1.0730 H     1 <1>   0.0800 
 29 H        4.0240     2.7440     0.4610 H     1 <1>   0.0800 
 30 H        0.8160     5.0300     1.2070 H     1 <1>   0.0800 
 31 H        0.2870     4.1750    -0.2040 H     1 <1>   0.0800 
 32 H       -3.3170     3.0340    -0.0440 H     1 <1>   0.1500 
 33 H       -1.8940    -0.9460     0.5130 H     1 <1>   0.1500 
 34 H        2.2120     3.3530    -1.8920 H     1 <1>   0.0800 
 35 H        3.7490     4.1410    -1.7290 H     1 <1>   0.0800 
 36 H        3.1170     4.9640     0.5230 H     1 <1>   0.0800 
 37 H        2.1490     5.5980    -0.7650 H     1 <1>   0.0800 
 38 H       -4.2090    -1.7670     0.4290 H     1 <1>   0.1500 
 39 H       -7.7520     3.9320    -0.4490 H     1 <1>   0.0800 
 40 H       -8.8000     2.8940     0.4780 H     1 <1>   0.0800 
 41 H       -8.6800     2.7030    -1.2630 H     1 <1>   0.0800 
 42 H       -9.2670     0.4610     0.7090 H     1 <1>   0.0800 
 43 H       -8.7020    -1.0390     0.0280 H     1 <1>   0.0800 
 44 H       -9.1440     0.2710    -1.0320 H     1 <1>   0.0800 
@<TRIPOS>BOND
  1   1   2  2   
  2   2   3  am  
  3   2   4  am  
  4   3   5  1   
  5   3   6  1   
  6   4   7  1   
  7   4  23  1   
  8   5   8  1   
  9   5  24  1   
 10   5  25  1   
 11   6   9  1   
 12   6  26  1   
 13   6  27  1   
 14   7  10  ar  
 15   7  11  ar  
 16   8  12  1   
 17   8  28  1   
 18   8  29  1   
 19   9  13  1   
 20   9  30  1   
 21   9  31  1   
 22  10  14  ar  
 23  10  32  1   
 24  11  15  ar  
 25  11  33  1   
 26  12  13  1   
 27  12  34  1   
 28  12  35  1   
 29  13  36  1   
 30  13  37  1   
 31  14  16  ar  
 32  14  17  ar  
 33  15  17  ar  
 34  15  38  1   
 35  16  18  ar  
 36  17  19  ar  
 37  18  20  ar  
 38  18  21  1   
 39  19  20  ar  
 40  20  22  1   
 41  21  39  1   
 42  21  40  1   
 43  21  41  1   
 44  22  42  1   
 45  22  43  1   
 46  22  44  1   
@<TRIPOS>SUBSTRUCTURE
  1 ****   7 GROUP 4 **** **** 0

# MOE 2024.06 (io_trps.svl 2023.06)
