@<TRIPOS>MOLECULE
NONAME
43 43 1 0 0 
SMALL
USER_CHARGES


@<TRIPOS>ATOM
  1 O        0.7510    -1.2430     0.0840 O.3   1 <1>  -0.3630 
  2 C       -0.5100    -1.5170    -0.3480 C.ar  1 <1>   0.0830 
  3 C        1.7860    -0.9210    -0.8100 C.3   1 <1>   0.1200 
  4 C       -1.4680    -1.8250     0.6140 C.ar  1 <1>  -0.1440 
  5 C       -0.8680    -1.4990    -1.6950 C.ar  1 <1>  -0.1500 
  6 C        3.0490    -0.6770     0.0200 C.3   1 <1>  -0.1600 
  7 C       -2.7660    -2.1110     0.2220 C.ar  1 <1>  -0.1500 
  8 C       -1.1040    -1.8520     2.0920 C.3   1 <1>  -0.0970 
  9 C       -2.1670    -1.7860    -2.0740 C.ar  1 <1>  -0.1500 
 10 C        4.2530    -0.3140    -0.8600 C.3   1 <1>  -0.1600 
 11 C       -3.1170    -2.0920    -1.1160 C.ar  1 <1>  -0.1500 
 12 C        5.4920    -0.0790     0.0020 C.3   1 <1>   0.3430 
 13 N        6.6380     0.2700    -0.8770 N.4   1 <1>  -0.9060 
 14 C        7.9200     0.5320    -0.2170 C.3   1 <1>   0.5030 
 15 C        8.3780    -0.7160     0.5370 C.3   1 <1>  -0.2400 
 16 C        7.7810     1.7250     0.7280 C.3   1 <1>  -0.2400 
 17 C        8.9120     0.8620    -1.3260 C.3   1 <1>  -0.2400 
 18 H        1.5000    -0.0350    -1.3510 H     1 <1>   0.0800 
 19 H        1.9190    -1.7490    -1.4850 H     1 <1>   0.0800 
 20 H       -0.1580    -1.2660    -2.4630 H     1 <1>   0.1500 
 21 H        3.2630    -1.5720     0.5810 H     1 <1>   0.0800 
 22 H        2.8490     0.1220     0.7140 H     1 <1>   0.0800 
 23 H       -3.5140    -2.3500     0.9570 H     1 <1>   0.1500 
 24 H       -1.9550    -2.1060     2.6980 H     1 <1>   0.0800 
 25 H       -0.3310    -2.5790     2.2620 H     1 <1>   0.0800 
 26 H       -0.7440    -0.8860     2.3940 H     1 <1>   0.0800 
 27 H       -2.4420    -1.7710    -3.1150 H     1 <1>   0.1500 
 28 H        4.0210     0.5780    -1.4170 H     1 <1>   0.0800 
 29 H        4.4360    -1.1210    -1.5500 H     1 <1>   0.0800 
 30 H       -4.1270    -2.3150    -1.4110 H     1 <1>   0.1500 
 31 H        5.7120    -0.9720     0.5640 H     1 <1>   0.0800 
 32 H        5.2980     0.7220     0.6970 H     1 <1>   0.0800 
 33 H        6.4010     1.1030    -1.4230 H     1 <1>   0.4500 
 34 H        6.7900    -0.4890    -1.5470 H     1 <1>   0.4500 
 35 H        8.4290    -1.5680    -0.1170 H     1 <1>   0.0800 
 36 H        7.7320    -0.9400     1.3660 H     1 <1>   0.0800 
 37 H        9.3630    -0.5530     0.9380 H     1 <1>   0.0800 
 38 H        7.4110     2.5920     0.2080 H     1 <1>   0.0800 
 39 H        7.1340     1.5040     1.5570 H     1 <1>   0.0800 
 40 H        8.7450     1.9760     1.1360 H     1 <1>   0.0800 
 41 H        9.0240     0.0360    -2.0080 H     1 <1>   0.0800 
 42 H        9.8810     1.0650    -0.9020 H     1 <1>   0.0800 
 43 H        8.6080     1.7360    -1.8750 H     1 <1>   0.0800 
@<TRIPOS>BOND
  1   1   2  1   
  2   1   3  1   
  3   2   4  ar  
  4   2   5  ar  
  5   3   6  1   
  6   3  18  1   
  7   3  19  1   
  8   4   7  ar  
  9   4   8  1   
 10   5   9  ar  
 11   5  20  1   
 12   6  10  1   
 13   6  21  1   
 14   6  22  1   
 15   7  11  ar  
 16   7  23  1   
 17   8  24  1   
 18   8  25  1   
 19   8  26  1   
 20   9  11  ar  
 21   9  27  1   
 22  10  12  1   
 23  10  28  1   
 24  10  29  1   
 25  11  30  1   
 26  12  13  1   
 27  12  31  1   
 28  12  32  1   
 29  13  14  1   
 30  13  33  1   
 31  13  34  1   
 32  14  15  1   
 33  14  16  1   
 34  14  17  1   
 35  15  35  1   
 36  15  36  1   
 37  15  37  1   
 38  16  38  1   
 39  16  39  1   
 40  16  40  1   
 41  17  41  1   
 42  17  42  1   
 43  17  43  1   
@<TRIPOS>SUBSTRUCTURE
  1 ****   6 GROUP 4 **** **** 0

# MOE 2024.06 (io_trps.svl 2023.06)
