@<TRIPOS>MOLECULE
NONAME
53 55 1 0 0 
SMALL
USER_CHARGES


@<TRIPOS>ATOM
  1 O       -2.5090    -3.6580    -0.3740 O.3   1 <1>  -0.3630 
  2 C       -3.8260    -3.9010    -0.1330 C.ar  1 <1>   0.0830 
  3 C       -1.8960    -2.4460     0.0080 C.3   1 <1>   0.1200 
  4 C       -4.3500    -5.1060    -0.5910 C.ar  1 <1>  -0.1440 
  5 C       -4.6500    -3.0030     0.5440 C.ar  1 <1>  -0.1500 
  6 C       -0.4270    -2.4950    -0.4280 C.3   1 <1>   0.2000 
  7 C       -5.6860    -5.3970    -0.3680 C.ar  1 <1>  -0.1500 
  8 C       -3.4790    -6.1090    -1.3340 C.3   1 <1>  -0.0960 
  9 C       -5.9850    -3.3000     0.7620 C.ar  1 <1>  -0.1430 
 10 O        0.1420    -3.6840     0.0340 O.3   1 <1>  -0.6800 
 11 C        0.3970    -1.3040     0.1080 C.3   1 <1>   0.3430 
 12 C       -6.4980    -4.5010     0.3050 C.ar  1 <1>  -0.1500 
 13 C       -6.8830    -2.3240     1.5010 C.3   1 <1>  -0.0970 
 14 N        1.8500    -1.6530     0.1630 N.4   1 <1>  -0.9590 
 15 C        2.6160    -0.8520     1.1830 C.3   1 <1>   0.3430 
 16 C        2.5180    -1.6200    -1.1870 C.3   1 <1>   0.3430 
 17 C        4.1060    -1.2440     1.2460 C.3   1 <1>   0.2090 
 18 C        4.0070    -2.0150    -1.1180 C.3   1 <1>   0.2090 
 19 N        4.7410    -1.2000    -0.1040 N.pl3 1 <1>  -0.8380 
 20 C        6.1020    -1.4130    -0.0910 C.ar  1 <1>   0.4100 
 21 N        6.5000    -2.6190     0.2880 N.ar  1 <1>  -0.6200 
 22 C        6.9690    -0.3910    -0.4630 C.ar  1 <1>  -0.1500 
 23 C        7.8100    -2.8100     0.2970 C.ar  1 <1>   0.1600 
 24 C        8.3270    -0.6050    -0.4480 C.ar  1 <1>  -0.1500 
 25 C        8.7510    -1.8580    -0.0540 C.ar  1 <1>  -0.1500 
 26 H       -1.9750    -2.3480     1.0770 H     1 <1>   0.0800 
 27 H       -2.4130    -1.6360    -0.4770 H     1 <1>   0.0800 
 28 H       -4.2750    -2.0700     0.9120 H     1 <1>   0.1500 
 29 H       -0.3850    -2.5090    -1.5030 H     1 <1>   0.0800 
 30 H       -6.1060    -6.3250    -0.7150 H     1 <1>   0.1500 
 31 H       -3.0520    -5.6470    -2.2060 H     1 <1>   0.0800 
 32 H       -4.0520    -6.9620    -1.6480 H     1 <1>   0.0800 
 33 H       -2.6850    -6.4470    -0.6940 H     1 <1>   0.0800 
 34 H       -0.5230    -4.4050    -0.0770 H     1 <1>   0.4000 
 35 H        0.0500    -1.0830     1.1040 H     1 <1>   0.0800 
 36 H        0.2350    -0.4300    -0.5010 H     1 <1>   0.0800 
 37 H       -7.5330    -4.7460     0.4700 H     1 <1>   0.1500 
 38 H       -6.8900    -2.5590     2.5500 H     1 <1>   0.0800 
 39 H       -7.8890    -2.3830     1.1250 H     1 <1>   0.0800 
 40 H       -6.5340    -1.3150     1.3720 H     1 <1>   0.0800 
 41 H        1.8490    -2.6500     0.4580 H     1 <1>   0.4500 
 42 H        2.1790    -0.9870     2.1590 H     1 <1>   0.0800 
 43 H        2.5580     0.1950     0.9350 H     1 <1>   0.0800 
 44 H        2.4560    -0.6260    -1.5970 H     1 <1>   0.0800 
 45 H        2.0130    -2.2920    -1.8610 H     1 <1>   0.0800 
 46 H        4.2020    -2.2360     1.6570 H     1 <1>   0.0800 
 47 H        4.6270    -0.5680     1.9030 H     1 <1>   0.0800 
 48 H        4.4620    -1.8690    -2.0830 H     1 <1>   0.0800 
 49 H        4.0930    -3.0600    -0.8710 H     1 <1>   0.0800 
 50 H        6.5620     0.5560    -0.7570 H     1 <1>   0.1500 
 51 H        8.1560    -3.7840     0.6020 H     1 <1>   0.1500 
 52 H        9.0270     0.1640    -0.7290 H     1 <1>   0.1500 
 53 H        9.8000    -2.0940    -0.0200 H     1 <1>   0.1500 
@<TRIPOS>BOND
  1   1   2  1   
  2   1   3  1   
  3   2   4  ar  
  4   2   5  ar  
  5   3   6  1   
  6   3  26  1   
  7   3  27  1   
  8   4   7  ar  
  9   4   8  1   
 10   5   9  ar  
 11   5  28  1   
 12   6  10  1   
 13   6  11  1   
 14   6  29  1   
 15   7  12  ar  
 16   7  30  1   
 17   8  31  1   
 18   8  32  1   
 19   8  33  1   
 20   9  12  ar  
 21   9  13  1   
 22  10  34  1   
 23  11  14  1   
 24  11  35  1   
 25  11  36  1   
 26  12  37  1   
 27  13  38  1   
 28  13  39  1   
 29  13  40  1   
 30  14  15  1   
 31  14  16  1   
 32  14  41  1   
 33  15  17  1   
 34  15  42  1   
 35  15  43  1   
 36  16  18  1   
 37  16  44  1   
 38  16  45  1   
 39  17  19  1   
 40  17  46  1   
 41  17  47  1   
 42  18  19  1   
 43  18  48  1   
 44  18  49  1   
 45  19  20  1   
 46  20  21  ar  
 47  20  22  ar  
 48  21  23  ar  
 49  22  24  ar  
 50  22  50  1   
 51  23  25  ar  
 52  23  51  1   
 53  24  25  ar  
 54  24  52  1   
 55  25  53  1   
@<TRIPOS>SUBSTRUCTURE
  1 ****  10 GROUP 4 **** **** 0

# MOE 2024.06 (io_trps.svl 2023.06)
