@<TRIPOS>MOLECULE
NONAME
35 36 1 0 0 
SMALL
USER_CHARGES


@<TRIPOS>ATOM
  1 F        0.2230    -0.1360    -1.1260 F     1 <1>  -0.3400 
  2 C        0.4650    -1.2310    -0.4180 C.3   1 <1>   1.1640 
  3 F        1.2650    -1.9880    -1.1580 F     1 <1>  -0.3400 
  4 F        1.1800    -0.8480     0.6330 F     1 <1>  -0.3400 
  5 C       -0.8390    -1.9500    -0.0240 C.ar  1 <1>  -0.1440 
  6 C       -1.4080    -2.9020    -0.8630 C.ar  1 <1>  -0.1500 
  7 C       -1.4810    -1.6590     1.1760 C.ar  1 <1>  -0.1500 
  8 C       -2.5820    -3.5460    -0.5140 C.ar  1 <1>  -0.1500 
  9 C       -2.6550    -2.3020     1.5270 C.ar  1 <1>  -0.1500 
 10 C       -3.2170    -3.2460     0.6810 C.ar  1 <1>  -0.1430 
 11 C       -4.5110    -3.9430     1.0600 C.3   1 <1>   0.4870 
 12 N       -5.6160    -3.3790     0.2350 N.4   1 <1>  -0.9590 
 13 C       -5.8510    -1.9350     0.5510 C.3   1 <1>   0.3430 
 14 C       -6.8530    -4.2040     0.3550 C.3   1 <1>   0.3430 
 15 C       -6.9170    -1.3640    -0.3810 C.3   1 <1>  -0.1600 
 16 C       -7.9310    -3.6660    -0.5830 C.3   1 <1>  -0.1600 
 17 C       -8.1950    -2.1930    -0.2890 C.3   1 <1>   0.2000 
 18 O       -9.0970    -1.7160    -1.2070 O.3   1 <1>  -0.6800 
 19 H       -0.9320    -3.1500    -1.8000 H     1 <1>   0.1500 
 20 H       -1.0640    -0.9260     1.8490 H     1 <1>   0.1500 
 21 H       -2.9830    -4.2860    -1.1880 H     1 <1>   0.1500 
 22 H       -3.1170    -2.0550     2.4690 H     1 <1>   0.1500 
 23 H       -4.7140    -3.8010     2.1090 H     1 <1>   0.0800 
 24 H       -4.4080    -5.0000     0.8720 H     1 <1>   0.0800 
 25 H       -5.2910    -3.4180    -0.7390 H     1 <1>   0.4500 
 26 H       -4.9370    -1.3740     0.4290 H     1 <1>   0.0800 
 27 H       -6.1770    -1.8320     1.5740 H     1 <1>   0.0800 
 28 H       -7.2170    -4.1730     1.3700 H     1 <1>   0.0800 
 29 H       -6.6410    -5.2320     0.1030 H     1 <1>   0.0800 
 30 H       -6.5400    -1.3540    -1.3880 H     1 <1>   0.0800 
 31 H       -7.1290    -0.3510    -0.0890 H     1 <1>   0.0800 
 32 H       -8.8370    -4.2260    -0.4300 H     1 <1>   0.0800 
 33 H       -7.6170    -3.8010    -1.6030 H     1 <1>   0.0800 
 34 H       -8.6440    -2.0810     0.6860 H     1 <1>   0.0800 
 35 H       -8.7510    -1.7590    -2.1200 H     1 <1>   0.4000 
@<TRIPOS>BOND
  1   1   2  1   
  2   2   3  1   
  3   2   4  1   
  4   2   5  1   
  5   5   6  ar  
  6   5   7  ar  
  7   6   8  ar  
  8   6  19  1   
  9   7   9  ar  
 10   7  20  1   
 11   8  10  ar  
 12   8  21  1   
 13   9  10  ar  
 14   9  22  1   
 15  10  11  1   
 16  11  12  1   
 17  11  23  1   
 18  11  24  1   
 19  12  13  1   
 20  12  14  1   
 21  12  25  1   
 22  13  15  1   
 23  13  26  1   
 24  13  27  1   
 25  14  16  1   
 26  14  28  1   
 27  14  29  1   
 28  15  17  1   
 29  15  30  1   
 30  15  31  1   
 31  16  17  1   
 32  16  32  1   
 33  16  33  1   
 34  17  18  1   
 35  17  34  1   
 36  18  35  1   
@<TRIPOS>SUBSTRUCTURE
  1 ****  10 GROUP 4 **** **** 0

# MOE 2024.06 (io_trps.svl 2023.06)
