@<TRIPOS>MOLECULE
NONAME
47 48 1 0 0 
SMALL
USER_CHARGES


@<TRIPOS>ATOM
  1 O       -8.1330     0.7670     0.2280 O.3   1 <1>  -0.3630 
  2 C       -6.9410     1.4160     0.1720 C.ar  1 <1>   0.0830 
  3 C       -9.3480     1.4490     0.0120 C.3   1 <1>   0.1200 
  4 C       -5.8120     0.6680     0.4670 C.ar  1 <1>  -0.1500 
  5 C       -6.8030     2.7620    -0.1590 C.ar  1 <1>  -0.1500 
  6 C      -10.4870     0.4380     0.1590 C.3   1 <1>   0.1100 
  7 C       -4.5580     1.2510     0.4350 C.ar  1 <1>  -0.1500 
  8 C       -5.5470     3.3450    -0.1900 C.ar  1 <1>  -0.1500 
  9 N      -11.8150     1.0620    -0.0400 N.3   1 <1>  -0.8100 
 10 C       -4.4150     2.5900     0.1080 C.ar  1 <1>   0.0830 
 11 C      -12.8370     0.0240    -0.3250 C.3   1 <1>   0.1100 
 12 C      -12.2320     1.8790     1.1300 C.3   1 <1>   0.1100 
 13 O       -3.1500     3.0840     0.1010 O.3   1 <1>  -0.3630 
 14 C      -14.2500     0.6200    -0.5470 C.3   1 <1>   0.3430 
 15 C      -13.6580     2.4670     0.9730 C.3   1 <1>   0.3430 
 16 C       -2.8940     4.4310    -0.2220 C.3   1 <1>   0.1200 
 17 N      -14.2500     2.1080    -0.3580 N.4   1 <1>  -0.9590 
 18 C       -1.3850     4.6640    -0.1410 C.3   1 <1>  -0.1600 
 19 C      -15.5780     2.7380    -0.6090 C.3   1 <1>   0.2630 
 20 C       -1.0240     6.1150    -0.4810 C.3   1 <1>  -0.2400 
 21 H       -9.3350     1.8560    -0.9830 H     1 <1>   0.0800 
 22 H       -9.4220     2.2300     0.7460 H     1 <1>   0.0800 
 23 H       -5.9200    -0.3710     0.7200 H     1 <1>   0.1500 
 24 H       -7.6550     3.3680    -0.3960 H     1 <1>   0.1500 
 25 H      -10.4370    -0.0260     1.1300 H     1 <1>   0.0800 
 26 H      -10.3370    -0.3240    -0.5880 H     1 <1>   0.0800 
 27 H       -3.6830     0.6720     0.6640 H     1 <1>   0.1500 
 28 H       -5.4690     4.3840    -0.4490 H     1 <1>   0.1500 
 29 H      -12.8770    -0.6820     0.4880 H     1 <1>   0.0800 
 30 H      -12.5530    -0.5230    -1.2090 H     1 <1>   0.0800 
 31 H      -11.5430     2.6940     1.2650 H     1 <1>   0.0800 
 32 H      -12.2000     1.2800     2.0250 H     1 <1>   0.0800 
 33 H      -14.9390     0.1590     0.1410 H     1 <1>   0.0800 
 34 H      -14.5750     0.3790    -1.5460 H     1 <1>   0.0800 
 35 H      -13.6060     3.5380     1.0760 H     1 <1>   0.0800 
 36 H      -14.2830     2.0920     1.7660 H     1 <1>   0.0800 
 37 H       -3.4130     5.0540     0.4850 H     1 <1>   0.0800 
 38 H       -3.2540     4.6150    -1.2190 H     1 <1>   0.0800 
 39 H      -13.5480     2.4420    -1.0400 H     1 <1>   0.4500 
 40 H       -0.8890     4.0040    -0.8300 H     1 <1>   0.0800 
 41 H       -1.0470     4.4380     0.8560 H     1 <1>   0.0800 
 42 H      -16.3030     2.3820     0.1050 H     1 <1>   0.0800 
 43 H      -15.9240     2.4960    -1.6010 H     1 <1>   0.0800 
 44 H      -15.5050     3.8100    -0.5240 H     1 <1>   0.0800 
 45 H       -1.3400     6.3570    -1.4800 H     1 <1>   0.0800 
 46 H        0.0410     6.2520    -0.4160 H     1 <1>   0.0800 
 47 H       -1.4980     6.7920     0.2080 H     1 <1>   0.0800 
@<TRIPOS>BOND
  1   1   2  1   
  2   1   3  1   
  3   2   4  ar  
  4   2   5  ar  
  5   3   6  1   
  6   3  21  1   
  7   3  22  1   
  8   4   7  ar  
  9   4  23  1   
 10   5   8  ar  
 11   5  24  1   
 12   6   9  1   
 13   6  25  1   
 14   6  26  1   
 15   7  10  ar  
 16   7  27  1   
 17   8  10  ar  
 18   8  28  1   
 19   9  11  1   
 20   9  12  1   
 21  10  13  1   
 22  11  14  1   
 23  11  29  1   
 24  11  30  1   
 25  12  15  1   
 26  12  31  1   
 27  12  32  1   
 28  13  16  1   
 29  14  17  1   
 30  14  33  1   
 31  14  34  1   
 32  15  17  1   
 33  15  35  1   
 34  15  36  1   
 35  16  18  1   
 36  16  37  1   
 37  16  38  1   
 38  17  19  1   
 39  17  39  1   
 40  18  20  1   
 41  18  40  1   
 42  18  41  1   
 43  19  42  1   
 44  19  43  1   
 45  19  44  1   
 46  20  45  1   
 47  20  46  1   
 48  20  47  1   
@<TRIPOS>SUBSTRUCTURE
  1 ****   3 GROUP 4 **** **** 0

# MOE 2024.06 (io_trps.svl 2023.06)
