@<TRIPOS>MOLECULE
NONAME
47 49 1 0 0 
SMALL
USER_CHARGES


@<TRIPOS>ATOM
  1 S        0.0930    -0.4620    -0.2030 S.3   1 <1>  -0.0800 
  2 C        0.7530     1.1450    -0.4250 C.2   1 <1>   0.1040 
  3 C       -1.5400     0.1480     0.0160 C.2   1 <1>  -0.0450 
  4 N        2.1030     1.3260    -0.6700 N.am  1 <1>  -0.4940 
  5 C       -0.2390     2.0930    -0.3210 C.2   1 <1>  -0.0860 
  6 C       -2.6410    -0.7190     0.2770 C.2   1 <1>   0.5940 
  7 C       -1.5320     1.4990    -0.1010 C.2   1 <1>  -0.1810 
  8 C        3.2270     0.5450    -0.7400 C.2   1 <1>   0.5690 
  9 C        0.0360     3.5070    -0.4120 C.2   1 <1>   0.8060 
 10 O       -2.5890    -1.9220     0.3460 O.2   1 <1>  -0.5700 
 11 C       -3.9750    -0.0250     0.5030 C.3   1 <1>  -0.0990 
 12 C       -2.8600     2.2500     0.0060 C.3   1 <1>   0.0210 
 13 O        4.2610     1.0920    -1.0300 O.2   1 <1>  -0.5700 
 14 C        3.1770    -0.9710    -0.4450 C.3   1 <1>   0.1710 
 15 O        1.0890     3.9500    -0.8340 O.2   1 <1>  -0.5700 
 16 O       -0.8890     4.3770     0.0060 O.3   1 <1>  -0.4300 
 17 C       -4.0660     1.3210    -0.2510 C.3   1 <1>  -0.1600 
 18 N        4.4580    -1.7330    -0.4350 N.3   1 <1>  -0.8100 
 19 C       -0.6720     5.7710    -0.0340 C.3   1 <1>   0.1200 
 20 C        5.3610    -1.2900     0.6490 C.3   1 <1>   0.1100 
 21 C        4.2110    -3.1810    -0.3100 C.3   1 <1>   0.1100 
 22 C       -1.9250     6.4580     0.5000 C.3   1 <1>  -0.2400 
 23 C        6.6460    -2.1370     0.6770 C.3   1 <1>   0.1200 
 24 C        5.5340    -3.9660    -0.2540 C.3   1 <1>   0.1200 
 25 O        6.3390    -3.4980     0.7900 O.3   1 <1>  -0.5600 
 26 H        2.3590     2.3020    -0.8720 H     1 <1>   0.3700 
 27 H       -4.0910     0.1390     1.5580 H     1 <1>   0.0800 
 28 H       -4.7670    -0.6760     0.1780 H     1 <1>   0.0800 
 29 H       -2.8950     3.0460    -0.7180 H     1 <1>   0.0800 
 30 H       -2.9370     2.6860     0.9880 H     1 <1>   0.0800 
 31 H        2.5450    -1.4070    -1.1960 H     1 <1>   0.0800 
 32 H        2.6990    -1.1050     0.5090 H     1 <1>   0.0800 
 33 H       -4.9770     1.8290     0.0170 H     1 <1>   0.0800 
 34 H       -4.1110     1.1130    -1.3070 H     1 <1>   0.0800 
 35 H        0.1850     6.0020     0.5760 H     1 <1>   0.0800 
 36 H       -0.4790     6.0590    -1.0540 H     1 <1>   0.0800 
 37 H        4.8670    -1.3730     1.6010 H     1 <1>   0.0800 
 38 H        5.6360    -0.2610     0.4990 H     1 <1>   0.0800 
 39 H        3.6380    -3.5200    -1.1550 H     1 <1>   0.0800 
 40 H        3.6470    -3.3850     0.5850 H     1 <1>   0.0800 
 41 H       -2.1110     6.1550     1.5150 H     1 <1>   0.0800 
 42 H       -2.7740     6.2150    -0.1130 H     1 <1>   0.0800 
 43 H       -1.7870     7.5240     0.4830 H     1 <1>   0.0800 
 44 H        7.2540    -1.8650     1.5210 H     1 <1>   0.0800 
 45 H        7.2130    -1.9840    -0.2250 H     1 <1>   0.0800 
 46 H        6.0720    -3.8590    -1.1800 H     1 <1>   0.0800 
 47 H        5.3420    -5.0090    -0.0800 H     1 <1>   0.0800 
@<TRIPOS>BOND
  1   1   2  1   
  2   1   3  1   
  3   2   4  1   
  4   2   5  2   
  5   3   6  1   
  6   3   7  2   
  7   4   8  am  
  8   4  26  1   
  9   5   7  1   
 10   5   9  1   
 11   6  10  2   
 12   6  11  1   
 13   7  12  1   
 14   8  13  2   
 15   8  14  1   
 16   9  15  2   
 17   9  16  1   
 18  11  17  1   
 19  11  27  1   
 20  11  28  1   
 21  12  17  1   
 22  12  29  1   
 23  12  30  1   
 24  14  18  1   
 25  14  31  1   
 26  14  32  1   
 27  16  19  1   
 28  17  33  1   
 29  17  34  1   
 30  18  20  1   
 31  18  21  1   
 32  19  22  1   
 33  19  35  1   
 34  19  36  1   
 35  20  23  1   
 36  20  37  1   
 37  20  38  1   
 38  21  24  1   
 39  21  39  1   
 40  21  40  1   
 41  22  41  1   
 42  22  42  1   
 43  22  43  1   
 44  23  25  1   
 45  23  44  1   
 46  23  45  1   
 47  24  25  1   
 48  24  46  1   
 49  24  47  1   
@<TRIPOS>SUBSTRUCTURE
  1 ****   2 GROUP 4 **** **** 0

# MOE 2024.06 (io_trps.svl 2023.06)
