@<TRIPOS>MOLECULE
NONAME
38 41 1 0 0 
SMALL
USER_CHARGES


@<TRIPOS>ATOM
  1 BR      -0.2950     0.3050     0.4340 Br    1 <1>  -0.1110 
  2 C       -1.0080    -1.4760     0.2680 C.ar  1 <1>   0.1110 
  3 C       -2.3730    -1.6450     0.2050 C.ar  1 <1>  -0.1500 
  4 C       -0.1300    -2.5360     0.2190 C.ar  1 <1>  -0.1500 
  5 C       -2.9330    -2.9220     0.0850 C.ar  1 <1>   0.0860 
  6 C       -0.6530    -3.8080     0.1000 C.ar  1 <1>  -0.1500 
  7 C       -4.3870    -3.0420     0.0270 C.2   1 <1>   0.4140 
  8 C       -2.0340    -4.0130     0.0310 C.ar  1 <1>   0.0830 
  9 N       -4.9750    -4.2330     0.3700 N.pl3 1 <1>  -0.5340 
 10 N       -5.1230    -2.0270    -0.3240 N.2   1 <1>  -0.6610 
 11 O       -2.5330    -5.2720    -0.0940 O.3   1 <1>  -0.3630 
 12 C       -6.3210    -4.3740     0.3510 C.2   1 <1>   0.1240 
 13 C       -6.4920    -2.1360    -0.3540 C.2   1 <1>   0.8670 
 14 C       -1.7260    -6.4060    -0.3420 C.3   1 <1>   0.0400 
 15 S       -7.1920    -5.8400     0.7480 S.3   1 <1>  -0.0800 
 16 C       -7.1410    -3.3580     0.0020 C.2   1 <1>  -0.0860 
 17 O       -7.1320    -1.1500    -0.6940 O.2   1 <1>  -0.5700 
 18 C       -8.7200    -5.0250     0.4240 C.2   1 <1>  -0.1400 
 19 C       -8.5280    -3.7460     0.0590 C.2   1 <1>  -0.1810 
 20 C      -10.0330    -5.7630     0.5690 C.3   1 <1>   0.0200 
 21 C       -9.6940    -2.8250    -0.2620 C.3   1 <1>   0.0210 
 22 C      -11.1500    -4.9320    -0.0890 C.3   1 <1>  -0.1600 
 23 C      -11.0250    -3.4280     0.2340 C.3   1 <1>  -0.1600 
 24 H       -3.0040    -0.7740     0.2490 H     1 <1>   0.1500 
 25 H        0.9310    -2.3650     0.2730 H     1 <1>   0.1500 
 26 H        0.0390    -4.6280     0.0660 H     1 <1>   0.1500 
 27 H       -4.3570    -5.0310     0.5590 H     1 <1>   0.4000 
 28 H       -2.3730    -7.2530    -0.4840 H     1 <1>   0.0800 
 29 H       -1.0860    -6.5750     0.5060 H     1 <1>   0.0800 
 30 H       -1.1490    -6.2370    -1.2350 H     1 <1>   0.0800 
 31 H      -10.2400    -5.9000     1.6160 H     1 <1>   0.0800 
 32 H       -9.9690    -6.7290     0.1010 H     1 <1>   0.0800 
 33 H       -9.7320    -2.6760    -1.3270 H     1 <1>   0.0800 
 34 H       -9.5450    -1.8660     0.2030 H     1 <1>   0.0800 
 35 H      -12.1080    -5.3000     0.2350 H     1 <1>   0.0800 
 36 H      -11.0920    -5.0590    -1.1570 H     1 <1>   0.0800 
 37 H      -11.8440    -2.8890    -0.2070 H     1 <1>   0.0800 
 38 H      -11.0840    -3.2990     1.3010 H     1 <1>   0.0800 
@<TRIPOS>BOND
  1   1   2  1   
  2   2   3  ar  
  3   2   4  ar  
  4   3   5  ar  
  5   3  24  1   
  6   4   6  ar  
  7   4  25  1   
  8   5   7  1   
  9   5   8  ar  
 10   6   8  ar  
 11   6  26  1   
 12   7   9  1   
 13   7  10  2   
 14   8  11  1   
 15   9  12  1   
 16   9  27  1   
 17  10  13  1   
 18  11  14  1   
 19  12  15  1   
 20  12  16  2   
 21  13  16  1   
 22  13  17  2   
 23  14  28  1   
 24  14  29  1   
 25  14  30  1   
 26  15  18  1   
 27  16  19  1   
 28  18  19  2   
 29  18  20  1   
 30  19  21  1   
 31  20  22  1   
 32  20  31  1   
 33  20  32  1   
 34  21  23  1   
 35  21  33  1   
 36  21  34  1   
 37  22  23  1   
 38  22  35  1   
 39  22  36  1   
 40  23  37  1   
 41  23  38  1   
@<TRIPOS>SUBSTRUCTURE
  1 ****   9 GROUP 4 **** **** 0

# MOE 2024.06 (io_trps.svl 2023.06)
