@<TRIPOS>MOLECULE
NONAME
19 20 1 0 0 
SMALL
USER_CHARGES


@<TRIPOS>ATOM
  1 N       -0.2400    -0.4840     0.0780 N.pl3 1 <1>   0.3000 
  2 N       -1.2860    -1.3280    -0.0350 N.2   1 <1>  -0.7070 
  3 C       -0.6410     0.8030     0.0560 C.2   1 <1>  -0.3320 
  4 C       -2.3260    -0.5530    -0.1240 C.2   1 <1>   0.1390 
  5 C       -1.9800     0.7930    -0.0690 C.2   1 <1>  -0.1810 
  6 C        0.2200     2.0470     0.1620 C.3   1 <1>   0.0200 
  7 C       -2.8380     2.0400    -0.1320 C.3   1 <1>   0.0210 
  8 C       -0.6060     3.2840    -0.2410 C.3   1 <1>  -0.1600 
  9 C       -2.0290     3.2580     0.3550 C.3   1 <1>  -0.1600 
 10 H        0.7260    -0.8190     0.1670 H     1 <1>   0.2700 
 11 H       -3.3330    -0.9210    -0.2260 H     1 <1>   0.1500 
 12 H        1.0820     1.9630    -0.4770 H     1 <1>   0.0800 
 13 H        0.5560     2.1520     1.1790 H     1 <1>   0.0800 
 14 H       -3.7160     1.9140     0.4770 H     1 <1>   0.0800 
 15 H       -3.1480     2.1920    -1.1510 H     1 <1>   0.0800 
 16 H       -0.6830     3.3130    -1.3150 H     1 <1>   0.0800 
 17 H       -0.0920     4.1750     0.0760 H     1 <1>   0.0800 
 18 H       -1.9550     3.2170     1.4280 H     1 <1>   0.0800 
 19 H       -2.5530     4.1610     0.0940 H     1 <1>   0.0800 
@<TRIPOS>BOND
  1   1   2  1   
  2   1   3  1   
  3   1  10  1   
  4   2   4  2   
  5   3   5  2   
  6   3   6  1   
  7   4   5  1   
  8   4  11  1   
  9   5   7  1   
 10   6   8  1   
 11   6  12  1   
 12   6  13  1   
 13   7   9  1   
 14   7  14  1   
 15   7  15  1   
 16   8   9  1   
 17   8  16  1   
 18   8  17  1   
 19   9  18  1   
 20   9  19  1   
@<TRIPOS>SUBSTRUCTURE
  1 ****   3 GROUP 4 **** **** 0

# MOE 2024.06 (io_trps.svl 2023.06)
