@<TRIPOS>MOLECULE
NONAME
39 39 1 0 0 
SMALL
USER_CHARGES


@<TRIPOS>ATOM
  1 O        0.4630     0.8330    -0.3660 O.2   1 <1>  -0.5700 
  2 C        1.1660     1.7980    -0.2230 C.2   1 <1>   0.5690 
  3 N        2.1190     2.0790    -1.1380 N.am  1 <1>  -0.7300 
  4 C        0.9710     2.6770     0.9880 C.3   1 <1>  -0.1790 
  5 C        3.0930     3.2010    -1.1540 C.3   1 <1>   0.1400 
  6 C        4.4550     2.7190    -0.6600 C.3   1 <1>   0.1200 
  7 O        5.3340     3.8190    -0.6620 O.3   1 <1>  -0.3630 
  8 C        6.6260     3.7070    -0.2370 C.ar  1 <1>   0.0820 
  9 C        7.4190     4.8570    -0.2360 C.ar  1 <1>   0.0820 
 10 C        7.1710     2.4990     0.1900 C.ar  1 <1>  -0.1500 
 11 O        6.8540     6.0250    -0.6620 O.3   1 <1>  -0.3620 
 12 C        8.7410     4.7780     0.1930 C.ar  1 <1>  -0.1500 
 13 C        8.4870     2.4360     0.6130 C.ar  1 <1>  -0.1500 
 14 C        7.5900     7.2250    -0.7230 C.3   1 <1>   0.0400 
 15 C        9.2770     3.5730     0.6180 C.ar  1 <1>  -0.1440 
 16 C       10.7230     3.4970     1.0830 C.3   1 <1>  -0.0170 
 17 C       11.6530     3.2100    -0.1010 C.3   1 <1>  -0.1600 
 18 C       13.1180     3.1280     0.3390 C.3   1 <1>  -0.2400 
 19 H        2.1660     1.4270    -1.9250 H     1 <1>   0.3700 
 20 H        1.8920     2.7620     1.5320 H     1 <1>   0.0800 
 21 H        0.2260     2.2460     1.6310 H     1 <1>   0.0800 
 22 H        0.6410     3.6510     0.6790 H     1 <1>   0.0800 
 23 H        2.7480     4.0000    -0.5220 H     1 <1>   0.0800 
 24 H        3.1850     3.5740    -2.1590 H     1 <1>   0.0800 
 25 H        4.8530     1.9670    -1.3190 H     1 <1>   0.0800 
 26 H        4.3800     2.3490     0.3470 H     1 <1>   0.0800 
 27 H        6.5940     1.5950     0.2010 H     1 <1>   0.1500 
 28 H        9.3700     5.6460     0.2020 H     1 <1>   0.1500 
 29 H        8.8950     1.4950     0.9380 H     1 <1>   0.1500 
 30 H        6.9410     7.9960    -1.0980 H     1 <1>   0.0800 
 31 H        8.4220     7.0910    -1.3910 H     1 <1>   0.0800 
 32 H        7.9250     7.4800     0.2670 H     1 <1>   0.0800 
 33 H       10.8250     2.7210     1.8220 H     1 <1>   0.0800 
 34 H       11.0020     4.4270     1.5470 H     1 <1>   0.0800 
 35 H       11.5440     3.9880    -0.8370 H     1 <1>   0.0800 
 36 H       11.3660     2.2800    -0.5610 H     1 <1>   0.0800 
 37 H       13.4320     4.0570     0.7810 H     1 <1>   0.0800 
 38 H       13.7460     2.9250    -0.5110 H     1 <1>   0.0800 
 39 H       13.2520     2.3380     1.0580 H     1 <1>   0.0800 
@<TRIPOS>BOND
  1   1   2  2   
  2   2   3  am  
  3   2   4  1   
  4   3   5  1   
  5   3  19  1   
  6   4  20  1   
  7   4  21  1   
  8   4  22  1   
  9   5   6  1   
 10   5  23  1   
 11   5  24  1   
 12   6   7  1   
 13   6  25  1   
 14   6  26  1   
 15   7   8  1   
 16   8   9  ar  
 17   8  10  ar  
 18   9  11  1   
 19   9  12  ar  
 20  10  13  ar  
 21  10  27  1   
 22  11  14  1   
 23  12  15  ar  
 24  12  28  1   
 25  13  15  ar  
 26  13  29  1   
 27  14  30  1   
 28  14  31  1   
 29  14  32  1   
 30  15  16  1   
 31  16  17  1   
 32  16  33  1   
 33  16  34  1   
 34  17  18  1   
 35  17  35  1   
 36  17  36  1   
 37  18  37  1   
 38  18  38  1   
 39  18  39  1   
@<TRIPOS>SUBSTRUCTURE
  1 ****   8 GROUP 4 **** **** 0

# MOE 2024.06 (io_trps.svl 2023.06)
