@<TRIPOS>MOLECULE
NONAME
35 37 1 0 0 
SMALL
USER_CHARGES


@<TRIPOS>ATOM
  1 S       -0.7440    -0.6440     0.2220 S.3   1 <1>  -0.3320 
  2 C       -1.1700     1.0950     0.2670 C.ar  1 <1>   0.4120 
  3 C        1.0980    -0.6760     0.0900 C.3   1 <1>   0.0700 
  4 N       -0.1690     1.9250     0.2030 N.ar  1 <1>  -0.6200 
  5 C       -2.5010     1.5110     0.3520 C.ar  1 <1>  -0.1520 
  6 C        1.5390    -2.1370     0.0450 C.3   1 <1>  -0.2400 
  7 C       -0.4970     3.2240     0.2100 C.ar  1 <1>   0.4700 
  8 N       -3.7440     0.9050     0.4420 N.pl3 1 <1>   0.0480 
  9 C       -2.6980     2.8770     0.3320 C.ar  1 <1>   0.2560 
 10 N       -1.6870     3.7520     0.2680 N.ar  1 <1>  -0.5660 
 11 C       -4.6850     1.8940     0.4410 C.2   1 <1>  -0.3320 
 12 C       -4.0770    -0.5370     0.5590 C.3   1 <1>   0.0960 
 13 C       -4.0810     3.1170     0.3820 C.2   1 <1>   0.0190 
 14 C       -6.1800     1.6100     0.4780 C.3   1 <1>   0.0200 
 15 C       -4.8190    -1.0390    -0.6860 C.3   1 <1>  -0.1600 
 16 C       -4.6540     4.4290     0.3580 C.1   1 <1>   0.5380 
 17 C       -6.6250     0.8240    -0.7620 C.3   1 <1>  -0.1600 
 18 C       -6.3150    -0.6810    -0.6980 C.3   1 <1>  -0.1600 
 19 N       -5.1560     5.4540     0.3430 N.1   1 <1>  -0.5570 
 20 H        1.4910    -0.1650     0.9510 H     1 <1>   0.0800 
 21 H        1.3650    -0.1490    -0.8090 H     1 <1>   0.0800 
 22 H        1.2300    -2.6450     0.9410 H     1 <1>   0.0800 
 23 H        2.6100    -2.1930    -0.0330 H     1 <1>   0.0800 
 24 H        1.1040    -2.6290    -0.8070 H     1 <1>   0.0800 
 25 H        0.3350     3.9080     0.1600 H     1 <1>   0.1500 
 26 H       -4.6840    -0.6810     1.4340 H     1 <1>   0.0800 
 27 H       -3.1860    -1.1110     0.6990 H     1 <1>   0.0800 
 28 H       -6.7170     2.5430     0.4980 H     1 <1>   0.0800 
 29 H       -6.4400     1.0760     1.3760 H     1 <1>   0.0800 
 30 H       -4.7400    -2.1120    -0.7060 H     1 <1>   0.0800 
 31 H       -4.3350    -0.6680    -1.5740 H     1 <1>   0.0800 
 32 H       -6.1750     1.2540    -1.6410 H     1 <1>   0.0800 
 33 H       -7.6910     0.9360    -0.8620 H     1 <1>   0.0800 
 34 H       -6.7900    -1.1060     0.1700 H     1 <1>   0.0800 
 35 H       -6.7610    -1.1490    -1.5590 H     1 <1>   0.0800 
@<TRIPOS>BOND
  1   1   2  1   
  2   1   3  1   
  3   2   4  ar  
  4   2   5  ar  
  5   3   6  1   
  6   3  20  1   
  7   3  21  1   
  8   4   7  ar  
  9   5   8  1   
 10   5   9  ar  
 11   6  22  1   
 12   6  23  1   
 13   6  24  1   
 14   7  10  ar  
 15   7  25  1   
 16   8  11  1   
 17   8  12  1   
 18   9  10  ar  
 19   9  13  1   
 20  11  13  2   
 21  11  14  1   
 22  12  15  1   
 23  12  26  1   
 24  12  27  1   
 25  13  16  1   
 26  14  17  1   
 27  14  28  1   
 28  14  29  1   
 29  15  18  1   
 30  15  30  1   
 31  15  31  1   
 32  16  19  3   
 33  17  18  1   
 34  17  32  1   
 35  17  33  1   
 36  18  34  1   
 37  18  35  1   
@<TRIPOS>SUBSTRUCTURE
  1 ****   5 GROUP 4 **** **** 0

# MOE 2024.06 (io_trps.svl 2023.06)
