@<TRIPOS>MOLECULE
NONAME
50 54 1 0 0 
SMALL
USER_CHARGES


@<TRIPOS>ATOM
  1 O       -0.0520    -0.1860     0.5410 O.2   1 <1>  -0.5700 
  2 C        0.2350    -1.3460     0.3710 C.2   1 <1>   0.5690 
  3 N        1.5170    -1.7490     0.1830 N.am  1 <1>  -0.7300 
  4 C       -0.8810    -2.3820     0.3670 C.3   1 <1>  -0.0190 
  5 C        2.7010    -0.8850     0.1330 C.3   1 <1>   0.2200 
  6 C       -1.0550    -3.0160    -1.0370 C.3   1 <1>   0.2070 
  7 C       -0.6770    -3.5010     1.4490 C.3   1 <1>  -0.1600 
  8 C        3.2730    -0.9200    -1.2870 C.3   1 <1>  -0.1600 
  9 C        3.7220    -1.3940     1.1550 C.3   1 <1>  -0.1600 
 10 C       -2.2430    -3.9700    -0.9060 C.ar  1 <1>  -0.1440 
 11 C        0.1620    -3.9170    -1.2680 C.ar  1 <1>  -0.1440 
 12 C       -0.7360    -4.9000     0.7930 C.3   1 <1>   0.2070 
 13 C        4.5850    -0.1270    -1.3790 C.3   1 <1>  -0.1600 
 14 C        5.0360    -0.6020     1.0700 C.3   1 <1>  -0.1600 
 15 C       -2.0760    -4.9580     0.0560 C.ar  1 <1>  -0.1440 
 16 C       -3.4110    -3.9060    -1.6460 C.ar  1 <1>  -0.1500 
 17 C        0.3400    -4.8920    -0.2960 C.ar  1 <1>  -0.1440 
 18 C        1.0610    -3.8000    -2.3140 C.ar  1 <1>  -0.1500 
 19 C        5.6090    -0.6320    -0.3540 C.3   1 <1>  -0.1600 
 20 C       -3.0770    -5.8860     0.2830 C.ar  1 <1>  -0.1500 
 21 C       -4.4130    -4.8350    -1.4180 C.ar  1 <1>  -0.1500 
 22 C        1.4240    -5.7500    -0.3610 C.ar  1 <1>  -0.1500 
 23 C        2.1450    -4.6590    -2.3780 C.ar  1 <1>  -0.1500 
 24 C       -4.2460    -5.8210    -0.4580 C.ar  1 <1>  -0.1500 
 25 C        2.3270    -5.6290    -1.4040 C.ar  1 <1>  -0.1500 
 26 H        1.6830    -2.7290    -0.0730 H     1 <1>   0.3700 
 27 H       -1.7940    -1.8630     0.5980 H     1 <1>   0.0800 
 28 H        2.4240     0.1270     0.3810 H     1 <1>   0.0800 
 29 H       -1.1910    -2.2820    -1.8120 H     1 <1>   0.0800 
 30 H       -1.4510    -3.4250     2.1920 H     1 <1>   0.0800 
 31 H        0.2680    -3.3840     1.9490 H     1 <1>   0.0800 
 32 H        2.5540    -0.4990    -1.9680 H     1 <1>   0.0800 
 33 H        3.4600    -1.9400    -1.5740 H     1 <1>   0.0800 
 34 H        3.9270    -2.4340     0.9710 H     1 <1>   0.0800 
 35 H        3.3110    -1.2960     2.1450 H     1 <1>   0.0800 
 36 H       -0.6120    -5.7010     1.5000 H     1 <1>   0.0800 
 37 H        4.3840     0.9150    -1.1970 H     1 <1>   0.0800 
 38 H        4.9920    -0.2160    -2.3710 H     1 <1>   0.0800 
 39 H        5.7530    -1.0170     1.7570 H     1 <1>   0.0800 
 40 H        4.8550     0.4190     1.3590 H     1 <1>   0.0800 
 41 H       -3.5430    -3.1430    -2.3930 H     1 <1>   0.1500 
 42 H        0.9220    -3.0470    -3.0700 H     1 <1>   0.1500 
 43 H        6.4950    -0.0220    -0.3980 H     1 <1>   0.0800 
 44 H        5.8930    -1.6410    -0.6020 H     1 <1>   0.0800 
 45 H       -2.9520    -6.6550     1.0250 H     1 <1>   0.1500 
 46 H       -5.3230    -4.7920    -1.9890 H     1 <1>   0.1500 
 47 H        1.5650    -6.5090     0.3890 H     1 <1>   0.1500 
 48 H        2.8490    -4.5750    -3.1880 H     1 <1>   0.1500 
 49 H       -5.0290    -6.5400    -0.2880 H     1 <1>   0.1500 
 50 H        3.1710    -6.2940    -1.4620 H     1 <1>   0.1500 
@<TRIPOS>BOND
  1   1   2  2   
  2   2   3  am  
  3   2   4  1   
  4   3   5  1   
  5   3  26  1   
  6   4   6  1   
  7   4   7  1   
  8   4  27  1   
  9   5   8  1   
 10   5   9  1   
 11   5  28  1   
 12   6  10  1   
 13   6  11  1   
 14   6  29  1   
 15   7  12  1   
 16   7  30  1   
 17   7  31  1   
 18   8  13  1   
 19   8  32  1   
 20   8  33  1   
 21   9  14  1   
 22   9  34  1   
 23   9  35  1   
 24  10  15  ar  
 25  10  16  ar  
 26  11  17  ar  
 27  11  18  ar  
 28  12  15  1   
 29  12  17  1   
 30  12  36  1   
 31  13  19  1   
 32  13  37  1   
 33  13  38  1   
 34  14  19  1   
 35  14  39  1   
 36  14  40  1   
 37  15  20  ar  
 38  16  21  ar  
 39  16  41  1   
 40  17  22  ar  
 41  18  23  ar  
 42  18  42  1   
 43  19  43  1   
 44  19  44  1   
 45  20  24  ar  
 46  20  45  1   
 47  21  24  ar  
 48  21  46  1   
 49  22  25  ar  
 50  22  47  1   
 51  23  25  ar  
 52  23  48  1   
 53  24  49  1   
 54  25  50  1   
@<TRIPOS>SUBSTRUCTURE
  1 ****  11 GROUP 4 **** **** 0

# MOE 2024.06 (io_trps.svl 2023.06)
