@<TRIPOS>MOLECULE
NONAME
35 35 1 0 0 
SMALL
USER_CHARGES


@<TRIPOS>ATOM
  1 S        0.3460    -0.2280     0.3960 S.o2  1 <1>   1.3330 
  2 O        1.4680    -0.6500     1.1980 O.2   1 <1>  -0.6500 
  3 O        0.3520    -0.3910    -1.0370 O.2   1 <1>  -0.6500 
  4 N        0.1220     1.4530     0.7320 N.am  1 <1>  -0.6930 
  5 C       -1.1290    -0.9540     1.0780 C.3   1 <1>  -0.1350 
  6 C       -1.0350     2.1090     0.3320 C.ar  1 <1>   0.1990 
  7 C        1.3830     2.2580     0.7470 C.3   1 <1>   0.2570 
  8 C       -1.9100     2.6010     1.2910 C.ar  1 <1>  -0.1500 
  9 C       -1.3470     2.2860    -1.0100 C.ar  1 <1>  -0.1500 
 10 C        2.1270     2.2970    -0.5900 C.2   1 <1>   0.6590 
 11 C       -3.0750     3.2460     0.9200 C.ar  1 <1>  -0.1500 
 12 C       -2.5120     2.9310    -1.3830 C.ar  1 <1>  -0.1500 
 13 O        1.9180     3.1560    -1.4100 O.2   1 <1>  -0.5700 
 14 O        3.0230     1.3370    -0.7920 O.3   1 <1>  -0.4300 
 15 C       -3.3860     3.4130    -0.4210 C.ar  1 <1>  -0.1430 
 16 C        3.6980     1.1950    -2.0230 C.3   1 <1>   0.0400 
 17 C       -4.6660     4.1220    -0.8320 C.3   1 <1>  -0.0170 
 18 C       -4.4260     5.6270    -0.9670 C.3   1 <1>  -0.2400 
 19 H       -1.1000    -2.0190     0.9640 H     1 <1>   0.0800 
 20 H       -1.9960    -0.5770     0.5720 H     1 <1>   0.0800 
 21 H       -1.2070    -0.7210     2.1220 H     1 <1>   0.0800 
 22 H        2.0450     1.8620     1.4950 H     1 <1>   0.0800 
 23 H        1.1450     3.2700     1.0210 H     1 <1>   0.0800 
 24 H       -1.6720     2.4760     2.3310 H     1 <1>   0.1500 
 25 H       -0.6730     1.9200    -1.7650 H     1 <1>   0.1500 
 26 H       -3.7420     3.6220     1.6770 H     1 <1>   0.1500 
 27 H       -2.7330     3.0590    -2.4280 H     1 <1>   0.1500 
 28 H        4.3660     0.3550    -1.9480 H     1 <1>   0.0800 
 29 H        4.2500     2.0950    -2.2260 H     1 <1>   0.0800 
 30 H        2.9700     1.0200    -2.7960 H     1 <1>   0.0800 
 31 H       -5.4320     3.9430    -0.0990 H     1 <1>   0.0800 
 32 H       -5.0140     3.7270    -1.7710 H     1 <1>   0.0800 
 33 H       -4.0930     6.0360    -0.0300 H     1 <1>   0.0800 
 34 H       -5.3340     6.1240    -1.2590 H     1 <1>   0.0800 
 35 H       -3.6730     5.8170    -1.7110 H     1 <1>   0.0800 
@<TRIPOS>BOND
  1   1   2  2   
  2   1   3  2   
  3   1   4  am  
  4   1   5  1   
  5   4   6  1   
  6   4   7  1   
  7   5  19  1   
  8   5  20  1   
  9   5  21  1   
 10   6   8  ar  
 11   6   9  ar  
 12   7  10  1   
 13   7  22  1   
 14   7  23  1   
 15   8  11  ar  
 16   8  24  1   
 17   9  12  ar  
 18   9  25  1   
 19  10  13  2   
 20  10  14  1   
 21  11  15  ar  
 22  11  26  1   
 23  12  15  ar  
 24  12  27  1   
 25  14  16  1   
 26  15  17  1   
 27  16  28  1   
 28  16  29  1   
 29  16  30  1   
 30  17  18  1   
 31  17  31  1   
 32  17  32  1   
 33  18  33  1   
 34  18  34  1   
 35  18  35  1   
@<TRIPOS>SUBSTRUCTURE
  1 ****   6 GROUP 4 **** **** 0

# MOE 2024.06 (io_trps.svl 2023.06)
