@<TRIPOS>MOLECULE
NONAME
39 40 1 0 0 
SMALL
USER_CHARGES


@<TRIPOS>ATOM
  1 F       -0.1800    -0.6920     1.2170 F     1 <1>  -0.3400 
  2 C       -1.4270    -0.9610     0.8470 C.3   1 <1>   1.1640 
  3 F       -1.8730     0.1270     0.2330 F     1 <1>  -0.3400 
  4 F       -2.1280    -1.0560     1.9750 F     1 <1>  -0.3400 
  5 C       -1.5550    -2.2170    -0.0210 C.ar  1 <1>  -0.1440 
  6 C       -2.8190    -2.7160    -0.3560 C.ar  1 <1>   0.1170 
  7 C       -0.4180    -2.8640    -0.4970 C.ar  1 <1>  -0.1500 
  8 N       -3.9970    -2.1120     0.1180 N.am  1 <1>  -0.5470 
  9 C       -2.9010    -3.8490    -1.1600 C.ar  1 <1>  -0.1500 
 10 C       -0.5210    -3.9900    -1.2940 C.ar  1 <1>  -0.1500 
 11 C       -5.1840    -1.8980    -0.5290 C.2   1 <1>   0.5690 
 12 C       -1.7670    -4.4830    -1.6270 C.ar  1 <1>  -0.1500 
 13 O       -5.3830    -2.2430    -1.6670 O.2   1 <1>  -0.5700 
 14 C       -6.2930    -1.1800     0.2400 C.3   1 <1>  -0.0190 
 15 C       -7.4380    -2.1450     0.5980 C.3   1 <1>  -0.1600 
 16 C       -6.8440     0.0240    -0.5470 C.3   1 <1>  -0.1600 
 17 C       -8.5680    -1.4290     1.3430 C.3   1 <1>   0.1400 
 18 C       -7.9760     0.7220     0.2100 C.3   1 <1>   0.1400 
 19 N       -9.0400    -0.2680     0.5390 N.am  1 <1>  -0.6600 
 20 C      -10.3510    -0.1750     0.1420 C.2   1 <1>   0.5690 
 21 O      -11.1840    -0.9840     0.4740 O.2   1 <1>  -0.5700 
 22 C      -10.8130     0.9620    -0.7390 C.3   1 <1>  -0.1790 
 23 H        0.5690    -2.5010    -0.2580 H     1 <1>   0.1500 
 24 H       -3.9520    -1.7460     1.0700 H     1 <1>   0.3700 
 25 H       -3.8670    -4.2420    -1.4280 H     1 <1>   0.1500 
 26 H        0.3660    -4.4820    -1.6560 H     1 <1>   0.1500 
 27 H       -1.8550    -5.3560    -2.2500 H     1 <1>   0.1500 
 28 H       -5.8780    -0.8060     1.1590 H     1 <1>   0.0800 
 29 H       -7.0640    -2.9470     1.2090 H     1 <1>   0.0800 
 30 H       -7.8400    -2.5810    -0.3010 H     1 <1>   0.0800 
 31 H       -7.2180    -0.3040    -1.5020 H     1 <1>   0.0800 
 32 H       -6.0520     0.7280    -0.7330 H     1 <1>   0.0800 
 33 H       -8.2200    -1.0750     2.2980 H     1 <1>   0.0800 
 34 H       -9.3730    -2.1230     1.5210 H     1 <1>   0.0800 
 35 H       -8.3600     1.5290    -0.3870 H     1 <1>   0.0800 
 36 H       -7.5990     1.1420     1.1270 H     1 <1>   0.0800 
 37 H      -10.6810     1.8960    -0.2280 H     1 <1>   0.0800 
 38 H      -11.8550     0.8400    -0.9700 H     1 <1>   0.0800 
 39 H      -10.2560     0.9610    -1.6560 H     1 <1>   0.0800 
@<TRIPOS>BOND
  1   1   2  1   
  2   2   3  1   
  3   2   4  1   
  4   2   5  1   
  5   5   6  ar  
  6   5   7  ar  
  7   6   8  1   
  8   6   9  ar  
  9   7  10  ar  
 10   7  23  1   
 11   8  11  am  
 12   8  24  1   
 13   9  12  ar  
 14   9  25  1   
 15  10  12  ar  
 16  10  26  1   
 17  11  13  2   
 18  11  14  1   
 19  12  27  1   
 20  14  15  1   
 21  14  16  1   
 22  14  28  1   
 23  15  17  1   
 24  15  29  1   
 25  15  30  1   
 26  16  18  1   
 27  16  31  1   
 28  16  32  1   
 29  17  19  1   
 30  17  33  1   
 31  17  34  1   
 32  18  19  1   
 33  18  35  1   
 34  18  36  1   
 35  19  20  am  
 36  20  21  2   
 37  20  22  1   
 38  22  37  1   
 39  22  38  1   
 40  22  39  1   
@<TRIPOS>SUBSTRUCTURE
  1 ****  11 GROUP 4 **** **** 0

# MOE 2024.06 (io_trps.svl 2023.06)
