@<TRIPOS>MOLECULE
NONAME
36 37 1 0 0 
SMALL
USER_CHARGES


@<TRIPOS>ATOM
  1 O       -5.5450     2.7130     0.1350 O.3   1 <1>  -0.3630 
  2 C       -4.2750     2.2490     0.0070 C.ar  1 <1>   0.0830 
  3 C       -6.6800     1.9490    -0.1860 C.3   1 <1>   0.1200 
  4 C       -3.2360     3.1050     0.3800 C.ar  1 <1>   0.0730 
  5 C       -3.9900     0.9720    -0.4740 C.ar  1 <1>  -0.1500 
  6 C       -7.9020     2.8310     0.0980 C.3   1 <1>   0.3430 
  7 C       -3.5110     4.4220     0.8780 C.1   1 <1>   0.4840 
  8 C       -1.9250     2.6590     0.2620 C.ar  1 <1>  -0.1500 
  9 C       -2.6780     0.5490    -0.5830 C.ar  1 <1>  -0.1500 
 10 N       -9.2030     2.1640    -0.2380 N.4   1 <1>  -0.9590 
 11 N       -3.7420     5.4670     1.2720 N.1   1 <1>  -0.5570 
 12 C       -1.6450     1.3910    -0.2150 C.ar  1 <1>  -0.1500 
 13 C      -10.3080     3.1690    -0.2010 C.3   1 <1>   0.3430 
 14 C       -9.5000     1.0070     0.6620 C.3   1 <1>   0.3430 
 15 C      -11.6090     2.5230    -0.6820 C.3   1 <1>  -0.1600 
 16 C      -10.7830     0.3110     0.2020 C.3   1 <1>  -0.1600 
 17 C      -11.9680     1.2840     0.1480 C.3   1 <1>  -0.1600 
 18 H       -6.6750     1.0700     0.4340 H     1 <1>   0.0800 
 19 H       -6.6250     1.6900    -1.2290 H     1 <1>   0.0800 
 20 H       -4.7650     0.2920    -0.7700 H     1 <1>   0.1500 
 21 H       -7.8030     3.7300    -0.4870 H     1 <1>   0.0800 
 22 H       -7.8970     3.1070     1.1400 H     1 <1>   0.0800 
 23 H       -1.1130     3.3080     0.5460 H     1 <1>   0.1500 
 24 H       -2.4550    -0.4380    -0.9550 H     1 <1>   0.1500 
 25 H       -9.1620     1.8090    -1.2020 H     1 <1>   0.4500 
 26 H       -0.6240     1.0590    -0.3010 H     1 <1>   0.1500 
 27 H      -10.0690     4.0070    -0.8370 H     1 <1>   0.0800 
 28 H      -10.4380     3.5330     0.8050 H     1 <1>   0.0800 
 29 H       -9.6240     1.3540     1.6750 H     1 <1>   0.0800 
 30 H       -8.6880     0.2980     0.6440 H     1 <1>   0.0800 
 31 H      -11.5160     2.2570    -1.7200 H     1 <1>   0.0800 
 32 H      -12.4070     3.2430    -0.6070 H     1 <1>   0.0800 
 33 H      -11.0130    -0.4890     0.8840 H     1 <1>   0.0800 
 34 H      -10.6250    -0.1290    -0.7670 H     1 <1>   0.0800 
 35 H      -12.8270     0.7930    -0.2800 H     1 <1>   0.0800 
 36 H      -12.2310     1.5860     1.1490 H     1 <1>   0.0800 
@<TRIPOS>BOND
  1   1   2  1   
  2   1   3  1   
  3   2   4  ar  
  4   2   5  ar  
  5   3   6  1   
  6   3  18  1   
  7   3  19  1   
  8   4   7  1   
  9   4   8  ar  
 10   5   9  ar  
 11   5  20  1   
 12   6  10  1   
 13   6  21  1   
 14   6  22  1   
 15   7  11  3   
 16   8  12  ar  
 17   8  23  1   
 18   9  12  ar  
 19   9  24  1   
 20  10  13  1   
 21  10  14  1   
 22  10  25  1   
 23  12  26  1   
 24  13  15  1   
 25  13  27  1   
 26  13  28  1   
 27  14  16  1   
 28  14  29  1   
 29  14  30  1   
 30  15  17  1   
 31  15  31  1   
 32  15  32  1   
 33  16  17  1   
 34  16  33  1   
 35  16  34  1   
 36  17  35  1   
 37  17  36  1   
@<TRIPOS>SUBSTRUCTURE
  1 ****   3 GROUP 4 **** **** 0

# MOE 2024.06 (io_trps.svl 2023.06)
