@<TRIPOS>MOLECULE
NONAME
45 48 1 0 0 
SMALL
USER_CHARGES


@<TRIPOS>ATOM
  1 O       -0.0370    -0.2990    -0.8360 O.2   1 <1>  -0.5700 
  2 C        0.1240    -1.4890    -0.6370 C.2   1 <1>   0.6900 
  3 N       -0.9380    -2.3510    -0.7110 N.am  1 <1>  -0.6600 
  4 N        1.3560    -2.0050    -0.3610 N.am  1 <1>  -0.5470 
  5 C       -1.0880    -3.5360     0.1860 C.3   1 <1>   0.1400 
  6 C       -2.2270    -1.9310    -1.3370 C.3   1 <1>   0.1400 
  7 C        2.5840    -1.3820    -0.0770 C.ar  1 <1>   0.1170 
  8 C       -2.2620    -3.3300     1.1590 C.3   1 <1>   0.1200 
  9 C       -3.3290    -1.8110    -0.2730 C.3   1 <1>   0.1200 
 10 C        3.7580    -2.0670    -0.3320 C.ar  1 <1>  -0.1500 
 11 C        2.6550    -0.0970     0.4810 C.ar  1 <1>  -0.1500 
 12 O       -3.4300    -2.9980     0.4640 O.3   1 <1>  -0.5600 
 13 C        4.9900    -1.4850    -0.0400 C.ar  1 <1>   0.0000 
 14 C        3.8660     0.4910     0.7730 C.ar  1 <1>  -0.1500 
 15 C        5.0410    -0.2130     0.5120 C.ar  1 <1>  -0.1520 
 16 C        6.3330    -1.9310    -0.1920 C.ar  1 <1>   0.0000 
 17 N        6.3670     0.1340     0.7060 N.pl3 1 <1>   0.0480 
 18 C        7.1580    -0.9130     0.2740 C.ar  1 <1>  -0.1520 
 19 C        6.8930    -3.1080    -0.6860 C.ar  1 <1>  -0.1500 
 20 C        6.8480     1.4050     1.2860 C.3   1 <1>   0.0960 
 21 C        8.5460    -1.0580     0.2470 C.ar  1 <1>  -0.1500 
 22 C        8.2640    -3.2510    -0.7090 C.ar  1 <1>  -0.1500 
 23 C        7.0450     2.4540     0.1890 C.3   1 <1>  -0.2400 
 24 C        9.0890    -2.2260    -0.2430 C.ar  1 <1>  -0.1500 
 25 H        1.4020    -3.0030    -0.5280 H     1 <1>   0.3700 
 26 H       -0.1910    -3.7010     0.7560 H     1 <1>   0.0800 
 27 H       -1.2740    -4.4120    -0.4120 H     1 <1>   0.0800 
 28 H       -2.5200    -2.6630    -2.0690 H     1 <1>   0.0800 
 29 H       -2.1150    -0.9880    -1.8450 H     1 <1>   0.0800 
 30 H       -2.0400    -2.5410     1.8570 H     1 <1>   0.0800 
 31 H       -2.4540    -4.2340     1.7090 H     1 <1>   0.0800 
 32 H       -4.2810    -1.6310    -0.7410 H     1 <1>   0.0800 
 33 H       -3.1150    -0.9980     0.4000 H     1 <1>   0.0800 
 34 H        3.7410    -3.0500    -0.7600 H     1 <1>   0.1500 
 35 H        1.7460     0.4380     0.6840 H     1 <1>   0.1500 
 36 H        3.9030     1.4790     1.1950 H     1 <1>   0.1500 
 37 H        6.2490    -3.8900    -1.0440 H     1 <1>   0.1500 
 38 H        7.7760     1.2230     1.7980 H     1 <1>   0.0800 
 39 H        6.1290     1.7500     2.0060 H     1 <1>   0.0800 
 40 H        9.1810    -0.2680     0.6030 H     1 <1>   0.1500 
 41 H        8.7090    -4.1540    -1.0880 H     1 <1>   0.1500 
 42 H        7.7740     2.1140    -0.5250 H     1 <1>   0.0800 
 43 H        7.3910     3.3760     0.6210 H     1 <1>   0.0800 
 44 H        6.1140     2.6410    -0.3180 H     1 <1>   0.0800 
 45 H       10.1570    -2.3560    -0.2710 H     1 <1>   0.1500 
@<TRIPOS>BOND
  1   1   2  2   
  2   2   3  am  
  3   2   4  am  
  4   3   5  1   
  5   3   6  1   
  6   4   7  1   
  7   4  25  1   
  8   5   8  1   
  9   5  26  1   
 10   5  27  1   
 11   6   9  1   
 12   6  28  1   
 13   6  29  1   
 14   7  10  ar  
 15   7  11  ar  
 16   8  12  1   
 17   8  30  1   
 18   8  31  1   
 19   9  12  1   
 20   9  32  1   
 21   9  33  1   
 22  10  13  ar  
 23  10  34  1   
 24  11  14  ar  
 25  11  35  1   
 26  13  15  ar  
 27  13  16  1   
 28  14  15  ar  
 29  14  36  1   
 30  15  17  1   
 31  16  18  ar  
 32  16  19  ar  
 33  17  18  1   
 34  17  20  1   
 35  18  21  ar  
 36  19  22  ar  
 37  19  37  1   
 38  20  23  1   
 39  20  38  1   
 40  20  39  1   
 41  21  24  ar  
 42  21  40  1   
 43  22  24  ar  
 44  22  41  1   
 45  23  42  1   
 46  23  43  1   
 47  23  44  1   
 48  24  45  1   
@<TRIPOS>SUBSTRUCTURE
  1 ****   7 GROUP 4 **** **** 0

# MOE 2024.06 (io_trps.svl 2023.06)
