@<TRIPOS>MOLECULE
NONAME
62 65 1 0 0 
SMALL
USER_CHARGES


@<TRIPOS>ATOM
  1 O       -9.2930     4.9630     0.2090 O.3   1 <1>  -0.3630 
  2 C      -10.6460     5.0060     0.1230 C.ar  1 <1>   0.0830 
  3 C       -8.6180     3.7660     0.5290 C.3   1 <1>   0.1200 
  4 C      -11.2180     6.2320    -0.1680 C.ar  1 <1>  -0.1500 
  5 C      -11.4730     3.9050     0.3090 C.ar  1 <1>  -0.1500 
  6 C       -7.1100     4.0480     0.5340 C.3   1 <1>   0.2000 
  7 C      -12.5910     6.3630    -0.2760 C.ar  1 <1>  -0.1500 
  8 C      -12.8460     4.0440     0.2000 C.ar  1 <1>  -0.1500 
  9 O       -6.7620     4.6710    -0.6660 O.3   1 <1>  -0.6800 
 10 C       -6.2660     2.7650     0.6980 C.3   1 <1>   0.3430 
 11 C      -13.4350     5.2700    -0.0940 C.ar  1 <1>  -0.1440 
 12 N       -4.8950     2.9660     0.1270 N.4   1 <1>  -0.9590 
 13 C      -14.9750     5.3680    -0.2050 C.3   1 <1>   0.1440 
 14 C       -4.2940     1.7220    -0.4220 C.3   1 <1>   0.3430 
 15 C       -4.0000     3.6800     1.0740 C.3   1 <1>   0.3430 
 16 C      -15.4830     4.4270    -1.3240 C.3   1 <1>  -0.1600 
 17 C      -15.4730     6.7990    -0.5370 C.3   1 <1>  -0.1600 
 18 C      -15.6280     4.9460     1.1340 C.3   1 <1>  -0.1600 
 19 C       -4.9950     1.3510    -1.7240 C.3   1 <1>  -0.2400 
 20 C       -2.8830     4.3680     0.2980 C.3   1 <1>  -0.2400 
 21 C      -17.0200     4.4620    -1.4270 C.3   1 <1>  -0.0800 
 22 C      -17.0090     6.8540    -0.6390 C.3   1 <1>  -0.0800 
 23 C      -17.1650     4.9830     1.0400 C.3   1 <1>  -0.0800 
 24 C      -17.4750     5.8960    -1.7500 C.3   1 <1>  -0.1600 
 25 C      -17.6260     4.0290    -0.0790 C.3   1 <1>  -0.1600 
 26 C      -17.6190     6.4140     0.7030 C.3   1 <1>  -0.1600 
 27 H       -8.8650     3.0280    -0.2150 H     1 <1>   0.0800 
 28 H       -8.9500     3.4380     1.4990 H     1 <1>   0.0800 
 29 H      -10.5840     7.0880    -0.3120 H     1 <1>   0.1500 
 30 H      -11.0790     2.9340     0.5370 H     1 <1>   0.1500 
 31 H       -6.8870     4.7330     1.3340 H     1 <1>   0.0800 
 32 H      -12.9750     7.3390    -0.5040 H     1 <1>   0.1500 
 33 H      -13.4580     3.1730     0.3480 H     1 <1>   0.1500 
 34 H       -7.4580     5.3380    -0.8810 H     1 <1>   0.4000 
 35 H       -6.7640     1.9730     0.1650 H     1 <1>   0.0800 
 36 H       -6.2130     2.4790     1.7360 H     1 <1>   0.0800 
 37 H       -5.0730     3.6210    -0.6610 H     1 <1>   0.4500 
 38 H       -4.3760     0.9190     0.2930 H     1 <1>   0.0800 
 39 H       -3.2480     1.8820    -0.6300 H     1 <1>   0.0800 
 40 H       -3.5890     2.9920     1.7950 H     1 <1>   0.0800 
 41 H       -4.5610     4.4340     1.6040 H     1 <1>   0.0800 
 42 H      -15.1740     3.4160    -1.1320 H     1 <1>   0.0800 
 43 H      -15.0490     4.7230    -2.2630 H     1 <1>   0.0800 
 44 H      -15.0510     7.1220    -1.4720 H     1 <1>   0.0800 
 45 H      -15.1520     7.4820     0.2300 H     1 <1>   0.0800 
 46 H      -15.2950     5.6050     1.9160 H     1 <1>   0.0800 
 47 H      -15.3230     3.9510     1.4010 H     1 <1>   0.0800 
 48 H       -6.0250     1.0910    -1.5620 H     1 <1>   0.0800 
 49 H       -4.5050     0.4960    -2.1550 H     1 <1>   0.0800 
 50 H       -4.9330     2.1590    -2.4310 H     1 <1>   0.0800 
 51 H       -2.2410     3.6560    -0.1880 H     1 <1>   0.0800 
 52 H       -2.2800     4.9390     0.9810 H     1 <1>   0.0800 
 53 H       -3.2910     5.0460    -0.4310 H     1 <1>   0.0800 
 54 H      -17.3470     3.7930    -2.2050 H     1 <1>   0.0800 
 55 H      -17.3230     7.8570    -0.8700 H     1 <1>   0.0800 
 56 H      -17.5940     4.6770     1.9790 H     1 <1>   0.0800 
 57 H      -18.5470     5.9280    -1.8340 H     1 <1>   0.0800 
 58 H      -17.0630     6.2050    -2.6950 H     1 <1>   0.0800 
 59 H      -17.3220     3.0230     0.1520 H     1 <1>   0.0800 
 60 H      -18.7010     4.0380    -0.1440 H     1 <1>   0.0800 
 61 H      -18.6930     6.4520     0.6460 H     1 <1>   0.0800 
 62 H      -17.3090     7.0870     1.4840 H     1 <1>   0.0800 
@<TRIPOS>BOND
  1   1   2  1   
  2   1   3  1   
  3   2   4  ar  
  4   2   5  ar  
  5   3   6  1   
  6   3  27  1   
  7   3  28  1   
  8   4   7  ar  
  9   4  29  1   
 10   5   8  ar  
 11   5  30  1   
 12   6   9  1   
 13   6  10  1   
 14   6  31  1   
 15   7  11  ar  
 16   7  32  1   
 17   8  11  ar  
 18   8  33  1   
 19   9  34  1   
 20  10  12  1   
 21  10  35  1   
 22  10  36  1   
 23  11  13  1   
 24  12  14  1   
 25  12  15  1   
 26  12  37  1   
 27  13  16  1   
 28  13  17  1   
 29  13  18  1   
 30  14  19  1   
 31  14  38  1   
 32  14  39  1   
 33  15  20  1   
 34  15  40  1   
 35  15  41  1   
 36  16  21  1   
 37  16  42  1   
 38  16  43  1   
 39  17  22  1   
 40  17  44  1   
 41  17  45  1   
 42  18  23  1   
 43  18  46  1   
 44  18  47  1   
 45  19  48  1   
 46  19  49  1   
 47  19  50  1   
 48  20  51  1   
 49  20  52  1   
 50  20  53  1   
 51  21  24  1   
 52  21  25  1   
 53  21  54  1   
 54  22  24  1   
 55  22  26  1   
 56  22  55  1   
 57  23  25  1   
 58  23  26  1   
 59  23  56  1   
 60  24  57  1   
 61  24  58  1   
 62  25  59  1   
 63  25  60  1   
 64  26  61  1   
 65  26  62  1   
@<TRIPOS>SUBSTRUCTURE
  1 ****   5 GROUP 4 **** **** 0

# MOE 2024.06 (io_trps.svl 2023.06)
