@<TRIPOS>MOLECULE
NONAME
51 53 1 0 0 
SMALL
USER_CHARGES


@<TRIPOS>ATOM
  1 S        0.0710    -1.1100     3.4720 S.o2  1 <1>   1.4470 
  2 O       -0.4510    -0.7800     4.7740 O.2   1 <1>  -0.6500 
  3 O        1.2030    -1.9940     3.3260 O.2   1 <1>  -0.6500 
  4 N        0.5430     0.4160     2.8430 N.am  1 <1>  -0.7570 
  5 C       -1.2760    -1.6180     2.3660 C.ar  1 <1>  -0.0090 
  6 C        0.8830     0.7500     1.5370 C.ar  1 <1>   0.1990 
  7 C       -2.1460    -0.6960     1.8020 C.ar  1 <1>  -0.1500 
  8 C       -1.4680    -2.9560     2.0510 C.ar  1 <1>  -0.1500 
  9 C        0.8370     2.0840     1.1490 C.ar  1 <1>  -0.1500 
 10 C        1.2470    -0.2040     0.5910 C.ar  1 <1>  -0.1500 
 11 C       -3.1600    -1.0570     0.9180 C.ar  1 <1>   0.0860 
 12 C       -2.4800    -3.3510     1.1940 C.ar  1 <1>  -0.1500 
 13 C        1.1230     2.4610    -0.1520 C.ar  1 <1>  -0.1500 
 14 C        1.5300     0.1660    -0.7110 C.ar  1 <1>  -0.1500 
 15 C       -3.3220    -2.4130     0.6240 C.ar  1 <1>  -0.1430 
 16 C       -3.9820    -0.0180     0.3230 C.2   1 <1>   0.5440 
 17 C        1.4670     1.4960    -1.0940 C.ar  1 <1>   0.0830 
 18 C       -4.4220    -2.8710    -0.3260 C.3   1 <1>  -0.0960 
 19 O       -5.1540     0.0780     0.6370 O.2   1 <1>  -0.5700 
 20 N       -3.4470     0.8730    -0.5830 N.am  1 <1>  -0.6600 
 21 O        1.7500     1.7720    -2.3940 O.3   1 <1>  -0.3620 
 22 C       -4.2550     2.0270    -1.0800 C.3   1 <1>   0.1400 
 23 C       -2.0740     0.7040    -1.1520 C.3   1 <1>   0.1400 
 24 C        1.9290     3.1030    -2.8270 C.3   1 <1>   0.0400 
 25 C       -3.3400     3.2000    -1.4480 C.3   1 <1>  -0.1600 
 26 C       -1.9790     1.3300    -2.5460 C.3   1 <1>  -0.1600 
 27 C       -2.3150     2.8310    -2.5350 C.3   1 <1>  -0.1600 
 28 H        0.3340     1.1470     3.5140 H     1 <1>   0.4200 
 29 H       -2.0410     0.3480     2.0400 H     1 <1>   0.1500 
 30 H       -0.8160    -3.7000     2.4780 H     1 <1>   0.1500 
 31 H        0.5700     2.8350     1.8690 H     1 <1>   0.1500 
 32 H        1.3190    -1.2410     0.8620 H     1 <1>   0.1500 
 33 H       -2.6030    -4.3980     0.9730 H     1 <1>   0.1500 
 34 H        1.0700     3.5010    -0.4140 H     1 <1>   0.1500 
 35 H        1.8070    -0.5740    -1.4400 H     1 <1>   0.1500 
 36 H       -4.3280    -2.3680    -1.2720 H     1 <1>   0.0800 
 37 H       -5.3860    -2.6370     0.0920 H     1 <1>   0.0800 
 38 H       -4.3740    -3.9310    -0.4980 H     1 <1>   0.0800 
 39 H       -4.9500     2.3390    -0.3190 H     1 <1>   0.0800 
 40 H       -4.8180     1.7140    -1.9420 H     1 <1>   0.0800 
 41 H       -1.8260    -0.3420    -1.2170 H     1 <1>   0.0800 
 42 H       -1.3670     1.1800    -0.4970 H     1 <1>   0.0800 
 43 H        2.2240     3.0810    -3.8610 H     1 <1>   0.0800 
 44 H        2.7040     3.5610    -2.2370 H     1 <1>   0.0800 
 45 H        1.0000     3.6340    -2.7240 H     1 <1>   0.0800 
 46 H       -2.8240     3.5110    -0.5560 H     1 <1>   0.0800 
 47 H       -3.9370     4.0310    -1.7800 H     1 <1>   0.0800 
 48 H       -2.6630     0.8100    -3.1940 H     1 <1>   0.0800 
 49 H       -0.9890     1.1840    -2.9400 H     1 <1>   0.0800 
 50 H       -1.4180     3.4000    -2.3680 H     1 <1>   0.0800 
 51 H       -2.6990     3.1040    -3.5030 H     1 <1>   0.0800 
@<TRIPOS>BOND
  1   1   2  2   
  2   1   3  2   
  3   1   4  am  
  4   1   5  1   
  5   4   6  1   
  6   4  28  1   
  7   5   7  ar  
  8   5   8  ar  
  9   6   9  ar  
 10   6  10  ar  
 11   7  11  ar  
 12   7  29  1   
 13   8  12  ar  
 14   8  30  1   
 15   9  13  ar  
 16   9  31  1   
 17  10  14  ar  
 18  10  32  1   
 19  11  15  ar  
 20  11  16  1   
 21  12  15  ar  
 22  12  33  1   
 23  13  17  ar  
 24  13  34  1   
 25  14  17  ar  
 26  14  35  1   
 27  15  18  1   
 28  16  19  2   
 29  16  20  am  
 30  17  21  1   
 31  18  36  1   
 32  18  37  1   
 33  18  38  1   
 34  20  22  1   
 35  20  23  1   
 36  21  24  1   
 37  22  25  1   
 38  22  39  1   
 39  22  40  1   
 40  23  26  1   
 41  23  41  1   
 42  23  42  1   
 43  24  43  1   
 44  24  44  1   
 45  24  45  1   
 46  25  27  1   
 47  25  46  1   
 48  25  47  1   
 49  26  27  1   
 50  26  48  1   
 51  26  49  1   
 52  27  50  1   
 53  27  51  1   
@<TRIPOS>SUBSTRUCTURE
  1 ****  23 GROUP 4 **** **** 0

# MOE 2024.06 (io_trps.svl 2023.06)
