@<TRIPOS>MOLECULE
NONAME
48 50 1 0 0 
SMALL
USER_CHARGES


@<TRIPOS>ATOM
  1 O       -5.6220     3.8150    -1.5010 O.3   1 <1>  -0.3630 
  2 C       -6.2170     3.1660    -0.4950 C.ar  1 <1>   0.0830 
  3 C       -4.9660     4.9440    -0.9260 C.3   1 <1>   0.4000 
  4 C       -5.9390     3.7790     0.6900 C.ar  1 <1>   0.0830 
  5 C       -7.0050     2.0350    -0.5550 C.ar  1 <1>  -0.1500 
  6 O       -5.1610     4.8470     0.4840 O.3   1 <1>  -0.3630 
  7 C       -6.4310     3.2940     1.8850 C.ar  1 <1>  -0.1500 
  8 C       -7.5050     1.5170     0.6370 C.ar  1 <1>  -0.1440 
  9 C       -7.2190     2.1500     1.8470 C.ar  1 <1>  -0.1500 
 10 C       -8.3220     0.2390     0.6080 C.3   1 <1>   0.2640 
 11 O       -7.3880    -0.7800     0.4570 O.3   1 <1>  -0.5600 
 12 C       -7.8670    -2.0650     0.2510 C.3   1 <1>   0.1200 
 13 C       -6.6670    -2.9200    -0.1850 C.3   1 <1>   0.2000 
 14 O       -7.0060    -4.2670    -0.1290 O.3   1 <1>  -0.6800 
 15 C       -5.3930    -2.6800     0.6630 C.3   1 <1>   0.3430 
 16 N       -4.3110    -1.9290    -0.0650 N.4   1 <1>  -0.9590 
 17 C       -2.9980    -2.0520     0.6230 C.3   1 <1>   0.3430 
 18 C       -4.6690    -0.4830    -0.2760 C.3   1 <1>   0.3430 
 19 C       -1.8760    -1.5990    -0.3320 C.3   1 <1>  -0.0800 
 20 C       -3.4440     0.3780    -0.6210 C.3   1 <1>  -0.1600 
 21 C       -2.3080    -0.4380    -1.2560 C.3   1 <1>  -0.1600 
 22 C       -1.3540    -2.7750    -1.1700 C.3   1 <1>  -0.2400 
 23 H       -5.4200     5.8490    -1.2900 H     1 <1>   0.0800 
 24 H       -3.9140     4.9080    -1.1500 H     1 <1>   0.0800 
 25 H       -7.2130     1.5770    -1.5050 H     1 <1>   0.1500 
 26 H       -6.2030     3.7950     2.8080 H     1 <1>   0.1500 
 27 H       -7.6060     1.7520     2.7700 H     1 <1>   0.1500 
 28 H       -8.9980     0.2350    -0.2310 H     1 <1>   0.0800 
 29 H       -8.8650     0.0900     1.5260 H     1 <1>   0.0800 
 30 H       -8.6140    -2.0460    -0.5250 H     1 <1>   0.0800 
 31 H       -8.2900    -2.4160     1.1760 H     1 <1>   0.0800 
 32 H       -6.4500    -2.7130    -1.2190 H     1 <1>   0.0800 
 33 H       -7.4810    -4.5010     0.6940 H     1 <1>   0.4000 
 34 H       -5.0090    -3.6430     0.9560 H     1 <1>   0.0800 
 35 H       -5.6620    -2.1400     1.5560 H     1 <1>   0.0800 
 36 H       -4.1830    -2.3540    -0.9920 H     1 <1>   0.4500 
 37 H       -2.8220    -3.0700     0.9290 H     1 <1>   0.0800 
 38 H       -2.9970    -1.4270     1.5020 H     1 <1>   0.0800 
 39 H       -5.1320    -0.0810     0.6110 H     1 <1>   0.0800 
 40 H       -5.3910    -0.4110    -1.0730 H     1 <1>   0.0800 
 41 H       -1.0630    -1.2560     0.2860 H     1 <1>   0.0800 
 42 H       -3.0880     0.8480     0.2790 H     1 <1>   0.0800 
 43 H       -3.7500     1.1700    -1.2840 H     1 <1>   0.0800 
 44 H       -2.6550    -0.8210    -2.2010 H     1 <1>   0.0800 
 45 H       -1.4630     0.1990    -1.4600 H     1 <1>   0.0800 
 46 H       -2.1260    -3.1830    -1.7990 H     1 <1>   0.0800 
 47 H       -0.9840    -3.5590    -0.5320 H     1 <1>   0.0800 
 48 H       -0.5420    -2.4500    -1.7990 H     1 <1>   0.0800 
@<TRIPOS>BOND
  1   1   2  1   
  2   1   3  1   
  3   2   4  ar  
  4   2   5  ar  
  5   3   6  1   
  6   3  23  1   
  7   3  24  1   
  8   4   6  1   
  9   4   7  ar  
 10   5   8  ar  
 11   5  25  1   
 12   7   9  ar  
 13   7  26  1   
 14   8   9  ar  
 15   8  10  1   
 16   9  27  1   
 17  10  11  1   
 18  10  28  1   
 19  10  29  1   
 20  11  12  1   
 21  12  13  1   
 22  12  30  1   
 23  12  31  1   
 24  13  14  1   
 25  13  15  1   
 26  13  32  1   
 27  14  33  1   
 28  15  16  1   
 29  15  34  1   
 30  15  35  1   
 31  16  17  1   
 32  16  18  1   
 33  16  36  1   
 34  17  19  1   
 35  17  37  1   
 36  17  38  1   
 37  18  20  1   
 38  18  39  1   
 39  18  40  1   
 40  19  21  1   
 41  19  22  1   
 42  19  41  1   
 43  20  21  1   
 44  20  42  1   
 45  20  43  1   
 46  21  44  1   
 47  21  45  1   
 48  22  46  1   
 49  22  47  1   
 50  22  48  1   
@<TRIPOS>SUBSTRUCTURE
  1 ****  18 GROUP 4 **** **** 0

# MOE 2024.06 (io_trps.svl 2023.06)
