@<TRIPOS>MOLECULE
NONAME
40 41 1 0 0 
SMALL
USER_CHARGES


@<TRIPOS>ATOM
  1 BR       0.2410    -0.2820    -0.3100 Br    1 <1>  -0.1110 
  2 C       -1.5310    -1.0250    -0.1790 C.ar  1 <1>   0.1110 
  3 C       -1.6720    -2.3550     0.1650 C.ar  1 <1>  -0.1500 
  4 C       -2.6150    -0.2070    -0.4330 C.ar  1 <1>  -0.1500 
  5 C       -2.9460    -2.8930     0.2600 C.ar  1 <1>  -0.1440 
  6 C       -3.8860    -0.7450    -0.3370 C.ar  1 <1>  -0.1500 
  7 C       -4.0580    -2.0880     0.0080 C.ar  1 <1>   0.0830 
  8 C       -3.1200    -4.3570     0.6390 C.3   1 <1>  -0.0960 
  9 O       -5.2840    -2.6670     0.1150 O.3   1 <1>  -0.3630 
 10 C       -6.4700    -1.9470    -0.1240 C.3   1 <1>   0.1200 
 11 C       -7.6450    -2.9030     0.0750 C.3   1 <1>  -0.1600 
 12 C       -8.9750    -2.2050    -0.2220 C.3   1 <1>   0.1100 
 13 N      -10.1100    -3.0620     0.1620 N.3   1 <1>  -0.8100 
 14 C      -11.3450    -2.2690     0.3200 C.3   1 <1>   0.1100 
 15 C      -10.3070    -4.2030    -0.7590 C.3   1 <1>   0.1100 
 16 C      -12.5140    -3.1470     0.8080 C.3   1 <1>   0.3430 
 17 C      -11.4630    -5.1070    -0.2870 C.3   1 <1>   0.3430 
 18 N      -12.7300    -4.3270    -0.0930 N.4   1 <1>  -0.9060 
 19 H       -0.7970    -2.9500     0.3530 H     1 <1>   0.1500 
 20 H       -2.4640     0.8240    -0.6970 H     1 <1>   0.1500 
 21 H       -4.7240    -0.1050    -0.5350 H     1 <1>   0.1500 
 22 H       -2.1700    -4.8340     0.7990 H     1 <1>   0.0800 
 23 H       -3.6380    -4.8770    -0.1460 H     1 <1>   0.0800 
 24 H       -3.6980    -4.4320     1.5420 H     1 <1>   0.0800 
 25 H       -6.4420    -1.5780    -1.1350 H     1 <1>   0.0800 
 26 H       -6.5170    -1.1300     0.5750 H     1 <1>   0.0800 
 27 H       -7.6430    -3.2430     1.0960 H     1 <1>   0.0800 
 28 H       -7.5090    -3.7410    -0.5820 H     1 <1>   0.0800 
 29 H       -9.0370    -1.9410    -1.2650 H     1 <1>   0.0800 
 30 H       -9.0090    -1.2960     0.3570 H     1 <1>   0.0800 
 31 H      -11.6040    -1.7980    -0.6140 H     1 <1>   0.0800 
 32 H      -11.1750    -1.4920     1.0460 H     1 <1>   0.0800 
 33 H       -9.4130    -4.8000    -0.7940 H     1 <1>   0.0800 
 34 H      -10.5030    -3.8440    -1.7560 H     1 <1>   0.0800 
 35 H      -13.4110    -2.5520     0.8610 H     1 <1>   0.0800 
 36 H      -12.2840    -3.4900     1.8040 H     1 <1>   0.0800 
 37 H      -11.1720    -5.5630     0.6450 H     1 <1>   0.0800 
 38 H      -11.6180    -5.8940    -1.0070 H     1 <1>   0.0800 
 39 H      -13.0560    -3.9920    -1.0060 H     1 <1>   0.4500 
 40 H      -13.4600    -4.9370     0.2960 H     1 <1>   0.4500 
@<TRIPOS>BOND
  1   1   2  1   
  2   2   3  ar  
  3   2   4  ar  
  4   3   5  ar  
  5   3  19  1   
  6   4   6  ar  
  7   4  20  1   
  8   5   7  ar  
  9   5   8  1   
 10   6   7  ar  
 11   6  21  1   
 12   7   9  1   
 13   8  22  1   
 14   8  23  1   
 15   8  24  1   
 16   9  10  1   
 17  10  11  1   
 18  10  25  1   
 19  10  26  1   
 20  11  12  1   
 21  11  27  1   
 22  11  28  1   
 23  12  13  1   
 24  12  29  1   
 25  12  30  1   
 26  13  14  1   
 27  13  15  1   
 28  14  16  1   
 29  14  31  1   
 30  14  32  1   
 31  15  17  1   
 32  15  33  1   
 33  15  34  1   
 34  16  18  1   
 35  16  35  1   
 36  16  36  1   
 37  17  18  1   
 38  17  37  1   
 39  17  38  1   
 40  18  39  1   
 41  18  40  1   
@<TRIPOS>SUBSTRUCTURE
  1 ****  10 GROUP 4 **** **** 0

# MOE 2024.06 (io_trps.svl 2023.06)
