@<TRIPOS>MOLECULE
NONAME
41 43 1 0 0 
SMALL
USER_CHARGES


@<TRIPOS>ATOM
  1 F        0.1600     1.2720     1.7510 F     1 <1>  -0.1900 
  2 C       -0.5220     2.1920     1.1230 C.ar  1 <1>   0.1900 
  3 C       -1.8320     1.9350     0.7780 C.ar  1 <1>  -0.1500 
  4 C        0.1000     3.3880     0.8270 C.ar  1 <1>  -0.1500 
  5 C       -2.5660     2.9070     0.1070 C.ar  1 <1>   0.1170 
  6 C       -0.6280     4.3580     0.1600 C.ar  1 <1>  -0.1500 
  7 N       -3.8950     2.6620    -0.2780 N.am  1 <1>  -0.5470 
  8 C       -1.9490     4.1260    -0.1990 C.ar  1 <1>  -0.1430 
  9 C       -4.8990     2.0110     0.3870 C.2   1 <1>   0.5690 
 10 C       -2.7160     5.2270    -0.9230 C.3   1 <1>  -0.0960 
 11 O       -4.6920     1.5220     1.4760 O.2   1 <1>  -0.5700 
 12 C       -6.2800     1.7680    -0.2800 C.3   1 <1>  -0.0190 
 13 C       -6.9700     2.9000    -1.1280 C.3   1 <1>  -0.1860 
 14 C       -7.3310     1.2210     0.7360 C.3   1 <1>  -0.0800 
 15 C       -6.0970     4.0760    -1.5300 C.2   1 <1>   0.9060 
 16 C       -8.3370     3.2990    -0.5110 C.3   1 <1>  -0.0800 
 17 C       -8.6240     0.8340    -0.0170 C.3   1 <1>  -0.1600 
 18 C       -7.6970     2.3350     1.7430 C.3   1 <1>  -0.1600 
 19 O       -6.2350     5.1930    -1.0290 O.co2 1 <1>  -0.9000 
 20 O       -5.2110     3.8500    -2.3620 O.co2 1 <1>  -0.9000 
 21 C       -9.2810     2.0860    -0.6410 C.3   1 <1>  -0.1600 
 22 C       -8.1550     3.6010     0.9900 C.3   1 <1>  -0.1600 
 23 H       -2.2770     0.9910     1.0270 H     1 <1>   0.1500 
 24 H        1.1220     3.5520     1.1120 H     1 <1>   0.1500 
 25 H       -0.1620     5.2980    -0.0800 H     1 <1>   0.1500 
 26 H       -4.1980     3.1670    -1.1340 H     1 <1>   0.3700 
 27 H       -3.6570     5.4100    -0.4330 H     1 <1>   0.0800 
 28 H       -2.9150     4.9320    -1.9380 H     1 <1>   0.0800 
 29 H       -2.1650     6.1480    -0.9380 H     1 <1>   0.0800 
 30 H       -6.0810     0.9690    -0.9700 H     1 <1>   0.0800 
 31 H       -7.2040     2.4550    -2.0770 H     1 <1>   0.0800 
 32 H       -6.9450     0.3600     1.2550 H     1 <1>   0.0800 
 33 H       -8.7450     4.1550    -1.0220 H     1 <1>   0.0800 
 34 H       -9.3150     0.3650     0.6610 H     1 <1>   0.0800 
 35 H       -8.3880     0.1230    -0.7900 H     1 <1>   0.0800 
 36 H       -6.8540     2.5760     2.3670 H     1 <1>   0.0800 
 37 H       -8.4860     1.9900     2.3870 H     1 <1>   0.0800 
 38 H       -9.5050     1.9040    -1.6770 H     1 <1>   0.0800 
 39 H      -10.2070     2.3020    -0.1380 H     1 <1>   0.0800 
 40 H       -9.0780     3.9620     1.4080 H     1 <1>   0.0800 
 41 H       -7.4190     4.3780     1.1090 H     1 <1>   0.0800 
@<TRIPOS>BOND
  1   1   2  1   
  2   2   3  ar  
  3   2   4  ar  
  4   3   5  ar  
  5   3  23  1   
  6   4   6  ar  
  7   4  24  1   
  8   5   7  1   
  9   5   8  ar  
 10   6   8  ar  
 11   6  25  1   
 12   7   9  am  
 13   7  26  1   
 14   8  10  1   
 15   9  11  2   
 16   9  12  1   
 17  10  27  1   
 18  10  28  1   
 19  10  29  1   
 20  12  13  1   
 21  12  14  1   
 22  12  30  1   
 23  13  15  1   
 24  13  16  1   
 25  13  31  1   
 26  14  17  1   
 27  14  18  1   
 28  14  32  1   
 29  15  19  ar  
 30  15  20  ar  
 31  16  21  1   
 32  16  22  1   
 33  16  33  1   
 34  17  21  1   
 35  17  34  1   
 36  17  35  1   
 37  18  22  1   
 38  18  36  1   
 39  18  37  1   
 40  21  38  1   
 41  21  39  1   
 42  22  40  1   
 43  22  41  1   
@<TRIPOS>SUBSTRUCTURE
  1 ****   7 GROUP 4 **** **** 0

# MOE 2024.06 (io_trps.svl 2023.06)
