@<TRIPOS>MOLECULE
NONAME
48 52 1 0 0 
SMALL
USER_CHARGES


@<TRIPOS>ATOM
  1 F       -0.4230    -0.3520     0.1160 F     1 <1>  -0.1900 
  2 C       -1.7090    -0.1250     0.0600 C.ar  1 <1>   0.1900 
  3 C       -2.2100     1.0270     0.6340 C.ar  1 <1>  -0.1500 
  4 C       -2.5220    -1.0460    -0.5710 C.ar  1 <1>  -0.1500 
  5 C       -3.5740     1.2590     0.5710 C.ar  1 <1>  -0.1500 
  6 C       -3.8830    -0.7980    -0.6270 C.ar  1 <1>  -0.1500 
  7 C       -4.4270     0.3550    -0.0620 C.ar  1 <1>   0.1170 
  8 N       -5.8170     0.5420    -0.1410 N.am  1 <1>  -0.5470 
  9 C       -6.5910     1.6810    -0.1090 C.2   1 <1>   0.5440 
 10 O       -6.0730     2.7710     0.0320 O.2   1 <1>  -0.5700 
 11 C       -8.0300     1.5710    -0.2370 C.ar  1 <1>   0.0860 
 12 C       -8.8780     2.4590     0.4260 C.ar  1 <1>  -0.1500 
 13 C       -8.6360     0.5840    -1.0180 C.ar  1 <1>  -0.1500 
 14 C      -10.2530     2.3560     0.3340 C.ar  1 <1>  -0.1500 
 15 C      -10.0110     0.4790    -1.1110 C.ar  1 <1>  -0.1500 
 16 C      -10.8460     1.3580    -0.4290 C.ar  1 <1>   0.1170 
 17 N      -12.2420     1.2930    -0.4920 N.am  1 <1>  -0.5470 
 18 C      -13.0770     0.2420    -0.7770 C.2   1 <1>   0.5690 
 19 O      -12.6710    -0.8720    -0.9930 O.2   1 <1>  -0.5700 
 20 C      -14.5910     0.4530    -0.8020 C.3   1 <1>  -0.0190 
 21 C      -15.0630     1.8900    -1.1550 C.3   1 <1>  -0.0190 
 22 C      -15.2440     0.2210     0.5830 C.3   1 <1>  -0.0800 
 23 C      -16.2430     1.8200    -2.0900 C.2   1 <1>   0.6590 
 24 C      -15.7510     2.3520     0.1400 C.3   1 <1>  -0.0800 
 25 C      -16.7800     0.1980     0.4140 C.3   1 <1>  -0.1600 
 26 C      -15.0630     1.5740     1.2500 C.3   1 <1>  -0.1600 
 27 O      -16.1880     1.9030    -3.2850 O.2   1 <1>  -0.5700 
 28 O      -17.3560     1.6640    -1.4040 O.3   1 <1>  -0.4300 
 29 C      -17.1070     1.6420    -0.0190 C.3   1 <1>   0.2000 
 30 H       -1.5490     1.7220     1.1180 H     1 <1>   0.1500 
 31 H       -2.0950    -1.9310    -1.0060 H     1 <1>   0.1500 
 32 H       -3.9710     2.1500     1.0220 H     1 <1>   0.1500 
 33 H       -4.5260    -1.5050    -1.1180 H     1 <1>   0.1500 
 34 H       -6.3490    -0.3190    -0.2480 H     1 <1>   0.3700 
 35 H       -8.4390     3.2410     1.0230 H     1 <1>   0.1500 
 36 H       -8.0290    -0.1080    -1.5740 H     1 <1>   0.1500 
 37 H      -10.8680     3.0590     0.8660 H     1 <1>   0.1500 
 38 H      -10.4370    -0.2920    -1.7270 H     1 <1>   0.1500 
 39 H      -12.7150     2.1530    -0.2290 H     1 <1>   0.3700 
 40 H      -14.9870    -0.2570    -1.5090 H     1 <1>   0.0800 
 41 H      -14.3040     2.5530    -1.5250 H     1 <1>   0.0800 
 42 H      -14.8480    -0.6220     1.1260 H     1 <1>   0.0800 
 43 H      -15.8280     3.4170     0.2750 H     1 <1>   0.0800 
 44 H      -17.2430    -0.0090     1.3640 H     1 <1>   0.0800 
 45 H      -17.1110    -0.5350    -0.3020 H     1 <1>   0.0800 
 46 H      -14.0350     1.8520     1.3950 H     1 <1>   0.0800 
 47 H      -15.5890     1.6450     2.1890 H     1 <1>   0.0800 
 48 H      -17.9260     2.0890     0.5200 H     1 <1>   0.0800 
@<TRIPOS>BOND
  1   1   2  1   
  2   2   3  ar  
  3   2   4  ar  
  4   3   5  ar  
  5   3  30  1   
  6   4   6  ar  
  7   4  31  1   
  8   5   7  ar  
  9   5  32  1   
 10   6   7  ar  
 11   6  33  1   
 12   7   8  1   
 13   8   9  am  
 14   8  34  1   
 15   9  10  2   
 16   9  11  1   
 17  11  12  ar  
 18  11  13  ar  
 19  12  14  ar  
 20  12  35  1   
 21  13  15  ar  
 22  13  36  1   
 23  14  16  ar  
 24  14  37  1   
 25  15  16  ar  
 26  15  38  1   
 27  16  17  1   
 28  17  18  am  
 29  17  39  1   
 30  18  19  2   
 31  18  20  1   
 32  20  21  1   
 33  20  22  1   
 34  20  40  1   
 35  21  23  1   
 36  21  24  1   
 37  21  41  1   
 38  22  25  1   
 39  22  26  1   
 40  22  42  1   
 41  23  27  2   
 42  23  28  1   
 43  24  26  1   
 44  24  29  1   
 45  24  43  1   
 46  25  29  1   
 47  25  44  1   
 48  25  45  1   
 49  26  46  1   
 50  26  47  1   
 51  28  29  1   
 52  29  48  1   
@<TRIPOS>SUBSTRUCTURE
  1 ****  16 GROUP 4 **** **** 0

# MOE 2024.06 (io_trps.svl 2023.06)
