@<TRIPOS>MOLECULE
NONAME
52 53 1 0 0 
SMALL
USER_CHARGES


@<TRIPOS>ATOM
  1 O        1.0860     3.2270    -0.8440 O.3   1 <1>  -0.5600 
  2 C        0.9630     2.7860     0.4810 C.3   1 <1>   0.2000 
  3 C        0.6100     4.5100    -1.1620 C.3   1 <1>   0.2000 
  4 C       -0.5260     2.7680     0.9180 C.3   1 <1>   0.3430 
  5 C        1.8630     3.6330     1.3890 C.3   1 <1>  -0.2400 
  6 C       -0.6800     4.8720    -0.3780 C.3   1 <1>   0.3430 
  7 C        0.3660     4.5030    -2.6700 C.3   1 <1>  -0.2400 
  8 N       -1.4030     3.6400     0.0610 N.4   1 <1>  -0.9590 
  9 C       -2.7760     3.8680     0.6050 C.3   1 <1>   0.3430 
 10 C       -3.6560     2.6170     0.3950 C.3   1 <1>   0.2000 
 11 O       -3.3260     2.0330    -0.8290 O.3   1 <1>  -0.6800 
 12 C       -5.1550     2.9380     0.4050 C.3   1 <1>   0.1200 
 13 O       -5.8610     1.7690     0.0460 O.3   1 <1>  -0.3630 
 14 C       -7.2160     1.7590    -0.0240 C.ar  1 <1>   0.0820 
 15 C       -7.8160     0.5530    -0.3430 C.ar  1 <1>  -0.1500 
 16 C       -8.0130     2.8770     0.2030 C.ar  1 <1>  -0.1500 
 17 C       -9.1930     0.4560    -0.4350 C.ar  1 <1>  -0.1500 
 18 C       -9.3900     2.7750     0.1100 C.ar  1 <1>  -0.1500 
 19 C       -9.9950     1.5660    -0.2090 C.ar  1 <1>  -0.1430 
 20 C      -11.5130     1.4410    -0.3150 C.3   1 <1>   0.0630 
 21 C      -12.0610     2.3450    -1.4240 C.3   1 <1>  -0.2400 
 22 C      -12.1820     1.7580     1.0260 C.3   1 <1>  -0.2400 
 23 H        1.3340     1.7740     0.5020 H     1 <1>   0.0800 
 24 H        1.3860     5.2220    -0.9350 H     1 <1>   0.0800 
 25 H       -0.5830     3.0810     1.9470 H     1 <1>   0.0800 
 26 H       -0.8840     1.7520     0.8700 H     1 <1>   0.0800 
 27 H        1.5150     4.6460     1.4760 H     1 <1>   0.0800 
 28 H        2.8680     3.6350     1.0040 H     1 <1>   0.0800 
 29 H        1.8900     3.2050     2.3750 H     1 <1>   0.0800 
 30 H       -1.3130     5.4790    -1.0040 H     1 <1>   0.0800 
 31 H       -0.4100     5.4590     0.4830 H     1 <1>   0.0800 
 32 H       -0.3840     3.7780    -2.9320 H     1 <1>   0.0800 
 33 H        1.2800     4.2600    -3.1840 H     1 <1>   0.0800 
 34 H        0.0430     5.4720    -3.0040 H     1 <1>   0.0800 
 35 H       -1.5650     3.0760    -0.7980 H     1 <1>   0.4500 
 36 H       -3.2330     4.6860     0.0740 H     1 <1>   0.0800 
 37 H       -2.7380     4.1300     1.6490 H     1 <1>   0.0800 
 38 H       -3.4490     1.8960     1.1670 H     1 <1>   0.0800 
 39 H       -4.0380     1.3940    -1.0710 H     1 <1>   0.4000 
 40 H       -5.3860     3.7070    -0.3120 H     1 <1>   0.0800 
 41 H       -5.4760     3.2390     1.3870 H     1 <1>   0.0800 
 42 H       -7.2040    -0.3120    -0.5190 H     1 <1>   0.1500 
 43 H       -7.5930     3.8310     0.4510 H     1 <1>   0.1500 
 44 H       -9.6370    -0.4920    -0.6840 H     1 <1>   0.1500 
 45 H       -9.9950     3.6460     0.2880 H     1 <1>   0.1500 
 46 H      -11.7590     0.4240    -0.5710 H     1 <1>   0.0800 
 47 H      -11.8890     3.3810    -1.1960 H     1 <1>   0.0800 
 48 H      -13.1190     2.1900    -1.5420 H     1 <1>   0.0800 
 49 H      -11.5750     2.1140    -2.3550 H     1 <1>   0.0800 
 50 H      -12.0130     2.7820     1.3080 H     1 <1>   0.0800 
 51 H      -11.7810     1.1210     1.7940 H     1 <1>   0.0800 
 52 H      -13.2420     1.5900     0.9620 H     1 <1>   0.0800 
@<TRIPOS>BOND
  1   1   2  1   
  2   1   3  1   
  3   2   4  1   
  4   2   5  1   
  5   2  23  1   
  6   3   6  1   
  7   3   7  1   
  8   3  24  1   
  9   4   8  1   
 10   4  25  1   
 11   4  26  1   
 12   5  27  1   
 13   5  28  1   
 14   5  29  1   
 15   6   8  1   
 16   6  30  1   
 17   6  31  1   
 18   7  32  1   
 19   7  33  1   
 20   7  34  1   
 21   8   9  1   
 22   8  35  1   
 23   9  10  1   
 24   9  36  1   
 25   9  37  1   
 26  10  11  1   
 27  10  12  1   
 28  10  38  1   
 29  11  39  1   
 30  12  13  1   
 31  12  40  1   
 32  12  41  1   
 33  13  14  1   
 34  14  15  ar  
 35  14  16  ar  
 36  15  17  ar  
 37  15  42  1   
 38  16  18  ar  
 39  16  43  1   
 40  17  19  ar  
 41  17  44  1   
 42  18  19  ar  
 43  18  45  1   
 44  19  20  1   
 45  20  21  1   
 46  20  22  1   
 47  20  46  1   
 48  21  47  1   
 49  21  48  1   
 50  21  49  1   
 51  22  50  1   
 52  22  51  1   
 53  22  52  1   
@<TRIPOS>SUBSTRUCTURE
  1 ****  12 GROUP 4 **** **** 0

# MOE 2024.06 (io_trps.svl 2023.06)
