@<TRIPOS>MOLECULE
NONAME
44 45 1 0 0 
SMALL
USER_CHARGES


@<TRIPOS>ATOM
  1 S        0.7290    -1.2510    -0.6520 S.o2  1 <1>   1.4470 
  2 O        1.0400    -0.2310    -1.6300 O.2   1 <1>  -0.6500 
  3 O        1.4910    -2.4750    -0.6210 O.2   1 <1>  -0.6500 
  4 N        0.9510    -0.5540     0.8550 N.am  1 <1>  -0.9140 
  5 C       -1.0470    -1.6160    -0.6770 C.ar  1 <1>  -0.0090 
  6 C        2.2150     0.1730     0.9560 C.3   1 <1>   0.3370 
  7 C       -1.9840    -0.5900    -0.6980 C.ar  1 <1>  -0.1500 
  8 C       -1.5170    -2.9230    -0.6630 C.ar  1 <1>  -0.1500 
  9 C        3.4490    -0.7660     1.0010 C.2   1 <1>   0.5690 
 10 C        2.1220     1.0280     2.2210 C.3   1 <1>  -0.2400 
 11 C       -3.3460    -0.8460    -0.7070 C.ar  1 <1>  -0.1440 
 12 C       -2.8720    -3.2000    -0.6720 C.ar  1 <1>  -0.1500 
 13 O        3.5210    -1.5440     1.9270 O.2   1 <1>  -0.5700 
 14 N        4.4160    -0.7300     0.0290 N.am  1 <1>  -0.6600 
 15 C       -3.7980    -2.1610    -0.6940 C.ar  1 <1>   0.0830 
 16 C       -4.3330     0.3120    -0.7320 C.3   1 <1>  -0.0970 
 17 C        4.3820     0.0590    -1.2240 C.3   1 <1>   0.1400 
 18 C        5.5370    -1.6950     0.0120 C.3   1 <1>   0.1400 
 19 O       -5.1400    -2.3690    -0.7040 O.3   1 <1>  -0.3620 
 20 C        5.7070    -0.2480    -1.9120 C.3   1 <1>  -0.1600 
 21 C        6.0820    -1.6390    -1.4110 C.3   1 <1>  -0.1600 
 22 C       -5.6930    -3.6660    -0.7090 C.3   1 <1>   0.0400 
 23 H        1.0850    -1.3560     1.4740 H     1 <1>   0.4200 
 24 H        2.3050     0.8510     0.1270 H     1 <1>   0.0800 
 25 H       -1.6310     0.4270    -0.7070 H     1 <1>   0.1500 
 26 H       -0.8120    -3.7380    -0.6450 H     1 <1>   0.1500 
 27 H        2.0120     0.4050     3.0910 H     1 <1>   0.0800 
 28 H        1.2850     1.7000     2.1550 H     1 <1>   0.0800 
 29 H        3.0190     1.6090     2.3320 H     1 <1>   0.0800 
 30 H       -3.1850    -4.2260    -0.6600 H     1 <1>   0.1500 
 31 H       -3.8250     1.2590    -0.7370 H     1 <1>   0.0800 
 32 H       -4.9690     0.2670     0.1340 H     1 <1>   0.0800 
 33 H       -4.9470     0.2470    -1.6130 H     1 <1>   0.0800 
 34 H        4.2800     1.1120    -1.0240 H     1 <1>   0.0800 
 35 H        3.5650    -0.2820    -1.8380 H     1 <1>   0.0800 
 36 H        5.1970    -2.6850     0.2670 H     1 <1>   0.0800 
 37 H        6.2840    -1.3760     0.7190 H     1 <1>   0.0800 
 38 H        6.4430     0.4680    -1.5920 H     1 <1>   0.0800 
 39 H        5.6190    -0.2080    -2.9830 H     1 <1>   0.0800 
 40 H        5.5840    -2.3880    -2.0020 H     1 <1>   0.0800 
 41 H        7.1420    -1.8170    -1.4400 H     1 <1>   0.0800 
 42 H       -6.7640    -3.5720    -0.7240 H     1 <1>   0.0800 
 43 H       -5.3850    -4.1810     0.1840 H     1 <1>   0.0800 
 44 H       -5.3590    -4.1850    -1.5900 H     1 <1>   0.0800 
@<TRIPOS>BOND
  1   1   2  2   
  2   1   3  2   
  3   1   4  am  
  4   1   5  1   
  5   4   6  1   
  6   4  23  1   
  7   5   7  ar  
  8   5   8  ar  
  9   6   9  1   
 10   6  10  1   
 11   6  24  1   
 12   7  11  ar  
 13   7  25  1   
 14   8  12  ar  
 15   8  26  1   
 16   9  13  2   
 17   9  14  am  
 18  10  27  1   
 19  10  28  1   
 20  10  29  1   
 21  11  15  ar  
 22  11  16  1   
 23  12  15  ar  
 24  12  30  1   
 25  14  17  1   
 26  14  18  1   
 27  15  19  1   
 28  16  31  1   
 29  16  32  1   
 30  16  33  1   
 31  17  20  1   
 32  17  34  1   
 33  17  35  1   
 34  18  21  1   
 35  18  36  1   
 36  18  37  1   
 37  19  22  1   
 38  20  21  1   
 39  20  38  1   
 40  20  39  1   
 41  21  40  1   
 42  21  41  1   
 43  22  42  1   
 44  22  43  1   
 45  22  44  1   
@<TRIPOS>SUBSTRUCTURE
  1 ****   1 GROUP 4 **** **** 0

# MOE 2024.06 (io_trps.svl 2023.06)
