@<TRIPOS>MOLECULE
NONAME
42 43 1 0 0 
SMALL
USER_CHARGES


@<TRIPOS>ATOM
  1 O       -1.5990    -1.0710     0.5490 O.co2 1 <1>  -0.9000 
  2 C       -2.4120    -0.3670     1.1500 C.2   1 <1>   0.9060 
  3 O       -3.0290    -0.7920     2.1360 O.co2 1 <1>  -0.9000 
  4 C       -2.6970     1.0510     0.6710 C.3   1 <1>  -0.1860 
  5 C       -4.1520     1.5150     0.9680 C.3   1 <1>  -0.0190 
  6 C       -2.3560     1.2340    -0.8210 C.3   1 <1>  -0.0220 
  7 C       -5.2120     0.6250     0.3000 C.2   1 <1>   0.5690 
  8 C       -4.3170     3.0140     0.6290 C.3   1 <1>  -0.0220 
  9 C       -2.7710     2.6100    -1.3190 C.2   1 <1>  -0.2880 
 10 O       -5.8290     1.0180    -0.6660 O.2   1 <1>  -0.5700 
 11 N       -5.4220    -0.6040     0.8500 N.am  1 <1>  -0.5470 
 12 C       -3.6300     3.4020    -0.6730 C.2   1 <1>  -0.2880 
 13 C       -6.2250    -1.6550     0.3870 C.ar  1 <1>   0.1170 
 14 C       -7.6220    -1.5910     0.3200 C.ar  1 <1>   0.0830 
 15 C       -5.5940    -2.8250    -0.0110 C.ar  1 <1>  -0.1500 
 16 O       -8.2840    -0.4860     0.7410 O.3   1 <1>  -0.3630 
 17 C       -8.3520    -2.6730    -0.1490 C.ar  1 <1>  -0.1500 
 18 C       -6.3230    -3.9030    -0.4820 C.ar  1 <1>  -0.1500 
 19 C       -8.8730     0.2990    -0.2680 C.3   1 <1>   0.1200 
 20 C       -7.7040    -3.8280    -0.5540 C.ar  1 <1>  -0.1500 
 21 C       -9.1670     1.6810     0.3140 C.3   1 <1>  -0.1600 
 22 C       -9.7960     2.6060    -0.7330 C.3   1 <1>  -0.2400 
 23 H       -2.0340     1.6810     1.2330 H     1 <1>   0.0800 
 24 H       -4.3170     1.4230     2.0260 H     1 <1>   0.0800 
 25 H       -2.8520     0.4790    -1.4070 H     1 <1>   0.0800 
 26 H       -1.2950     1.1060    -0.9520 H     1 <1>   0.0800 
 27 H       -3.8880     3.6020     1.4200 H     1 <1>   0.0800 
 28 H       -5.3640     3.2560     0.5730 H     1 <1>   0.0800 
 29 H       -2.3090     2.8780    -2.2530 H     1 <1>   0.1500 
 30 H       -4.6680    -0.8810     1.5120 H     1 <1>   0.3700 
 31 H       -3.9100     4.3780    -1.0290 H     1 <1>   0.1500 
 32 H       -4.5190    -2.8790     0.0490 H     1 <1>   0.1500 
 33 H       -9.4230    -2.6110    -0.1880 H     1 <1>   0.1500 
 34 H       -5.8110    -4.7970    -0.7900 H     1 <1>   0.1500 
 35 H       -9.7750    -0.1870    -0.5930 H     1 <1>   0.0800 
 36 H       -8.1830     0.3730    -1.0920 H     1 <1>   0.0800 
 37 H       -8.2710    -4.6660    -0.9190 H     1 <1>   0.1500 
 38 H       -8.2410     2.1130     0.6560 H     1 <1>   0.0800 
 39 H       -9.8330     1.5790     1.1530 H     1 <1>   0.0800 
 40 H       -9.1260     2.7310    -1.5660 H     1 <1>   0.0800 
 41 H       -9.9890     3.5730    -0.3010 H     1 <1>   0.0800 
 42 H      -10.7250     2.1970    -1.0890 H     1 <1>   0.0800 
@<TRIPOS>BOND
  1   1   2  ar  
  2   2   3  ar  
  3   2   4  1   
  4   4   5  1   
  5   4   6  1   
  6   4  23  1   
  7   5   7  1   
  8   5   8  1   
  9   5  24  1   
 10   6   9  1   
 11   6  25  1   
 12   6  26  1   
 13   7  10  2   
 14   7  11  am  
 15   8  12  1   
 16   8  27  1   
 17   8  28  1   
 18   9  12  2   
 19   9  29  1   
 20  11  13  1   
 21  11  30  1   
 22  12  31  1   
 23  13  14  ar  
 24  13  15  ar  
 25  14  16  1   
 26  14  17  ar  
 27  15  18  ar  
 28  15  32  1   
 29  16  19  1   
 30  17  20  ar  
 31  17  33  1   
 32  18  20  ar  
 33  18  34  1   
 34  19  21  1   
 35  19  35  1   
 36  19  36  1   
 37  20  37  1   
 38  21  22  1   
 39  21  38  1   
 40  21  39  1   
 41  22  40  1   
 42  22  41  1   
 43  22  42  1   
@<TRIPOS>SUBSTRUCTURE
  1 ****   7 GROUP 4 **** **** 0

# MOE 2024.06 (io_trps.svl 2023.06)
