@<TRIPOS>MOLECULE
NONAME
53 55 1 0 0 
SMALL
USER_CHARGES


@<TRIPOS>ATOM
  1 O       -2.2550     0.0880     1.2470 O.2   1 <1>  -0.5700 
  2 C       -2.9240    -0.7390     0.6580 C.2   1 <1>   0.7060 
  3 O       -4.2350    -0.5230     0.6050 O.3   1 <1>  -0.2330 
  4 C       -2.3910    -1.9190     0.0270 C.2   1 <1>  -0.1240 
  5 C       -5.1050    -1.3360    -0.0310 C.ar  1 <1>   0.0820 
  6 C       -3.2230    -2.7930    -0.6050 C.2   1 <1>  -0.1670 
  7 C       -0.8720    -2.1020     0.1270 C.3   1 <1>  -0.0220 
  8 C       -4.6320    -2.4950    -0.6690 C.ar  1 <1>   0.0280 
  9 C       -6.4520    -0.9830    -0.0360 C.ar  1 <1>  -0.1440 
 10 C       -2.7520    -4.0990    -1.2520 C.3   1 <1>  -0.1020 
 11 C       -0.4990    -2.8860     1.3880 C.3   1 <1>  -0.2400 
 12 C       -5.5760    -3.2860    -1.3350 C.ar  1 <1>  -0.1500 
 13 C       -7.3470    -1.7900    -0.7250 C.ar  1 <1>   0.0830 
 14 C       -6.9190     0.2700     0.7060 C.3   1 <1>  -0.0970 
 15 C       -6.9100    -2.9410    -1.3610 C.ar  1 <1>  -0.1500 
 16 O       -8.6550    -1.4860    -0.7940 O.3   1 <1>  -0.3630 
 17 C       -9.0290    -0.5380    -1.7880 C.3   1 <1>   0.1810 
 18 C      -10.2690     0.2370    -1.3690 C.2   1 <1>   0.5690 
 19 O      -10.7270     1.0410    -2.1440 O.2   1 <1>  -0.5700 
 20 N      -10.8030    -0.0140    -0.1360 N.am  1 <1>  -0.5470 
 21 C      -11.9610     0.5050     0.4620 C.ar  1 <1>   0.1170 
 22 C      -12.0820     1.8640     0.7720 C.ar  1 <1>  -0.1430 
 23 C      -13.0050    -0.3660     0.7830 C.ar  1 <1>  -0.1430 
 24 C      -13.2370     2.3300     1.3780 C.ar  1 <1>  -0.1500 
 25 C      -10.9730     2.8640     0.4710 C.3   1 <1>  -0.0970 
 26 C      -14.1490     0.1190     1.3920 C.ar  1 <1>  -0.1500 
 27 C      -12.9160    -1.8540     0.4630 C.3   1 <1>  -0.0970 
 28 C      -14.2680     1.4640     1.6880 C.ar  1 <1>  -0.1500 
 29 H       -0.3840    -1.1430     0.1510 H     1 <1>   0.0800 
 30 H       -0.4870    -2.6030    -0.7420 H     1 <1>   0.0800 
 31 H       -2.8790    -4.0470    -2.3190 H     1 <1>   0.0800 
 32 H       -3.3280    -4.9230    -0.8720 H     1 <1>   0.0800 
 33 H       -1.7240    -4.3250    -1.0490 H     1 <1>   0.0800 
 34 H       -0.8250    -2.3520     2.2640 H     1 <1>   0.0800 
 35 H        0.5670    -3.0140     1.4420 H     1 <1>   0.0800 
 36 H       -0.9650    -3.8550     1.3810 H     1 <1>   0.0800 
 37 H       -5.2760    -4.1820    -1.8440 H     1 <1>   0.1500 
 38 H       -6.3910     0.3740     1.6380 H     1 <1>   0.0800 
 39 H       -7.9670     0.2280     0.9350 H     1 <1>   0.0800 
 40 H       -6.7280     1.1420     0.1060 H     1 <1>   0.0800 
 41 H       -7.6240    -3.5600    -1.8760 H     1 <1>   0.1500 
 42 H       -9.2210    -1.0690    -2.7010 H     1 <1>   0.0800 
 43 H       -8.2190     0.1520    -1.9410 H     1 <1>   0.0800 
 44 H      -10.3650    -0.7930     0.3570 H     1 <1>   0.3700 
 45 H      -13.3430     3.3740     1.6120 H     1 <1>   0.1500 
 46 H      -10.0110     2.4420     0.6960 H     1 <1>   0.0800 
 47 H      -11.0920     3.7570     1.0570 H     1 <1>   0.0800 
 48 H      -11.0020     3.1340    -0.5700 H     1 <1>   0.0800 
 49 H      -14.9590    -0.5440     1.6400 H     1 <1>   0.1500 
 50 H      -12.7300    -1.9920    -0.5870 H     1 <1>   0.0800 
 51 H      -13.8330    -2.3580     0.7100 H     1 <1>   0.0800 
 52 H      -12.1180    -2.3060     1.0240 H     1 <1>   0.0800 
 53 H      -15.1610     1.8360     2.1590 H     1 <1>   0.1500 
@<TRIPOS>BOND
  1   1   2  2   
  2   2   3  1   
  3   2   4  1   
  4   3   5  1   
  5   4   6  2   
  6   4   7  1   
  7   5   8  ar  
  8   5   9  ar  
  9   6   8  1   
 10   6  10  1   
 11   7  11  1   
 12   7  29  1   
 13   7  30  1   
 14   8  12  ar  
 15   9  13  ar  
 16   9  14  1   
 17  10  31  1   
 18  10  32  1   
 19  10  33  1   
 20  11  34  1   
 21  11  35  1   
 22  11  36  1   
 23  12  15  ar  
 24  12  37  1   
 25  13  15  ar  
 26  13  16  1   
 27  14  38  1   
 28  14  39  1   
 29  14  40  1   
 30  15  41  1   
 31  16  17  1   
 32  17  18  1   
 33  17  42  1   
 34  17  43  1   
 35  18  19  2   
 36  18  20  am  
 37  20  21  1   
 38  20  44  1   
 39  21  22  ar  
 40  21  23  ar  
 41  22  24  ar  
 42  22  25  1   
 43  23  26  ar  
 44  23  27  1   
 45  24  28  ar  
 46  24  45  1   
 47  25  46  1   
 48  25  47  1   
 49  25  48  1   
 50  26  28  ar  
 51  26  49  1   
 52  27  50  1   
 53  27  51  1   
 54  27  52  1   
 55  28  53  1   
@<TRIPOS>SUBSTRUCTURE
  1 ****   9 GROUP 4 **** **** 0

# MOE 2024.06 (io_trps.svl 2023.06)
