@<TRIPOS>MOLECULE
NONAME
40 41 1 0 0 
SMALL
USER_CHARGES


@<TRIPOS>ATOM
  1 CL       2.8520    -1.6640    -3.9520 Cl    1 <1>  -0.1770 
  2 C        3.2370    -1.7990    -2.2510 C.ar  1 <1>   0.1770 
  3 C        2.3750    -2.4340    -1.3730 C.ar  1 <1>   0.1900 
  4 C        4.4210    -1.2600    -1.7850 C.ar  1 <1>  -0.1500 
  5 F        1.2520    -2.9460    -1.8100 F     1 <1>  -0.1900 
  6 C        2.6770    -2.5430    -0.0300 C.ar  1 <1>  -0.1500 
  7 C        4.7520    -1.3530    -0.4350 C.ar  1 <1>   0.1170 
  8 C        3.8670    -2.0010     0.4300 C.ar  1 <1>  -0.1500 
  9 N        5.9700    -0.7980    -0.0110 N.am  1 <1>  -0.5470 
 10 C        6.4360    -0.4570     1.2300 C.2   1 <1>   0.5690 
 11 O        5.8230    -0.6250     2.2540 O.2   1 <1>  -0.5700 
 12 C        7.8380     0.1530     1.3140 C.3   1 <1>   0.1710 
 13 N        8.9050    -0.6620     0.6550 N.3   1 <1>  -0.8100 
 14 C       10.2080     0.0470     0.7030 C.3   1 <1>   0.1100 
 15 C        9.0270    -1.9920     1.3150 C.3   1 <1>   0.1100 
 16 C       11.3690    -0.7790     0.0910 C.3   1 <1>   0.3430 
 17 C       10.2020    -2.8400     0.7690 C.3   1 <1>   0.3430 
 18 N       10.9110    -2.1370    -0.3530 N.4   1 <1>  -0.9590 
 19 C       11.9990    -2.9260    -0.9830 C.3   1 <1>   0.3430 
 20 C       11.4050    -4.1010    -1.7500 C.3   1 <1>  -0.2400 
 21 H        5.0760    -0.7670    -2.4780 H     1 <1>   0.1500 
 22 H        1.9960    -3.0390     0.6390 H     1 <1>   0.1500 
 23 H        4.0990    -2.0920     1.4760 H     1 <1>   0.1500 
 24 H        6.6370    -0.5980    -0.7560 H     1 <1>   0.3700 
 25 H        8.0790     0.2970     2.3540 H     1 <1>   0.0800 
 26 H        7.7960     1.1250     0.8540 H     1 <1>   0.0800 
 27 H       10.4550     0.2860     1.7250 H     1 <1>   0.0800 
 28 H       10.1280     0.9790     0.1690 H     1 <1>   0.0800 
 29 H        8.1150    -2.5480     1.1760 H     1 <1>   0.0800 
 30 H        9.1580    -1.8640     2.3780 H     1 <1>   0.0800 
 31 H       12.1530    -0.8760     0.8240 H     1 <1>   0.0800 
 32 H       11.7740    -0.2380    -0.7480 H     1 <1>   0.0800 
 33 H        9.8140    -3.7850     0.4280 H     1 <1>   0.0800 
 34 H       10.8930    -3.0420     1.5700 H     1 <1>   0.0800 
 35 H       10.1740    -1.9470    -1.0470 H     1 <1>   0.4500 
 36 H       12.6860    -3.2820    -0.2310 H     1 <1>   0.0800 
 37 H       12.5460    -2.3020    -1.6720 H     1 <1>   0.0800 
 38 H       10.9350    -4.8070    -1.0900 H     1 <1>   0.0800 
 39 H       12.1940    -4.6170    -2.2680 H     1 <1>   0.0800 
 40 H       10.6960    -3.7610    -2.4840 H     1 <1>   0.0800 
@<TRIPOS>BOND
  1   1   2  1   
  2   2   3  ar  
  3   2   4  ar  
  4   3   5  1   
  5   3   6  ar  
  6   4   7  ar  
  7   4  21  1   
  8   6   8  ar  
  9   6  22  1   
 10   7   8  ar  
 11   7   9  1   
 12   8  23  1   
 13   9  10  am  
 14   9  24  1   
 15  10  11  2   
 16  10  12  1   
 17  12  13  1   
 18  12  25  1   
 19  12  26  1   
 20  13  14  1   
 21  13  15  1   
 22  14  16  1   
 23  14  27  1   
 24  14  28  1   
 25  15  17  1   
 26  15  29  1   
 27  15  30  1   
 28  16  18  1   
 29  16  31  1   
 30  16  32  1   
 31  17  18  1   
 32  17  33  1   
 33  17  34  1   
 34  18  19  1   
 35  18  35  1   
 36  19  20  1   
 37  19  36  1   
 38  19  37  1   
 39  20  38  1   
 40  20  39  1   
 41  20  40  1   
@<TRIPOS>SUBSTRUCTURE
  1 ****   9 GROUP 4 **** **** 0

# MOE 2024.06 (io_trps.svl 2023.06)
