@<TRIPOS>MOLECULE
NONAME
39 42 1 0 0 
SMALL
USER_CHARGES


@<TRIPOS>ATOM
  1 S        0.2090     0.3580    -0.9630 S.3   1 <1>  -0.3610 
  2 C        0.3050    -1.2630    -0.3290 C.cat 1 <1>   0.8400 
  3 C        2.0220     0.5670    -1.1410 C.3   1 <1>   0.1310 
  4 N       -0.7590    -1.9530    -0.0010 N.pl3 1 <1>  -0.7940 
  5 N        1.5660    -1.6690    -0.2360 N.pl3 1 <1>  -0.7250 
  6 C        2.5400    -0.7670    -0.6420 C.2   1 <1>   0.8900 
  7 C       -2.2020    -1.6450    -0.0470 C.3   1 <1>   0.4900 
  8 C        2.0330    -2.9950     0.2630 C.3   1 <1>   0.2500 
  9 O        3.7110    -1.0190    -0.6050 O.2   1 <1>  -0.5700 
 10 C       -2.6810    -1.3810    -1.4890 C.3   1 <1>  -0.1600 
 11 C       -2.5570    -0.4530     0.8660 C.3   1 <1>  -0.1600 
 12 C       -2.9280    -2.8970     0.4850 C.3   1 <1>  -0.1600 
 13 C       -4.2040    -1.1440    -1.5010 C.3   1 <1>  -0.0800 
 14 C       -4.0800    -0.2170     0.8510 C.3   1 <1>  -0.0800 
 15 C       -4.4530    -2.6840     0.4810 C.3   1 <1>  -0.0800 
 16 C       -4.5370     0.0590    -0.5950 C.3   1 <1>  -0.1600 
 17 C       -4.9170    -2.3950    -0.9580 C.3   1 <1>  -0.1600 
 18 C       -4.7940    -1.4760     1.3740 C.3   1 <1>  -0.1600 
 19 H        2.2550     0.7300    -2.1770 H     1 <1>   0.0800 
 20 H        2.3420     1.3830    -0.5200 H     1 <1>   0.0800 
 21 H       -0.6300    -2.8910     0.3620 H     1 <1>   0.4500 
 22 H        2.5930    -3.4990    -0.5090 H     1 <1>   0.0800 
 23 H        1.2100    -3.6230     0.5530 H     1 <1>   0.0800 
 24 H        2.6780    -2.8590     1.1150 H     1 <1>   0.0800 
 25 H       -2.4470    -2.2220    -2.1180 H     1 <1>   0.0800 
 26 H       -2.2070    -0.5110    -1.9000 H     1 <1>   0.0800 
 27 H       -2.2360    -0.6490     1.8730 H     1 <1>   0.0800 
 28 H       -2.0790     0.4460     0.5290 H     1 <1>   0.0800 
 29 H       -2.6990    -3.7490    -0.1310 H     1 <1>   0.0800 
 30 H       -2.6130    -3.1090     1.4920 H     1 <1>   0.0800 
 31 H       -4.5360    -0.9440    -2.5070 H     1 <1>   0.0800 
 32 H       -4.3270     0.6260     1.4760 H     1 <1>   0.0800 
 33 H       -4.9520    -3.5630     0.8540 H     1 <1>   0.0800 
 34 H       -5.5980     0.2400    -0.6110 H     1 <1>   0.0800 
 35 H       -4.0550     0.9460    -0.9700 H     1 <1>   0.0800 
 36 H       -4.7080    -3.2420    -1.5900 H     1 <1>   0.0800 
 37 H       -5.9830    -2.2400    -0.9720 H     1 <1>   0.0800 
 38 H       -5.8590    -1.3150     1.3750 H     1 <1>   0.0800 
 39 H       -4.4990    -1.6730     2.3900 H     1 <1>   0.0800 
@<TRIPOS>BOND
  1   1   2  1   
  2   1   3  1   
  3   2   4  ar  
  4   2   5  ar  
  5   3   6  1   
  6   3  19  1   
  7   3  20  1   
  8   4   7  1   
  9   4  21  1   
 10   5   6  1   
 11   5   8  1   
 12   6   9  2   
 13   7  10  1   
 14   7  11  1   
 15   7  12  1   
 16   8  22  1   
 17   8  23  1   
 18   8  24  1   
 19  10  13  1   
 20  10  25  1   
 21  10  26  1   
 22  11  14  1   
 23  11  27  1   
 24  11  28  1   
 25  12  15  1   
 26  12  29  1   
 27  12  30  1   
 28  13  16  1   
 29  13  17  1   
 30  13  31  1   
 31  14  16  1   
 32  14  18  1   
 33  14  32  1   
 34  15  17  1   
 35  15  18  1   
 36  15  33  1   
 37  16  34  1   
 38  16  35  1   
 39  17  36  1   
 40  17  37  1   
 41  18  38  1   
 42  18  39  1   
@<TRIPOS>SUBSTRUCTURE
  1 ****   7 GROUP 4 **** **** 0

# MOE 2024.06 (io_trps.svl 2023.06)
