@<TRIPOS>MOLECULE
NONAME
46 48 1 0 0 
SMALL
USER_CHARGES


@<TRIPOS>ATOM
  1 O       -0.1310    -1.0160     1.7810 O.2   1 <1>  -0.5700 
  2 C        0.8540    -1.2750     1.1070 C.2   1 <1>   0.5440 
  3 N        1.7040    -0.2450     0.7740 N.am  1 <1>  -0.6600 
  4 C        1.0850    -2.6310     0.6470 C.ar  1 <1>   0.0860 
  5 C        2.6450    -0.2690    -0.3690 C.3   1 <1>   0.1400 
  6 C        1.4860     1.1420     1.2460 C.3   1 <1>   0.1400 
  7 C        0.0580    -3.3690     0.0340 C.ar  1 <1>   0.1170 
  8 C        2.3360    -3.2310     0.7960 C.ar  1 <1>  -0.1500 
  9 C        2.7670     1.1870    -0.8000 C.3   1 <1>  -0.1600 
 10 C        2.4910     1.9860     0.4700 C.3   1 <1>  -0.1600 
 11 N       -1.2170    -2.7980    -0.0740 N.am  1 <1>  -0.5470 
 12 C        0.3240    -4.6540    -0.4310 C.ar  1 <1>  -0.1500 
 13 C        2.5860    -4.5080     0.3330 C.ar  1 <1>  -0.1500 
 14 C       -2.2720    -3.0170    -0.9150 C.2   1 <1>   0.5690 
 15 C        1.5750    -5.2200    -0.2880 C.ar  1 <1>  -0.1500 
 16 O       -2.2620    -3.8450    -1.7920 O.2   1 <1>  -0.5700 
 17 C       -3.5130    -2.1460    -0.7320 C.3   1 <1>  -0.0190 
 18 C       -3.2000    -0.6530    -0.9600 C.3   1 <1>  -0.1600 
 19 C       -4.1640    -2.3610     0.6500 C.3   1 <1>  -0.1600 
 20 C       -4.4530     0.2170    -0.7840 C.3   1 <1>  -0.1600 
 21 C       -5.4140    -1.4880     0.8240 C.3   1 <1>  -0.1600 
 22 C       -5.0910    -0.0060     0.5940 C.3   1 <1>  -0.1600 
 23 H        2.2750    -0.8870    -1.1710 H     1 <1>   0.0800 
 24 H        3.5990    -0.6380    -0.0340 H     1 <1>   0.0800 
 25 H        1.6420     1.2100     2.3090 H     1 <1>   0.0800 
 26 H        0.4790     1.4410     1.0100 H     1 <1>   0.0800 
 27 H        3.1210    -2.6830     1.2860 H     1 <1>   0.1500 
 28 H        2.0110     1.3980    -1.5370 H     1 <1>   0.0800 
 29 H        3.7340     1.4020    -1.2200 H     1 <1>   0.0800 
 30 H        3.3930     2.0760     1.0500 H     1 <1>   0.0800 
 31 H        2.1090     2.9700     0.2620 H     1 <1>   0.0800 
 32 H       -1.3570    -2.0200     0.5850 H     1 <1>   0.3700 
 33 H       -0.4560    -5.2230    -0.9040 H     1 <1>   0.1500 
 34 H        3.5590    -4.9520     0.4540 H     1 <1>   0.1500 
 35 H        1.7610    -6.2150    -0.6540 H     1 <1>   0.1500 
 36 H       -4.2240    -2.4510    -1.4810 H     1 <1>   0.0800 
 37 H       -2.8080    -0.5180    -1.9540 H     1 <1>   0.0800 
 38 H       -2.4490    -0.3240    -0.2620 H     1 <1>   0.0800 
 39 H       -3.4590    -2.1180     1.4280 H     1 <1>   0.0800 
 40 H       -4.4330    -3.3970     0.7620 H     1 <1>   0.0800 
 41 H       -5.1680    -0.0270    -1.5520 H     1 <1>   0.0800 
 42 H       -4.1900     1.2540    -0.8960 H     1 <1>   0.0800 
 43 H       -5.8100    -1.6200     1.8160 H     1 <1>   0.0800 
 44 H       -6.1690    -1.8010     0.1230 H     1 <1>   0.0800 
 45 H       -5.9930     0.5760     0.6710 H     1 <1>   0.0800 
 46 H       -4.4130     0.3340     1.3590 H     1 <1>   0.0800 
@<TRIPOS>BOND
  1   1   2  2   
  2   2   3  am  
  3   2   4  1   
  4   3   5  1   
  5   3   6  1   
  6   4   7  ar  
  7   4   8  ar  
  8   5   9  1   
  9   5  23  1   
 10   5  24  1   
 11   6  10  1   
 12   6  25  1   
 13   6  26  1   
 14   7  11  1   
 15   7  12  ar  
 16   8  13  ar  
 17   8  27  1   
 18   9  10  1   
 19   9  28  1   
 20   9  29  1   
 21  10  30  1   
 22  10  31  1   
 23  11  14  am  
 24  11  32  1   
 25  12  15  ar  
 26  12  33  1   
 27  13  15  ar  
 28  13  34  1   
 29  14  16  2   
 30  14  17  1   
 31  15  35  1   
 32  17  18  1   
 33  17  19  1   
 34  17  36  1   
 35  18  20  1   
 36  18  37  1   
 37  18  38  1   
 38  19  21  1   
 39  19  39  1   
 40  19  40  1   
 41  20  22  1   
 42  20  41  1   
 43  20  42  1   
 44  21  22  1   
 45  21  43  1   
 46  21  44  1   
 47  22  45  1   
 48  22  46  1   
@<TRIPOS>SUBSTRUCTURE
  1 ****  11 GROUP 4 **** **** 0

# MOE 2024.06 (io_trps.svl 2023.06)
