@<TRIPOS>MOLECULE
NONAME
54 55 1 0 0 
SMALL
USER_CHARGES


@<TRIPOS>ATOM
  1 O       -6.8920     2.2260    -0.2660 O.3   1 <1>  -0.3630 
  2 C       -8.2170     2.0830     0.0090 C.ar  1 <1>   0.0830 
  3 C       -6.2170     3.4560    -0.1100 C.3   1 <1>   0.1200 
  4 C       -8.8060     0.8370    -0.2150 C.ar  1 <1>  -0.1440 
  5 C       -8.9870     3.1360     0.5030 C.ar  1 <1>  -0.1500 
  6 C       -4.7500     3.2480    -0.5010 C.3   1 <1>   0.2000 
  7 C      -10.1550     0.6770     0.0700 C.ar  1 <1>  -0.1500 
  8 C       -8.0090    -0.3550    -0.7610 C.3   1 <1>   0.0640 
  9 C      -10.3320     2.9620     0.7770 C.ar  1 <1>  -0.1440 
 10 O       -4.2460     2.1510     0.2020 O.3   1 <1>  -0.6800 
 11 C       -3.8710     4.4810    -0.2030 C.3   1 <1>   0.3430 
 12 C      -10.9110     1.7260     0.5610 C.ar  1 <1>  -0.1500 
 13 C       -8.5990    -0.8560    -2.0840 C.3   1 <1>  -0.2400 
 14 C       -7.9500    -1.4880     0.2690 C.3   1 <1>  -0.2400 
 15 C      -11.1670     4.1100     1.3170 C.3   1 <1>  -0.0970 
 16 N       -2.4390     4.0760    -0.0710 N.4   1 <1>  -0.9590 
 17 C       -1.6420     4.9490     0.8320 C.3   1 <1>   0.3430 
 18 C       -1.7670     3.8200    -1.3830 C.3   1 <1>   0.3430 
 19 C       -0.3690     4.1980     1.2670 C.3   1 <1>  -0.0800 
 20 C       -0.2370     3.7790    -1.2380 C.3   1 <1>  -0.1600 
 21 C        0.2070     3.2960     0.1510 C.3   1 <1>  -0.1600 
 22 C       -0.6250     3.3690     2.5340 C.3   1 <1>  -0.2400 
 23 H       -6.2980     3.7590     0.9200 H     1 <1>   0.0800 
 24 H       -6.6860     4.1840    -0.7490 H     1 <1>   0.0800 
 25 H       -8.5600     4.1020     0.6840 H     1 <1>   0.1500 
 26 H       -4.7000     3.0140    -1.5510 H     1 <1>   0.0800 
 27 H      -10.6330    -0.2720    -0.0880 H     1 <1>   0.1500 
 28 H       -6.9960    -0.0600    -0.9650 H     1 <1>   0.0800 
 29 H       -4.9430     1.4530     0.2220 H     1 <1>   0.4000 
 30 H       -4.2040     4.9090     0.7280 H     1 <1>   0.0800 
 31 H       -3.9910     5.2260    -0.9730 H     1 <1>   0.0800 
 32 H      -11.9550     1.5720     0.7730 H     1 <1>   0.1500 
 33 H       -9.5890    -1.2500    -1.9430 H     1 <1>   0.0800 
 34 H       -7.9790    -1.6310    -2.4980 H     1 <1>   0.0800 
 35 H       -8.6510    -0.0460    -2.7890 H     1 <1>   0.0800 
 36 H       -8.9320    -1.8770     0.4690 H     1 <1>   0.0800 
 37 H       -7.5340    -1.1210     1.1910 H     1 <1>   0.0800 
 38 H       -7.3300    -2.2890    -0.0920 H     1 <1>   0.0800 
 39 H      -10.7790     5.0530     0.9770 H     1 <1>   0.0800 
 40 H      -11.1530     4.0940     2.3920 H     1 <1>   0.0800 
 41 H      -12.1850     4.0220     0.9820 H     1 <1>   0.0800 
 42 H       -2.5020     3.1500     0.3960 H     1 <1>   0.4500 
 43 H       -2.2150     5.2190     1.7040 H     1 <1>   0.0800 
 44 H       -1.3690     5.8500     0.3080 H     1 <1>   0.0800 
 45 H       -2.0300     4.5860    -2.0940 H     1 <1>   0.0800 
 46 H       -2.1110     2.8730    -1.7690 H     1 <1>   0.0800 
 47 H        0.3660     4.9460     1.5120 H     1 <1>   0.0800 
 48 H        0.1590     4.7640    -1.4160 H     1 <1>   0.0800 
 49 H        0.1710     3.1360    -1.9990 H     1 <1>   0.0800 
 50 H       -0.1320     2.2810     0.2790 H     1 <1>   0.0800 
 51 H        1.2830     3.2830     0.2130 H     1 <1>   0.0800 
 52 H       -1.3730     2.6140     2.3630 H     1 <1>   0.0800 
 53 H       -0.9560     4.0020     3.3400 H     1 <1>   0.0800 
 54 H        0.2820     2.8810     2.8480 H     1 <1>   0.0800 
@<TRIPOS>BOND
  1   1   2  1   
  2   1   3  1   
  3   2   4  ar  
  4   2   5  ar  
  5   3   6  1   
  6   3  23  1   
  7   3  24  1   
  8   4   7  ar  
  9   4   8  1   
 10   5   9  ar  
 11   5  25  1   
 12   6  10  1   
 13   6  11  1   
 14   6  26  1   
 15   7  12  ar  
 16   7  27  1   
 17   8  13  1   
 18   8  14  1   
 19   8  28  1   
 20   9  12  ar  
 21   9  15  1   
 22  10  29  1   
 23  11  16  1   
 24  11  30  1   
 25  11  31  1   
 26  12  32  1   
 27  13  33  1   
 28  13  34  1   
 29  13  35  1   
 30  14  36  1   
 31  14  37  1   
 32  14  38  1   
 33  15  39  1   
 34  15  40  1   
 35  15  41  1   
 36  16  17  1   
 37  16  18  1   
 38  16  42  1   
 39  17  19  1   
 40  17  43  1   
 41  17  44  1   
 42  18  20  1   
 43  18  45  1   
 44  18  46  1   
 45  19  21  1   
 46  19  22  1   
 47  19  47  1   
 48  20  21  1   
 49  20  48  1   
 50  20  49  1   
 51  21  50  1   
 52  21  51  1   
 53  22  52  1   
 54  22  53  1   
 55  22  54  1   
@<TRIPOS>SUBSTRUCTURE
  1 ****   3 GROUP 4 **** **** 0

# MOE 2024.06 (io_trps.svl 2023.06)
