@<TRIPOS>MOLECULE
NONAME
38 40 1 0 0 
SMALL
USER_CHARGES


@<TRIPOS>ATOM
  1 O        0.1740    -0.2380    -1.0440 O.2   1 <1>  -0.5700 
  2 C        0.1420    -1.3440    -0.5600 C.2   1 <1>   0.4950 
  3 C        1.3180    -2.0510    -0.1440 C.2   1 <1>   0.0290 
  4 C       -1.2440    -1.9470    -0.4000 C.3   1 <1>  -0.0990 
  5 C        1.1590    -3.3570     0.4350 C.2   1 <1>   0.4950 
  6 C        2.5540    -1.4640    -0.3120 C.2   1 <1>  -0.0500 
  7 C       -1.2390    -3.4810    -0.4300 C.3   1 <1>   0.0000 
  8 O        2.0770    -4.0370     0.8370 O.2   1 <1>  -0.5700 
  9 C       -0.2190    -3.9780     0.6040 C.3   1 <1>  -0.0990 
 10 N        3.7560    -2.0110     0.0240 N.pl3 1 <1>  -0.6000 
 11 C       -2.6360    -4.0070    -0.0670 C.3   1 <1>  -0.2400 
 12 C       -0.8790    -3.9950    -1.8370 C.3   1 <1>  -0.2400 
 13 C        5.0590    -1.5060    -0.1030 C.ar  1 <1>   0.1000 
 14 C        6.0950    -2.1600     0.5310 C.ar  1 <1>  -0.1500 
 15 C        5.3410    -0.3540    -0.8630 C.ar  1 <1>  -0.1500 
 16 C        7.3970    -1.6660     0.4130 C.ar  1 <1>  -0.1520 
 17 C        6.6220     0.1300    -0.9770 C.ar  1 <1>  -0.1500 
 18 N        8.5970    -2.0810     0.9110 N.pl3 1 <1>   0.3000 
 19 C        7.6690    -0.5370    -0.3270 C.ar  1 <1>   0.0000 
 20 N        9.6160    -1.2760     0.5280 N.2   1 <1>  -0.7070 
 21 C        9.0590    -0.3670    -0.2030 C.2   1 <1>   0.1390 
 22 H       -1.6460    -1.5950     0.5320 H     1 <1>   0.0800 
 23 H       -1.8780    -1.5720    -1.1850 H     1 <1>   0.0800 
 24 H        2.5900    -0.4770    -0.7430 H     1 <1>   0.1500 
 25 H       -0.1280    -5.0480     0.5350 H     1 <1>   0.0800 
 26 H       -0.5590    -3.7490     1.5980 H     1 <1>   0.0800 
 27 H        3.6990    -2.9490     0.4580 H     1 <1>   0.4000 
 28 H       -2.9320    -3.6720     0.9120 H     1 <1>   0.0800 
 29 H       -2.6500    -5.0830    -0.0720 H     1 <1>   0.0800 
 30 H       -3.3680    -3.6590    -0.7760 H     1 <1>   0.0800 
 31 H       -1.5990    -3.6490    -2.5590 H     1 <1>   0.0800 
 32 H       -0.8820    -5.0720    -1.8560 H     1 <1>   0.0800 
 33 H        0.0930    -3.6620    -2.1540 H     1 <1>   0.0800 
 34 H        5.9070    -3.0420     1.1150 H     1 <1>   0.1500 
 35 H        4.5400     0.1520    -1.3660 H     1 <1>   0.1500 
 36 H        6.8390     1.0100    -1.5560 H     1 <1>   0.1500 
 37 H        8.7380    -2.9030     1.5090 H     1 <1>   0.2700 
 38 H        9.5980     0.4390    -0.6710 H     1 <1>   0.1500 
@<TRIPOS>BOND
  1   1   2  2   
  2   2   3  1   
  3   2   4  1   
  4   3   5  1   
  5   3   6  2   
  6   4   7  1   
  7   4  22  1   
  8   4  23  1   
  9   5   8  2   
 10   5   9  1   
 11   6  10  1   
 12   6  24  1   
 13   7   9  1   
 14   7  11  1   
 15   7  12  1   
 16   9  25  1   
 17   9  26  1   
 18  10  13  1   
 19  10  27  1   
 20  11  28  1   
 21  11  29  1   
 22  11  30  1   
 23  12  31  1   
 24  12  32  1   
 25  12  33  1   
 26  13  14  ar  
 27  13  15  ar  
 28  14  16  ar  
 29  14  34  1   
 30  15  17  ar  
 31  15  35  1   
 32  16  18  1   
 33  16  19  ar  
 34  17  19  ar  
 35  17  36  1   
 36  18  20  1   
 37  18  37  1   
 38  19  21  1   
 39  20  21  2   
 40  21  38  1   
@<TRIPOS>SUBSTRUCTURE
  1 ****  10 GROUP 4 **** **** 0

# MOE 2024.06 (io_trps.svl 2023.06)
