@<TRIPOS>MOLECULE
NONAME
28 28 1 0 0 
SMALL
USER_CHARGES


@<TRIPOS>ATOM
  1 O       -1.3990     2.6090    -0.1230 O.3   1 <1>  -0.6800 
  2 C       -2.2380     2.6860    -1.2320 C.3   1 <1>   0.1200 
  3 C       -3.6830     2.3000    -0.8420 C.3   1 <1>  -0.0800 
  4 C       -3.8390     0.9120    -0.1680 C.3   1 <1>   0.5030 
  5 C       -4.3410     3.4370    -0.0140 C.3   1 <1>  -0.1600 
  6 N       -3.2110     0.9780     1.1400 N.4   1 <1>  -0.8530 
  7 C       -5.3320     0.5670     0.0290 C.3   1 <1>  -0.1600 
  8 C       -3.1400    -0.2140    -0.9330 C.3   1 <1>  -0.2400 
  9 C       -5.5700     3.0010     0.8070 C.3   1 <1>  -0.1600 
 10 C       -6.2690     1.7820     0.1980 C.3   1 <1>  -0.1600 
 11 H       -0.5290     3.0220    -0.3330 H     1 <1>   0.4000 
 12 H       -2.2110     3.6970    -1.6050 H     1 <1>   0.0800 
 13 H       -1.8490     2.0320    -1.9950 H     1 <1>   0.0800 
 14 H       -4.2300     2.2450    -1.7690 H     1 <1>   0.0800 
 15 H       -3.6260     3.8820     0.6590 H     1 <1>   0.0800 
 16 H       -4.6410     4.2160    -0.6960 H     1 <1>   0.0800 
 17 H       -3.0440     0.0550     1.5400 H     1 <1>   0.4500 
 18 H       -3.7830     1.5570     1.7540 H     1 <1>   0.4500 
 19 H       -2.3150     1.4760     0.9910 H     1 <1>   0.4500 
 20 H       -5.6830     0.0290    -0.8360 H     1 <1>   0.0800 
 21 H       -5.4490    -0.1010     0.8650 H     1 <1>   0.0800 
 22 H       -3.5070    -0.2500    -1.9440 H     1 <1>   0.0800 
 23 H       -3.3420    -1.1690    -0.4800 H     1 <1>   0.0800 
 24 H       -2.0750    -0.0690    -0.9720 H     1 <1>   0.0800 
 25 H       -5.2830     2.7790     1.8190 H     1 <1>   0.0800 
 26 H       -6.2670     3.8220     0.8590 H     1 <1>   0.0800 
 27 H       -6.6520     2.0650    -0.7700 H     1 <1>   0.0800 
 28 H       -7.1180     1.5060     0.8000 H     1 <1>   0.0800 
@<TRIPOS>BOND
  1   1   2  1   
  2   1  11  1   
  3   2   3  1   
  4   2  12  1   
  5   2  13  1   
  6   3   4  1   
  7   3   5  1   
  8   3  14  1   
  9   4   6  1   
 10   4   7  1   
 11   4   8  1   
 12   5   9  1   
 13   5  15  1   
 14   5  16  1   
 15   6  17  1   
 16   6  18  1   
 17   6  19  1   
 18   7  10  1   
 19   7  20  1   
 20   7  21  1   
 21   8  22  1   
 22   8  23  1   
 23   8  24  1   
 24   9  10  1   
 25   9  25  1   
 26   9  26  1   
 27  10  27  1   
 28  10  28  1   
@<TRIPOS>SUBSTRUCTURE
  1 ****   4 GROUP 4 **** **** 0

# MOE 2024.06 (io_trps.svl 2023.06)
