@<TRIPOS>MOLECULE
NONAME
33 34 1 0 0 
SMALL
USER_CHARGES


@<TRIPOS>ATOM
  1 S        0.2820     0.5940     1.2950 S.3   1 <1>  -0.3220 
  2 C        1.5440    -0.5200     0.7630 C.cat 1 <1>   0.8920 
  3 C        0.9830     2.3030     1.1660 C.3   1 <1>  -0.0100 
  4 N        2.7430    -0.1360     0.3540 N.pl3 1 <1>  -0.7000 
  5 N        1.3980    -1.8320     0.7250 N.pl3 1 <1>  -0.7640 
  6 C        3.4230    -1.2700     0.0330 C.2   1 <1>   0.4260 
  7 C        2.6110    -2.3400     0.2500 C.2   1 <1>   0.2770 
  8 C        0.2150    -2.6490     1.1400 C.3   1 <1>   0.3540 
  9 N        4.7240    -1.3770    -0.4400 N.am  1 <1>  -0.4360 
 10 C        3.1260    -3.6500    -0.0320 C.2   1 <1>   0.7030 
 11 C       -0.5790    -3.1380    -0.0750 C.3   1 <1>   0.1200 
 12 C        5.2150    -2.6500    -0.6950 C.2   1 <1>   0.6900 
 13 C        5.5720    -0.1680    -0.6590 C.3   1 <1>   0.0600 
 14 O        2.4810    -4.6690     0.1020 O.2   1 <1>  -0.5700 
 15 N        4.4110    -3.7320    -0.4860 N.am  1 <1>  -0.4900 
 16 O       -1.7430    -3.7410     0.3890 O.3   1 <1>  -0.5600 
 17 O        6.3380    -2.8390    -1.1000 O.2   1 <1>  -0.5700 
 18 C       -2.5410    -4.2890    -0.6130 C.3   1 <1>   0.0400 
 19 H        0.2190     2.9890     1.4900 H     1 <1>   0.0800 
 20 H        1.2400     2.4890     0.1380 H     1 <1>   0.0800 
 21 H        1.8420     2.3690     1.8100 H     1 <1>   0.0800 
 22 H        3.0810     0.8220     0.3010 H     1 <1>   0.4500 
 23 H       -0.4360    -2.0610     1.7650 H     1 <1>   0.0800 
 24 H        0.5470    -3.5010     1.7090 H     1 <1>   0.0800 
 25 H       -0.0130    -3.8670    -0.6290 H     1 <1>   0.0800 
 26 H       -0.8570    -2.3110    -0.7050 H     1 <1>   0.0800 
 27 H        5.0910     0.4980    -1.3530 H     1 <1>   0.0800 
 28 H        6.5330    -0.4390    -1.0650 H     1 <1>   0.0800 
 29 H        5.7340     0.3400     0.2760 H     1 <1>   0.0800 
 30 H        4.8000    -4.6510    -0.6870 H     1 <1>   0.3700 
 31 H       -3.4100    -4.7240    -0.1480 H     1 <1>   0.0800 
 32 H       -1.9900    -5.0550    -1.1310 H     1 <1>   0.0800 
 33 H       -2.8470    -3.5130    -1.2930 H     1 <1>   0.0800 
@<TRIPOS>BOND
  1   1   2  1   
  2   1   3  1   
  3   2   4  ar  
  4   2   5  ar  
  5   3  19  1   
  6   3  20  1   
  7   3  21  1   
  8   4   6  1   
  9   4  22  1   
 10   5   7  1   
 11   5   8  1   
 12   6   7  2   
 13   6   9  1   
 14   7  10  1   
 15   8  11  1   
 16   8  23  1   
 17   8  24  1   
 18   9  12  am  
 19   9  13  1   
 20  10  14  2   
 21  10  15  am  
 22  11  16  1   
 23  11  25  1   
 24  11  26  1   
 25  12  15  am  
 26  12  17  2   
 27  13  27  1   
 28  13  28  1   
 29  13  29  1   
 30  15  30  1   
 31  16  18  1   
 32  18  31  1   
 33  18  32  1   
 34  18  33  1   
@<TRIPOS>SUBSTRUCTURE
  1 ****   7 GROUP 4 **** **** 0

# MOE 2024.06 (io_trps.svl 2023.06)
