@<TRIPOS>MOLECULE
NONAME
46 46 1 0 0 
SMALL
USER_CHARGES


@<TRIPOS>ATOM
  1 O        0.6630    -0.2340    -0.5450 O.3   1 <1>  -0.3630 
  2 C       -0.5720    -0.7960    -0.5360 C.ar  1 <1>   0.0830 
  3 C        1.8020    -0.9650    -0.1660 C.3   1 <1>   0.1200 
  4 C       -1.6270     0.0120    -0.9250 C.ar  1 <1>  -0.1500 
  5 C       -0.8240    -2.1140    -0.1640 C.ar  1 <1>  -0.1500 
  6 C        3.0070    -0.0300    -0.2920 C.3   1 <1>  -0.1600 
  7 C       -2.9200    -0.4820    -0.9450 C.ar  1 <1>  -0.1500 
  8 C       -2.1180    -2.6040    -0.1860 C.ar  1 <1>  -0.1500 
  9 C        4.3190    -0.7260     0.1000 C.3   1 <1>  -0.1600 
 10 C       -3.1730    -1.7940    -0.5770 C.ar  1 <1>  -0.1430 
 11 C        5.4950     0.2380    -0.0390 C.3   1 <1>   0.3430 
 12 C       -4.5920    -2.3370    -0.5990 C.3   1 <1>  -0.0170 
 13 N        6.7470    -0.4620     0.3450 N.4   1 <1>  -0.9060 
 14 C       -5.2730    -2.1150     0.7530 C.3   1 <1>  -0.2400 
 15 C        7.9870     0.3150     0.2730 C.3   1 <1>   0.5030 
 16 C        9.1060    -0.6230     0.7130 C.3   1 <1>  -0.2400 
 17 C        7.9060     1.5080     1.2250 C.3   1 <1>  -0.2400 
 18 C        8.2280     0.7740    -1.1640 C.3   1 <1>  -0.2400 
 19 H        1.8950    -1.8100    -0.8260 H     1 <1>   0.0800 
 20 H        1.6690    -1.2930     0.8510 H     1 <1>   0.0800 
 21 H       -1.4310     1.0290    -1.2110 H     1 <1>   0.1500 
 22 H       -0.0340    -2.7710     0.1440 H     1 <1>   0.1500 
 23 H        2.8430     0.8230     0.3460 H     1 <1>   0.0800 
 24 H        3.0660     0.3120    -1.3120 H     1 <1>   0.0800 
 25 H       -3.7280     0.1600    -1.2480 H     1 <1>   0.1500 
 26 H       -2.3050    -3.6230     0.1050 H     1 <1>   0.1500 
 27 H        4.4670    -1.5770    -0.5440 H     1 <1>   0.0800 
 28 H        4.2420    -1.0650     1.1190 H     1 <1>   0.0800 
 29 H        5.3350     1.0930     0.5990 H     1 <1>   0.0800 
 30 H        5.5580     0.5820    -1.0590 H     1 <1>   0.0800 
 31 H       -4.5750    -3.3890    -0.8270 H     1 <1>   0.0800 
 32 H       -5.1560    -1.8450    -1.3730 H     1 <1>   0.0800 
 33 H        6.8690    -1.2850    -0.2520 H     1 <1>   0.4500 
 34 H        6.6590    -0.8060     1.3060 H     1 <1>   0.4500 
 35 H       -4.7260    -2.6180     1.5300 H     1 <1>   0.0800 
 36 H       -6.2770    -2.5000     0.7310 H     1 <1>   0.0800 
 37 H       -5.3090    -1.0650     0.9820 H     1 <1>   0.0800 
 38 H        8.9560    -0.9630     1.7220 H     1 <1>   0.0800 
 39 H       10.0500    -0.1060     0.6810 H     1 <1>   0.0800 
 40 H        9.1800    -1.4740     0.0590 H     1 <1>   0.0800 
 41 H        7.6870     1.1910     2.2290 H     1 <1>   0.0800 
 42 H        7.1670     2.2210     0.9070 H     1 <1>   0.0800 
 43 H        8.8520     2.0210     1.2430 H     1 <1>   0.0800 
 44 H        7.4890     1.4860    -1.4840 H     1 <1>   0.0800 
 45 H        9.1860     1.2590    -1.2330 H     1 <1>   0.0800 
 46 H        8.2360    -0.0610    -1.8430 H     1 <1>   0.0800 
@<TRIPOS>BOND
  1   1   2  1   
  2   1   3  1   
  3   2   4  ar  
  4   2   5  ar  
  5   3   6  1   
  6   3  19  1   
  7   3  20  1   
  8   4   7  ar  
  9   4  21  1   
 10   5   8  ar  
 11   5  22  1   
 12   6   9  1   
 13   6  23  1   
 14   6  24  1   
 15   7  10  ar  
 16   7  25  1   
 17   8  10  ar  
 18   8  26  1   
 19   9  11  1   
 20   9  27  1   
 21   9  28  1   
 22  10  12  1   
 23  11  13  1   
 24  11  29  1   
 25  11  30  1   
 26  12  14  1   
 27  12  31  1   
 28  12  32  1   
 29  13  15  1   
 30  13  33  1   
 31  13  34  1   
 32  14  35  1   
 33  14  36  1   
 34  14  37  1   
 35  15  16  1   
 36  15  17  1   
 37  15  18  1   
 38  16  38  1   
 39  16  39  1   
 40  16  40  1   
 41  17  41  1   
 42  17  42  1   
 43  17  43  1   
 44  18  44  1   
 45  18  45  1   
 46  18  46  1   
@<TRIPOS>SUBSTRUCTURE
  1 ****   3 GROUP 4 **** **** 0

# MOE 2024.06 (io_trps.svl 2023.06)
