@<TRIPOS>MOLECULE
NONAME
38 38 1 0 0 
SMALL
USER_CHARGES


@<TRIPOS>ATOM
  1 O       -0.6170     3.6230     0.2230 O.2   1 <1>  -0.5700 
  2 C       -0.6780     2.5060     0.6960 C.2   1 <1>   0.7060 
  3 O       -0.0570     1.5100     0.0650 O.3   1 <1>  -0.4300 
  4 C       -1.3940     2.1910     1.9020 C.2   1 <1>   0.0790 
  5 C        0.5780     1.6760    -1.1790 C.3   1 <1>   0.1200 
  6 C       -1.3880     3.2390     2.8700 C.1   1 <1>   0.4920 
  7 C       -2.0360     1.0200     2.1600 C.2   1 <1>  -0.1780 
  8 C        1.0080     0.2950    -1.6620 C.3   1 <1>  -0.2400 
  9 N       -1.4010     4.0360     3.6850 N.1   1 <1>  -0.5570 
 10 C       -2.1680    -0.1110     1.2790 C.ar  1 <1>   0.0280 
 11 C       -1.4500    -1.2840     1.5460 C.ar  1 <1>  -0.1430 
 12 C       -2.9890    -0.0450     0.1440 C.ar  1 <1>  -0.1430 
 13 C       -1.5430    -2.3690     0.6820 C.ar  1 <1>  -0.1430 
 14 C       -0.5600    -1.3270     2.7910 C.3   1 <1>  -0.0970 
 15 C       -3.0600    -1.1270    -0.7240 C.ar  1 <1>  -0.1430 
 16 C       -3.8070     1.2180    -0.1430 C.3   1 <1>  -0.0970 
 17 C       -2.3420    -2.2750    -0.4430 C.ar  1 <1>  -0.1500 
 18 C       -0.7930    -3.6760     0.9110 C.3   1 <1>  -0.0970 
 19 C       -3.9020    -1.1060    -1.9940 C.3   1 <1>  -0.0970 
 20 H       -0.1230     2.1210    -1.8650 H     1 <1>   0.0800 
 21 H        1.4240     2.3290    -1.0470 H     1 <1>   0.0800 
 22 H       -2.5170     0.8750     3.1120 H     1 <1>   0.1500 
 23 H        0.1480    -0.3460    -1.7540 H     1 <1>   0.0800 
 24 H        1.7050    -0.1400    -0.9690 H     1 <1>   0.0800 
 25 H        1.4830     0.3760    -2.6230 H     1 <1>   0.0800 
 26 H       -0.0130    -2.2440     2.8880 H     1 <1>   0.0800 
 27 H       -1.1630    -1.2110     3.6740 H     1 <1>   0.0800 
 28 H        0.1570    -0.5280     2.7520 H     1 <1>   0.0800 
 29 H       -4.7320     0.9810    -0.6340 H     1 <1>   0.0800 
 30 H       -3.2420     1.8800    -0.7750 H     1 <1>   0.0800 
 31 H       -4.0670     1.7370     0.7610 H     1 <1>   0.0800 
 32 H       -2.4070    -3.1120    -1.1140 H     1 <1>   0.1500 
 33 H       -1.0240    -4.3970     0.1480 H     1 <1>   0.0800 
 34 H       -1.0680    -4.0970     1.8610 H     1 <1>   0.0800 
 35 H        0.2670    -3.4980     0.8930 H     1 <1>   0.0800 
 36 H       -3.6740    -1.9480    -2.6230 H     1 <1>   0.0800 
 37 H       -3.7060    -0.2120    -2.5570 H     1 <1>   0.0800 
 38 H       -4.9460    -1.1450    -1.7420 H     1 <1>   0.0800 
@<TRIPOS>BOND
  1   1   2  2   
  2   2   3  1   
  3   2   4  1   
  4   3   5  1   
  5   4   6  1   
  6   4   7  2   
  7   5   8  1   
  8   5  20  1   
  9   5  21  1   
 10   6   9  3   
 11   7  10  1   
 12   7  22  1   
 13   8  23  1   
 14   8  24  1   
 15   8  25  1   
 16  10  11  ar  
 17  10  12  ar  
 18  11  13  ar  
 19  11  14  1   
 20  12  15  ar  
 21  12  16  1   
 22  13  17  ar  
 23  13  18  1   
 24  14  26  1   
 25  14  27  1   
 26  14  28  1   
 27  15  17  ar  
 28  15  19  1   
 29  16  29  1   
 30  16  30  1   
 31  16  31  1   
 32  17  32  1   
 33  18  33  1   
 34  18  34  1   
 35  18  35  1   
 36  19  36  1   
 37  19  37  1   
 38  19  38  1   
@<TRIPOS>SUBSTRUCTURE
  1 ****  10 GROUP 4 **** **** 0

# MOE 2024.06 (io_trps.svl 2023.06)
