@<TRIPOS>MOLECULE
NONAME
44 46 1 0 0 
SMALL
USER_CHARGES


@<TRIPOS>ATOM
  1 S        0.7850     0.2380    -1.9110 S.3   1 <1>  -0.0800 
  2 C       -0.0890    -0.9100    -0.9060 C.2   1 <1>   0.1040 
  3 C        2.1140     0.3180    -0.7700 C.2   1 <1>  -0.1100 
  4 N       -1.3130    -1.4070    -1.3220 N.am  1 <1>  -0.4940 
  5 C        0.6170    -1.1890     0.2310 C.2   1 <1>  -0.0860 
  6 C        1.8720    -0.4800     0.2830 C.2   1 <1>  -0.1500 
  7 C       -2.1930    -1.0650    -2.3130 C.2   1 <1>   0.5690 
  8 C        0.1770    -2.0740     1.2730 C.2   1 <1>   0.8060 
  9 O       -2.0380    -0.1470    -3.0810 O.2   1 <1>  -0.5700 
 10 C       -3.4570    -1.9200    -2.4200 C.3   1 <1>   0.1710 
 11 O       -0.9100    -2.6240     1.2710 O.2   1 <1>  -0.5700 
 12 O        1.0060    -2.2990     2.3010 O.3   1 <1>  -0.4300 
 13 N       -3.6780    -2.8250    -1.2510 N.3   1 <1>  -0.8100 
 14 C        0.6530    -3.1570     3.3700 C.3   1 <1>   0.0400 
 15 C       -4.6070    -3.9270    -1.5980 C.3   1 <1>   0.1100 
 16 C       -4.2040    -2.0830    -0.0720 C.3   1 <1>   0.1100 
 17 C       -4.8490    -4.8850    -0.4150 C.3   1 <1>   0.2090 
 18 C       -4.4170    -3.0070     1.1410 C.3   1 <1>   0.2090 
 19 N       -5.3360    -4.1290     0.7790 N.pl3 1 <1>  -0.8380 
 20 C       -6.6320    -4.2240     1.2380 C.ar  1 <1>   0.7200 
 21 N       -7.2980    -5.3400     0.9450 N.ar  1 <1>  -0.6200 
 22 N       -7.1120    -3.1910     1.9320 N.ar  1 <1>  -0.6200 
 23 C       -8.5260    -5.4230     1.3940 C.ar  1 <1>   0.1600 
 24 C       -8.3430    -3.3010     2.3670 C.ar  1 <1>   0.1600 
 25 C       -9.1070    -4.4150     2.1220 C.ar  1 <1>  -0.1500 
 26 H        2.9390     0.9620    -1.0200 H     1 <1>   0.1500 
 27 H       -1.7020    -2.1730    -0.7500 H     1 <1>   0.3700 
 28 H        2.5400    -0.6030     1.1180 H     1 <1>   0.1500 
 29 H       -3.3530    -2.5130    -3.3110 H     1 <1>   0.0800 
 30 H       -4.3070    -1.2740    -2.5520 H     1 <1>   0.0800 
 31 H        1.4700    -3.1860     4.0680 H     1 <1>   0.0800 
 32 H        0.4650    -4.1420     2.9790 H     1 <1>   0.0800 
 33 H       -0.2310    -2.7730     3.8490 H     1 <1>   0.0800 
 34 H       -4.2000    -4.4920    -2.4170 H     1 <1>   0.0800 
 35 H       -5.5550    -3.5220    -1.9080 H     1 <1>   0.0800 
 36 H       -5.1460    -1.6220    -0.3170 H     1 <1>   0.0800 
 37 H       -3.5170    -1.3050     0.2110 H     1 <1>   0.0800 
 38 H       -3.9270    -5.3800    -0.1640 H     1 <1>   0.0800 
 39 H       -5.5520    -5.6410    -0.7140 H     1 <1>   0.0800 
 40 H       -4.8000    -2.4360     1.9670 H     1 <1>   0.0800 
 41 H       -3.4680    -3.4140     1.4450 H     1 <1>   0.0800 
 42 H       -9.0830    -6.3180     1.1750 H     1 <1>   0.1500 
 43 H       -8.7520    -2.4820     2.9340 H     1 <1>   0.1500 
 44 H      -10.1140    -4.4940     2.4850 H     1 <1>   0.1500 
@<TRIPOS>BOND
  1   1   2  1   
  2   1   3  1   
  3   2   4  1   
  4   2   5  2   
  5   3   6  2   
  6   3  26  1   
  7   4   7  am  
  8   4  27  1   
  9   5   6  1   
 10   5   8  1   
 11   6  28  1   
 12   7   9  2   
 13   7  10  1   
 14   8  11  2   
 15   8  12  1   
 16  10  13  1   
 17  10  29  1   
 18  10  30  1   
 19  12  14  1   
 20  13  15  1   
 21  13  16  1   
 22  14  31  1   
 23  14  32  1   
 24  14  33  1   
 25  15  17  1   
 26  15  34  1   
 27  15  35  1   
 28  16  18  1   
 29  16  36  1   
 30  16  37  1   
 31  17  19  1   
 32  17  38  1   
 33  17  39  1   
 34  18  19  1   
 35  18  40  1   
 36  18  41  1   
 37  19  20  1   
 38  20  21  ar  
 39  20  22  ar  
 40  21  23  ar  
 41  22  24  ar  
 42  23  25  ar  
 43  23  42  1   
 44  24  25  ar  
 45  24  43  1   
 46  25  44  1   
@<TRIPOS>SUBSTRUCTURE
  1 ****  16 GROUP 4 **** **** 0

# MOE 2024.06 (io_trps.svl 2023.06)
