@<TRIPOS>MOLECULE
NONAME
41 42 1 0 0 
SMALL
USER_CHARGES


@<TRIPOS>ATOM
  1 CL       0.9060     3.5480    -2.4640 Cl    1 <1>  -0.1770 
  2 C        2.0310     2.7660    -1.3820 C.ar  1 <1>   0.1770 
  3 C        2.7510     1.6760    -1.8320 C.ar  1 <1>  -0.1500 
  4 C        2.1780     3.2500    -0.0960 C.ar  1 <1>  -0.1500 
  5 C        3.6450     1.0410    -0.9830 C.ar  1 <1>   0.1170 
  6 C        3.0710     2.6290     0.7610 C.ar  1 <1>  -0.1500 
  7 N        4.3680    -0.0620    -1.4640 N.am  1 <1>  -0.5470 
  8 C        3.8000     1.5350     0.3200 C.ar  1 <1>   0.0830 
  9 C        4.2700    -1.3790    -1.1430 C.2   1 <1>   0.5690 
 10 O        4.6710     0.9530     1.1720 O.3   1 <1>  -0.5320 
 11 O        5.0170    -2.1640    -1.6710 O.2   1 <1>  -0.5700 
 12 C        3.2020    -1.8690    -0.1590 C.3   1 <1>  -0.0190 
 13 C        3.5790    -3.1950     0.5260 C.3   1 <1>  -0.1600 
 14 C        1.8390    -2.0320    -0.8500 C.3   1 <1>  -0.1600 
 15 C        2.4650    -3.6840     1.4550 C.3   1 <1>   0.1960 
 16 C        0.7850    -2.5430     0.1340 C.3   1 <1>   0.1960 
 17 N        1.2070    -3.8210     0.7140 N.am  1 <1>  -0.8490 
 18 S       -0.0070    -4.5360     1.6570 S.o2  1 <1>   1.3330 
 19 O       -0.7630    -3.4680     2.2720 O.2   1 <1>  -0.6500 
 20 O        0.5990    -5.5490     2.4920 O.2   1 <1>  -0.6500 
 21 C       -1.0470    -5.3610     0.4400 C.3   1 <1>  -0.0550 
 22 C       -0.3210    -6.4010    -0.4350 C.3   1 <1>  -0.2400 
 23 H        2.6140     1.3250    -2.8380 H     1 <1>   0.1500 
 24 H        1.6020     4.1010     0.2240 H     1 <1>   0.1500 
 25 H        3.1930     3.0030     1.7620 H     1 <1>   0.1500 
 26 H        5.1240     0.1280    -2.1220 H     1 <1>   0.3700 
 27 H        4.7560     1.4250     2.0200 H     1 <1>   0.4500 
 28 H        3.0980    -1.1320     0.6160 H     1 <1>   0.0800 
 29 H        4.4840    -3.0640     1.0920 H     1 <1>   0.0800 
 30 H        3.7640    -3.9530    -0.2150 H     1 <1>   0.0800 
 31 H        1.9250    -2.7280    -1.6670 H     1 <1>   0.0800 
 32 H        1.5180    -1.0880    -1.2510 H     1 <1>   0.0800 
 33 H        2.3320    -2.9990     2.2770 H     1 <1>   0.0800 
 34 H        2.7590    -4.6390     1.8580 H     1 <1>   0.0800 
 35 H       -0.1480    -2.6710    -0.3890 H     1 <1>   0.0800 
 36 H        0.6330    -1.8170     0.9170 H     1 <1>   0.0800 
 37 H       -1.4860    -4.6220    -0.2010 H     1 <1>   0.0800 
 38 H       -1.8490    -5.8520     0.9570 H     1 <1>   0.0800 
 39 H        0.4670    -5.9300    -0.9960 H     1 <1>   0.0800 
 40 H       -1.0110    -6.8570    -1.1220 H     1 <1>   0.0800 
 41 H        0.1110    -7.1670     0.1850 H     1 <1>   0.0800 
@<TRIPOS>BOND
  1   1   2  1   
  2   2   3  ar  
  3   2   4  ar  
  4   3   5  ar  
  5   3  23  1   
  6   4   6  ar  
  7   4  24  1   
  8   5   7  1   
  9   5   8  ar  
 10   6   8  ar  
 11   6  25  1   
 12   7   9  am  
 13   7  26  1   
 14   8  10  1   
 15   9  11  2   
 16   9  12  1   
 17  10  27  1   
 18  12  13  1   
 19  12  14  1   
 20  12  28  1   
 21  13  15  1   
 22  13  29  1   
 23  13  30  1   
 24  14  16  1   
 25  14  31  1   
 26  14  32  1   
 27  15  17  1   
 28  15  33  1   
 29  15  34  1   
 30  16  17  1   
 31  16  35  1   
 32  16  36  1   
 33  17  18  am  
 34  18  19  2   
 35  18  20  2   
 36  18  21  1   
 37  21  22  1   
 38  21  37  1   
 39  21  38  1   
 40  22  39  1   
 41  22  40  1   
 42  22  41  1   
@<TRIPOS>SUBSTRUCTURE
  1 ****  14 GROUP 4 **** **** 0

# MOE 2024.06 (io_trps.svl 2023.06)
