@<TRIPOS>MOLECULE
NONAME
50 52 1 0 0 
SMALL
USER_CHARGES


@<TRIPOS>ATOM
  1 S        0.0220    -0.5570     0.6560 S.o2  1 <1>   1.4470 
  2 O       -0.4300     0.1870     1.8130 O.2   1 <1>  -0.6500 
  3 O        0.2700    -1.9760     0.7800 O.2   1 <1>  -0.6500 
  4 N        1.4690     0.1700     0.1490 N.am  1 <1>  -0.8490 
  5 C       -1.0990    -0.2740    -0.7460 C.ar  1 <1>  -0.0090 
  6 C        2.6100    -0.3010     0.9370 C.3   1 <1>   0.1960 
  7 C        1.3790     1.6340     0.1530 C.3   1 <1>   0.1960 
  8 C       -0.6880    -0.5470    -2.0500 C.ar  1 <1>  -0.1500 
  9 C       -2.3900     0.2130    -0.5460 C.ar  1 <1>  -0.1500 
 10 C        3.9180     0.2470     0.3590 C.3   1 <1>  -0.1600 
 11 C        2.6400     2.2410    -0.4660 C.3   1 <1>  -0.1600 
 12 C       -1.5320    -0.3370    -3.1290 C.ar  1 <1>  -0.1500 
 13 C       -3.2490     0.4290    -1.6120 C.ar  1 <1>  -0.1500 
 14 C        3.9030     1.7820     0.2820 C.3   1 <1>  -0.0190 
 15 C       -2.8010     0.1490    -2.8880 C.ar  1 <1>   0.1900 
 16 C        5.1760     2.3200    -0.3700 C.2   1 <1>   0.5690 
 17 F       -3.6030     0.3510    -3.8970 F     1 <1>  -0.1900 
 18 O        5.3750     2.1190    -1.5440 O.2   1 <1>  -0.5700 
 19 N        6.0630     3.0060     0.3970 N.am  1 <1>  -0.7300 
 20 C        7.3230     3.6010    -0.1130 C.3   1 <1>   0.1400 
 21 C        8.4840     2.6300     0.1020 C.3   1 <1>  -0.0170 
 22 C        9.7800     3.2460    -0.4000 C.ar  1 <1>  -0.1430 
 23 C       10.0940     3.1940    -1.7490 C.ar  1 <1>  -0.1500 
 24 C       10.6540     3.8680     0.4790 C.ar  1 <1>  -0.1500 
 25 C       11.2700     3.7570    -2.2160 C.ar  1 <1>  -0.1500 
 26 C       11.8300     4.4310     0.0130 C.ar  1 <1>  -0.1500 
 27 C       12.1380     4.3760    -1.3350 C.ar  1 <1>  -0.1500 
 28 H        2.6520    -1.3780     0.9110 H     1 <1>   0.0800 
 29 H        2.4960     0.0050     1.9650 H     1 <1>   0.0800 
 30 H        1.2560     1.9940     1.1620 H     1 <1>   0.0800 
 31 H        0.5240     1.9480    -0.4220 H     1 <1>   0.0800 
 32 H        0.3060    -0.9270    -2.2180 H     1 <1>   0.1500 
 33 H       -2.7260     0.4250     0.4560 H     1 <1>   0.1500 
 34 H        4.0580    -0.1640    -0.6260 H     1 <1>   0.0800 
 35 H        4.7420    -0.0790     0.9680 H     1 <1>   0.0800 
 36 H        2.5720     3.3140    -0.4390 H     1 <1>   0.0800 
 37 H        2.6960     1.9420    -1.4990 H     1 <1>   0.0800 
 38 H       -1.2150    -0.5470    -4.1350 H     1 <1>   0.1500 
 39 H       -4.2450     0.8040    -1.4600 H     1 <1>   0.1500 
 40 H        3.8510     2.1660     1.2850 H     1 <1>   0.0800 
 41 H        5.8830     3.1360     1.3930 H     1 <1>   0.3700 
 42 H        7.5170     4.5280     0.3990 H     1 <1>   0.0800 
 43 H        7.2250     3.8130    -1.1650 H     1 <1>   0.0800 
 44 H        8.2910     1.7200    -0.4380 H     1 <1>   0.0800 
 45 H        8.5750     2.3930     1.1460 H     1 <1>   0.0800 
 46 H        9.4230     2.7150    -2.4410 H     1 <1>   0.1500 
 47 H       10.4270     3.9170     1.5290 H     1 <1>   0.1500 
 48 H       11.5070     3.7120    -3.2640 H     1 <1>   0.1500 
 49 H       12.5050     4.9120     0.6990 H     1 <1>   0.1500 
 50 H       13.0520     4.8130    -1.6970 H     1 <1>   0.1500 
@<TRIPOS>BOND
  1   1   2  2   
  2   1   3  2   
  3   1   4  am  
  4   1   5  1   
  5   4   6  1   
  6   4   7  1   
  7   5   8  ar  
  8   5   9  ar  
  9   6  10  1   
 10   6  28  1   
 11   6  29  1   
 12   7  11  1   
 13   7  30  1   
 14   7  31  1   
 15   8  12  ar  
 16   8  32  1   
 17   9  13  ar  
 18   9  33  1   
 19  10  14  1   
 20  10  34  1   
 21  10  35  1   
 22  11  14  1   
 23  11  36  1   
 24  11  37  1   
 25  12  15  ar  
 26  12  38  1   
 27  13  15  ar  
 28  13  39  1   
 29  14  16  1   
 30  14  40  1   
 31  15  17  1   
 32  16  18  2   
 33  16  19  am  
 34  19  20  1   
 35  19  41  1   
 36  20  21  1   
 37  20  42  1   
 38  20  43  1   
 39  21  22  1   
 40  21  44  1   
 41  21  45  1   
 42  22  23  ar  
 43  22  24  ar  
 44  23  25  ar  
 45  23  46  1   
 46  24  26  ar  
 47  24  47  1   
 48  25  27  ar  
 49  25  48  1   
 50  26  27  ar  
 51  26  49  1   
 52  27  50  1   
@<TRIPOS>SUBSTRUCTURE
  1 ****  14 GROUP 4 **** **** 0

# MOE 2024.06 (io_trps.svl 2023.06)
