@<TRIPOS>MOLECULE
NONAME
26 26 1 0 0 
SMALL
USER_CHARGES


@<TRIPOS>ATOM
  1 CL       2.0470    -1.2080    -1.8130 Cl    1 <1>  -0.1770 
  2 C        2.5760     0.1750    -0.8890 C.ar  1 <1>   0.1770 
  3 C        3.8580     0.6570    -1.0720 C.ar  1 <1>  -0.1500 
  4 C        1.7010     0.7600     0.0070 C.ar  1 <1>  -0.1500 
  5 C        4.2760     1.7610    -0.3330 C.ar  1 <1>   0.0830 
  6 C        2.1180     1.8570     0.7410 C.ar  1 <1>  -0.1500 
  7 O        5.5110     2.3160    -0.4270 O.3   1 <1>  -0.3630 
  8 C        3.4010     2.3510     0.5680 C.ar  1 <1>  -0.1500 
  9 C        6.4920     1.8390    -1.3400 C.3   1 <1>   0.2610 
 10 C        7.0580     0.4790    -0.8990 C.2   1 <1>   0.5690 
 11 C        7.5820     2.9120    -1.4220 C.3   1 <1>  -0.2400 
 12 O        7.4650    -0.2810    -1.7470 O.2   1 <1>  -0.5700 
 13 N        7.0810     0.1570     0.4250 N.am  1 <1>  -0.7300 
 14 C        7.5730    -1.1190     1.0000 C.3   1 <1>   0.0600 
 15 H        4.4920     0.1580    -1.7800 H     1 <1>   0.1500 
 16 H        0.7090     0.3600     0.1250 H     1 <1>   0.1500 
 17 H        1.4480     2.3250     1.4430 H     1 <1>   0.1500 
 18 H        3.7300     3.2050     1.1340 H     1 <1>   0.1500 
 19 H        6.0290     1.7370    -2.3050 H     1 <1>   0.0800 
 20 H        8.0460     3.0450    -0.4610 H     1 <1>   0.0800 
 21 H        7.1590     3.8440    -1.7520 H     1 <1>   0.0800 
 22 H        8.3350     2.6080    -2.1260 H     1 <1>   0.0800 
 23 H        6.6470     0.8170     1.0770 H     1 <1>   0.3700 
 24 H        7.9890    -1.7420     0.2260 H     1 <1>   0.0800 
 25 H        6.7590    -1.6440     1.4680 H     1 <1>   0.0800 
 26 H        8.3360    -0.9180     1.7320 H     1 <1>   0.0800 
@<TRIPOS>BOND
  1   1   2  1   
  2   2   3  ar  
  3   2   4  ar  
  4   3   5  ar  
  5   3  15  1   
  6   4   6  ar  
  7   4  16  1   
  8   5   7  1   
  9   5   8  ar  
 10   6   8  ar  
 11   6  17  1   
 12   7   9  1   
 13   8  18  1   
 14   9  10  1   
 15   9  11  1   
 16   9  19  1   
 17  10  12  2   
 18  10  13  am  
 19  11  20  1   
 20  11  21  1   
 21  11  22  1   
 22  13  14  1   
 23  13  23  1   
 24  14  24  1   
 25  14  25  1   
 26  14  26  1   
@<TRIPOS>SUBSTRUCTURE
  1 ****   5 GROUP 4 **** **** 0

# MOE 2024.06 (io_trps.svl 2023.06)
