@<TRIPOS>MOLECULE
NONAME
39 39 1 0 0 
SMALL
USER_CHARGES


@<TRIPOS>ATOM
  1 O        0.7410     0.5720    -0.1390 O.2   1 <1>  -0.5700 
  2 C        1.4050     1.5310     0.1660 C.2   1 <1>   0.5690 
  3 N        2.7530     1.3940     0.2010 N.am  1 <1>  -0.7300 
  4 C        0.7200     2.8700     0.4870 C.3   1 <1>  -0.0190 
  5 C        3.8100     2.4080     0.4280 C.3   1 <1>   0.1400 
  6 C       -0.7140     2.6920     1.0170 C.3   1 <1>  -0.2400 
  7 C        0.7010     3.7940    -0.7430 C.3   1 <1>  -0.2400 
  8 C        4.6550     2.5630    -0.8360 C.3   1 <1>  -0.0170 
  9 C        5.6870     3.6590    -0.6340 C.ar  1 <1>  -0.1440 
 10 C        6.9170     3.3630    -0.0670 C.ar  1 <1>  -0.1500 
 11 C        5.4060     4.9640    -1.0100 C.ar  1 <1>  -0.1500 
 12 C        7.8620     4.3560     0.1270 C.ar  1 <1>   0.0820 
 13 C        6.3390     5.9660    -0.8070 C.ar  1 <1>  -0.1500 
 14 O        9.0550     3.9850     0.6540 O.3   1 <1>  -0.3630 
 15 C        7.5610     5.6770    -0.2240 C.ar  1 <1>   0.0820 
 16 C       10.1810     4.1290    -0.1840 C.3   1 <1>   0.0400 
 17 O        8.4140     6.7100    -0.0180 O.3   1 <1>  -0.3630 
 18 C        8.6960     7.0310     1.3270 C.3   1 <1>   0.0400 
 19 H        3.0810     0.4500    -0.0130 H     1 <1>   0.3700 
 20 H        1.2800     3.3490     1.2680 H     1 <1>   0.0800 
 21 H        4.4340     2.0940     1.2470 H     1 <1>   0.0800 
 22 H        3.3780     3.3590     0.6830 H     1 <1>   0.0800 
 23 H       -1.3380     2.2380     0.2670 H     1 <1>   0.0800 
 24 H       -1.1380     3.6420     1.2910 H     1 <1>   0.0800 
 25 H       -0.7090     2.0550     1.8830 H     1 <1>   0.0800 
 26 H        0.1340     3.3390    -1.5370 H     1 <1>   0.0800 
 27 H        1.7000     3.9700    -1.0970 H     1 <1>   0.0800 
 28 H        0.2530     4.7400    -0.4960 H     1 <1>   0.0800 
 29 H        4.0190     2.8140    -1.6670 H     1 <1>   0.0800 
 30 H        5.1510     1.6350    -1.0590 H     1 <1>   0.0800 
 31 H        7.1600     2.3580     0.2270 H     1 <1>   0.1500 
 32 H        4.4590     5.2090    -1.4600 H     1 <1>   0.1500 
 33 H        6.1220     6.9790    -1.0940 H     1 <1>   0.1500 
 34 H        9.9940     3.6140    -1.1090 H     1 <1>   0.0800 
 35 H       11.0290     3.6960     0.3150 H     1 <1>   0.0800 
 36 H       10.3590     5.1730    -0.3670 H     1 <1>   0.0800 
 37 H        9.3010     7.9190     1.3400 H     1 <1>   0.0800 
 38 H        9.2290     6.2180     1.7840 H     1 <1>   0.0800 
 39 H        7.7690     7.2070     1.8430 H     1 <1>   0.0800 
@<TRIPOS>BOND
  1   1   2  2   
  2   2   3  am  
  3   2   4  1   
  4   3   5  1   
  5   3  19  1   
  6   4   6  1   
  7   4   7  1   
  8   4  20  1   
  9   5   8  1   
 10   5  21  1   
 11   5  22  1   
 12   6  23  1   
 13   6  24  1   
 14   6  25  1   
 15   7  26  1   
 16   7  27  1   
 17   7  28  1   
 18   8   9  1   
 19   8  29  1   
 20   8  30  1   
 21   9  10  ar  
 22   9  11  ar  
 23  10  12  ar  
 24  10  31  1   
 25  11  13  ar  
 26  11  32  1   
 27  12  14  1   
 28  12  15  ar  
 29  13  15  ar  
 30  13  33  1   
 31  14  16  1   
 32  15  17  1   
 33  16  34  1   
 34  16  35  1   
 35  16  36  1   
 36  17  18  1   
 37  18  37  1   
 38  18  38  1   
 39  18  39  1   
@<TRIPOS>SUBSTRUCTURE
  1 ****   9 GROUP 4 **** **** 0

# MOE 2024.06 (io_trps.svl 2023.06)
