@<TRIPOS>MOLECULE
NONAME
36 37 1 0 0 
SMALL
USER_CHARGES


@<TRIPOS>ATOM
  1 O       -0.0760     0.4770    -1.0500 O.2   1 <1>  -0.5700 
  2 C       -0.0050     1.5710    -0.5230 C.2   1 <1>   0.5440 
  3 N       -1.1510     2.1280     0.0060 N.am  1 <1>  -0.6600 
  4 C        1.2760     2.2460    -0.4630 C.ar  1 <1>   0.0860 
  5 C       -2.4960     1.5140    -0.2010 C.3   1 <1>   0.1400 
  6 C       -1.1790     3.2890     0.9450 C.3   1 <1>   0.1400 
  7 C        2.3620     1.6660     0.1900 C.ar  1 <1>  -0.1500 
  8 C        1.4710     3.4920    -1.0570 C.ar  1 <1>  -0.1500 
  9 C       -3.5410     2.5960    -0.5200 C.3   1 <1>   0.1200 
 10 C       -2.2930     4.2730     0.5510 C.3   1 <1>   0.1200 
 11 C        3.5870     2.3030     0.2640 C.ar  1 <1>  -0.1500 
 12 C        2.6930     4.1360    -0.9900 C.ar  1 <1>  -0.1500 
 13 O       -3.5220     3.6110     0.4450 O.3   1 <1>  -0.5600 
 14 C        3.7620     3.5480    -0.3320 C.ar  1 <1>   0.0830 
 15 O        4.9270     4.2440    -0.3000 O.3   1 <1>  -0.2320 
 16 C        6.1750     3.7950    -0.1680 C.2   1 <1>   0.6590 
 17 O        6.4640     2.6270    -0.1180 O.2   1 <1>  -0.5700 
 18 C        7.2310     4.8900    -0.0910 C.3   1 <1>  -0.0990 
 19 C        8.6690     4.3850     0.1220 C.3   1 <1>  -0.2400 
 20 H       -2.7860     0.9880     0.6920 H     1 <1>   0.0800 
 21 H       -2.4660     0.8040    -1.0090 H     1 <1>   0.0800 
 22 H       -0.2350     3.8030     0.9580 H     1 <1>   0.0800 
 23 H       -1.3700     2.9280     1.9410 H     1 <1>   0.0800 
 24 H        2.2350     0.6970     0.6430 H     1 <1>   0.1500 
 25 H        0.6510     3.9520    -1.5800 H     1 <1>   0.1500 
 26 H       -4.5270     2.1670    -0.5270 H     1 <1>   0.0800 
 27 H       -3.3480     3.0320    -1.4840 H     1 <1>   0.0800 
 28 H       -2.0710     4.7410    -0.3920 H     1 <1>   0.0800 
 29 H       -2.3970     5.0370     1.3010 H     1 <1>   0.0800 
 30 H        4.3920     1.8220     0.7890 H     1 <1>   0.1500 
 31 H        2.8240     5.0980    -1.4540 H     1 <1>   0.1500 
 32 H        6.9690     5.5490     0.7160 H     1 <1>   0.0800 
 33 H        7.1900     5.4550    -1.0040 H     1 <1>   0.0800 
 34 H        8.7370     3.8290     1.0420 H     1 <1>   0.0800 
 35 H        9.3540     5.2130     0.1670 H     1 <1>   0.0800 
 36 H        8.9620     3.7390    -0.6880 H     1 <1>   0.0800 
@<TRIPOS>BOND
  1   1   2  2   
  2   2   3  am  
  3   2   4  1   
  4   3   5  1   
  5   3   6  1   
  6   4   7  ar  
  7   4   8  ar  
  8   5   9  1   
  9   5  20  1   
 10   5  21  1   
 11   6  10  1   
 12   6  22  1   
 13   6  23  1   
 14   7  11  ar  
 15   7  24  1   
 16   8  12  ar  
 17   8  25  1   
 18   9  13  1   
 19   9  26  1   
 20   9  27  1   
 21  10  13  1   
 22  10  28  1   
 23  10  29  1   
 24  11  14  ar  
 25  11  30  1   
 26  12  14  ar  
 27  12  31  1   
 28  14  15  1   
 29  15  16  1   
 30  16  17  2   
 31  16  18  1   
 32  18  19  1   
 33  18  32  1   
 34  18  33  1   
 35  19  34  1   
 36  19  35  1   
 37  19  36  1   
@<TRIPOS>SUBSTRUCTURE
  1 ****   4 GROUP 4 **** **** 0

# MOE 2024.06 (io_trps.svl 2023.06)
