@<TRIPOS>MOLECULE
NONAME
52 53 1 0 0 
SMALL
USER_CHARGES


@<TRIPOS>ATOM
  1 O       -4.9860    -3.2620     2.2390 O.3   1 <1>  -0.6800 
  2 C       -5.1210    -2.6960     0.9930 C.3   1 <1>   0.7670 
  3 C       -3.7820    -2.8430     0.3430 C.1   1 <1>  -0.2000 
  4 C       -5.4200    -1.1890     1.1210 C.ar  1 <1>  -0.1440 
  5 C       -6.2360    -3.4980     0.2980 C.ar  1 <1>  -0.1440 
  6 C       -2.6820    -2.9090    -0.1060 C.1   1 <1>  -0.2000 
  7 C       -5.4430    -0.5180     2.3420 C.ar  1 <1>  -0.1500 
  8 C       -5.6660    -0.4550    -0.0360 C.ar  1 <1>  -0.1500 
  9 C       -5.9640    -4.7190    -0.3160 C.ar  1 <1>  -0.1500 
 10 C       -7.5520    -3.0390     0.2880 C.ar  1 <1>  -0.1500 
 11 C       -1.2610    -2.9300    -0.5570 C.3   1 <1>   0.7030 
 12 C       -5.7090     0.8390     2.4010 C.ar  1 <1>  -0.1500 
 13 C       -5.9310     0.9020     0.0210 C.ar  1 <1>  -0.1500 
 14 C       -6.9660    -5.4460    -0.9330 C.ar  1 <1>  -0.1500 
 15 C       -8.5550    -3.7660    -0.3290 C.ar  1 <1>  -0.1500 
 16 N       -0.4520    -2.4860     0.6220 N.4   1 <1>  -0.9590 
 17 C       -0.8610    -4.3610    -1.0000 C.3   1 <1>  -0.1600 
 18 C       -1.1020    -1.9060    -1.7070 C.3   1 <1>  -0.1600 
 19 C       -5.9530     1.5500     1.2410 C.ar  1 <1>  -0.1500 
 20 C       -8.2630    -4.9690    -0.9420 C.ar  1 <1>  -0.1500 
 21 C        1.0150    -2.3410     0.3610 C.3   1 <1>   0.2630 
 22 C       -0.6790    -3.2950     1.8700 C.3   1 <1>   0.2630 
 23 C       -1.6500    -4.9370    -2.1950 C.3   1 <1>  -0.2400 
 24 C       -1.3150    -0.4200    -1.3360 C.3   1 <1>  -0.2400 
 25 H       -5.8890    -3.4670     2.5410 H     1 <1>   0.4000 
 26 H       -5.2530    -1.0380     3.2650 H     1 <1>   0.1500 
 27 H       -5.6560    -0.9420    -0.9970 H     1 <1>   0.1500 
 28 H       -4.9670    -5.1240    -0.3150 H     1 <1>   0.1500 
 29 H       -7.8180    -2.1080     0.7610 H     1 <1>   0.1500 
 30 H       -5.7260     1.3430     3.3520 H     1 <1>   0.1500 
 31 H       -6.1220     1.4530    -0.8830 H     1 <1>   0.1500 
 32 H       -6.7380    -6.3860    -1.4050 H     1 <1>   0.1500 
 33 H       -9.5650    -3.3930    -0.3310 H     1 <1>   0.1500 
 34 H       -0.8430    -1.5520     0.8050 H     1 <1>   0.4500 
 35 H       -1.0030    -5.0390    -0.1780 H     1 <1>   0.0800 
 36 H        0.1800    -4.3780    -1.2660 H     1 <1>   0.0800 
 37 H       -1.8230    -2.1470    -2.4690 H     1 <1>   0.0800 
 38 H       -0.1360    -2.0210    -2.1640 H     1 <1>   0.0800 
 39 H       -6.1610     2.6060     1.2890 H     1 <1>   0.1500 
 40 H       -9.0440    -5.5340    -1.4230 H     1 <1>   0.1500 
 41 H        1.1900    -1.6850    -0.4770 H     1 <1>   0.0800 
 42 H        1.4560    -3.3010     0.1470 H     1 <1>   0.0800 
 43 H        1.5070    -1.9250     1.2250 H     1 <1>   0.0800 
 44 H       -0.3330    -4.3060     1.7330 H     1 <1>   0.0800 
 45 H       -1.7270    -3.3220     2.1230 H     1 <1>   0.0800 
 46 H       -0.1450    -2.8590     2.6980 H     1 <1>   0.0800 
 47 H       -2.7080    -4.9480    -1.9960 H     1 <1>   0.0800 
 48 H       -1.3390    -5.9510    -2.3810 H     1 <1>   0.0800 
 49 H       -1.4730    -4.3710    -3.0930 H     1 <1>   0.0800 
 50 H       -2.2870    -0.2640    -0.8980 H     1 <1>   0.0800 
 51 H       -1.2610     0.1820    -2.2270 H     1 <1>   0.0800 
 52 H       -0.5630    -0.0620    -0.6560 H     1 <1>   0.0800 
@<TRIPOS>BOND
  1   1   2  1   
  2   1  25  1   
  3   2   3  1   
  4   2   4  1   
  5   2   5  1   
  6   3   6  3   
  7   4   7  ar  
  8   4   8  ar  
  9   5   9  ar  
 10   5  10  ar  
 11   6  11  1   
 12   7  12  ar  
 13   7  26  1   
 14   8  13  ar  
 15   8  27  1   
 16   9  14  ar  
 17   9  28  1   
 18  10  15  ar  
 19  10  29  1   
 20  11  16  1   
 21  11  17  1   
 22  11  18  1   
 23  12  19  ar  
 24  12  30  1   
 25  13  19  ar  
 26  13  31  1   
 27  14  20  ar  
 28  14  32  1   
 29  15  20  ar  
 30  15  33  1   
 31  16  21  1   
 32  16  22  1   
 33  16  34  1   
 34  17  23  1   
 35  17  35  1   
 36  17  36  1   
 37  18  24  1   
 38  18  37  1   
 39  18  38  1   
 40  19  39  1   
 41  20  40  1   
 42  21  41  1   
 43  21  42  1   
 44  21  43  1   
 45  22  44  1   
 46  22  45  1   
 47  22  46  1   
 48  23  47  1   
 49  23  48  1   
 50  23  49  1   
 51  24  50  1   
 52  24  51  1   
 53  24  52  1   
@<TRIPOS>SUBSTRUCTURE
  1 ****   3 GROUP 4 **** **** 0

# MOE 2024.06 (io_trps.svl 2023.06)
