@<TRIPOS>MOLECULE
NONAME
45 46 1 0 0 
SMALL
USER_CHARGES


@<TRIPOS>ATOM
  1 CL       5.8460    -6.2620    -1.3140 Cl    1 <1>  -0.1770 
  2 C        5.6320    -4.5630    -0.9860 C.ar  1 <1>   0.1770 
  3 C        5.8030    -3.6480    -2.0080 C.ar  1 <1>  -0.1500 
  4 C        5.3010    -4.1570     0.2930 C.ar  1 <1>  -0.1500 
  5 C        5.6580    -2.2960    -1.7440 C.ar  1 <1>  -0.1500 
  6 C        5.1570    -2.8050     0.5550 C.ar  1 <1>  -0.1500 
  7 C        5.3520    -1.8690    -0.4520 C.ar  1 <1>   0.0830 
  8 O        5.2490    -0.5670    -0.0850 O.3   1 <1>  -0.3630 
  9 C        5.5650     0.5140    -0.9620 C.3   1 <1>   0.2610 
 10 C        7.0400     0.4890    -1.4170 C.2   1 <1>   0.5690 
 11 C        5.1900     1.8400    -0.2730 C.3   1 <1>  -0.1600 
 12 O        7.2330     0.5800    -2.6070 O.2   1 <1>  -0.5700 
 13 N        8.1120     0.3200    -0.5610 N.am  1 <1>  -0.6600 
 14 C        3.7130     1.9070     0.1470 C.3   1 <1>  -0.2400 
 15 C        8.0270    -0.0220     0.8890 C.3   1 <1>   0.1400 
 16 C        9.4810     0.0840    -1.1090 C.3   1 <1>   0.1400 
 17 C        8.3850    -1.5100     1.0880 C.3   1 <1>   0.3430 
 18 C        9.8420    -1.4040    -0.9470 C.3   1 <1>   0.3430 
 19 N        9.7240    -1.8740     0.4880 N.4   1 <1>  -0.9590 
 20 C        9.9470    -3.3390     0.6060 C.3   1 <1>   0.3430 
 21 C       11.4170    -3.6590     0.3650 C.3   1 <1>  -0.2400 
 22 H        6.0400    -3.9940    -2.9990 H     1 <1>   0.1500 
 23 H        5.1500    -4.8910     1.0650 H     1 <1>   0.1500 
 24 H        5.7790    -1.6040    -2.5580 H     1 <1>   0.1500 
 25 H        4.8860    -2.4700     1.5410 H     1 <1>   0.1500 
 26 H        4.9410     0.4030    -1.8310 H     1 <1>   0.0800 
 27 H        5.3860     2.6430    -0.9630 H     1 <1>   0.0800 
 28 H        5.8170     1.9980     0.5850 H     1 <1>   0.0800 
 29 H        3.0720     1.7650    -0.7060 H     1 <1>   0.0800 
 30 H        3.4970     2.8690     0.5780 H     1 <1>   0.0800 
 31 H        3.4880     1.1500     0.8770 H     1 <1>   0.0800 
 32 H        7.0470     0.1710     1.2840 H     1 <1>   0.0800 
 33 H        8.7150     0.5940     1.4410 H     1 <1>   0.0800 
 34 H       10.1920     0.7000    -0.5860 H     1 <1>   0.0800 
 35 H        9.5320     0.3510    -2.1510 H     1 <1>   0.0800 
 36 H        7.6160    -2.1040     0.6250 H     1 <1>   0.0800 
 37 H        8.3830    -1.7350     2.1410 H     1 <1>   0.0800 
 38 H       10.8470    -1.5600    -1.3040 H     1 <1>   0.0800 
 39 H        9.1780    -1.9780    -1.5710 H     1 <1>   0.0800 
 40 H       10.4530    -1.3980     1.0350 H     1 <1>   0.4500 
 41 H        9.3290    -3.8690    -0.1020 H     1 <1>   0.0800 
 42 H        9.6790    -3.6680     1.5980 H     1 <1>   0.0800 
 43 H       11.7090    -3.4420    -0.6470 H     1 <1>   0.0800 
 44 H       11.5770    -4.7110     0.5290 H     1 <1>   0.0800 
 45 H       12.0470    -3.1200     1.0510 H     1 <1>   0.0800 
@<TRIPOS>BOND
  1   1   2  1   
  2   2   3  ar  
  3   2   4  ar  
  4   3   5  ar  
  5   3  22  1   
  6   4   6  ar  
  7   4  23  1   
  8   5   7  ar  
  9   5  24  1   
 10   6   7  ar  
 11   6  25  1   
 12   7   8  1   
 13   8   9  1   
 14   9  10  1   
 15   9  11  1   
 16   9  26  1   
 17  10  12  2   
 18  10  13  am  
 19  11  14  1   
 20  11  27  1   
 21  11  28  1   
 22  13  15  1   
 23  13  16  1   
 24  14  29  1   
 25  14  30  1   
 26  14  31  1   
 27  15  17  1   
 28  15  32  1   
 29  15  33  1   
 30  16  18  1   
 31  16  34  1   
 32  16  35  1   
 33  17  19  1   
 34  17  36  1   
 35  17  37  1   
 36  18  19  1   
 37  18  38  1   
 38  18  39  1   
 39  19  20  1   
 40  19  40  1   
 41  20  21  1   
 42  20  41  1   
 43  20  42  1   
 44  21  43  1   
 45  21  44  1   
 46  21  45  1   
@<TRIPOS>SUBSTRUCTURE
  1 ****   7 GROUP 4 **** **** 0

# MOE 2024.06 (io_trps.svl 2023.06)
