@<TRIPOS>MOLECULE
NONAME
42 44 1 0 0 
SMALL
USER_CHARGES


@<TRIPOS>ATOM
  1 O        1.2570     0.8910    -1.3160 O.2   1 <1>  -0.5700 
  2 C        1.3720     2.0950    -1.2780 C.2   1 <1>   0.5690 
  3 N        0.3710     2.9840    -0.9960 N.am  1 <1>  -0.2370 
  4 C        2.6730     2.8250    -1.6480 C.3   1 <1>   0.2510 
  5 C       -0.8910     2.6560    -0.4530 C.ar  1 <1>   0.1170 
  6 C        0.7870     4.2490    -1.3140 C.2   1 <1>   0.5690 
  7 N        3.7240     2.8350    -0.5960 N.3   1 <1>  -0.8100 
  8 C        2.1860     4.2630    -1.8700 C.3   1 <1>  -0.0990 
  9 C       -1.3830     3.3410     0.6540 C.ar  1 <1>  -0.1500 
 10 C       -1.6710     1.6470    -1.0060 C.ar  1 <1>  -0.1500 
 11 O        0.1410     5.2610    -1.2150 O.2   1 <1>  -0.5700 
 12 C        3.8960     1.5160     0.0630 C.3   1 <1>   0.1100 
 13 C        5.0180     3.3400    -1.0890 C.3   1 <1>   0.1100 
 14 C       -2.6170     3.0310     1.2000 C.ar  1 <1>  -0.1430 
 15 C       -2.9060     1.3310    -0.4690 C.ar  1 <1>  -0.1500 
 16 C        5.2210     1.3840     0.8350 C.3   1 <1>  -0.1600 
 17 C        5.9260     3.6960     0.0960 C.3   1 <1>  -0.1600 
 18 C       -3.3780     2.0230     0.6330 C.ar  1 <1>  -0.1500 
 19 C       -3.1380     3.7930     2.4060 C.3   1 <1>  -0.0970 
 20 C        5.7670     2.7440     1.3040 C.3   1 <1>  -0.1860 
 21 C        7.0600     2.6020     2.1030 C.2   1 <1>   0.9060 
 22 O        8.0500     2.1000     1.5580 O.co2 1 <1>  -0.9000 
 23 O        7.0790     2.9920     3.2760 O.co2 1 <1>  -0.9000 
 24 H        3.0680     2.4010    -2.5540 H     1 <1>   0.0800 
 25 H        2.1440     4.4950    -2.9170 H     1 <1>   0.0800 
 26 H        2.7750     4.9950    -1.3490 H     1 <1>   0.0800 
 27 H       -0.7900     4.1270     1.0870 H     1 <1>   0.1500 
 28 H       -1.3110     1.1010    -1.8600 H     1 <1>   0.1500 
 29 H        3.8480     0.7250    -0.6680 H     1 <1>   0.0800 
 30 H        3.0840     1.3760     0.7560 H     1 <1>   0.0800 
 31 H        4.8890     4.2150    -1.7010 H     1 <1>   0.0800 
 32 H        5.4920     2.5790    -1.6880 H     1 <1>   0.0800 
 33 H       -3.4980     0.5470    -0.9060 H     1 <1>   0.1500 
 34 H        5.9570     0.9190     0.2010 H     1 <1>   0.0800 
 35 H        5.0820     0.7370     1.6820 H     1 <1>   0.0800 
 36 H        5.7240     4.7010     0.4190 H     1 <1>   0.0800 
 37 H        6.9460     3.6720    -0.2490 H     1 <1>   0.0800 
 38 H       -4.3400     1.7730     1.0460 H     1 <1>   0.1500 
 39 H       -2.3260     4.2370     2.9530 H     1 <1>   0.0800 
 40 H       -3.6690     3.1300     3.0650 H     1 <1>   0.0800 
 41 H       -3.8040     4.5720     2.0820 H     1 <1>   0.0800 
 42 H        5.0370     3.1700     1.9670 H     1 <1>   0.0800 
@<TRIPOS>BOND
  1   1   2  2   
  2   2   3  am  
  3   2   4  1   
  4   3   5  1   
  5   3   6  am  
  6   4   7  1   
  7   4   8  1   
  8   4  24  1   
  9   5   9  ar  
 10   5  10  ar  
 11   6   8  1   
 12   6  11  2   
 13   7  12  1   
 14   7  13  1   
 15   8  25  1   
 16   8  26  1   
 17   9  14  ar  
 18   9  27  1   
 19  10  15  ar  
 20  10  28  1   
 21  12  16  1   
 22  12  29  1   
 23  12  30  1   
 24  13  17  1   
 25  13  31  1   
 26  13  32  1   
 27  14  18  ar  
 28  14  19  1   
 29  15  18  ar  
 30  15  33  1   
 31  16  20  1   
 32  16  34  1   
 33  16  35  1   
 34  17  20  1   
 35  17  36  1   
 36  17  37  1   
 37  18  38  1   
 38  19  39  1   
 39  19  40  1   
 40  19  41  1   
 41  20  21  1   
 42  20  42  1   
 43  21  22  ar  
 44  21  23  ar  
@<TRIPOS>SUBSTRUCTURE
  1 ****   2 GROUP 4 **** **** 0

# MOE 2024.06 (io_trps.svl 2023.06)
