@<TRIPOS>MOLECULE
NONAME
39 39 1 0 0 
SMALL
USER_CHARGES


@<TRIPOS>ATOM
  1 BR       2.0580    -1.3410    -1.8940 Br    1 <1>  -0.1110 
  2 C        0.7310    -2.4440    -1.0310 C.ar  1 <1>   0.1110 
  3 C        1.0550    -3.1640     0.1070 C.ar  1 <1>   0.0830 
  4 C       -0.5340    -2.4810    -1.5860 C.ar  1 <1>  -0.1500 
  5 O        2.2910    -3.1170     0.6440 O.3   1 <1>  -0.5330 
  6 C        0.0800    -3.9540     0.7080 C.ar  1 <1>   0.0830 
  7 C       -1.5130    -3.2580    -0.9810 C.ar  1 <1>  -0.1430 
  8 O        0.4460    -4.6510     1.8220 O.3   1 <1>  -0.3630 
  9 C       -1.2010    -3.9960     0.1580 C.ar  1 <1>  -0.1500 
 10 C       -2.9150    -3.2930    -1.5600 C.3   1 <1>   0.4860 
 11 C       -0.4120    -5.5970     2.4240 C.3   1 <1>   0.0400 
 12 N       -3.8130    -2.5190    -0.6650 N.4   1 <1>  -0.9590 
 13 C       -5.2370    -2.8280    -0.9080 C.3   1 <1>   0.4810 
 14 C       -3.5130    -1.0630    -0.7010 C.3   1 <1>   0.3430 
 15 C       -5.6220    -3.8870     0.1080 C.2   1 <1>  -0.2760 
 16 C       -4.0790    -0.3930     0.5450 C.3   1 <1>  -0.2400 
 17 C       -6.1770    -3.5800     1.2860 C.2   1 <1>  -0.3000 
 18 C       -5.3660    -5.3330    -0.3010 C.3   1 <1>  -0.1020 
 19 H       -0.7260    -1.9050    -2.4740 H     1 <1>   0.1500 
 20 H        2.3370    -3.6930     1.4330 H     1 <1>   0.4500 
 21 H       -1.9580    -4.6050     0.6160 H     1 <1>   0.1500 
 22 H       -3.2420    -4.3170    -1.6280 H     1 <1>   0.0800 
 23 H       -2.9190    -2.8700    -2.5520 H     1 <1>   0.0800 
 24 H        0.1180    -6.0560     3.2400 H     1 <1>   0.0800 
 25 H       -0.6750    -6.3450     1.6970 H     1 <1>   0.0800 
 26 H       -1.2850    -5.0930     2.7980 H     1 <1>   0.0800 
 27 H       -3.6330    -2.8420     0.2940 H     1 <1>   0.4500 
 28 H       -5.4100    -3.1680    -1.9170 H     1 <1>   0.0800 
 29 H       -5.8370    -1.9500    -0.7360 H     1 <1>   0.0800 
 30 H       -3.9280    -0.6140    -1.5900 H     1 <1>   0.0800 
 31 H       -2.4450    -0.9100    -0.7130 H     1 <1>   0.0800 
 32 H       -5.1520    -0.4380     0.5710 H     1 <1>   0.0800 
 33 H       -3.7960     0.6450     0.5440 H     1 <1>   0.0800 
 34 H       -3.6740    -0.8410     1.4360 H     1 <1>   0.0800 
 35 H       -6.3950    -2.5820     1.6270 H     1 <1>   0.1500 
 36 H       -6.4730    -4.3100     2.0240 H     1 <1>   0.1500 
 37 H       -4.3150    -5.5440    -0.3680 H     1 <1>   0.0800 
 38 H       -5.8300    -5.5450    -1.2490 H     1 <1>   0.0800 
 39 H       -5.7870    -6.0070     0.4260 H     1 <1>   0.0800 
@<TRIPOS>BOND
  1   1   2  1   
  2   2   3  ar  
  3   2   4  ar  
  4   3   5  1   
  5   3   6  ar  
  6   4   7  ar  
  7   4  19  1   
  8   5  20  1   
  9   6   8  1   
 10   6   9  ar  
 11   7   9  ar  
 12   7  10  1   
 13   8  11  1   
 14   9  21  1   
 15  10  12  1   
 16  10  22  1   
 17  10  23  1   
 18  11  24  1   
 19  11  25  1   
 20  11  26  1   
 21  12  13  1   
 22  12  14  1   
 23  12  27  1   
 24  13  15  1   
 25  13  28  1   
 26  13  29  1   
 27  14  16  1   
 28  14  30  1   
 29  14  31  1   
 30  15  17  2   
 31  15  18  1   
 32  16  32  1   
 33  16  33  1   
 34  16  34  1   
 35  17  35  1   
 36  17  36  1   
 37  18  37  1   
 38  18  38  1   
 39  18  39  1   
@<TRIPOS>SUBSTRUCTURE
  1 ****   7 GROUP 4 **** **** 0

# MOE 2024.06 (io_trps.svl 2023.06)
