@<TRIPOS>MOLECULE
NONAME
40 42 1 0 0 
SMALL
USER_CHARGES


@<TRIPOS>ATOM
  1 O        0.7120    -0.1750     2.0520 O.co2 1 <1>  -0.9000 
  2 C        0.7150    -0.9760     1.1100 C.2   1 <1>   0.9060 
  3 O       -0.2740    -1.1360     0.3960 O.co2 1 <1>  -0.9000 
  4 C        1.9770    -1.7860     0.9200 C.3   1 <1>  -0.1860 
  5 C        3.2890    -1.0600     0.5000 C.3   1 <1>  -0.0190 
  6 C        1.8560    -2.8620    -0.1680 C.3   1 <1>   0.2000 
  7 C        3.2810     0.4150     0.0580 C.2   1 <1>   0.5690 
  8 C        3.7260    -1.9750    -0.6590 C.3   1 <1>   0.2000 
  9 O        2.5150    -2.2850    -1.2330 O.3   1 <1>  -0.5600 
 10 C        2.8140    -4.0160     0.1400 C.3   1 <1>  -0.1600 
 11 O        4.0420     0.7550    -0.8210 O.2   1 <1>  -0.5700 
 12 N        2.5220     1.3330     0.7250 N.am  1 <1>  -0.5470 
 13 C        4.1660    -3.3590    -0.1600 C.3   1 <1>  -0.1600 
 14 C        2.2660     2.6740     0.4100 C.ar  1 <1>   0.1170 
 15 C        3.2480     3.6700     0.3820 C.ar  1 <1>  -0.1430 
 16 C        0.9490     3.0190     0.1380 C.ar  1 <1>  -0.1500 
 17 C        2.8970     4.9720     0.0590 C.ar  1 <1>  -0.1500 
 18 C        4.7040     3.3670     0.7090 C.3   1 <1>  -0.0970 
 19 C        0.6050     4.3190    -0.1790 C.ar  1 <1>  -0.1500 
 20 C        1.5750     5.3050    -0.2250 C.ar  1 <1>   0.0820 
 21 O        1.1600     6.5600    -0.5500 O.3   1 <1>  -0.3630 
 22 C        2.0830     7.6190    -0.6640 C.3   1 <1>   0.0400 
 23 H        2.1280    -2.2650     1.8670 H     1 <1>   0.0800 
 24 H        4.0060    -1.1250     1.2950 H     1 <1>   0.0800 
 25 H        0.8530    -3.1540    -0.4330 H     1 <1>   0.0800 
 26 H        4.3950    -1.5390    -1.3810 H     1 <1>   0.0800 
 27 H        2.6220    -4.8300    -0.5360 H     1 <1>   0.0800 
 28 H        2.7250    -4.3610     1.1540 H     1 <1>   0.0800 
 29 H        1.8160     0.9170     1.3630 H     1 <1>   0.3700 
 30 H        4.7980    -3.2890     0.7070 H     1 <1>   0.0800 
 31 H        4.6830    -3.8840    -0.9430 H     1 <1>   0.0800 
 32 H        0.1950     2.2490     0.1750 H     1 <1>   0.1500 
 33 H        3.6660     5.7190     0.0330 H     1 <1>   0.1500 
 34 H        4.7680     2.6160     1.4750 H     1 <1>   0.0800 
 35 H        5.2100     4.2470     1.0580 H     1 <1>   0.0800 
 36 H        5.2030     3.0060    -0.1720 H     1 <1>   0.0800 
 37 H       -0.4170     4.5710    -0.3910 H     1 <1>   0.1500 
 38 H        1.5420     8.5050    -0.9460 H     1 <1>   0.0800 
 39 H        2.8030     7.3730    -1.4240 H     1 <1>   0.0800 
 40 H        2.5610     7.7690     0.2880 H     1 <1>   0.0800 
@<TRIPOS>BOND
  1   1   2  ar  
  2   2   3  ar  
  3   2   4  1   
  4   4   5  1   
  5   4   6  1   
  6   4  23  1   
  7   5   7  1   
  8   5   8  1   
  9   5  24  1   
 10   6   9  1   
 11   6  10  1   
 12   6  25  1   
 13   7  11  2   
 14   7  12  am  
 15   8   9  1   
 16   8  13  1   
 17   8  26  1   
 18  10  13  1   
 19  10  27  1   
 20  10  28  1   
 21  12  14  1   
 22  12  29  1   
 23  13  30  1   
 24  13  31  1   
 25  14  15  ar  
 26  14  16  ar  
 27  15  17  ar  
 28  15  18  1   
 29  16  19  ar  
 30  16  32  1   
 31  17  20  ar  
 32  17  33  1   
 33  18  34  1   
 34  18  35  1   
 35  18  36  1   
 36  19  20  ar  
 37  19  37  1   
 38  20  21  1   
 39  21  22  1   
 40  22  38  1   
 41  22  39  1   
 42  22  40  1   
@<TRIPOS>SUBSTRUCTURE
  1 ****  12 GROUP 4 **** **** 0

# MOE 2024.06 (io_trps.svl 2023.06)
