@<TRIPOS>MOLECULE
NONAME
42 43 1 0 0 
SMALL
USER_CHARGES


@<TRIPOS>ATOM
  1 S       -0.1330    -0.0530    -0.1730 S.o2  1 <1>   1.5760 
  2 O        0.3540    -0.9130     0.8830 O.2   1 <1>  -0.6500 
  3 O        0.2240    -0.3050    -1.5510 O.2   1 <1>  -0.6500 
  4 N       -1.8150     0.0280    -0.0510 N.am  1 <1>  -0.8490 
  5 N        0.2710     1.5500     0.1900 N.am  1 <1>  -0.8490 
  6 C       -2.4390    -1.1940    -0.5510 C.3   1 <1>   0.1960 
  7 C       -2.2490     0.3120     1.3250 C.3   1 <1>   0.1960 
  8 C        1.6950     1.6880     0.4970 C.3   1 <1>   0.1160 
  9 C       -0.1050     2.4750    -0.8820 C.3   1 <1>   0.1160 
 10 C       -3.9530    -0.9880    -0.7200 C.3   1 <1>  -0.1600 
 11 C       -3.7740     0.1930     1.4940 C.3   1 <1>  -0.1600 
 12 C       -4.5140     0.1590     0.1460 C.3   1 <1>  -0.0190 
 13 C       -6.0290     0.0510     0.3120 C.2   1 <1>   0.5690 
 14 O       -6.4740    -0.8320     1.0040 O.2   1 <1>  -0.5700 
 15 N       -6.8030     0.9730    -0.3390 N.am  1 <1>  -0.5470 
 16 C       -8.1950     1.1460    -0.4010 C.ar  1 <1>   0.1170 
 17 C       -9.1080     0.1500    -0.0640 C.ar  1 <1>  -0.1500 
 18 C       -8.6910     2.3710    -0.8360 C.ar  1 <1>  -0.1500 
 19 C      -10.4700     0.3740    -0.1540 C.ar  1 <1>  -0.1500 
 20 C      -10.0520     2.5980    -0.9290 C.ar  1 <1>  -0.1500 
 21 C      -10.9450     1.5990    -0.5860 C.ar  1 <1>  -0.1500 
 22 H       -2.2490    -2.0000     0.1410 H     1 <1>   0.0800 
 23 H       -2.0160    -1.4690    -1.5040 H     1 <1>   0.0800 
 24 H       -1.9440     1.3130     1.5810 H     1 <1>   0.0800 
 25 H       -1.7700    -0.3610     2.0180 H     1 <1>   0.0800 
 26 H        1.9510     1.0630     1.3370 H     1 <1>   0.0800 
 27 H        1.9230     2.7080     0.7540 H     1 <1>   0.0800 
 28 H        2.2930     1.3920    -0.3490 H     1 <1>   0.0800 
 29 H       -1.1590     2.3900    -1.0870 H     1 <1>   0.0800 
 30 H        0.4400     2.2520    -1.7840 H     1 <1>   0.0800 
 31 H        0.1020     3.4880    -0.5850 H     1 <1>   0.0800 
 32 H       -4.4430    -1.9130    -0.4690 H     1 <1>   0.0800 
 33 H       -4.1670    -0.7860    -1.7540 H     1 <1>   0.0800 
 34 H       -4.1310     1.0110     2.0940 H     1 <1>   0.0800 
 35 H       -3.9890    -0.7120     2.0370 H     1 <1>   0.0800 
 36 H       -4.2940     1.0850    -0.3560 H     1 <1>   0.0800 
 37 H       -6.2780     1.6790    -0.8490 H     1 <1>   0.3700 
 38 H       -8.7630    -0.8110     0.2690 H     1 <1>   0.1500 
 39 H       -8.0100     3.1580    -1.1030 H     1 <1>   0.1500 
 40 H      -11.1600    -0.4080     0.1140 H     1 <1>   0.1500 
 41 H      -10.4190     3.5520    -1.2660 H     1 <1>   0.1500 
 42 H      -12.0050     1.7730    -0.6560 H     1 <1>   0.1500 
@<TRIPOS>BOND
  1   1   2  2   
  2   1   3  2   
  3   1   4  am  
  4   1   5  am  
  5   4   6  1   
  6   4   7  1   
  7   5   8  1   
  8   5   9  1   
  9   6  10  1   
 10   6  22  1   
 11   6  23  1   
 12   7  11  1   
 13   7  24  1   
 14   7  25  1   
 15   8  26  1   
 16   8  27  1   
 17   8  28  1   
 18   9  29  1   
 19   9  30  1   
 20   9  31  1   
 21  10  12  1   
 22  10  32  1   
 23  10  33  1   
 24  11  12  1   
 25  11  34  1   
 26  11  35  1   
 27  12  13  1   
 28  12  36  1   
 29  13  14  2   
 30  13  15  am  
 31  15  16  1   
 32  15  37  1   
 33  16  17  ar  
 34  16  18  ar  
 35  17  19  ar  
 36  17  38  1   
 37  18  20  ar  
 38  18  39  1   
 39  19  21  ar  
 40  19  40  1   
 41  20  21  ar  
 42  20  41  1   
 43  21  42  1   
@<TRIPOS>SUBSTRUCTURE
  1 ****  12 GROUP 4 **** **** 0

# MOE 2024.06 (io_trps.svl 2023.06)
