@<TRIPOS>MOLECULE
NONAME
52 53 1 0 0 
SMALL
USER_CHARGES


@<TRIPOS>ATOM
  1 S        0.7630     1.6810     2.0290 S.o2  1 <1>   1.3330 
  2 O        2.0930     2.0900     2.4210 O.2   1 <1>  -0.6500 
  3 O       -0.2640     1.5060     3.0240 O.2   1 <1>  -0.6500 
  4 N        0.2240     2.8450     0.8660 N.am  1 <1>  -0.6930 
  5 C        0.8870     0.1960     1.0530 C.3   1 <1>  -0.1350 
  6 C       -1.0330     2.7590     0.2710 C.ar  1 <1>   0.1990 
  7 C        1.2380     3.7570     0.2490 C.3   1 <1>   0.2570 
  8 C       -2.1870     3.2420     0.8960 C.ar  1 <1>  -0.1440 
  9 C       -1.1430     2.1840    -0.9910 C.ar  1 <1>  -0.1500 
 10 C        2.2830     3.0430    -0.6160 C.2   1 <1>   0.5690 
 11 C       -3.4110     3.1170     0.2600 C.ar  1 <1>  -0.1500 
 12 C       -2.1510     3.9090     2.2660 C.3   1 <1>  -0.0970 
 13 C       -2.3660     2.0680    -1.6260 C.ar  1 <1>  -0.1440 
 14 O        2.0980     2.9800    -1.8070 O.2   1 <1>  -0.5700 
 15 N        3.3660     2.4860     0.0090 N.am  1 <1>  -0.5470 
 16 C       -3.5030     2.5340    -0.9910 C.ar  1 <1>  -0.1500 
 17 C       -2.4660     1.4370    -3.0040 C.3   1 <1>  -0.0970 
 18 C        4.4300     1.7120    -0.4750 C.ar  1 <1>   0.1170 
 19 C        5.1320     0.9250     0.4290 C.ar  1 <1>  -0.1500 
 20 C        4.8230     1.6920    -1.8080 C.ar  1 <1>  -0.1500 
 21 C        6.1860     0.1320     0.0130 C.ar  1 <1>  -0.1500 
 22 C        5.8770     0.8990    -2.2250 C.ar  1 <1>  -0.1500 
 23 C        6.5690     0.1080    -1.3200 C.ar  1 <1>  -0.1430 
 24 C        7.7270    -0.7650    -1.7990 C.3   1 <1>   0.0630 
 25 C        7.4280    -2.2470    -1.5530 C.3   1 <1>  -0.2400 
 26 C        9.0400    -0.3530    -1.1260 C.3   1 <1>  -0.2400 
 27 H        1.2510    -0.6110     1.6580 H     1 <1>   0.0800 
 28 H        1.5590     0.3370     0.2290 H     1 <1>   0.0800 
 29 H       -0.0770    -0.0740     0.6690 H     1 <1>   0.0800 
 30 H        1.7390     4.3010     1.0280 H     1 <1>   0.0800 
 31 H        0.7290     4.4750    -0.3700 H     1 <1>   0.0800 
 32 H       -0.2570     1.8260    -1.4810 H     1 <1>   0.1500 
 33 H       -4.3060     3.4760     0.7370 H     1 <1>   0.1500 
 34 H       -2.2870     3.1690     3.0340 H     1 <1>   0.0800 
 35 H       -2.9360     4.6390     2.3510 H     1 <1>   0.0800 
 36 H       -1.2140     4.4080     2.4310 H     1 <1>   0.0800 
 37 H        3.3110     2.5130     1.0370 H     1 <1>   0.3700 
 38 H       -4.4640     2.4470    -1.4680 H     1 <1>   0.1500 
 39 H       -1.5010     1.3960    -3.4760 H     1 <1>   0.0800 
 40 H       -3.1240     2.0150    -3.6280 H     1 <1>   0.0800 
 41 H       -2.8540     0.4380    -2.9200 H     1 <1>   0.0800 
 42 H        4.8510     0.9280     1.4670 H     1 <1>   0.1500 
 43 H        4.3090     2.2980    -2.5310 H     1 <1>   0.1500 
 44 H        6.7100    -0.4690     0.7360 H     1 <1>   0.1500 
 45 H        6.1540     0.9040    -3.2640 H     1 <1>   0.1500 
 46 H        7.8470    -0.6270    -2.8610 H     1 <1>   0.0800 
 47 H        7.3490    -2.4530    -0.5010 H     1 <1>   0.0800 
 48 H        8.2120    -2.8570    -1.9640 H     1 <1>   0.0800 
 49 H        6.5010    -2.5160    -2.0260 H     1 <1>   0.0800 
 50 H        8.9960    -0.5200    -0.0650 H     1 <1>   0.0800 
 51 H        9.2270     0.6910    -1.3000 H     1 <1>   0.0800 
 52 H        9.8590    -0.9200    -1.5300 H     1 <1>   0.0800 
@<TRIPOS>BOND
  1   1   2  2   
  2   1   3  2   
  3   1   4  am  
  4   1   5  1   
  5   4   6  1   
  6   4   7  1   
  7   5  27  1   
  8   5  28  1   
  9   5  29  1   
 10   6   8  ar  
 11   6   9  ar  
 12   7  10  1   
 13   7  30  1   
 14   7  31  1   
 15   8  11  ar  
 16   8  12  1   
 17   9  13  ar  
 18   9  32  1   
 19  10  14  2   
 20  10  15  am  
 21  11  16  ar  
 22  11  33  1   
 23  12  34  1   
 24  12  35  1   
 25  12  36  1   
 26  13  16  ar  
 27  13  17  1   
 28  15  18  1   
 29  15  37  1   
 30  16  38  1   
 31  17  39  1   
 32  17  40  1   
 33  17  41  1   
 34  18  19  ar  
 35  18  20  ar  
 36  19  21  ar  
 37  19  42  1   
 38  20  22  ar  
 39  20  43  1   
 40  21  23  ar  
 41  21  44  1   
 42  22  23  ar  
 43  22  45  1   
 44  23  24  1   
 45  24  25  1   
 46  24  26  1   
 47  24  46  1   
 48  25  47  1   
 49  25  48  1   
 50  25  49  1   
 51  26  50  1   
 52  26  51  1   
 53  26  52  1   
@<TRIPOS>SUBSTRUCTURE
  1 ****  10 GROUP 4 **** **** 0

# MOE 2024.06 (io_trps.svl 2023.06)
