@<TRIPOS>MOLECULE
NONAME
34 35 1 0 0 
SMALL
USER_CHARGES


@<TRIPOS>ATOM
  1 S        0.2250    -0.6620     1.7490 S.o2  1 <1>   1.4470 
  2 O        1.1780    -1.4840     2.4620 O.2   1 <1>  -0.6500 
  3 O       -0.0700     0.6680     2.2340 O.2   1 <1>  -0.6500 
  4 N        0.8210    -0.4880     0.1740 N.am  1 <1>  -0.8490 
  5 C       -1.3350    -1.5650     1.5200 C.ar  1 <1>  -0.0090 
  6 C        1.8040     0.6080     0.0720 C.3   1 <1>   0.1960 
  7 C        1.3610    -1.7260    -0.3980 C.3   1 <1>   0.1960 
  8 C       -2.1230    -1.3730     0.3900 C.ar  1 <1>  -0.1500 
  9 C       -1.7890    -2.4570     2.4810 C.ar  1 <1>  -0.1500 
 10 C        2.7720     0.4710    -1.1260 C.3   1 <1>   0.1200 
 11 C        1.7570    -1.5300    -1.8800 C.3   1 <1>   0.1200 
 12 C       -3.3240    -2.0430     0.1940 C.ar  1 <1>  -0.0090 
 13 C       -2.9820    -3.1370     2.3160 C.ar  1 <1>  -0.1500 
 14 O        2.1790    -0.2230    -2.1830 O.3   1 <1>  -0.5600 
 15 S       -4.3180    -1.7500    -1.2910 S.o2  1 <1>   1.2040 
 16 C       -3.7400    -2.9290     1.1790 C.ar  1 <1>  -0.1500 
 17 O       -5.4080    -2.6990    -1.3380 O.2   1 <1>  -0.6500 
 18 O       -3.4350    -1.6080    -2.4250 O.2   1 <1>  -0.6500 
 19 C       -5.0250    -0.1470    -0.9640 C.3   1 <1>  -0.1350 
 20 H        2.3930     0.6630     0.9730 H     1 <1>   0.0800 
 21 H        1.2690     1.5390    -0.0140 H     1 <1>   0.0800 
 22 H        0.6330    -2.5170    -0.3330 H     1 <1>   0.0800 
 23 H        2.2280    -2.0370     0.1610 H     1 <1>   0.0800 
 24 H       -1.7840    -0.6820    -0.3660 H     1 <1>   0.1500 
 25 H       -1.2020    -2.6230     3.3700 H     1 <1>   0.1500 
 26 H        3.6600    -0.0610    -0.8310 H     1 <1>   0.0800 
 27 H        3.0620     1.4430    -1.4840 H     1 <1>   0.0800 
 28 H        0.9100    -1.7390    -2.5100 H     1 <1>   0.0800 
 29 H        2.5480    -2.2090    -2.1440 H     1 <1>   0.0800 
 30 H       -3.3190    -3.8280     3.0700 H     1 <1>   0.1500 
 31 H       -4.6670    -3.4660     1.0540 H     1 <1>   0.1500 
 32 H       -5.6210    -0.1750    -0.0730 H     1 <1>   0.0800 
 33 H       -5.6500     0.1510    -1.7830 H     1 <1>   0.0800 
 34 H       -4.2520     0.5870    -0.8420 H     1 <1>   0.0800 
@<TRIPOS>BOND
  1   1   2  2   
  2   1   3  2   
  3   1   4  am  
  4   1   5  1   
  5   4   6  1   
  6   4   7  1   
  7   5   8  ar  
  8   5   9  ar  
  9   6  10  1   
 10   6  20  1   
 11   6  21  1   
 12   7  11  1   
 13   7  22  1   
 14   7  23  1   
 15   8  12  ar  
 16   8  24  1   
 17   9  13  ar  
 18   9  25  1   
 19  10  14  1   
 20  10  26  1   
 21  10  27  1   
 22  11  14  1   
 23  11  28  1   
 24  11  29  1   
 25  12  15  1   
 26  12  16  ar  
 27  13  16  ar  
 28  13  30  1   
 29  15  17  2   
 30  15  18  2   
 31  15  19  1   
 32  16  31  1   
 33  19  32  1   
 34  19  33  1   
 35  19  34  1   
@<TRIPOS>SUBSTRUCTURE
  1 ****   8 GROUP 4 **** **** 0

# MOE 2024.06 (io_trps.svl 2023.06)
