@<TRIPOS>MOLECULE
NONAME
37 38 1 0 0 
SMALL
USER_CHARGES


@<TRIPOS>ATOM
  1 S        0.0030     0.1890    -0.3690 S.o2  1 <1>   1.5010 
  2 O       -0.1700     0.5150    -1.7650 O.2   1 <1>  -0.6500 
  3 O        0.0260    -1.1930     0.0550 O.2   1 <1>  -0.6500 
  4 N       -1.3010     0.9000     0.3940 N.am  1 <1>  -0.9140 
  5 C        1.4080     1.0760     0.3120 C.2   1 <1>  -0.0630 
  6 C       -2.4970     0.1070     0.2370 C.3   1 <1>   0.3390 
  7 C        1.5320     1.4370     1.6470 C.2   1 <1>   0.1390 
  8 C        2.5590     1.5260    -0.2490 C.2   1 <1>  -0.3020 
  9 C       -3.6930     0.9790     0.5800 C.ar  1 <1>  -0.1430 
 10 N        2.6440     2.0580     1.9000 N.2   1 <1>  -0.7070 
 11 N        3.2830     2.1140     0.7210 N.pl3 1 <1>   0.3140 
 12 C       -4.0230     2.0670    -0.2250 C.ar  1 <1>   0.0830 
 13 C       -4.4670     0.6900     1.6940 C.ar  1 <1>  -0.1500 
 14 C        4.6090     2.7480     0.5760 C.3   1 <1>   0.0960 
 15 O       -3.2250     2.3200    -1.2970 O.3   1 <1>  -0.3630 
 16 C       -5.1320     2.8480     0.0930 C.ar  1 <1>  -0.1500 
 17 C       -5.5670     1.4690     2.0050 C.ar  1 <1>  -0.1500 
 18 C        4.4890     4.1460    -0.0440 C.3   1 <1>  -0.2400 
 19 C       -3.5270     3.3390    -2.2250 C.3   1 <1>   0.0400 
 20 C       -5.9000     2.5470     1.2030 C.ar  1 <1>  -0.1500 
 21 H       -1.5020     1.7270    -0.1720 H     1 <1>   0.4200 
 22 H       -2.4510    -0.7550     0.8820 H     1 <1>   0.0800 
 23 H       -2.5940    -0.2330    -0.7820 H     1 <1>   0.0800 
 24 H        0.7850     1.2270     2.3970 H     1 <1>   0.1500 
 25 H        2.8860     1.4560    -1.2710 H     1 <1>   0.1500 
 26 H       -4.2160    -0.1440     2.3270 H     1 <1>   0.1500 
 27 H        5.2240     2.1170    -0.0380 H     1 <1>   0.0800 
 28 H        5.0550     2.8170     1.5520 H     1 <1>   0.0800 
 29 H       -5.4110     3.6920    -0.5070 H     1 <1>   0.1500 
 30 H       -6.1630     1.2380     2.8710 H     1 <1>   0.1500 
 31 H        4.0580     4.0870    -1.0270 H     1 <1>   0.0800 
 32 H        5.4630     4.5940    -0.1220 H     1 <1>   0.0800 
 33 H        3.8740     4.7730     0.5780 H     1 <1>   0.0800 
 34 H       -2.7800     3.3160    -2.9990 H     1 <1>   0.0800 
 35 H       -3.5030     4.2890    -1.7220 H     1 <1>   0.0800 
 36 H       -4.4970     3.1500    -2.6480 H     1 <1>   0.0800 
 37 H       -6.7570     3.1510     1.4470 H     1 <1>   0.1500 
@<TRIPOS>BOND
  1   1   2  2   
  2   1   3  2   
  3   1   4  am  
  4   1   5  1   
  5   4   6  1   
  6   4  21  1   
  7   5   7  1   
  8   5   8  2   
  9   6   9  1   
 10   6  22  1   
 11   6  23  1   
 12   7  10  2   
 13   7  24  1   
 14   8  11  1   
 15   8  25  1   
 16   9  12  ar  
 17   9  13  ar  
 18  10  11  1   
 19  11  14  1   
 20  12  15  1   
 21  12  16  ar  
 22  13  17  ar  
 23  13  26  1   
 24  14  18  1   
 25  14  27  1   
 26  14  28  1   
 27  15  19  1   
 28  16  20  ar  
 29  16  29  1   
 30  17  20  ar  
 31  17  30  1   
 32  18  31  1   
 33  18  32  1   
 34  18  33  1   
 35  19  34  1   
 36  19  35  1   
 37  19  36  1   
 38  20  37  1   
@<TRIPOS>SUBSTRUCTURE
  1 ****   4 GROUP 4 **** **** 0

# MOE 2024.06 (io_trps.svl 2023.06)
