@<TRIPOS>MOLECULE
NONAME
50 52 1 0 0 
SMALL
USER_CHARGES


@<TRIPOS>ATOM
  1 CL       2.4600     3.9210     2.0180 Cl    1 <1>  -0.1770 
  2 C        1.2830     3.6390     0.7590 C.ar  1 <1>   0.1770 
  3 C        1.5160     2.6720    -0.2160 C.ar  1 <1>   0.0860 
  4 C        0.1300     4.4030     0.7720 C.ar  1 <1>  -0.1500 
  5 C        2.7290     1.8880    -0.2390 C.2   1 <1>   0.5440 
  6 C        0.5260     2.4850    -1.1800 C.ar  1 <1>  -0.1500 
  7 C       -0.8320     4.2060    -0.2030 C.ar  1 <1>  -0.1500 
  8 O        2.6760     0.7200     0.0950 O.2   1 <1>  -0.5700 
  9 N        3.9320     2.4160    -0.6650 N.am  1 <1>  -0.6600 
 10 C       -0.6320     3.2430    -1.1780 C.ar  1 <1>  -0.1500 
 11 C        4.0630     3.7400    -1.3360 C.3   1 <1>   0.1400 
 12 C        5.2070     1.6630    -0.5120 C.3   1 <1>   0.1400 
 13 C        5.0850     4.6040    -0.5940 C.3   1 <1>  -0.1600 
 14 C        6.2290     2.5220     0.2390 C.3   1 <1>  -0.1600 
 15 C        6.4410     3.8840    -0.4470 C.3   1 <1>  -0.0190 
 16 C        7.4900     4.7190     0.2930 C.2   1 <1>   0.5690 
 17 O        7.1430     5.6580     0.9670 O.2   1 <1>  -0.5700 
 18 N        8.7940     4.3400     0.1380 N.am  1 <1>  -0.5470 
 19 C       10.0150     4.8270     0.6390 C.ar  1 <1>   0.1170 
 20 C       11.1820     4.1370     0.2890 C.ar  1 <1>   0.0830 
 21 C       10.1190     5.9490     1.4550 C.ar  1 <1>  -0.1500 
 22 O       11.0370     3.0390    -0.5140 O.3   1 <1>  -0.3620 
 23 C       12.4180     4.5760     0.7550 C.ar  1 <1>  -0.1500 
 24 C       11.3500     6.3790     1.9150 C.ar  1 <1>  -0.1500 
 25 C       12.1490     2.2680    -0.9060 C.3   1 <1>   0.1200 
 26 C       12.4990     5.6940     1.5660 C.ar  1 <1>  -0.1500 
 27 C       11.6420     1.1230    -1.7780 C.3   1 <1>  -0.2400 
 28 H       -0.0100     5.1420     1.5410 H     1 <1>   0.1500 
 29 H        0.6750     1.7320    -1.9350 H     1 <1>   0.1500 
 30 H       -1.7340     4.7950    -0.2010 H     1 <1>   0.1500 
 31 H       -1.3830     3.0820    -1.9340 H     1 <1>   0.1500 
 32 H        3.1190     4.2540    -1.3700 H     1 <1>   0.0800 
 33 H        4.3890     3.5830    -2.3490 H     1 <1>   0.0800 
 34 H        5.5820     1.4080    -1.4880 H     1 <1>   0.0800 
 35 H        5.0470     0.7480     0.0320 H     1 <1>   0.0800 
 36 H        4.6950     4.8470     0.3800 H     1 <1>   0.0800 
 37 H        5.2230     5.5290    -1.1250 H     1 <1>   0.0800 
 38 H        7.1590     1.9850     0.2960 H     1 <1>   0.0800 
 39 H        5.8780     2.6740     1.2460 H     1 <1>   0.0800 
 40 H        6.8210     3.7070    -1.4370 H     1 <1>   0.0800 
 41 H        8.9470     3.5170    -0.4450 H     1 <1>   0.3700 
 42 H        9.2400     6.4970     1.7380 H     1 <1>   0.1500 
 43 H       13.3290     4.0670     0.5030 H     1 <1>   0.1500 
 44 H       11.4110     7.2500     2.5460 H     1 <1>   0.1500 
 45 H       12.6310     1.8880    -0.0220 H     1 <1>   0.0800 
 46 H       12.8240     2.8980    -1.4600 H     1 <1>   0.0800 
 47 H       13.4560     6.0320     1.9270 H     1 <1>   0.1500 
 48 H       10.9580     0.5080    -1.2220 H     1 <1>   0.0800 
 49 H       12.4700     0.5140    -2.0930 H     1 <1>   0.0800 
 50 H       11.1510     1.5120    -2.6520 H     1 <1>   0.0800 
@<TRIPOS>BOND
  1   1   2  1   
  2   2   3  ar  
  3   2   4  ar  
  4   3   5  1   
  5   3   6  ar  
  6   4   7  ar  
  7   4  28  1   
  8   5   8  2   
  9   5   9  am  
 10   6  10  ar  
 11   6  29  1   
 12   7  10  ar  
 13   7  30  1   
 14   9  11  1   
 15   9  12  1   
 16  10  31  1   
 17  11  13  1   
 18  11  32  1   
 19  11  33  1   
 20  12  14  1   
 21  12  34  1   
 22  12  35  1   
 23  13  15  1   
 24  13  36  1   
 25  13  37  1   
 26  14  15  1   
 27  14  38  1   
 28  14  39  1   
 29  15  16  1   
 30  15  40  1   
 31  16  17  2   
 32  16  18  am  
 33  18  19  1   
 34  18  41  1   
 35  19  20  ar  
 36  19  21  ar  
 37  20  22  1   
 38  20  23  ar  
 39  21  24  ar  
 40  21  42  1   
 41  22  25  1   
 42  23  26  ar  
 43  23  43  1   
 44  24  26  ar  
 45  24  44  1   
 46  25  27  1   
 47  25  45  1   
 48  25  46  1   
 49  26  47  1   
 50  27  48  1   
 51  27  49  1   
 52  27  50  1   
@<TRIPOS>SUBSTRUCTURE
  1 ****  15 GROUP 4 **** **** 0

# MOE 2024.06 (io_trps.svl 2023.06)
