@<TRIPOS>MOLECULE
NONAME
45 47 1 0 0 
SMALL
USER_CHARGES


@<TRIPOS>ATOM
  1 O        0.5130    -0.5170    -0.5640 O.2   1 <1>  -0.5700 
  2 C        0.4720    -1.7100    -0.7480 C.2   1 <1>   0.5690 
  3 N        1.4860    -2.3650    -1.3650 N.am  1 <1>  -0.7300 
  4 C       -0.7320    -2.5170    -0.2620 C.3   1 <1>  -0.0190 
  5 C        2.7550    -1.7360    -1.8440 C.3   1 <1>   0.2010 
  6 C       -2.0560    -1.9520    -0.8110 C.3   1 <1>  -0.1600 
  7 C       -0.7670    -2.5810     1.2770 C.3   1 <1>  -0.1600 
  8 C        3.9930    -2.4110    -1.2450 C.2   1 <1>   0.5690 
  9 C       -3.2640    -2.7550    -0.3080 C.3   1 <1>  -0.1600 
 10 C       -1.9760    -3.3830     1.7820 C.3   1 <1>  -0.1600 
 11 O        4.2520    -3.5400    -1.5820 O.2   1 <1>  -0.5700 
 12 N        4.8170    -1.7780    -0.3640 N.am  1 <1>  -0.5470 
 13 C       -3.2880    -2.8160     1.2250 C.3   1 <1>  -0.1600 
 14 C        4.7460    -0.5060     0.2170 C.ar  1 <1>   0.1170 
 15 C        5.8910     0.3390     0.2070 C.ar  1 <1>   0.0000 
 16 C        3.5850    -0.0810     0.8190 C.ar  1 <1>  -0.1500 
 17 C        5.8030     1.6090     0.8240 C.ar  1 <1>   0.0000 
 18 C        7.1190    -0.0160    -0.3970 C.ar  1 <1>  -0.1500 
 19 C        3.4990     1.1780     1.4120 C.ar  1 <1>  -0.1500 
 20 C        4.5880     2.0040     1.4150 C.ar  1 <1>  -0.1500 
 21 C        6.9340     2.4510     0.8280 C.ar  1 <1>  -0.1500 
 22 C        8.2000     0.8220    -0.3800 C.ar  1 <1>  -0.1500 
 23 C        8.1070     2.0700     0.2420 C.ar  1 <1>  -0.1500 
 24 H        1.4600    -3.3830    -1.4590 H     1 <1>   0.3700 
 25 H       -0.6280    -3.5210    -0.6310 H     1 <1>   0.0800 
 26 H        2.7580    -0.6850    -1.6210 H     1 <1>   0.0800 
 27 H        2.8050    -1.8380    -2.9120 H     1 <1>   0.0800 
 28 H       -2.0360    -1.9670    -1.8870 H     1 <1>   0.0800 
 29 H       -2.1600    -0.9260    -0.5000 H     1 <1>   0.0800 
 30 H       -0.8170    -1.5800     1.6710 H     1 <1>   0.0800 
 31 H        0.1400    -3.0320     1.6410 H     1 <1>   0.0800 
 32 H       -3.2200    -3.7560    -0.7040 H     1 <1>   0.0800 
 33 H       -4.1720    -2.3000    -0.6640 H     1 <1>   0.0800 
 34 H       -2.0010    -3.3570     2.8580 H     1 <1>   0.0800 
 35 H       -1.8750    -4.4120     1.4790 H     1 <1>   0.0800 
 36 H        5.6420    -2.3300    -0.1300 H     1 <1>   0.3700 
 37 H       -4.1120    -3.4270     1.5490 H     1 <1>   0.0800 
 38 H       -3.4400    -1.8240     1.6160 H     1 <1>   0.0800 
 39 H        2.7170    -0.7140     0.8490 H     1 <1>   0.1500 
 40 H        7.2070    -0.9670    -0.8880 H     1 <1>   0.1500 
 41 H        2.5690     1.4810     1.8620 H     1 <1>   0.1500 
 42 H        4.5280     2.9750     1.8730 H     1 <1>   0.1500 
 43 H        6.8550     3.4110     1.3060 H     1 <1>   0.1500 
 44 H        9.1290     0.5370    -0.8440 H     1 <1>   0.1500 
 45 H        8.9670     2.7180     0.2490 H     1 <1>   0.1500 
@<TRIPOS>BOND
  1   1   2  2   
  2   2   3  am  
  3   2   4  1   
  4   3   5  1   
  5   3  24  1   
  6   4   6  1   
  7   4   7  1   
  8   4  25  1   
  9   5   8  1   
 10   5  26  1   
 11   5  27  1   
 12   6   9  1   
 13   6  28  1   
 14   6  29  1   
 15   7  10  1   
 16   7  30  1   
 17   7  31  1   
 18   8  11  2   
 19   8  12  am  
 20   9  13  1   
 21   9  32  1   
 22   9  33  1   
 23  10  13  1   
 24  10  34  1   
 25  10  35  1   
 26  12  14  1   
 27  12  36  1   
 28  13  37  1   
 29  13  38  1   
 30  14  15  ar  
 31  14  16  ar  
 32  15  17  ar  
 33  15  18  ar  
 34  16  19  ar  
 35  16  39  1   
 36  17  20  ar  
 37  17  21  ar  
 38  18  22  ar  
 39  18  40  1   
 40  19  20  ar  
 41  19  41  1   
 42  20  42  1   
 43  21  23  ar  
 44  21  43  1   
 45  22  23  ar  
 46  22  44  1   
 47  23  45  1   
@<TRIPOS>SUBSTRUCTURE
  1 ****  16 GROUP 4 **** **** 0

# MOE 2024.06 (io_trps.svl 2023.06)
