@<TRIPOS>MOLECULE
NONAME
44 45 1 0 0 
SMALL
USER_CHARGES


@<TRIPOS>ATOM
  1 O       -0.7620    -0.9590    -0.3880 O.2   1 <1>  -0.5700 
  2 C       -1.4290     0.0340    -0.2370 C.2   1 <1>   0.5690 
  3 N       -2.7800     0.0430    -0.4910 N.am  1 <1>  -0.6600 
  4 C       -0.7220     1.2730     0.2610 C.3   1 <1>  -0.1790 
  5 C       -3.4410    -1.1490    -1.0850 C.3   1 <1>   0.1400 
  6 C       -3.6970     1.1680    -0.1820 C.3   1 <1>   0.1400 
  7 C       -4.4690    -1.6780    -0.0860 C.3   1 <1>  -0.1600 
  8 C       -4.7370     0.6740     0.8260 C.3   1 <1>  -0.1600 
  9 C       -5.4540    -0.5740     0.2990 C.3   1 <1>   0.4230 
 10 N       -6.3580    -1.0880     1.3500 N.4   1 <1>  -0.9060 
 11 C       -7.8040    -1.1200     1.0140 C.3   1 <1>   0.4230 
 12 C       -8.0400    -2.0520    -0.1850 C.3   1 <1>  -0.1600 
 13 C       -8.3240     0.3140     0.8390 C.3   1 <1>  -0.1600 
 14 C       -9.5090    -2.4890    -0.2840 C.3   1 <1>  -0.1600 
 15 C       -9.8270     0.4140     0.5340 C.3   1 <1>  -0.1600 
 16 C      -10.4150    -1.5330    -1.0720 C.3   1 <1>  -0.1600 
 17 C      -10.1650    -0.0270    -0.8970 C.3   1 <1>  -0.1600 
 18 H       -1.0760     1.5300     1.2410 H     1 <1>   0.0800 
 19 H       -0.8870     2.0880    -0.4170 H     1 <1>   0.0800 
 20 H        0.3350     1.0860     0.3180 H     1 <1>   0.0800 
 21 H       -2.7210    -1.9190    -1.3100 H     1 <1>   0.0800 
 22 H       -3.9160    -0.8660    -2.0100 H     1 <1>   0.0800 
 23 H       -4.1750     1.4930    -1.0920 H     1 <1>   0.0800 
 24 H       -3.1650     2.0080     0.2290 H     1 <1>   0.0800 
 25 H       -3.9360    -2.0360     0.7780 H     1 <1>   0.0800 
 26 H       -4.9880    -2.5030    -0.5400 H     1 <1>   0.0800 
 27 H       -5.4460     1.4630     0.9990 H     1 <1>   0.0800 
 28 H       -4.2290     0.4550     1.7490 H     1 <1>   0.0800 
 29 H       -6.0210    -0.3010    -0.5770 H     1 <1>   0.0800 
 30 H       -6.2290    -0.5260     2.1960 H     1 <1>   0.4500 
 31 H       -6.0590    -2.0390     1.5890 H     1 <1>   0.4500 
 32 H       -8.3280    -1.5490     1.8540 H     1 <1>   0.0800 
 33 H       -7.4600    -2.9470    -0.0430 H     1 <1>   0.0800 
 34 H       -7.7330    -1.5960    -1.1100 H     1 <1>   0.0800 
 35 H       -7.7910     0.8200     0.0550 H     1 <1>   0.0800 
 36 H       -8.1480     0.8500     1.7560 H     1 <1>   0.0800 
 37 H       -9.9150    -2.6310     0.7040 H     1 <1>   0.0800 
 38 H       -9.5540    -3.4500    -0.7710 H     1 <1>   0.0800 
 39 H      -10.1120     1.4480     0.6310 H     1 <1>   0.0800 
 40 H      -10.4110    -0.1400     1.2510 H     1 <1>   0.0800 
 41 H      -11.4350    -1.7450    -0.7990 H     1 <1>   0.0800 
 42 H      -10.3290    -1.7590    -2.1220 H     1 <1>   0.0800 
 43 H       -9.3900     0.2920    -1.5720 H     1 <1>   0.0800 
 44 H      -11.0620     0.4850    -1.2060 H     1 <1>   0.0800 
@<TRIPOS>BOND
  1   1   2  2   
  2   2   3  am  
  3   2   4  1   
  4   3   5  1   
  5   3   6  1   
  6   4  18  1   
  7   4  19  1   
  8   4  20  1   
  9   5   7  1   
 10   5  21  1   
 11   5  22  1   
 12   6   8  1   
 13   6  23  1   
 14   6  24  1   
 15   7   9  1   
 16   7  25  1   
 17   7  26  1   
 18   8   9  1   
 19   8  27  1   
 20   8  28  1   
 21   9  10  1   
 22   9  29  1   
 23  10  11  1   
 24  10  30  1   
 25  10  31  1   
 26  11  12  1   
 27  11  13  1   
 28  11  32  1   
 29  12  14  1   
 30  12  33  1   
 31  12  34  1   
 32  13  15  1   
 33  13  35  1   
 34  13  36  1   
 35  14  16  1   
 36  14  37  1   
 37  14  38  1   
 38  15  17  1   
 39  15  39  1   
 40  15  40  1   
 41  16  17  1   
 42  16  41  1   
 43  16  42  1   
 44  17  43  1   
 45  17  44  1   
@<TRIPOS>SUBSTRUCTURE
  1 ****   9 GROUP 4 **** **** 0

# MOE 2024.06 (io_trps.svl 2023.06)
