@<TRIPOS>MOLECULE
NONAME
44 45 1 0 0 
SMALL
USER_CHARGES


@<TRIPOS>ATOM
  1 S       -0.5930     0.7450     1.7740 S.o2  1 <1>   1.4470 
  2 O       -1.1710     1.8760     2.4680 O.2   1 <1>  -0.6500 
  3 O       -0.6570    -0.5770     2.3510 O.2   1 <1>  -0.6500 
  4 N       -1.3780     0.5900     0.3020 N.am  1 <1>  -0.9140 
  5 C        1.1110     1.1280     1.2820 C.ar  1 <1>  -0.0090 
  6 C       -2.7720     0.9760     0.2980 C.3   1 <1>   0.2760 
  7 C        1.9460     0.1460     0.7730 C.ar  1 <1>  -0.1500 
  8 C        1.6190     2.4150     1.3790 C.ar  1 <1>  -0.1500 
  9 C       -3.6320    -0.0730     1.0020 C.3   1 <1>  -0.1600 
 10 C       -3.2640     0.8860    -1.1420 C.3   1 <1>  -0.1600 
 11 C        3.2590     0.3860     0.3560 C.ar  1 <1>   0.0860 
 12 C        2.9100     2.7020     0.9850 C.ar  1 <1>  -0.1500 
 13 C       -3.7940    -1.2190    -0.0020 C.3   1 <1>  -0.1600 
 14 C       -3.5840    -0.5940    -1.3870 C.3   1 <1>  -0.1600 
 15 C        3.7380     1.7050     0.4730 C.ar  1 <1>   0.0830 
 16 C        4.0360    -0.7300    -0.1700 C.2   1 <1>   0.5440 
 17 O        5.0050     1.9890     0.0780 O.3   1 <1>  -0.3630 
 18 O        3.4750    -1.7360    -0.5620 O.2   1 <1>  -0.5700 
 19 N        5.4000    -0.7010    -0.2250 N.am  1 <1>  -0.7300 
 20 C        5.5350     3.2980     0.0500 C.3   1 <1>   0.0400 
 21 C        6.2830    -1.7450    -0.7740 C.3   1 <1>   0.1400 
 22 C        7.2210    -1.1000    -1.7860 C.3   1 <1>  -0.2400 
 23 H       -1.3690    -0.4100     0.1170 H     1 <1>   0.4200 
 24 H       -2.9040     1.9690     0.6990 H     1 <1>   0.0800 
 25 H        1.5600    -0.8570     0.6950 H     1 <1>   0.1500 
 26 H        0.9920     3.2020     1.7670 H     1 <1>   0.1500 
 27 H       -4.6000     0.3610     1.1870 H     1 <1>   0.0800 
 28 H       -3.2340    -0.3990     1.9460 H     1 <1>   0.0800 
 29 H       -2.5470     1.2780    -1.8430 H     1 <1>   0.0800 
 30 H       -4.1720     1.4580    -1.2270 H     1 <1>   0.0800 
 31 H        3.2500     3.7150     1.0860 H     1 <1>   0.1500 
 32 H       -4.7670    -1.6730     0.0850 H     1 <1>   0.0800 
 33 H       -3.0440    -1.9710     0.1770 H     1 <1>   0.0800 
 34 H       -2.7550    -1.0730    -1.8800 H     1 <1>   0.0800 
 35 H       -4.4610    -0.6990    -2.0030 H     1 <1>   0.0800 
 36 H        5.8460     0.1930     0.0040 H     1 <1>   0.3700 
 37 H        6.5320     3.2470    -0.3510 H     1 <1>   0.0800 
 38 H        5.5660     3.6860     1.0520 H     1 <1>   0.0800 
 39 H        4.9200     3.9120    -0.5840 H     1 <1>   0.0800 
 40 H        5.6980    -2.5150    -1.2510 H     1 <1>   0.0800 
 41 H        6.8470    -2.1910     0.0280 H     1 <1>   0.0800 
 42 H        6.6530    -0.6550    -2.5840 H     1 <1>   0.0800 
 43 H        7.8680    -1.8490    -2.2060 H     1 <1>   0.0800 
 44 H        7.8280    -0.3500    -1.3130 H     1 <1>   0.0800 
@<TRIPOS>BOND
  1   1   2  2   
  2   1   3  2   
  3   1   4  am  
  4   1   5  1   
  5   4   6  1   
  6   4  23  1   
  7   5   7  ar  
  8   5   8  ar  
  9   6   9  1   
 10   6  10  1   
 11   6  24  1   
 12   7  11  ar  
 13   7  25  1   
 14   8  12  ar  
 15   8  26  1   
 16   9  13  1   
 17   9  27  1   
 18   9  28  1   
 19  10  14  1   
 20  10  29  1   
 21  10  30  1   
 22  11  15  ar  
 23  11  16  1   
 24  12  15  ar  
 25  12  31  1   
 26  13  14  1   
 27  13  32  1   
 28  13  33  1   
 29  14  34  1   
 30  14  35  1   
 31  15  17  1   
 32  16  18  2   
 33  16  19  am  
 34  17  20  1   
 35  19  21  1   
 36  19  36  1   
 37  20  37  1   
 38  20  38  1   
 39  20  39  1   
 40  21  22  1   
 41  21  40  1   
 42  21  41  1   
 43  22  42  1   
 44  22  43  1   
 45  22  44  1   
@<TRIPOS>SUBSTRUCTURE
  1 ****   7 GROUP 4 **** **** 0

# MOE 2024.06 (io_trps.svl 2023.06)
