@<TRIPOS>MOLECULE
NONAME
31 32 1 0 0 
SMALL
USER_CHARGES


@<TRIPOS>ATOM
  1 I        0.3650     2.0320    -2.9130 I     1 <1>  -0.0810 
  2 C       -0.8520     1.7350    -1.1790 C.ar  1 <1>   0.0810 
  3 C       -0.2880     1.8040     0.0910 C.ar  1 <1>   0.0820 
  4 C       -2.1960     1.4840    -1.3850 C.ar  1 <1>  -0.1500 
  5 O        1.0440     2.0560     0.2100 O.3   1 <1>  -0.3630 
  6 C       -1.1280     1.6080     1.1840 C.ar  1 <1>  -0.1500 
  7 C       -3.0180     1.2900    -0.2870 C.ar  1 <1>  -0.1430 
  8 C        1.6480     2.2870     1.4610 C.3   1 <1>   0.1200 
  9 C       -2.4780     1.3550     0.9900 C.ar  1 <1>  -0.1500 
 10 C       -4.4990     1.0140    -0.4770 C.3   1 <1>  -0.0960 
 11 C        3.1200     2.6240     1.2230 C.3   1 <1>  -0.1600 
 12 C        3.2840     3.8070     0.2560 C.3   1 <1>   0.0960 
 13 N        4.7100     4.1150     0.0460 N.pl3 1 <1>   0.3140 
 14 N        5.4320     4.8230     0.9040 N.2   1 <1>  -0.7070 
 15 C        5.4920     3.7570    -0.9760 C.2   1 <1>   0.0360 
 16 C        6.5940     4.8410     0.3390 C.2   1 <1>   0.3660 
 17 N        6.6900     4.1950    -0.8310 N.2   1 <1>  -0.5650 
 18 H       -2.5910     1.4400    -2.3840 H     1 <1>   0.1500 
 19 H       -0.7560     1.6450     2.1900 H     1 <1>   0.1500 
 20 H        1.5540     1.3960     2.0580 H     1 <1>   0.0800 
 21 H        1.1400     3.1090     1.9370 H     1 <1>   0.0800 
 22 H       -3.1150     1.2070     1.8450 H     1 <1>   0.1500 
 23 H       -4.8490     0.3240     0.2710 H     1 <1>   0.0800 
 24 H       -4.6830     0.5840    -1.4450 H     1 <1>   0.0800 
 25 H       -5.0540     1.9300    -0.3920 H     1 <1>   0.0800 
 26 H        3.6140     1.7540     0.8250 H     1 <1>   0.0800 
 27 H        3.5760     2.8680     2.1660 H     1 <1>   0.0800 
 28 H        2.8070     4.6830     0.6570 H     1 <1>   0.0800 
 29 H        2.8400     3.5810    -0.6960 H     1 <1>   0.0800 
 30 H        5.1400     3.1720    -1.8070 H     1 <1>   0.1500 
 31 H        7.4500     5.3400     0.7630 H     1 <1>   0.1500 
@<TRIPOS>BOND
  1   1   2  1   
  2   2   3  ar  
  3   2   4  ar  
  4   3   5  1   
  5   3   6  ar  
  6   4   7  ar  
  7   4  18  1   
  8   5   8  1   
  9   6   9  ar  
 10   6  19  1   
 11   7   9  ar  
 12   7  10  1   
 13   8  11  1   
 14   8  20  1   
 15   8  21  1   
 16   9  22  1   
 17  10  23  1   
 18  10  24  1   
 19  10  25  1   
 20  11  12  1   
 21  11  26  1   
 22  11  27  1   
 23  12  13  1   
 24  12  28  1   
 25  12  29  1   
 26  13  14  1   
 27  13  15  1   
 28  14  16  2   
 29  15  17  2   
 30  15  30  1   
 31  16  17  1   
 32  16  31  1   
@<TRIPOS>SUBSTRUCTURE
  1 ****   5 GROUP 4 **** **** 0

# MOE 2024.06 (io_trps.svl 2023.06)
