@<TRIPOS>MOLECULE
NONAME
39 39 1 0 0 
SMALL
USER_CHARGES


@<TRIPOS>ATOM
  1 O        0.1490     0.0890     1.7660 O.2   1 <1>  -0.5700 
  2 C        0.0450    -1.0470     1.3540 C.2   1 <1>   0.5440 
  3 N        1.1830    -1.7910     1.3610 N.am  1 <1>  -0.7300 
  4 C       -1.2240    -1.5560     0.8710 C.ar  1 <1>   0.0860 
  5 C        1.8730    -2.3500     0.1830 C.3   1 <1>   0.3000 
  6 C       -1.6630    -2.8430     1.1830 C.ar  1 <1>  -0.1500 
  7 C       -2.0600    -0.7690     0.0800 C.ar  1 <1>  -0.1500 
  8 C        3.3830    -2.4230     0.5180 C.3   1 <1>   0.1200 
  9 C        1.6480    -1.4470    -1.0380 C.3   1 <1>  -0.2400 
 10 C        1.3400    -3.7560    -0.0970 C.3   1 <1>  -0.2400 
 11 C       -2.8670    -3.3340     0.7130 C.ar  1 <1>  -0.1500 
 12 C       -3.2650    -1.2510    -0.3950 C.ar  1 <1>  -0.1500 
 13 O        3.8430    -1.2360     1.0920 O.3   1 <1>  -0.6800 
 14 C       -3.6800    -2.5370    -0.0880 C.ar  1 <1>   0.0820 
 15 O       -4.8710    -2.9280    -0.5980 O.3   1 <1>  -0.3620 
 16 C       -5.4780    -4.1690    -0.3150 C.3   1 <1>   0.2000 
 17 C       -6.5060    -4.4270    -1.4130 C.3   1 <1>  -0.2400 
 18 C       -6.1480    -4.0900     1.0590 C.3   1 <1>  -0.2400 
 19 H        1.8960    -1.3760     1.9720 H     1 <1>   0.3700 
 20 H       -1.0420    -3.4620     1.8070 H     1 <1>   0.1500 
 21 H       -1.7520     0.2350    -0.1590 H     1 <1>   0.1500 
 22 H        3.9610    -2.6170    -0.3690 H     1 <1>   0.0800 
 23 H        3.5690    -3.2150     1.2240 H     1 <1>   0.0800 
 24 H        2.2310    -1.7980    -1.8700 H     1 <1>   0.0800 
 25 H        1.9400    -0.4340    -0.8220 H     1 <1>   0.0800 
 26 H        0.6160    -1.4540    -1.3360 H     1 <1>   0.0800 
 27 H        1.9180    -4.2210    -0.8760 H     1 <1>   0.0800 
 28 H        0.3190    -3.7200    -0.4270 H     1 <1>   0.0800 
 29 H        1.4070    -4.3660     0.7860 H     1 <1>   0.0800 
 30 H       -3.1560    -4.3320     0.9810 H     1 <1>   0.1500 
 31 H       -3.8970    -0.6330    -1.0070 H     1 <1>   0.1500 
 32 H        3.5710    -0.4650     0.5550 H     1 <1>   0.4000 
 33 H       -4.7280    -4.9410    -0.3460 H     1 <1>   0.0800 
 34 H       -7.2470    -3.6470    -1.4230 H     1 <1>   0.0800 
 35 H       -6.9970    -5.3680    -1.2470 H     1 <1>   0.0800 
 36 H       -6.0160    -4.4630    -2.3700 H     1 <1>   0.0800 
 37 H       -6.8820    -3.3050     1.0690 H     1 <1>   0.0800 
 38 H       -5.4210    -3.9010     1.8270 H     1 <1>   0.0800 
 39 H       -6.6380    -5.0200     1.2810 H     1 <1>   0.0800 
@<TRIPOS>BOND
  1   1   2  2   
  2   2   3  am  
  3   2   4  1   
  4   3   5  1   
  5   3  19  1   
  6   4   6  ar  
  7   4   7  ar  
  8   5   8  1   
  9   5   9  1   
 10   5  10  1   
 11   6  11  ar  
 12   6  20  1   
 13   7  12  ar  
 14   7  21  1   
 15   8  13  1   
 16   8  22  1   
 17   8  23  1   
 18   9  24  1   
 19   9  25  1   
 20   9  26  1   
 21  10  27  1   
 22  10  28  1   
 23  10  29  1   
 24  11  14  ar  
 25  11  30  1   
 26  12  14  ar  
 27  12  31  1   
 28  13  32  1   
 29  14  15  1   
 30  15  16  1   
 31  16  17  1   
 32  16  18  1   
 33  16  33  1   
 34  17  34  1   
 35  17  35  1   
 36  17  36  1   
 37  18  37  1   
 38  18  38  1   
 39  18  39  1   
@<TRIPOS>SUBSTRUCTURE
  1 ****   4 GROUP 4 **** **** 0

# MOE 2024.06 (io_trps.svl 2023.06)
