@<TRIPOS>MOLECULE
NONAME
42 43 1 0 0 
SMALL
USER_CHARGES


@<TRIPOS>ATOM
  1 S        2.2620    -0.5630    -1.2010 S.3   1 <1>  -0.0800 
  2 C        1.9930     1.1760    -1.3970 C.2   1 <1>  -0.0130 
  3 C        0.9890    -0.9680    -2.3320 C.2   1 <1>  -0.1100 
  4 C        2.8190     2.1040    -0.6580 C.ar  1 <1>   0.3630 
  5 C        0.9800     1.3510    -2.2860 C.2   1 <1>  -0.1500 
  6 C        0.4170     0.1500    -2.8100 C.2   1 <1>  -0.1500 
  7 N        3.5510     1.6460     0.3530 N.ar  1 <1>  -0.6200 
  8 C        2.8420     3.4520    -1.0110 C.ar  1 <1>  -0.1500 
  9 C        4.3100     2.5190     0.9800 C.ar  1 <1>   0.4120 
 10 C        3.6200     4.3760    -0.3300 C.ar  1 <1>  -0.1440 
 11 S        5.3270     1.7680     2.2540 S.3   1 <1>  -0.3320 
 12 C        4.3880     3.8850     0.7230 C.ar  1 <1>   0.0730 
 13 C        3.6370     5.8620    -0.7150 C.3   1 <1>   1.1640 
 14 C        7.0580     1.9590     1.6030 C.3   1 <1>   0.1310 
 15 C        5.2290     4.7170     1.5330 C.1   1 <1>   0.4840 
 16 F        2.8570     6.1320    -1.7530 F     1 <1>  -0.3400 
 17 F        3.2100     6.6330     0.2740 F     1 <1>  -0.3400 
 18 F        4.8460     6.2900    -1.0410 F     1 <1>  -0.3400 
 19 C        7.0730     1.8490     0.0810 C.2   1 <1>   0.5690 
 20 N        5.8850     5.3860     2.1820 N.1   1 <1>  -0.5570 
 21 O        6.9940     2.8940    -0.5270 O.2   1 <1>  -0.5700 
 22 N        7.1580     0.6400    -0.5720 N.am  1 <1>  -0.6600 
 23 C        7.1810    -0.6920     0.0950 C.3   1 <1>   0.1400 
 24 C        7.1770     0.5940    -2.0590 C.3   1 <1>   0.1400 
 25 C        5.7820    -1.3030     0.1070 C.3   1 <1>  -0.2400 
 26 C        8.6230     0.5820    -2.5490 C.3   1 <1>  -0.2400 
 27 H        0.8030    -2.0110    -2.5200 H     1 <1>   0.1500 
 28 H        0.5900     2.3030    -2.6010 H     1 <1>   0.1500 
 29 H       -0.3910     0.1780    -3.5210 H     1 <1>   0.1500 
 30 H        2.2340     3.7650    -1.8410 H     1 <1>   0.1500 
 31 H        7.6690     1.2140     2.0720 H     1 <1>   0.0800 
 32 H        7.4030     2.9310     1.9040 H     1 <1>   0.0800 
 33 H        7.5430    -0.6110     1.1030 H     1 <1>   0.0800 
 34 H        7.8540    -1.3440    -0.4350 H     1 <1>   0.0800 
 35 H        6.6670     1.4540    -2.4610 H     1 <1>   0.0800 
 36 H        6.6610    -0.2820    -2.4100 H     1 <1>   0.0800 
 37 H        5.0990    -0.6740     0.6470 H     1 <1>   0.0800 
 38 H        5.8090    -2.2620     0.5930 H     1 <1>   0.0800 
 39 H        5.4130    -1.4420    -0.8920 H     1 <1>   0.0800 
 40 H        9.1300     1.4710    -2.2160 H     1 <1>   0.0800 
 41 H        8.6400     0.5640    -3.6230 H     1 <1>   0.0800 
 42 H        9.1420    -0.2850    -2.1840 H     1 <1>   0.0800 
@<TRIPOS>BOND
  1   1   2  1   
  2   1   3  1   
  3   2   4  1   
  4   2   5  2   
  5   3   6  2   
  6   3  27  1   
  7   4   7  ar  
  8   4   8  ar  
  9   5   6  1   
 10   5  28  1   
 11   6  29  1   
 12   7   9  ar  
 13   8  10  ar  
 14   8  30  1   
 15   9  11  1   
 16   9  12  ar  
 17  10  12  ar  
 18  10  13  1   
 19  11  14  1   
 20  12  15  1   
 21  13  16  1   
 22  13  17  1   
 23  13  18  1   
 24  14  19  1   
 25  14  31  1   
 26  14  32  1   
 27  15  20  3   
 28  19  21  2   
 29  19  22  am  
 30  22  23  1   
 31  22  24  1   
 32  23  25  1   
 33  23  33  1   
 34  23  34  1   
 35  24  26  1   
 36  24  35  1   
 37  24  36  1   
 38  25  37  1   
 39  25  38  1   
 40  25  39  1   
 41  26  40  1   
 42  26  41  1   
 43  26  42  1   
@<TRIPOS>SUBSTRUCTURE
  1 ****   9 GROUP 4 **** **** 0

# MOE 2024.06 (io_trps.svl 2023.06)
