@<TRIPOS>MOLECULE
NONAME
32 33 1 0 0 
SMALL
USER_CHARGES


@<TRIPOS>ATOM
  1 F        1.0840     0.0130    -1.6140 F     1 <1>  -0.1900 
  2 C        1.9430    -0.7280    -0.9630 C.ar  1 <1>   0.1900 
  3 C        1.5310    -1.9470    -0.4460 C.ar  1 <1>  -0.1440 
  4 C        3.2320    -0.2540    -0.8240 C.ar  1 <1>  -0.1500 
  5 C        2.4720    -2.7040     0.2350 C.ar  1 <1>  -0.1500 
  6 C        0.1030    -2.4430    -0.6150 C.3   1 <1>  -0.0960 
  7 C        4.1710    -1.0130    -0.1390 C.ar  1 <1>   0.1170 
  8 C        3.7710    -2.2430     0.3830 C.ar  1 <1>  -0.1500 
  9 N        5.4770    -0.5130    -0.0190 N.am  1 <1>  -0.5470 
 10 C        6.5050    -0.8390     0.8250 C.2   1 <1>   0.5690 
 11 O        6.4230    -1.6770     1.6890 O.2   1 <1>  -0.5700 
 12 C        7.8250    -0.0860     0.6680 C.3   1 <1>  -0.0190 
 13 C        7.7210     1.4270     0.8810 C.3   1 <1>  -0.1600 
 14 C        8.4980    -0.2500    -0.7060 C.3   1 <1>  -0.1600 
 15 C        8.9640     1.9830     0.1950 C.3   1 <1>  -0.1600 
 16 C        9.1680     1.0910    -1.0290 C.3   1 <1>  -0.1600 
 17 H        3.4900     0.6980    -1.2440 H     1 <1>   0.1500 
 18 H        2.2020    -3.6580     0.6550 H     1 <1>   0.1500 
 19 H       -0.1320    -2.5340    -1.6600 H     1 <1>   0.0800 
 20 H       -0.5820    -1.7440    -0.1670 H     1 <1>   0.0800 
 21 H       -0.0310    -3.4020    -0.1480 H     1 <1>   0.0800 
 22 H        4.4770    -2.8560     0.9110 H     1 <1>   0.1500 
 23 H        5.6980     0.2520    -0.6530 H     1 <1>   0.3700 
 24 H        8.5080    -0.4670     1.4080 H     1 <1>   0.0800 
 25 H        7.6910     1.6810     1.9270 H     1 <1>   0.0800 
 26 H        6.8440     1.8220     0.3990 H     1 <1>   0.0800 
 27 H        7.7790    -0.4870    -1.4720 H     1 <1>   0.0800 
 28 H        9.2240    -1.0450    -0.6680 H     1 <1>   0.0800 
 29 H        9.8090     1.8820     0.8550 H     1 <1>   0.0800 
 30 H        8.8510     3.0200    -0.0720 H     1 <1>   0.0800 
 31 H        8.6880     1.5360    -1.8840 H     1 <1>   0.0800 
 32 H       10.2160     0.9680    -1.2480 H     1 <1>   0.0800 
@<TRIPOS>BOND
  1   1   2  1   
  2   2   3  ar  
  3   2   4  ar  
  4   3   5  ar  
  5   3   6  1   
  6   4   7  ar  
  7   4  17  1   
  8   5   8  ar  
  9   5  18  1   
 10   6  19  1   
 11   6  20  1   
 12   6  21  1   
 13   7   8  ar  
 14   7   9  1   
 15   8  22  1   
 16   9  10  am  
 17   9  23  1   
 18  10  11  2   
 19  10  12  1   
 20  12  13  1   
 21  12  14  1   
 22  12  24  1   
 23  13  15  1   
 24  13  25  1   
 25  13  26  1   
 26  14  16  1   
 27  14  27  1   
 28  14  28  1   
 29  15  16  1   
 30  15  29  1   
 31  15  30  1   
 32  16  31  1   
 33  16  32  1   
@<TRIPOS>SUBSTRUCTURE
  1 ****   9 GROUP 4 **** **** 0

# MOE 2024.06 (io_trps.svl 2023.06)
