@<TRIPOS>MOLECULE
NONAME
65 68 1 0 0 
SMALL
USER_CHARGES


@<TRIPOS>ATOM
  1 O       -0.7470     0.4190     1.1520 O.3   1 <1>  -0.3630 
  2 C       -1.8780     0.9810     0.6610 C.ar  1 <1>   0.0830 
  3 C        0.4470     0.7280     0.4670 C.3   1 <1>   0.0400 
  4 C       -2.4230     0.6290    -0.5780 C.ar  1 <1>   0.0830 
  5 C       -2.4940     1.9480     1.4340 C.ar  1 <1>  -0.1500 
  6 O       -1.9080    -0.3450    -1.3730 O.3   1 <1>  -0.3630 
  7 C       -3.5470     1.2900    -1.0400 C.ar  1 <1>  -0.1500 
  8 C       -3.6360     2.5990     0.9730 C.ar  1 <1>   0.0830 
  9 C       -1.8730    -1.6500    -0.8380 C.3   1 <1>   0.0400 
 10 C       -4.1640     2.2670    -0.2730 C.ar  1 <1>  -0.1440 
 11 O       -4.2680     3.5670     1.6930 O.3   1 <1>  -0.3630 
 12 C       -5.4070     2.9690    -0.8100 C.3   1 <1>   0.2530 
 13 C       -3.7150     4.0730     2.8880 C.3   1 <1>   0.0400 
 14 N       -6.6560     2.4610    -0.1900 N.3   1 <1>  -0.8100 
 15 C       -7.9350     3.0800    -0.6690 C.3   1 <1>   0.1900 
 16 C       -6.7070     0.9740    -0.2660 C.3   1 <1>   0.1100 
 17 C       -8.0030     4.6370    -0.6580 C.3   1 <1>  -0.0800 
 18 C       -9.1250     2.5610     0.2040 C.3   1 <1>   0.4230 
 19 C       -8.0530     0.3580     0.1670 C.3   1 <1>   0.3430 
 20 C       -7.4000     5.3110    -1.9110 C.3   1 <1>  -0.1600 
 21 C       -7.4940     5.2850     0.6510 C.3   1 <1>  -0.1600 
 22 N       -8.8510     1.3210     0.9820 N.4   1 <1>  -0.9590 
 23 C      -10.4020     2.2300    -0.5640 C.3   1 <1>  -0.1600 
 24 C       -7.6290     6.8290    -1.8870 C.3   1 <1>  -0.1600 
 25 C       -7.7090     6.8040     0.6430 C.3   1 <1>  -0.1600 
 26 C      -10.1640     0.7840     1.4070 C.3   1 <1>   0.3430 
 27 C      -11.1530     1.2380     0.3320 C.3   1 <1>  -0.1600 
 28 C       -7.0780     7.4500    -0.5970 C.3   1 <1>  -0.1600 
 29 H        1.2660     0.2770     0.9970 H     1 <1>   0.0800 
 30 H        0.5660     1.7970     0.4420 H     1 <1>   0.0800 
 31 H        0.3970     0.3360    -0.5330 H     1 <1>   0.0800 
 32 H       -2.0580     2.1770     2.3860 H     1 <1>   0.1500 
 33 H       -3.9330     1.0240    -2.0070 H     1 <1>   0.1500 
 34 H       -1.6200    -2.3310    -1.6310 H     1 <1>   0.0800 
 35 H       -2.8420    -1.8910    -0.4390 H     1 <1>   0.0800 
 36 H       -1.1280    -1.7010    -0.0650 H     1 <1>   0.0800 
 37 H       -5.4580     2.8520    -1.8790 H     1 <1>   0.0800 
 38 H       -5.2860     4.0130    -0.5970 H     1 <1>   0.0800 
 39 H       -3.6740     3.2830     3.6170 H     1 <1>   0.0800 
 40 H       -4.3510     4.8640     3.2420 H     1 <1>   0.0800 
 41 H       -2.7320     4.4600     2.6820 H     1 <1>   0.0800 
 42 H       -8.0980     2.7590    -1.6830 H     1 <1>   0.0800 
 43 H       -5.9440     0.5690     0.3780 H     1 <1>   0.0800 
 44 H       -6.4860     0.6480    -1.2680 H     1 <1>   0.0800 
 45 H       -9.0490     4.8860    -0.7160 H     1 <1>   0.0800 
 46 H       -9.3710     3.3350     0.9120 H     1 <1>   0.0800 
 47 H       -7.8650    -0.5440     0.7270 H     1 <1>   0.0800 
 48 H       -8.6080     0.0870    -0.7150 H     1 <1>   0.0800 
 49 H       -7.8550     4.9060    -2.7980 H     1 <1>   0.0800 
 50 H       -6.3440     5.1440    -1.9850 H     1 <1>   0.0800 
 51 H       -6.4460     5.0930     0.7860 H     1 <1>   0.0800 
 52 H       -8.0020     4.8680     1.5010 H     1 <1>   0.0800 
 53 H       -8.2460     1.6040     1.7660 H     1 <1>   0.4500 
 54 H      -10.1610     1.7660    -1.5040 H     1 <1>   0.0800 
 55 H      -10.9800     3.1170    -0.7560 H     1 <1>   0.0800 
 56 H       -8.6820     7.0380    -1.9620 H     1 <1>   0.0800 
 57 H       -7.1440     7.2800    -2.7360 H     1 <1>   0.0800 
 58 H       -7.2730     7.2330     1.5290 H     1 <1>   0.0800 
 59 H       -8.7630     7.0210     0.6590 H     1 <1>   0.0800 
 60 H      -10.4430     1.2150     2.3550 H     1 <1>   0.0800 
 61 H      -10.1410    -0.2900     1.5010 H     1 <1>   0.0800 
 62 H      -11.5050     0.3950    -0.2370 H     1 <1>   0.0800 
 63 H      -12.0010     1.7060     0.8020 H     1 <1>   0.0800 
 64 H       -7.2800     8.5080    -0.5930 H     1 <1>   0.0800 
 65 H       -6.0100     7.3190    -0.5640 H     1 <1>   0.0800 
@<TRIPOS>BOND
  1   1   2  1   
  2   1   3  1   
  3   2   4  ar  
  4   2   5  ar  
  5   3  29  1   
  6   3  30  1   
  7   3  31  1   
  8   4   6  1   
  9   4   7  ar  
 10   5   8  ar  
 11   5  32  1   
 12   6   9  1   
 13   7  10  ar  
 14   7  33  1   
 15   8  10  ar  
 16   8  11  1   
 17   9  34  1   
 18   9  35  1   
 19   9  36  1   
 20  10  12  1   
 21  11  13  1   
 22  12  14  1   
 23  12  37  1   
 24  12  38  1   
 25  13  39  1   
 26  13  40  1   
 27  13  41  1   
 28  14  15  1   
 29  14  16  1   
 30  15  17  1   
 31  15  18  1   
 32  15  42  1   
 33  16  19  1   
 34  16  43  1   
 35  16  44  1   
 36  17  20  1   
 37  17  21  1   
 38  17  45  1   
 39  18  22  1   
 40  18  23  1   
 41  18  46  1   
 42  19  22  1   
 43  19  47  1   
 44  19  48  1   
 45  20  24  1   
 46  20  49  1   
 47  20  50  1   
 48  21  25  1   
 49  21  51  1   
 50  21  52  1   
 51  22  26  1   
 52  22  53  1   
 53  23  27  1   
 54  23  54  1   
 55  23  55  1   
 56  24  28  1   
 57  24  56  1   
 58  24  57  1   
 59  25  28  1   
 60  25  58  1   
 61  25  59  1   
 62  26  27  1   
 63  26  60  1   
 64  26  61  1   
 65  27  62  1   
 66  27  63  1   
 67  28  64  1   
 68  28  65  1   
@<TRIPOS>SUBSTRUCTURE
  1 ****  14 GROUP 4 **** **** 0

# MOE 2024.06 (io_trps.svl 2023.06)
