@<TRIPOS>MOLECULE
NONAME
48 48 1 0 0 
SMALL
USER_CHARGES


@<TRIPOS>ATOM
  1 N        0.4260    -0.2010    -0.2870 N.4   1 <1>  -0.9590 
  2 C        1.6400     0.6060     0.0680 C.3   1 <1>   0.3430 
  3 C       -0.5800     0.6270    -1.0300 C.3   1 <1>   0.2630 
  4 C       -0.2260    -0.8080     0.9210 C.3   1 <1>   0.2630 
  5 C        2.9810    -0.1330    -0.2110 C.3   1 <1>   0.0000 
  6 C        4.1270     0.8250     0.2140 C.3   1 <1>   0.3430 
  7 C        3.0650    -1.4510     0.5930 C.3   1 <1>  -0.2400 
  8 C        3.0970    -0.4600    -1.7180 C.3   1 <1>  -0.2400 
  9 N        5.4840     0.2460    -0.0230 N.4   1 <1>  -0.9060 
 10 C        6.6000     1.1260     0.3840 C.3   1 <1>   0.4230 
 11 C        6.7090     2.3200    -0.5740 C.3   1 <1>  -0.1600 
 12 C        7.8870     0.2960     0.3750 C.3   1 <1>  -0.1600 
 13 C        7.9270     3.1910    -0.2320 C.3   1 <1>  -0.1600 
 14 C        9.1060     1.1640     0.7220 C.3   1 <1>  -0.1600 
 15 C        9.2250     2.3680    -0.2250 C.3   1 <1>  -0.0800 
 16 C       10.4100     3.2490     0.1820 C.3   1 <1>  -0.2400 
 17 H        0.7170    -0.9690    -0.9120 H     1 <1>   0.4500 
 18 H        1.5890     0.8850     1.1090 H     1 <1>   0.0800 
 19 H        1.6330     1.5180    -0.5080 H     1 <1>   0.0800 
 20 H       -0.9250     1.4430    -0.4160 H     1 <1>   0.0800 
 21 H       -1.4300     0.0230    -1.3070 H     1 <1>   0.0800 
 22 H       -0.1440     1.0310    -1.9300 H     1 <1>   0.0800 
 23 H       -0.5730    -0.0370     1.5890 H     1 <1>   0.0800 
 24 H        0.4690    -1.4380     1.4520 H     1 <1>   0.0800 
 25 H       -1.0720    -1.4090     0.6260 H     1 <1>   0.0800 
 26 H        4.0230     1.0580     1.2620 H     1 <1>   0.0800 
 27 H        4.0350     1.7470    -0.3380 H     1 <1>   0.0800 
 28 H        2.9820    -1.2650     1.6510 H     1 <1>   0.0800 
 29 H        3.9940    -1.9640     0.4150 H     1 <1>   0.0800 
 30 H        2.2820    -2.1310     0.3090 H     1 <1>   0.0800 
 31 H        3.0640     0.4380    -2.3120 H     1 <1>   0.0800 
 32 H        2.2970    -1.1010    -2.0450 H     1 <1>   0.0800 
 33 H        4.0140    -0.9760    -1.9410 H     1 <1>   0.0800 
 34 H        5.6130     0.0220    -1.0170 H     1 <1>   0.4500 
 35 H        5.5830    -0.6380     0.4890 H     1 <1>   0.4500 
 36 H        6.4360     1.4910     1.3870 H     1 <1>   0.0800 
 37 H        5.8320     2.9380    -0.5120 H     1 <1>   0.0800 
 38 H        6.8150     1.9720    -1.5870 H     1 <1>   0.0800 
 39 H        8.0450    -0.1340    -0.5990 H     1 <1>   0.0800 
 40 H        7.8200    -0.4990     1.0960 H     1 <1>   0.0800 
 41 H        7.7860     3.6460     0.7340 H     1 <1>   0.0800 
 42 H        8.0130     3.9860    -0.9550 H     1 <1>   0.0800 
 43 H       10.0000     0.5670     0.6570 H     1 <1>   0.0800 
 44 H        9.0230     1.5120     1.7390 H     1 <1>   0.0800 
 45 H        9.4100     2.0050    -1.2230 H     1 <1>   0.0800 
 46 H       10.2780     3.6390     1.1760 H     1 <1>   0.0800 
 47 H       10.5130     4.0760    -0.4990 H     1 <1>   0.0800 
 48 H       11.3240     2.6810     0.1580 H     1 <1>   0.0800 
@<TRIPOS>BOND
  1   1   2  1   
  2   1   3  1   
  3   1   4  1   
  4   1  17  1   
  5   2   5  1   
  6   2  18  1   
  7   2  19  1   
  8   3  20  1   
  9   3  21  1   
 10   3  22  1   
 11   4  23  1   
 12   4  24  1   
 13   4  25  1   
 14   5   6  1   
 15   5   7  1   
 16   5   8  1   
 17   6   9  1   
 18   6  26  1   
 19   6  27  1   
 20   7  28  1   
 21   7  29  1   
 22   7  30  1   
 23   8  31  1   
 24   8  32  1   
 25   8  33  1   
 26   9  10  1   
 27   9  34  1   
 28   9  35  1   
 29  10  11  1   
 30  10  12  1   
 31  10  36  1   
 32  11  13  1   
 33  11  37  1   
 34  11  38  1   
 35  12  14  1   
 36  12  39  1   
 37  12  40  1   
 38  13  15  1   
 39  13  41  1   
 40  13  42  1   
 41  14  15  1   
 42  14  43  1   
 43  14  44  1   
 44  15  16  1   
 45  15  45  1   
 46  16  46  1   
 47  16  47  1   
 48  16  48  1   
@<TRIPOS>SUBSTRUCTURE
  1 ****   6 GROUP 4 **** **** 0

# MOE 2024.06 (io_trps.svl 2023.06)
