@<TRIPOS>MOLECULE
NONAME
47 50 1 0 0 
SMALL
USER_CHARGES


@<TRIPOS>ATOM
  1 S        0.1700    -0.5330     0.8120 S.o2  1 <1>   1.4470 
  2 O        0.7440    -0.9070     2.0870 O.2   1 <1>  -0.6500 
  3 O       -0.4960     0.7430     0.6760 O.2   1 <1>  -0.6500 
  4 N        1.4420    -0.5400    -0.3090 N.am  1 <1>  -0.8490 
  5 C       -0.9140    -1.8520     0.1960 C.ar  1 <1>  -0.0090 
  6 C        2.2730     0.6720    -0.1760 C.3   1 <1>   0.1960 
  7 C        2.2860    -1.7440    -0.1920 C.3   1 <1>   0.1960 
  8 C       -1.5040    -1.7590    -1.0590 C.ar  1 <1>  -0.1500 
  9 C       -1.1670    -2.9920     0.9520 C.ar  1 <1>  -0.1500 
 10 C        3.3910     0.7190    -1.2330 C.3   1 <1>   0.1400 
 11 C        3.3830    -1.7670    -1.2690 C.3   1 <1>   0.1400 
 12 C       -2.3150    -2.7680    -1.5480 C.ar  1 <1>  -0.1500 
 13 C       -1.9760    -4.0060     0.4700 C.ar  1 <1>  -0.1500 
 14 N        4.2180    -0.5280    -1.1900 N.am  1 <1>  -0.6600 
 15 C       -2.5510    -3.8950    -0.7830 C.ar  1 <1>  -0.1500 
 16 C        5.5730    -0.4870    -0.9480 C.2   1 <1>   0.5690 
 17 O        6.1490     0.5750    -0.8540 O.2   1 <1>  -0.5700 
 18 C        6.4000    -1.7740    -0.8170 C.3   1 <1>   0.2610 
 19 O        5.9680    -2.5340     0.3120 O.3   1 <1>  -0.3630 
 20 C        7.9100    -1.5050    -0.7040 C.3   1 <1>   0.1200 
 21 C        6.7730    -3.5490     0.7160 C.ar  1 <1>   0.0820 
 22 O        8.6180    -2.7260    -0.5770 O.3   1 <1>  -0.3630 
 23 C        8.0890    -3.6540     0.2600 C.ar  1 <1>   0.0820 
 24 C        6.2680    -4.4940     1.5920 C.ar  1 <1>  -0.1500 
 25 C        8.8790    -4.7160     0.6670 C.ar  1 <1>  -0.1500 
 26 C        7.0640    -5.5520     2.0010 C.ar  1 <1>  -0.1500 
 27 C        8.3660    -5.6650     1.5370 C.ar  1 <1>  -0.1500 
 28 H        2.7120     0.7120     0.8070 H     1 <1>   0.0800 
 29 H        1.6570     1.5480    -0.2970 H     1 <1>   0.0800 
 30 H        1.6760    -2.6250    -0.3040 H     1 <1>   0.0800 
 31 H        2.7500    -1.7820     0.7800 H     1 <1>   0.0800 
 32 H       -1.3230    -0.8830    -1.6590 H     1 <1>   0.1500 
 33 H       -0.7270    -3.0880     1.9310 H     1 <1>   0.1500 
 34 H        4.0000     1.5890    -1.0580 H     1 <1>   0.0800 
 35 H        2.9510     0.8180    -2.2090 H     1 <1>   0.0800 
 36 H        2.9190    -1.8170    -2.2390 H     1 <1>   0.0800 
 37 H        3.9770    -2.6530    -1.1470 H     1 <1>   0.0800 
 38 H       -2.7630    -2.6760    -2.5230 H     1 <1>   0.1500 
 39 H       -2.1610    -4.8810     1.0710 H     1 <1>   0.1500 
 40 H       -3.1820    -4.6820    -1.1600 H     1 <1>   0.1500 
 41 H        6.2280    -2.3720    -1.6920 H     1 <1>   0.0800 
 42 H        8.1200    -0.9010     0.1610 H     1 <1>   0.0800 
 43 H        8.2740    -1.0000    -1.5800 H     1 <1>   0.0800 
 44 H        5.2580    -4.4010     1.9490 H     1 <1>   0.1500 
 45 H        9.8880    -4.7930     0.3050 H     1 <1>   0.1500 
 46 H        6.6710    -6.2890     2.6810 H     1 <1>   0.1500 
 47 H        8.9810    -6.4890     1.8540 H     1 <1>   0.1500 
@<TRIPOS>BOND
  1   1   2  2   
  2   1   3  2   
  3   1   4  am  
  4   1   5  1   
  5   4   6  1   
  6   4   7  1   
  7   5   8  ar  
  8   5   9  ar  
  9   6  10  1   
 10   6  28  1   
 11   6  29  1   
 12   7  11  1   
 13   7  30  1   
 14   7  31  1   
 15   8  12  ar  
 16   8  32  1   
 17   9  13  ar  
 18   9  33  1   
 19  10  14  1   
 20  10  34  1   
 21  10  35  1   
 22  11  14  1   
 23  11  36  1   
 24  11  37  1   
 25  12  15  ar  
 26  12  38  1   
 27  13  15  ar  
 28  13  39  1   
 29  14  16  am  
 30  15  40  1   
 31  16  17  2   
 32  16  18  1   
 33  18  19  1   
 34  18  20  1   
 35  18  41  1   
 36  19  21  1   
 37  20  22  1   
 38  20  42  1   
 39  20  43  1   
 40  21  23  ar  
 41  21  24  ar  
 42  22  23  1   
 43  23  25  ar  
 44  24  26  ar  
 45  24  44  1   
 46  25  27  ar  
 47  25  45  1   
 48  26  27  ar  
 49  26  46  1   
 50  27  47  1   
@<TRIPOS>SUBSTRUCTURE
  1 ****   7 GROUP 4 **** **** 0

# MOE 2024.06 (io_trps.svl 2023.06)
