@<TRIPOS>MOLECULE
NONAME
33 34 1 0 0 
SMALL
USER_CHARGES


@<TRIPOS>ATOM
  1 BR      -0.9300     1.3560    -2.7100 Br    1 <1>  -0.1110 
  2 C       -2.5870     1.5520    -1.7490 C.ar  1 <1>   0.1110 
  3 C       -2.8450     2.7440    -1.1000 C.ar  1 <1>  -0.1500 
  4 C       -3.4780     0.4970    -1.7310 C.ar  1 <1>  -0.1500 
  5 C       -4.0380     2.8770    -0.4110 C.ar  1 <1>  -0.1500 
  6 C       -4.6650     0.6470    -1.0360 C.ar  1 <1>  -0.1500 
  7 C       -4.9630     1.8330    -0.3640 C.ar  1 <1>   0.1170 
  8 N       -6.1660     1.9730     0.3550 N.am  1 <1>  -0.4770 
  9 C       -7.3990     1.4080     0.1220 C.2   1 <1>   0.6900 
 10 C       -6.2510     2.7260     1.6370 C.3   1 <1>   0.2010 
 11 O       -7.7050     0.7470    -0.8480 O.2   1 <1>  -0.5700 
 12 N       -8.2780     1.6830     1.1270 N.am  1 <1>  -0.4200 
 13 C       -7.6860     2.4770     2.0500 C.2   1 <1>   0.5690 
 14 C       -9.7410     1.4260     1.0450 C.3   1 <1>   0.2010 
 15 O       -8.2080     2.9300     3.0370 O.2   1 <1>  -0.5700 
 16 C      -10.4610     2.3690     0.0880 C.2   1 <1>   0.6590 
 17 O      -11.5300     2.0780    -0.3860 O.2   1 <1>  -0.5700 
 18 O       -9.8620     3.5240    -0.1870 O.3   1 <1>  -0.4300 
 19 C      -10.4270     4.4560    -1.0780 C.3   1 <1>   0.1200 
 20 C       -9.4600     5.6290    -1.2030 C.3   1 <1>  -0.2400 
 21 H       -2.1280     3.5450    -1.1390 H     1 <1>   0.1500 
 22 H       -3.2490    -0.4160    -2.2500 H     1 <1>   0.1500 
 23 H       -4.2460     3.8070     0.0850 H     1 <1>   0.1500 
 24 H       -5.3660    -0.1690    -1.0160 H     1 <1>   0.1500 
 25 H       -6.0860     3.7760     1.4810 H     1 <1>   0.0800 
 26 H       -5.5670     2.3260     2.3630 H     1 <1>   0.0800 
 27 H      -10.1770     1.5360     2.0210 H     1 <1>   0.0800 
 28 H       -9.9020     0.4160     0.7150 H     1 <1>   0.0800 
 29 H      -11.3770     4.7740    -0.6830 H     1 <1>   0.0800 
 30 H      -10.5730     3.9720    -2.0290 H     1 <1>   0.0800 
 31 H       -9.3140     6.0930    -0.2440 H     1 <1>   0.0800 
 32 H       -9.8640     6.3600    -1.8800 H     1 <1>   0.0800 
 33 H       -8.5150     5.2900    -1.5890 H     1 <1>   0.0800 
@<TRIPOS>BOND
  1   1   2  1   
  2   2   3  ar  
  3   2   4  ar  
  4   3   5  ar  
  5   3  21  1   
  6   4   6  ar  
  7   4  22  1   
  8   5   7  ar  
  9   5  23  1   
 10   6   7  ar  
 11   6  24  1   
 12   7   8  1   
 13   8   9  am  
 14   8  10  1   
 15   9  11  2   
 16   9  12  am  
 17  10  13  1   
 18  10  25  1   
 19  10  26  1   
 20  12  13  am  
 21  12  14  1   
 22  13  15  2   
 23  14  16  1   
 24  14  27  1   
 25  14  28  1   
 26  16  17  2   
 27  16  18  1   
 28  18  19  1   
 29  19  20  1   
 30  19  29  1   
 31  19  30  1   
 32  20  31  1   
 33  20  32  1   
 34  20  33  1   
@<TRIPOS>SUBSTRUCTURE
  1 ****   8 GROUP 4 **** **** 0

# MOE 2024.06 (io_trps.svl 2023.06)
