@<TRIPOS>MOLECULE
NONAME
34 35 1 0 0 
SMALL
USER_CHARGES


@<TRIPOS>ATOM
  1 BR       0.8560     0.8620    -2.2370 Br    1 <1>  -0.1110 
  2 C        2.5390     1.2720    -1.3970 C.ar  1 <1>   0.1110 
  3 C        2.5860     1.3830    -0.0200 C.ar  1 <1>  -0.1500 
  4 C        3.6550     1.4450    -2.1930 C.ar  1 <1>  -0.1500 
  5 C        3.7970     1.6780     0.5830 C.ar  1 <1>  -0.1500 
  6 C        4.8620     1.7390    -1.5810 C.ar  1 <1>  -0.1500 
  7 C        4.9400     1.8570    -0.1990 C.ar  1 <1>   0.0830 
  8 O        6.1630     2.1480     0.3130 O.3   1 <1>  -0.3630 
  9 C        6.3590     2.2910     1.7150 C.3   1 <1>   0.1810 
 10 C        7.8110     2.6150     2.0400 C.2   1 <1>   0.5690 
 11 O        8.1060     2.7650     3.2010 O.2   1 <1>  -0.5700 
 12 N        8.6950     2.7190     1.0130 N.am  1 <1>  -0.4930 
 13 C       10.0510     2.9980     1.0000 C.2   1 <1>   0.5790 
 14 N       10.8100     3.2240     2.0700 N.2   1 <1>  -0.2270 
 15 N       10.6720     3.0520    -0.1150 N.2   1 <1>  -0.7070 
 16 N       11.9850     3.4370     1.6230 N.2   1 <1>  -0.4180 
 17 N       11.8920     3.3300     0.3090 N.pl3 1 <1>   0.5800 
 18 C       13.0400     3.5090    -0.6020 C.3   1 <1>   0.0960 
 19 C       13.7000     2.1640    -0.9430 C.3   1 <1>  -0.1600 
 20 C       14.8940     2.3510    -1.8860 C.3   1 <1>  -0.2400 
 21 H        1.6930     1.2410     0.5620 H     1 <1>   0.1500 
 22 H        3.5810     1.3510    -3.2620 H     1 <1>   0.1500 
 23 H        3.8260     1.7630     1.6530 H     1 <1>   0.1500 
 24 H        5.7470     1.8790    -2.1740 H     1 <1>   0.1500 
 25 H        6.0880     1.3690     2.1940 H     1 <1>   0.0800 
 26 H        5.7320     3.0890     2.0680 H     1 <1>   0.0800 
 27 H        8.3200     2.5730     0.0800 H     1 <1>   0.3700 
 28 H       13.7490     4.1590    -0.1240 H     1 <1>   0.0800 
 29 H       12.6840     3.9850    -1.4970 H     1 <1>   0.0800 
 30 H       12.9760     1.5190    -1.4130 H     1 <1>   0.0800 
 31 H       14.0380     1.6910    -0.0360 H     1 <1>   0.0800 
 32 H       14.5800     2.8030    -2.8110 H     1 <1>   0.0800 
 33 H       15.3380     1.3960    -2.1090 H     1 <1>   0.0800 
 34 H       15.6430     2.9750    -1.4310 H     1 <1>   0.0800 
@<TRIPOS>BOND
  1   1   2  1   
  2   2   3  ar  
  3   2   4  ar  
  4   3   5  ar  
  5   3  21  1   
  6   4   6  ar  
  7   4  22  1   
  8   5   7  ar  
  9   5  23  1   
 10   6   7  ar  
 11   6  24  1   
 12   7   8  1   
 13   8   9  1   
 14   9  10  1   
 15   9  25  1   
 16   9  26  1   
 17  10  11  2   
 18  10  12  am  
 19  12  13  1   
 20  12  27  1   
 21  13  14  1   
 22  13  15  2   
 23  14  16  2   
 24  15  17  1   
 25  16  17  1   
 26  17  18  1   
 27  18  19  1   
 28  18  28  1   
 29  18  29  1   
 30  19  20  1   
 31  19  30  1   
 32  19  31  1   
 33  20  32  1   
 34  20  33  1   
 35  20  34  1   
@<TRIPOS>SUBSTRUCTURE
  1 ****  12 GROUP 4 **** **** 0

# MOE 2024.06 (io_trps.svl 2023.06)
