@<TRIPOS>MOLECULE
NONAME
37 38 1 0 0 
SMALL
USER_CHARGES


@<TRIPOS>ATOM
  1 F       -4.7020    -0.9450     0.3100 F     1 <1>  -0.1900 
  2 C       -5.1920    -2.1530     0.2150 C.ar  1 <1>   0.1900 
  3 C       -4.3320    -3.2330    -0.0060 C.ar  1 <1>   0.0530 
  4 C       -6.5610    -2.2850     0.3530 C.ar  1 <1>  -0.1500 
  5 C       -2.8990    -3.0940    -0.1570 C.2   1 <1>   0.0870 
  6 C       -4.9400    -4.4880    -0.0770 C.ar  1 <1>  -0.1500 
  7 C       -7.1250    -3.5460     0.2730 C.ar  1 <1>  -0.1500 
  8 O       -2.1050    -4.1290     0.0920 O.3   1 <1>  -0.2800 
  9 C       -2.1200    -2.0440    -0.5330 C.2   1 <1>  -0.1500 
 10 C       -6.3090    -4.6450     0.0590 C.ar  1 <1>  -0.1500 
 11 C       -0.8530    -3.7740    -0.1030 C.2   1 <1>  -0.0400 
 12 C       -0.7960    -2.4820    -0.4970 C.2   1 <1>  -0.1500 
 13 C        0.2100    -4.8270     0.1430 C.3   1 <1>   0.5230 
 14 N        1.5530    -4.2440    -0.0870 N.4   1 <1>  -0.9060 
 15 C        2.6580    -5.2020     0.1570 C.3   1 <1>   0.3430 
 16 C        4.0140    -4.5160    -0.0690 C.3   1 <1>  -0.0800 
 17 C        5.1450    -5.5240     0.1700 C.3   1 <1>  -0.2400 
 18 C        4.2210    -3.2950     0.8450 C.3   1 <1>  -0.2400 
 19 H       -7.1720    -1.4170     0.5210 H     1 <1>   0.1500 
 20 H       -4.3310    -5.3590    -0.2450 H     1 <1>   0.1500 
 21 H       -8.1890    -3.6720     0.3780 H     1 <1>   0.1500 
 22 H       -2.4390    -1.0540    -0.8120 H     1 <1>   0.1500 
 23 H       -6.7450    -5.6280    -0.0020 H     1 <1>   0.1500 
 24 H        0.0450    -1.8570    -0.7440 H     1 <1>   0.1500 
 25 H        0.0430    -5.6580    -0.5220 H     1 <1>   0.0800 
 26 H        0.1250    -5.1790     1.1590 H     1 <1>   0.0800 
 27 H        1.6610    -3.4340     0.5340 H     1 <1>   0.4500 
 28 H        1.5930    -3.8920    -1.0490 H     1 <1>   0.4500 
 29 H        2.5710    -6.0450    -0.5090 H     1 <1>   0.0800 
 30 H        2.6130    -5.5660     1.1720 H     1 <1>   0.0800 
 31 H        4.0770    -4.1970    -1.0970 H     1 <1>   0.0800 
 32 H        5.1480    -5.8700     1.1900 H     1 <1>   0.0800 
 33 H        6.1010    -5.0690    -0.0310 H     1 <1>   0.0800 
 34 H        5.0440    -6.3750    -0.4820 H     1 <1>   0.0800 
 35 H        4.1260    -3.5690     1.8820 H     1 <1>   0.0800 
 36 H        3.5230    -2.5080     0.6250 H     1 <1>   0.0800 
 37 H        5.2100    -2.8920     0.7000 H     1 <1>   0.0800 
@<TRIPOS>BOND
  1   1   2  1   
  2   2   3  ar  
  3   2   4  ar  
  4   3   5  1   
  5   3   6  ar  
  6   4   7  ar  
  7   4  19  1   
  8   5   8  1   
  9   5   9  2   
 10   6  10  ar  
 11   6  20  1   
 12   7  10  ar  
 13   7  21  1   
 14   8  11  1   
 15   9  12  1   
 16   9  22  1   
 17  10  23  1   
 18  11  12  2   
 19  11  13  1   
 20  12  24  1   
 21  13  14  1   
 22  13  25  1   
 23  13  26  1   
 24  14  15  1   
 25  14  27  1   
 26  14  28  1   
 27  15  16  1   
 28  15  29  1   
 29  15  30  1   
 30  16  17  1   
 31  16  18  1   
 32  16  31  1   
 33  17  32  1   
 34  17  33  1   
 35  17  34  1   
 36  18  35  1   
 37  18  36  1   
 38  18  37  1   
@<TRIPOS>SUBSTRUCTURE
  1 ****   8 GROUP 4 **** **** 0

# MOE 2024.06 (io_trps.svl 2023.06)
