@<TRIPOS>MOLECULE
NONAME
42 42 1 0 0 
SMALL
USER_CHARGES


@<TRIPOS>ATOM
  1 I       -0.0770     1.0460    -2.3250 I     1 <1>  -0.0810 
  2 C        0.8730     2.4140    -0.9840 C.ar  1 <1>   0.0810 
  3 C        0.1930     3.5370    -0.5330 C.ar  1 <1>   0.0830 
  4 C        2.1680     2.1170    -0.5960 C.ar  1 <1>  -0.1500 
  5 O       -1.0900     3.7520    -0.9250 O.3   1 <1>  -0.3630 
  6 C        0.8730     4.4070     0.3250 C.ar  1 <1>   0.0830 
  7 C        2.8210     2.9760     0.2770 C.ar  1 <1>  -0.1440 
  8 C       -2.0840     3.7730     0.0950 C.3   1 <1>   0.1810 
  9 O        0.3240     5.5490     0.7990 O.3   1 <1>  -0.3630 
 10 C        2.1660     4.1130     0.7340 C.ar  1 <1>  -0.1500 
 11 C        4.2360     2.6830     0.7240 C.3   1 <1>   0.4870 
 12 C       -3.4770     3.5750    -0.4920 C.2   1 <1>   0.5690 
 13 C        0.0490     6.5710    -0.1340 C.3   1 <1>   0.1200 
 14 N        5.1330     3.3510    -0.2420 N.4   1 <1>  -0.9060 
 15 O       -4.4440     3.8590     0.1660 O.2   1 <1>  -0.5700 
 16 N       -3.6300     3.0760    -1.7360 N.am  1 <1>  -0.8000 
 17 C       -0.5470     7.7530     0.6240 C.3   1 <1>  -0.2400 
 18 C        6.5640     3.2200     0.0520 C.3   1 <1>   0.4230 
 19 C        7.3040     4.2000    -0.8470 C.3   1 <1>  -0.2400 
 20 C        7.0100     1.7880    -0.2270 C.3   1 <1>  -0.2400 
 21 H        2.6390     1.2240    -0.9710 H     1 <1>   0.1500 
 22 H       -2.0440     4.7180     0.6020 H     1 <1>   0.0800 
 23 H       -1.8800     2.9820     0.7930 H     1 <1>   0.0800 
 24 H        2.6400     4.7970     1.4170 H     1 <1>   0.1500 
 25 H        4.4080     1.6190     0.7300 H     1 <1>   0.0800 
 26 H        4.3960     3.0690     1.7180 H     1 <1>   0.0800 
 27 H       -0.6470     6.2050    -0.8680 H     1 <1>   0.0800 
 28 H        0.9700     6.8500    -0.6170 H     1 <1>   0.0800 
 29 H        4.8810     4.3450    -0.2720 H     1 <1>   0.4500 
 30 H        4.9420     2.9830    -1.1800 H     1 <1>   0.4500 
 31 H       -4.5620     2.9490    -2.1300 H     1 <1>   0.3700 
 32 H       -2.8310     2.8540    -2.3330 H     1 <1>   0.3700 
 33 H       -1.4620     7.4600     1.1070 H     1 <1>   0.0800 
 34 H       -0.7640     8.5520    -0.0610 H     1 <1>   0.0800 
 35 H        0.1490     8.1120     1.3610 H     1 <1>   0.0800 
 36 H        6.7570     3.4700     1.0850 H     1 <1>   0.0800 
 37 H        7.1380     3.9810    -1.8880 H     1 <1>   0.0800 
 38 H        8.3620     4.1340    -0.6590 H     1 <1>   0.0800 
 39 H        7.0030     5.2120    -0.6400 H     1 <1>   0.0800 
 40 H        6.8070     1.5050    -1.2450 H     1 <1>   0.0800 
 41 H        6.5360     1.0920     0.4410 H     1 <1>   0.0800 
 42 H        8.0710     1.7070    -0.0690 H     1 <1>   0.0800 
@<TRIPOS>BOND
  1   1   2  1   
  2   2   3  ar  
  3   2   4  ar  
  4   3   5  1   
  5   3   6  ar  
  6   4   7  ar  
  7   4  21  1   
  8   5   8  1   
  9   6   9  1   
 10   6  10  ar  
 11   7  10  ar  
 12   7  11  1   
 13   8  12  1   
 14   8  22  1   
 15   8  23  1   
 16   9  13  1   
 17  10  24  1   
 18  11  14  1   
 19  11  25  1   
 20  11  26  1   
 21  12  15  2   
 22  12  16  am  
 23  13  17  1   
 24  13  27  1   
 25  13  28  1   
 26  14  18  1   
 27  14  29  1   
 28  14  30  1   
 29  16  31  1   
 30  16  32  1   
 31  17  33  1   
 32  17  34  1   
 33  17  35  1   
 34  18  19  1   
 35  18  20  1   
 36  18  36  1   
 37  19  37  1   
 38  19  38  1   
 39  19  39  1   
 40  20  40  1   
 41  20  41  1   
 42  20  42  1   
@<TRIPOS>SUBSTRUCTURE
  1 ****   6 GROUP 4 **** **** 0

# MOE 2024.06 (io_trps.svl 2023.06)
