@<TRIPOS>MOLECULE
NONAME
43 46 1 0 0 
SMALL
USER_CHARGES


@<TRIPOS>ATOM
  1 BR      -2.4290     0.6990     3.2050 Br    1 <1>  -0.0570 
  2 C       -2.2620    -1.0820     2.4830 C.2   1 <1>   0.0570 
  3 C       -1.1350    -1.8100     2.5160 C.2   1 <1>  -0.1100 
  4 C       -3.3940    -1.6940     1.8670 C.2   1 <1>  -0.1500 
  5 S       -1.4410    -3.3610     1.7460 S.3   1 <1>  -0.0800 
  6 C       -3.1200    -2.9320     1.4070 C.2   1 <1>  -0.1400 
  7 C       -3.9560    -3.9770     0.6900 C.3   1 <1>   0.2900 
  8 N       -5.0970    -3.3470    -0.0060 N.3   1 <1>  -0.8100 
  9 C       -4.6540    -2.5440    -1.1740 C.3   1 <1>   0.1100 
 10 C       -6.1010    -4.3540    -0.4240 C.3   1 <1>   0.1100 
 11 C       -5.8360    -1.8230    -1.8670 C.3   1 <1>   0.3430 
 12 C       -7.2790    -3.7260    -1.2120 C.3   1 <1>   0.3430 
 13 N       -7.1490    -2.2310    -1.2690 N.4   1 <1>  -0.9590 
 14 C       -8.3250    -1.5350    -1.8480 C.3   1 <1>   0.4860 
 15 C       -9.5580    -1.9140    -1.0490 C.ar  1 <1>  -0.1440 
 16 C       -9.7080    -1.4500     0.2560 C.ar  1 <1>  -0.1500 
 17 C      -10.5350    -2.7340    -1.6170 C.ar  1 <1>  -0.1500 
 18 C      -10.8320    -1.8370     0.9570 C.ar  1 <1>   0.0820 
 19 C      -11.6600    -3.1080    -0.8930 C.ar  1 <1>  -0.1500 
 20 O      -11.1720    -1.5210     2.2090 O.3   1 <1>  -0.3620 
 21 C      -11.7800    -2.6430     0.4010 C.ar  1 <1>   0.0820 
 22 C      -12.4270    -2.1530     2.4650 C.3   1 <1>   0.4000 
 23 O      -12.7620    -2.8710     1.2780 O.3   1 <1>  -0.3620 
 24 H       -0.1530    -1.6150     2.9060 H     1 <1>   0.1500 
 25 H       -4.3380    -1.1850     1.8070 H     1 <1>   0.1500 
 26 H       -4.3130    -4.6800     1.4240 H     1 <1>   0.0800 
 27 H       -3.3430    -4.5100    -0.0180 H     1 <1>   0.0800 
 28 H       -4.1610    -3.1810    -1.8890 H     1 <1>   0.0800 
 29 H       -3.9380    -1.8020    -0.8620 H     1 <1>   0.0800 
 30 H       -6.4960    -4.8440     0.4500 H     1 <1>   0.0800 
 31 H       -5.6360    -5.1100    -1.0340 H     1 <1>   0.0800 
 32 H       -5.8190    -2.0510    -2.9200 H     1 <1>   0.0800 
 33 H       -5.7020    -0.7590    -1.7600 H     1 <1>   0.0800 
 34 H       -8.2030    -4.0000    -0.7270 H     1 <1>   0.0800 
 35 H       -7.2990    -4.1330    -2.2090 H     1 <1>   0.0800 
 36 H       -7.0700    -1.9700    -0.2740 H     1 <1>   0.4500 
 37 H       -8.4550    -1.8190    -2.8790 H     1 <1>   0.0800 
 38 H       -8.1850    -0.4670    -1.8010 H     1 <1>   0.0800 
 39 H       -8.9910    -0.8080     0.7350 H     1 <1>   0.1500 
 40 H      -10.4370    -3.0900    -2.6290 H     1 <1>   0.1500 
 41 H      -12.4260    -3.7380    -1.3120 H     1 <1>   0.1500 
 42 H      -13.1760    -1.4050     2.6570 H     1 <1>   0.0800 
 43 H      -12.3270    -2.8390     3.2870 H     1 <1>   0.0800 
@<TRIPOS>BOND
  1   1   2  1   
  2   2   3  2   
  3   2   4  1   
  4   3   5  1   
  5   3  24  1   
  6   4   6  2   
  7   4  25  1   
  8   5   6  1   
  9   6   7  1   
 10   7   8  1   
 11   7  26  1   
 12   7  27  1   
 13   8   9  1   
 14   8  10  1   
 15   9  11  1   
 16   9  28  1   
 17   9  29  1   
 18  10  12  1   
 19  10  30  1   
 20  10  31  1   
 21  11  13  1   
 22  11  32  1   
 23  11  33  1   
 24  12  13  1   
 25  12  34  1   
 26  12  35  1   
 27  13  14  1   
 28  13  36  1   
 29  14  15  1   
 30  14  37  1   
 31  14  38  1   
 32  15  16  ar  
 33  15  17  ar  
 34  16  18  ar  
 35  16  39  1   
 36  17  19  ar  
 37  17  40  1   
 38  18  20  1   
 39  18  21  ar  
 40  19  21  ar  
 41  19  41  1   
 42  20  22  1   
 43  21  23  1   
 44  22  23  1   
 45  22  42  1   
 46  22  43  1   
@<TRIPOS>SUBSTRUCTURE
  1 ****  13 GROUP 4 **** **** 0

# MOE 2024.06 (io_trps.svl 2023.06)
