@<TRIPOS>MOLECULE
NONAME
47 49 1 0 0 
SMALL
USER_CHARGES


@<TRIPOS>ATOM
  1 O        1.0580     1.6000    -0.8100 O.2   1 <1>  -0.5700 
  2 C        0.4750     2.2150     0.0620 C.2   1 <1>   0.5440 
  3 N        1.2490     2.7980     1.0370 N.am  1 <1>  -0.6600 
  4 C       -0.9680     2.3780     0.0260 C.ar  1 <1>   0.0860 
  5 C        2.5360     2.1400     1.4110 C.3   1 <1>   0.1400 
  6 C        1.3120     4.2860     1.1040 C.3   1 <1>   0.1400 
  7 C       -1.7030     2.2040    -1.1380 C.ar  1 <1>  -0.1500 
  8 C       -1.7220     2.7160     1.1430 C.ar  1 <1>  -0.1500 
  9 C        3.6680     2.6380     0.4930 C.3   1 <1>   0.3430 
 10 C        2.4540     4.8060     0.2050 C.3   1 <1>   0.3430 
 11 C       -3.0730     2.3860    -1.1370 C.ar  1 <1>   0.1600 
 12 C       -3.0910     2.8750     1.0420 C.ar  1 <1>   0.1600 
 13 N        3.7770     4.1410     0.5050 N.4   1 <1>  -0.9590 
 14 N       -3.7810     2.7260    -0.0740 N.ar  1 <1>  -0.6200 
 15 C        4.8360     4.6100    -0.4310 C.3   1 <1>   0.4860 
 16 C        5.0080     6.1030    -0.2430 C.ar  1 <1>  -0.1430 
 17 C        4.5160     6.9870    -1.1920 C.ar  1 <1>  -0.1500 
 18 C        5.6470     6.6000     0.8840 C.ar  1 <1>  -0.1500 
 19 C        4.6480     8.3510    -1.0080 C.ar  1 <1>  -0.1500 
 20 C        5.7760     7.9660     1.0640 C.ar  1 <1>  -0.1500 
 21 C        5.2740     8.8490     0.1230 C.ar  1 <1>  -0.1430 
 22 C        5.4190    10.3490     0.3230 C.3   1 <1>  -0.0170 
 23 C        6.7270    10.8480    -0.2950 C.3   1 <1>  -0.2400 
 24 H        2.4380     1.0720     1.3060 H     1 <1>   0.0800 
 25 H        2.7670     2.3490     2.4410 H     1 <1>   0.0800 
 26 H        1.4700     4.5970     2.1220 H     1 <1>   0.0800 
 27 H        0.3790     4.7100     0.7710 H     1 <1>   0.0800 
 28 H       -1.2050     1.9230    -2.0490 H     1 <1>   0.1500 
 29 H       -1.2460     2.8500     2.0970 H     1 <1>   0.1500 
 30 H        3.4570     2.2960    -0.5080 H     1 <1>   0.0800 
 31 H        4.5990     2.1960     0.8070 H     1 <1>   0.0800 
 32 H        2.5430     5.8730     0.3320 H     1 <1>   0.0800 
 33 H        2.1840     4.6180    -0.8210 H     1 <1>   0.0800 
 34 H       -3.6170     2.2450    -2.0570 H     1 <1>   0.1500 
 35 H       -3.6520     3.1380     1.9240 H     1 <1>   0.1500 
 36 H        4.0620     4.4480     1.4420 H     1 <1>   0.4500 
 37 H        4.5570     4.3950    -1.4500 H     1 <1>   0.0800 
 38 H        5.7690     4.1140    -0.2190 H     1 <1>   0.0800 
 39 H        4.0300     6.6310    -2.0850 H     1 <1>   0.1500 
 40 H        6.0570     5.9420     1.6300 H     1 <1>   0.1500 
 41 H        4.2660     9.0310    -1.7500 H     1 <1>   0.1500 
 42 H        6.2760     8.3460     1.9390 H     1 <1>   0.1500 
 43 H        5.4070    10.5800     1.3740 H     1 <1>   0.0800 
 44 H        4.5880    10.8600    -0.1320 H     1 <1>   0.0800 
 45 H        7.5670    10.3590     0.1650 H     1 <1>   0.0800 
 46 H        6.8230    11.9100    -0.1510 H     1 <1>   0.0800 
 47 H        6.7430    10.6410    -1.3510 H     1 <1>   0.0800 
@<TRIPOS>BOND
  1   1   2  2   
  2   2   3  am  
  3   2   4  1   
  4   3   5  1   
  5   3   6  1   
  6   4   7  ar  
  7   4   8  ar  
  8   5   9  1   
  9   5  24  1   
 10   5  25  1   
 11   6  10  1   
 12   6  26  1   
 13   6  27  1   
 14   7  11  ar  
 15   7  28  1   
 16   8  12  ar  
 17   8  29  1   
 18   9  13  1   
 19   9  30  1   
 20   9  31  1   
 21  10  13  1   
 22  10  32  1   
 23  10  33  1   
 24  11  14  ar  
 25  11  34  1   
 26  12  14  ar  
 27  12  35  1   
 28  13  15  1   
 29  13  36  1   
 30  15  16  1   
 31  15  37  1   
 32  15  38  1   
 33  16  17  ar  
 34  16  18  ar  
 35  17  19  ar  
 36  17  39  1   
 37  18  20  ar  
 38  18  40  1   
 39  19  21  ar  
 40  19  41  1   
 41  20  21  ar  
 42  20  42  1   
 43  21  22  1   
 44  22  23  1   
 45  22  43  1   
 46  22  44  1   
 47  23  45  1   
 48  23  46  1   
 49  23  47  1   
@<TRIPOS>SUBSTRUCTURE
  1 ****  10 GROUP 4 **** **** 0

# MOE 2024.06 (io_trps.svl 2023.06)
