@<TRIPOS>MOLECULE
NONAME
32 33 1 0 0 
SMALL
USER_CHARGES


@<TRIPOS>ATOM
  1 BR      -1.5130    -0.6960     1.7620 Br    1 <1>  -0.1110 
  2 C       -0.6070    -2.0310     0.7130 C.ar  1 <1>   0.1110 
  3 C        0.6380    -2.4660     1.1200 C.ar  1 <1>  -0.1500 
  4 C       -1.2300    -2.5160    -0.4210 C.ar  1 <1>  -0.1500 
  5 C        1.3260    -3.4310     0.3810 C.ar  1 <1>   0.0860 
  6 C       -0.5690    -3.4770    -1.1630 C.ar  1 <1>  -0.1500 
  7 C        0.6820    -3.9230    -0.7630 C.ar  1 <1>   0.1770 
  8 C        2.6380    -3.8610     0.8280 C.2   1 <1>   0.5440 
  9 CL       1.4140    -5.1560    -1.7650 Cl    1 <1>  -0.1770 
 10 O        2.8730    -3.9360     2.0180 O.2   1 <1>  -0.5700 
 11 N        3.6380    -4.1520    -0.0540 N.am  1 <1>  -0.7300 
 12 C        4.9890    -4.6180     0.2960 C.3   1 <1>   0.2200 
 13 C        6.0170    -3.7340    -0.4180 C.3   1 <1>  -0.1600 
 14 C        5.1280    -6.0850    -0.1250 C.3   1 <1>  -0.1600 
 15 C        7.4470    -4.2430    -0.1810 C.3   1 <1>  -0.1600 
 16 C        6.5560    -6.5980     0.1110 C.3   1 <1>  -0.1600 
 17 C        7.5890    -5.7130    -0.6000 C.3   1 <1>  -0.1600 
 18 H        1.0800    -2.0600     2.0150 H     1 <1>   0.1500 
 19 H       -2.2010    -2.1520    -0.7080 H     1 <1>   0.1500 
 20 H       -1.0210    -3.8850    -2.0500 H     1 <1>   0.1500 
 21 H        3.4200    -4.2020    -1.0500 H     1 <1>   0.3700 
 22 H        5.1400    -4.5420     1.3610 H     1 <1>   0.0800 
 23 H        5.9330    -2.7270    -0.0500 H     1 <1>   0.0800 
 24 H        5.8170    -3.7310    -1.4750 H     1 <1>   0.0800 
 25 H        4.8880    -6.1850    -1.1690 H     1 <1>   0.0800 
 26 H        4.4370    -6.6820     0.4430 H     1 <1>   0.0800 
 27 H        7.6900    -4.1460     0.8630 H     1 <1>   0.0800 
 28 H        8.1420    -3.6390    -0.7390 H     1 <1>   0.0800 
 29 H        6.6390    -7.6100    -0.2470 H     1 <1>   0.0800 
 30 H        6.7600    -6.6050     1.1680 H     1 <1>   0.0800 
 31 H        8.5810    -6.0600    -0.3680 H     1 <1>   0.0800 
 32 H        7.4540    -5.7940    -1.6660 H     1 <1>   0.0800 
@<TRIPOS>BOND
  1   1   2  1   
  2   2   3  ar  
  3   2   4  ar  
  4   3   5  ar  
  5   3  18  1   
  6   4   6  ar  
  7   4  19  1   
  8   5   7  ar  
  9   5   8  1   
 10   6   7  ar  
 11   6  20  1   
 12   7   9  1   
 13   8  10  2   
 14   8  11  am  
 15  11  12  1   
 16  11  21  1   
 17  12  13  1   
 18  12  14  1   
 19  12  22  1   
 20  13  15  1   
 21  13  23  1   
 22  13  24  1   
 23  14  16  1   
 24  14  25  1   
 25  14  26  1   
 26  15  17  1   
 27  15  27  1   
 28  15  28  1   
 29  16  17  1   
 30  16  29  1   
 31  16  30  1   
 32  17  31  1   
 33  17  32  1   
@<TRIPOS>SUBSTRUCTURE
  1 ****   8 GROUP 4 **** **** 0

# MOE 2024.06 (io_trps.svl 2023.06)
