@<TRIPOS>MOLECULE
NONAME
38 40 1 0 0 
SMALL
USER_CHARGES


@<TRIPOS>ATOM
  1 F       -1.7850     1.1300     1.4300 F     1 <1>  -0.1900 
  2 C       -1.1690     2.0730     0.7670 C.ar  1 <1>   0.1900 
  3 C       -1.8010     2.6430    -0.3270 C.ar  1 <1>  -0.1440 
  4 C        0.0820     2.4700     1.1960 C.ar  1 <1>  -0.1500 
  5 C       -1.1390     3.6540    -1.0100 C.ar  1 <1>  -0.1500 
  6 C       -3.1740     2.1660    -0.7570 C.3   1 <1>   0.4870 
  7 C        0.7280     3.4810     0.5050 C.ar  1 <1>  -0.1500 
  8 C        0.1170     4.0680    -0.5920 C.ar  1 <1>  -0.1500 
  9 N       -4.1610     2.5030     0.3020 N.4   1 <1>  -0.9590 
 10 C       -5.5020     1.8610     0.0300 C.3   1 <1>   0.3430 
 11 C       -4.2790     4.0000     0.5030 C.3   1 <1>   0.3430 
 12 C       -6.5590     2.2450     1.0850 C.3   1 <1>   0.2090 
 13 C       -5.3590     4.3850     1.5370 C.3   1 <1>   0.2090 
 14 N       -6.6510     3.7310     1.1810 N.pl3 1 <1>  -0.8380 
 15 C       -7.5600     4.4260     0.4160 C.ar  1 <1>   0.7200 
 16 N       -8.0680     3.7900    -0.6390 N.ar  1 <1>  -0.6200 
 17 N       -7.8110     5.6760     0.7840 N.ar  1 <1>  -0.6200 
 18 C       -8.9430     4.4660    -1.3460 C.ar  1 <1>   0.1600 
 19 C       -8.6890     6.3260     0.0590 C.ar  1 <1>   0.1600 
 20 C       -9.2970     5.7550    -1.0330 C.ar  1 <1>  -0.1500 
 21 H        0.5430     2.0010     2.0490 H     1 <1>   0.1500 
 22 H       -1.5820     4.1260    -1.8720 H     1 <1>   0.1500 
 23 H       -3.1430     1.0980    -0.9050 H     1 <1>   0.0800 
 24 H       -3.4530     2.6320    -1.6880 H     1 <1>   0.0800 
 25 H        1.7050     3.8100     0.8180 H     1 <1>   0.1500 
 26 H        0.6290     4.8520    -1.1270 H     1 <1>   0.1500 
 27 H       -3.7890     2.1050     1.1760 H     1 <1>   0.4500 
 28 H       -5.4010     0.7890     0.0090 H     1 <1>   0.0800 
 29 H       -5.8700     2.1810    -0.9310 H     1 <1>   0.0800 
 30 H       -4.5390     4.4680    -0.4320 H     1 <1>   0.0800 
 31 H       -3.3310     4.4040     0.8210 H     1 <1>   0.0800 
 32 H       -6.2910     1.8400     2.0450 H     1 <1>   0.0800 
 33 H       -7.5150     1.8260     0.8170 H     1 <1>   0.0800 
 34 H       -5.4650     5.4570     1.5580 H     1 <1>   0.0800 
 35 H       -5.0590     4.0730     2.5220 H     1 <1>   0.0800 
 36 H       -9.3930     3.9810    -2.1970 H     1 <1>   0.1500 
 37 H       -8.9310     7.3370     0.3420 H     1 <1>   0.1500 
 38 H      -10.0170     6.2970    -1.6170 H     1 <1>   0.1500 
@<TRIPOS>BOND
  1   1   2  1   
  2   2   3  ar  
  3   2   4  ar  
  4   3   5  ar  
  5   3   6  1   
  6   4   7  ar  
  7   4  21  1   
  8   5   8  ar  
  9   5  22  1   
 10   6   9  1   
 11   6  23  1   
 12   6  24  1   
 13   7   8  ar  
 14   7  25  1   
 15   8  26  1   
 16   9  10  1   
 17   9  11  1   
 18   9  27  1   
 19  10  12  1   
 20  10  28  1   
 21  10  29  1   
 22  11  13  1   
 23  11  30  1   
 24  11  31  1   
 25  12  14  1   
 26  12  32  1   
 27  12  33  1   
 28  13  14  1   
 29  13  34  1   
 30  13  35  1   
 31  14  15  1   
 32  15  16  ar  
 33  15  17  ar  
 34  16  18  ar  
 35  17  19  ar  
 36  18  20  ar  
 37  18  36  1   
 38  19  20  ar  
 39  19  37  1   
 40  20  38  1   
@<TRIPOS>SUBSTRUCTURE
  1 ****  11 GROUP 4 **** **** 0

# MOE 2024.06 (io_trps.svl 2023.06)
