@<TRIPOS>MOLECULE
NONAME
47 50 1 0 0 
SMALL
USER_CHARGES


@<TRIPOS>ATOM
  1 F       -1.6390    -1.5350    -1.1790 F     1 <1>  -0.1900 
  2 C       -2.7920    -0.9550    -0.9760 C.ar  1 <1>   0.1900 
  3 C       -3.9120    -1.4550    -1.6130 C.ar  1 <1>  -0.1500 
  4 C       -2.8520     0.1370    -0.1330 C.ar  1 <1>  -0.1500 
  5 C       -5.1300    -0.8360    -1.3940 C.ar  1 <1>  -0.1500 
  6 C       -4.0780     0.7460     0.0760 C.ar  1 <1>  -0.1500 
  7 C       -5.2310     0.2700    -0.5490 C.ar  1 <1>   0.1170 
  8 N       -6.4790     0.8990    -0.3300 N.am  1 <1>  -0.2370 
  9 C       -7.6490     0.2530    -0.0360 C.2   1 <1>   0.5690 
 10 C       -6.7030     2.2490    -0.3720 C.2   1 <1>   0.5690 
 11 O       -7.7980    -0.9410     0.0770 O.2   1 <1>  -0.5700 
 12 C       -8.8040     1.2420     0.1410 C.3   1 <1>   0.2510 
 13 O       -5.8890     3.0980    -0.6290 O.2   1 <1>  -0.5700 
 14 C       -8.1380     2.6030    -0.0730 C.3   1 <1>  -0.0990 
 15 N       -9.4160     1.1800     1.4890 N.3   1 <1>  -0.9000 
 16 C      -10.8580     1.4250     1.5740 C.3   1 <1>   0.1900 
 17 C      -11.6510     0.2790     0.9340 C.3   1 <1>  -0.1600 
 18 C      -11.2540     2.7890     0.9960 C.3   1 <1>  -0.1600 
 19 C      -13.1520     0.5370     1.0610 C.3   1 <1>   0.2090 
 20 C      -12.7620     3.0090     1.1200 C.3   1 <1>   0.2090 
 21 N      -13.4640     1.8680     0.4740 N.pl3 1 <1>  -0.8380 
 22 C      -14.2500     2.0210    -0.6500 C.ar  1 <1>   0.7200 
 23 N      -14.4200     0.9490    -1.4240 N.ar  1 <1>  -0.6200 
 24 N      -14.7690     3.2290    -0.8680 N.ar  1 <1>  -0.6200 
 25 C      -15.1720     1.1090    -2.4850 C.ar  1 <1>   0.1600 
 26 C      -15.5160     3.3590    -1.9360 C.ar  1 <1>   0.1600 
 27 C      -15.7540     2.3130    -2.7930 C.ar  1 <1>  -0.1500 
 28 H       -3.8270    -2.3090    -2.2610 H     1 <1>   0.1500 
 29 H       -1.9600     0.5000     0.3440 H     1 <1>   0.1500 
 30 H       -6.0110    -1.2190    -1.8800 H     1 <1>   0.1500 
 31 H       -4.1380     1.6010     0.7270 H     1 <1>   0.1500 
 32 H       -9.5270     1.0510    -0.6310 H     1 <1>   0.0800 
 33 H       -8.5660     3.1180    -0.9120 H     1 <1>   0.0800 
 34 H       -8.1820     3.2190     0.8070 H     1 <1>   0.0800 
 35 H       -9.2610     0.2210     1.8360 H     1 <1>   0.3600 
 36 H      -11.1110     1.4400     2.6220 H     1 <1>   0.0800 
 37 H      -11.4140    -0.6480     1.4220 H     1 <1>   0.0800 
 38 H      -11.4280     0.1820    -0.1120 H     1 <1>   0.0800 
 39 H      -11.0060     2.8520    -0.0470 H     1 <1>   0.0800 
 40 H      -10.7400     3.5700     1.5250 H     1 <1>   0.0800 
 41 H      -13.4390     0.5380     2.0990 H     1 <1>   0.0800 
 42 H      -13.7030    -0.2490     0.5730 H     1 <1>   0.0800 
 43 H      -13.0230     3.9460     0.6600 H     1 <1>   0.0800 
 44 H      -13.0490     3.0580     2.1570 H     1 <1>   0.0800 
 45 H      -15.3270     0.2570    -3.1260 H     1 <1>   0.1500 
 46 H      -15.9500     4.3250    -2.1330 H     1 <1>   0.1500 
 47 H      -16.3680     2.4320    -3.6650 H     1 <1>   0.1500 
@<TRIPOS>BOND
  1   1   2  1   
  2   2   3  ar  
  3   2   4  ar  
  4   3   5  ar  
  5   3  28  1   
  6   4   6  ar  
  7   4  29  1   
  8   5   7  ar  
  9   5  30  1   
 10   6   7  ar  
 11   6  31  1   
 12   7   8  1   
 13   8   9  am  
 14   8  10  am  
 15   9  11  2   
 16   9  12  1   
 17  10  13  2   
 18  10  14  1   
 19  12  14  1   
 20  12  15  1   
 21  12  32  1   
 22  14  33  1   
 23  14  34  1   
 24  15  16  1   
 25  15  35  1   
 26  16  17  1   
 27  16  18  1   
 28  16  36  1   
 29  17  19  1   
 30  17  37  1   
 31  17  38  1   
 32  18  20  1   
 33  18  39  1   
 34  18  40  1   
 35  19  21  1   
 36  19  41  1   
 37  19  42  1   
 38  20  21  1   
 39  20  43  1   
 40  20  44  1   
 41  21  22  1   
 42  22  23  ar  
 43  22  24  ar  
 44  23  25  ar  
 45  24  26  ar  
 46  25  27  ar  
 47  25  45  1   
 48  26  27  ar  
 49  26  46  1   
 50  27  47  1   
@<TRIPOS>SUBSTRUCTURE
  1 ****  12 GROUP 4 **** **** 0

# MOE 2024.06 (io_trps.svl 2023.06)
