@<TRIPOS>MOLECULE
NONAME
37 40 1 0 0 
SMALL
USER_CHARGES


@<TRIPOS>ATOM
  1 CL      -1.2460     0.3400    -1.2800 Cl    1 <1>  -0.1770 
  2 C       -2.5860    -0.6660    -0.7800 C.ar  1 <1>   0.1770 
  3 C       -2.4800    -2.0480    -0.8370 C.ar  1 <1>  -0.1440 
  4 C       -3.7350    -0.0440    -0.3330 C.ar  1 <1>  -0.1500 
  5 C       -3.5690    -2.8040    -0.4320 C.ar  1 <1>  -0.1500 
  6 C       -1.2100    -2.7250    -1.3300 C.3   1 <1>  -0.0960 
  7 C       -4.8260    -0.7990     0.0760 C.ar  1 <1>   0.1170 
  8 C       -4.7240    -2.1870     0.0160 C.ar  1 <1>  -0.1500 
  9 N       -5.9800    -0.1300     0.5120 N.am  1 <1>  -0.5470 
 10 C       -7.0710    -0.5570     1.2130 C.2   1 <1>   0.6300 
 11 O       -7.1920    -1.6660     1.6720 O.2   1 <1>  -0.5700 
 12 C       -8.1490     0.4820     1.4830 C.3   1 <1>  -0.1000 
 13 C       -9.6150     0.3430     1.1960 C.3   1 <1>  -0.1950 
 14 C       -8.7830     1.3560     0.4350 C.3   1 <1>  -0.1950 
 15 C      -10.4260    -0.3650     0.0920 C.3   1 <1>   0.0150 
 16 C       -9.2080     1.1290    -1.0340 C.3   1 <1>   0.0150 
 17 C      -10.6810     0.8040    -0.8450 C.3   1 <1>  -0.1600 
 18 C       -9.5220    -1.2470    -0.7830 C.3   1 <1>  -0.1600 
 19 C       -8.6950    -0.2160    -1.5750 C.3   1 <1>  -0.1600 
 20 H       -3.7710     1.0280    -0.3030 H     1 <1>   0.1500 
 21 H       -3.5260    -3.8790    -0.4620 H     1 <1>   0.1500 
 22 H       -0.3790    -2.4430    -0.7080 H     1 <1>   0.0800 
 23 H       -1.0030    -2.4260    -2.3420 H     1 <1>   0.0800 
 24 H       -1.3080    -3.7950    -1.3040 H     1 <1>   0.0800 
 25 H       -5.5530    -2.8000     0.3190 H     1 <1>   0.1500 
 26 H       -6.0350     0.8520     0.2520 H     1 <1>   0.3700 
 27 H       -7.9220     0.9560     2.4200 H     1 <1>   0.1000 
 28 H      -10.2700     0.7210     1.9630 H     1 <1>   0.1000 
 29 H       -8.9110     2.3890     0.7100 H     1 <1>   0.1000 
 30 H      -11.3130    -0.8590     0.4510 H     1 <1>   0.0800 
 31 H       -9.0160     1.9680    -1.6810 H     1 <1>   0.0800 
 32 H      -11.2280     1.6030    -0.3750 H     1 <1>   0.0800 
 33 H      -11.1680     0.5090    -1.7590 H     1 <1>   0.0800 
 34 H      -10.1210    -1.8340    -1.4570 H     1 <1>   0.0800 
 35 H       -8.9190    -1.9140    -0.1960 H     1 <1>   0.0800 
 36 H       -7.6380    -0.3420    -1.4540 H     1 <1>   0.0800 
 37 H       -8.9240    -0.2970    -2.6240 H     1 <1>   0.0800 
@<TRIPOS>BOND
  1   1   2  1   
  2   2   3  ar  
  3   2   4  ar  
  4   3   5  ar  
  5   3   6  1   
  6   4   7  ar  
  7   4  20  1   
  8   5   8  ar  
  9   5  21  1   
 10   6  22  1   
 11   6  23  1   
 12   6  24  1   
 13   7   8  ar  
 14   7   9  1   
 15   8  25  1   
 16   9  10  am  
 17   9  26  1   
 18  10  11  2   
 19  10  12  1   
 20  12  13  1   
 21  12  14  1   
 22  12  27  1   
 23  13  14  1   
 24  13  15  1   
 25  13  28  1   
 26  14  16  1   
 27  14  29  1   
 28  15  17  1   
 29  15  18  1   
 30  15  30  1   
 31  16  17  1   
 32  16  19  1   
 33  16  31  1   
 34  17  32  1   
 35  17  33  1   
 36  18  19  1   
 37  18  34  1   
 38  18  35  1   
 39  19  36  1   
 40  19  37  1   
@<TRIPOS>SUBSTRUCTURE
  1 ****   9 GROUP 4 **** **** 0

# MOE 2024.06 (io_trps.svl 2023.06)
