@<TRIPOS>MOLECULE
NONAME
43 44 1 0 0 
SMALL
USER_CHARGES


@<TRIPOS>ATOM
  1 N        0.6950    -0.1080     0.5080 N.4   1 <1>  -0.9590 
  2 C        0.4660     1.3650     0.4180 C.3   1 <1>   0.3430 
  3 C        1.6470    -0.6240    -0.5200 C.3   1 <1>   0.3430 
  4 C       -0.6140    -0.8380     0.4090 C.3   1 <1>   0.2630 
  5 C        1.7960     2.1130     0.5320 C.3   1 <1>  -0.1600 
  6 C        2.9860     0.1080    -0.4120 C.3   1 <1>  -0.1600 
  7 C        2.7820     1.6210    -0.5350 C.3   1 <1>   0.4230 
  8 N        4.0920     2.3360    -0.4820 N.4   1 <1>  -0.9590 
  9 C        4.8180     2.3060     0.8290 C.3   1 <1>   0.4860 
 10 C        3.9960     3.7450    -0.9960 C.3   1 <1>   0.2630 
 11 C        6.2530     2.7240     0.5820 C.ar  1 <1>  -0.1430 
 12 C        7.1830     1.8610     0.0050 C.ar  1 <1>  -0.1430 
 13 C        6.6360     4.0110     0.9380 C.ar  1 <1>  -0.1500 
 14 C        8.4720     2.3160    -0.2280 C.ar  1 <1>  -0.1500 
 15 C        6.8590     0.4220    -0.3770 C.3   1 <1>  -0.0970 
 16 C        7.9260     4.4500     0.7040 C.ar  1 <1>  -0.1500 
 17 C        8.8430     3.6020     0.1160 C.ar  1 <1>  -0.1500 
 18 H        1.0760    -0.3220     1.4440 H     1 <1>   0.4500 
 19 H       -0.1960     1.6830     1.2100 H     1 <1>   0.0800 
 20 H       -0.0050     1.6020    -0.5230 H     1 <1>   0.0800 
 21 H        1.2310    -0.4790    -1.5050 H     1 <1>   0.0800 
 22 H        1.8020    -1.6830    -0.3780 H     1 <1>   0.0800 
 23 H       -1.0760    -0.6610    -0.5490 H     1 <1>   0.0800 
 24 H       -1.2900    -0.5060     1.1820 H     1 <1>   0.0800 
 25 H       -0.4630    -1.9000     0.5250 H     1 <1>   0.0800 
 26 H        2.1860     1.9680     1.5230 H     1 <1>   0.0800 
 27 H        1.5990     3.1620     0.3960 H     1 <1>   0.0800 
 28 H        3.6220    -0.2380    -1.2070 H     1 <1>   0.0800 
 29 H        3.4440    -0.1520     0.5260 H     1 <1>   0.0800 
 30 H        2.3430     1.8090    -1.5030 H     1 <1>   0.0800 
 31 H        4.7480     1.8670    -1.1240 H     1 <1>   0.4500 
 32 H        4.8110     1.3150     1.2480 H     1 <1>   0.0800 
 33 H        4.3550     2.9780     1.5320 H     1 <1>   0.0800 
 34 H        3.4130     4.3560    -0.3260 H     1 <1>   0.0800 
 35 H        3.5370     3.7620    -1.9710 H     1 <1>   0.0800 
 36 H        4.9800     4.1800    -1.0830 H     1 <1>   0.0800 
 37 H        5.9430     4.6920     1.4030 H     1 <1>   0.1500 
 38 H        9.2080     1.6700    -0.6770 H     1 <1>   0.1500 
 39 H        6.3330     0.3890    -1.3140 H     1 <1>   0.0800 
 40 H        6.2790    -0.0610     0.3870 H     1 <1>   0.0800 
 41 H        7.7670    -0.1460    -0.4910 H     1 <1>   0.0800 
 42 H        8.2210     5.4490     0.9800 H     1 <1>   0.1500 
 43 H        9.8490     3.9410    -0.0690 H     1 <1>   0.1500 
@<TRIPOS>BOND
  1   1   2  1   
  2   1   3  1   
  3   1   4  1   
  4   1  18  1   
  5   2   5  1   
  6   2  19  1   
  7   2  20  1   
  8   3   6  1   
  9   3  21  1   
 10   3  22  1   
 11   4  23  1   
 12   4  24  1   
 13   4  25  1   
 14   5   7  1   
 15   5  26  1   
 16   5  27  1   
 17   6   7  1   
 18   6  28  1   
 19   6  29  1   
 20   7   8  1   
 21   7  30  1   
 22   8   9  1   
 23   8  10  1   
 24   8  31  1   
 25   9  11  1   
 26   9  32  1   
 27   9  33  1   
 28  10  34  1   
 29  10  35  1   
 30  10  36  1   
 31  11  12  ar  
 32  11  13  ar  
 33  12  14  ar  
 34  12  15  1   
 35  13  16  ar  
 36  13  37  1   
 37  14  17  ar  
 38  14  38  1   
 39  15  39  1   
 40  15  40  1   
 41  15  41  1   
 42  16  17  ar  
 43  16  42  1   
 44  17  43  1   
@<TRIPOS>SUBSTRUCTURE
  1 ****   8 GROUP 4 **** **** 0

# MOE 2024.06 (io_trps.svl 2023.06)
