@<TRIPOS>MOLECULE
NONAME
37 39 1 0 0 
SMALL
USER_CHARGES


@<TRIPOS>ATOM
  1 O        0.4530     4.7060     1.4910 O.2   1 <1>  -0.5700 
  2 C       -0.0180     3.8420     0.7780 C.2   1 <1>   0.8050 
  3 O        0.8110     2.9180     0.2720 O.3   1 <1>  -0.4300 
  4 C       -1.4150     3.7370     0.4260 C.2   1 <1>   0.0550 
  5 C        2.1920     2.9140     0.5540 C.3   1 <1>   0.2000 
  6 O       -2.3000     4.6400     0.8780 O.3   1 <1>  -0.2800 
  7 C       -2.0640     2.8220    -0.3410 C.2   1 <1>  -0.1500 
  8 C        2.8940     3.9260    -0.3560 C.3   1 <1>  -0.1600 
  9 C        2.7160     1.5010     0.3030 C.3   1 <1>  -0.1600 
 10 C       -3.5030     4.3150     0.4110 C.ar  1 <1>   0.1400 
 11 C       -3.4230     3.1760    -0.3670 C.ar  1 <1>   0.0000 
 12 C        4.4070     3.8420    -0.1860 C.3   1 <1>   0.3430 
 13 C        4.2350     1.4530     0.4580 C.3   1 <1>   0.3430 
 14 C       -4.7050     4.9740     0.6290 C.ar  1 <1>  -0.1500 
 15 C       -4.5820     2.6650    -0.9560 C.ar  1 <1>  -0.1500 
 16 N        4.8700     2.4480    -0.4570 N.4   1 <1>  -0.9590 
 17 C       -5.8470     4.4640     0.0450 C.ar  1 <1>  -0.1500 
 18 C       -5.7820     3.3120    -0.7460 C.ar  1 <1>  -0.1500 
 19 C        6.3610     2.3620    -0.3800 C.3   1 <1>   0.2630 
 20 H        2.3340     3.1720     1.5930 H     1 <1>   0.0800 
 21 H       -1.6540     1.9710    -0.8520 H     1 <1>   0.1500 
 22 H        2.5780     4.9230    -0.1000 H     1 <1>   0.0800 
 23 H        2.6360     3.7460    -1.3850 H     1 <1>   0.0800 
 24 H        2.4460     1.1730    -0.6860 H     1 <1>   0.0800 
 25 H        2.2720     0.8260     1.0140 H     1 <1>   0.0800 
 26 H        4.6720     4.1270     0.8200 H     1 <1>   0.0800 
 27 H        4.8830     4.5300    -0.8680 H     1 <1>   0.0800 
 28 H        4.5880     0.4600     0.2280 H     1 <1>   0.0800 
 29 H        4.4990     1.6770     1.4790 H     1 <1>   0.0800 
 30 H       -4.7230     5.8570     1.2410 H     1 <1>   0.1500 
 31 H       -4.5250     1.7780    -1.5620 H     1 <1>   0.1500 
 32 H        4.5840     2.2100    -1.4190 H     1 <1>   0.4500 
 33 H       -6.7950     4.9510     0.1940 H     1 <1>   0.1500 
 34 H       -6.6850     2.9310    -1.1920 H     1 <1>   0.1500 
 35 H        6.7010     2.6060     0.6140 H     1 <1>   0.0800 
 36 H        6.8130     3.0500    -1.0770 H     1 <1>   0.0800 
 37 H        6.6920     1.3650    -0.6220 H     1 <1>   0.0800 
@<TRIPOS>BOND
  1   1   2  2   
  2   2   3  1   
  3   2   4  1   
  4   3   5  1   
  5   4   6  1   
  6   4   7  2   
  7   5   8  1   
  8   5   9  1   
  9   5  20  1   
 10   6  10  1   
 11   7  11  1   
 12   7  21  1   
 13   8  12  1   
 14   8  22  1   
 15   8  23  1   
 16   9  13  1   
 17   9  24  1   
 18   9  25  1   
 19  10  11  ar  
 20  10  14  ar  
 21  11  15  ar  
 22  12  16  1   
 23  12  26  1   
 24  12  27  1   
 25  13  16  1   
 26  13  28  1   
 27  13  29  1   
 28  14  17  ar  
 29  14  30  1   
 30  15  18  ar  
 31  15  31  1   
 32  16  19  1   
 33  16  32  1   
 34  17  18  ar  
 35  17  33  1   
 36  18  34  1   
 37  19  35  1   
 38  19  36  1   
 39  19  37  1   
@<TRIPOS>SUBSTRUCTURE
  1 ****   2 GROUP 4 **** **** 0

# MOE 2024.06 (io_trps.svl 2023.06)
