@<TRIPOS>MOLECULE
NONAME
42 43 1 0 0 
SMALL
USER_CHARGES


@<TRIPOS>ATOM
  1 N        0.8890    -0.3100     0.1310 N.ar  1 <1>  -0.6200 
  2 C        1.7530    -0.9330    -0.6550 C.ar  1 <1>   0.1660 
  3 C       -0.3560    -0.7620     0.0870 C.ar  1 <1>   0.1600 
  4 C        1.4260    -1.9970    -1.4830 C.ar  1 <1>  -0.1500 
  5 C        3.1740    -0.4080    -0.6080 C.3   1 <1>  -0.0160 
  6 C       -0.7810    -1.8170    -0.7030 C.ar  1 <1>  -0.1500 
  7 C        0.1280    -2.4600    -1.5140 C.ar  1 <1>  -0.1500 
  8 C        3.5890    -0.2220     0.8550 C.3   1 <1>   0.3430 
  9 N        4.9360     0.4220     0.9900 N.4   1 <1>  -0.9590 
 10 C        6.0440    -0.4990     0.6010 C.3   1 <1>   0.3430 
 11 C        5.0990     0.9280     2.3910 C.3   1 <1>   0.2630 
 12 C        7.3350     0.2880     0.3910 C.3   1 <1>  -0.1600 
 13 C        8.4590    -0.6160    -0.1270 C.3   1 <1>  -0.0170 
 14 C        9.7150     0.2100    -0.3350 C.ar  1 <1>  -0.1430 
 15 C       10.6400     0.3470     0.6890 C.ar  1 <1>  -0.1500 
 16 C        9.9430     0.8420    -1.5470 C.ar  1 <1>  -0.1500 
 17 C       11.7790     1.1110     0.5040 C.ar  1 <1>  -0.1500 
 18 C       11.0820     1.6060    -1.7330 C.ar  1 <1>  -0.1500 
 19 C       12.0000     1.7420    -0.7080 C.ar  1 <1>  -0.1500 
 20 H       -1.0790    -0.2670     0.7130 H     1 <1>   0.1500 
 21 H        2.1680    -2.4650    -2.1040 H     1 <1>   0.1500 
 22 H        3.1940     0.5380    -1.1170 H     1 <1>   0.0800 
 23 H        3.8300    -1.0960    -1.1070 H     1 <1>   0.0800 
 24 H       -1.8100    -2.1270    -0.6820 H     1 <1>   0.1500 
 25 H       -0.1640    -3.2840    -2.1430 H     1 <1>   0.1500 
 26 H        3.5770    -1.1750     1.3570 H     1 <1>   0.0800 
 27 H        2.8500     0.4040     1.3310 H     1 <1>   0.0800 
 28 H        4.9550     1.2360     0.3590 H     1 <1>   0.4500 
 29 H        5.7960    -1.0000    -0.3210 H     1 <1>   0.0800 
 30 H        6.1880    -1.2500     1.3620 H     1 <1>   0.0800 
 31 H        5.1020     0.1060     3.0890 H     1 <1>   0.0800 
 32 H        4.2880     1.5910     2.6450 H     1 <1>   0.0800 
 33 H        6.0250     1.4700     2.4920 H     1 <1>   0.0800 
 34 H        7.6600     0.7310     1.3150 H     1 <1>   0.0800 
 35 H        7.1710     1.0720    -0.3280 H     1 <1>   0.0800 
 36 H        8.1760    -1.0720    -1.0610 H     1 <1>   0.0800 
 37 H        8.6620    -1.4050     0.5770 H     1 <1>   0.0800 
 38 H       10.4850    -0.1390     1.6360 H     1 <1>   0.1500 
 39 H        9.2410     0.7450    -2.3560 H     1 <1>   0.1500 
 40 H       12.4950     1.2140     1.3000 H     1 <1>   0.1500 
 41 H       11.2560     2.0950    -2.6760 H     1 <1>   0.1500 
 42 H       12.8860     2.3360    -0.8520 H     1 <1>   0.1500 
@<TRIPOS>BOND
  1   1   2  ar  
  2   1   3  ar  
  3   2   4  ar  
  4   2   5  1   
  5   3   6  ar  
  6   3  20  1   
  7   4   7  ar  
  8   4  21  1   
  9   5   8  1   
 10   5  22  1   
 11   5  23  1   
 12   6   7  ar  
 13   6  24  1   
 14   7  25  1   
 15   8   9  1   
 16   8  26  1   
 17   8  27  1   
 18   9  10  1   
 19   9  11  1   
 20   9  28  1   
 21  10  12  1   
 22  10  29  1   
 23  10  30  1   
 24  11  31  1   
 25  11  32  1   
 26  11  33  1   
 27  12  13  1   
 28  12  34  1   
 29  12  35  1   
 30  13  14  1   
 31  13  36  1   
 32  13  37  1   
 33  14  15  ar  
 34  14  16  ar  
 35  15  17  ar  
 36  15  38  1   
 37  16  18  ar  
 38  16  39  1   
 39  17  19  ar  
 40  17  40  1   
 41  18  19  ar  
 42  18  41  1   
 43  19  42  1   
@<TRIPOS>SUBSTRUCTURE
  1 ****  10 GROUP 4 **** **** 0

# MOE 2024.06 (io_trps.svl 2023.06)
