@<TRIPOS>MOLECULE
NONAME
43 46 1 0 0 
SMALL
USER_CHARGES


@<TRIPOS>ATOM
  1 O       -0.5750     0.0570     0.5660 O.2   1 <1>  -0.5700 
  2 C       -0.9420    -0.9770     0.0590 C.2   1 <1>   0.5690 
  3 N       -2.2160    -1.1110    -0.4300 N.am  1 <1>  -0.6600 
  4 C        0.0370    -2.1460    -0.0240 C.3   1 <1>  -0.0990 
  5 C       -3.1810     0.0250    -0.2810 C.3   1 <1>   0.3200 
  6 C       -2.7550    -2.3190    -1.1460 C.3   1 <1>   0.1400 
  7 C        1.4630    -1.8630     0.4900 C.3   1 <1>  -0.0800 
  8 C       -4.5830    -0.5110    -0.0430 C.2   1 <1>  -0.3320 
  9 C       -3.9690    -2.9160    -0.4160 C.3   1 <1>   0.0210 
 10 C        2.2590    -0.8900    -0.3800 C.3   1 <1>  -0.1600 
 11 C        2.3390    -3.1130     0.5120 C.3   1 <1>  -0.1600 
 12 N       -5.6730     0.2520     0.2670 N.pl3 1 <1>   0.0330 
 13 C       -4.9470    -1.8090    -0.0960 C.2   1 <1>  -0.1810 
 14 C        3.7310    -1.1920    -0.0870 C.3   1 <1>  -0.1600 
 15 C        3.7720    -2.5830     0.5560 C.3   1 <1>  -0.1600 
 16 C       -6.7510    -0.5870     0.4140 C.ar  1 <1>  -0.1520 
 17 C       -6.3250    -1.8950     0.1940 C.ar  1 <1>   0.0000 
 18 C       -8.0840    -0.3110     0.7280 C.ar  1 <1>  -0.1500 
 19 C       -7.2430    -2.9460     0.2890 C.ar  1 <1>  -0.1500 
 20 C       -8.9760    -1.3550     0.8170 C.ar  1 <1>  -0.1500 
 21 C       -8.5560    -2.6730     0.5980 C.ar  1 <1>  -0.1500 
 22 H        0.1030    -2.4640    -1.0470 H     1 <1>   0.0800 
 23 H       -0.3770    -2.9520     0.5530 H     1 <1>   0.0800 
 24 H       -3.1620     0.6210    -1.1760 H     1 <1>   0.0800 
 25 H       -2.8970     0.6460     0.5510 H     1 <1>   0.0800 
 26 H       -2.0060    -3.0800    -1.2590 H     1 <1>   0.0800 
 27 H       -3.0630    -2.0130    -2.1310 H     1 <1>   0.0800 
 28 H        1.4120    -1.4670     1.4920 H     1 <1>   0.0800 
 29 H       -3.6540    -3.3910     0.4950 H     1 <1>   0.0800 
 30 H       -4.4400    -3.6510    -1.0430 H     1 <1>   0.0800 
 31 H        2.0120     0.1350    -0.1600 H     1 <1>   0.0800 
 32 H        2.0610    -1.0800    -1.4210 H     1 <1>   0.0800 
 33 H        2.2000    -3.6740    -0.3970 H     1 <1>   0.0800 
 34 H        2.1200    -3.7450     1.3550 H     1 <1>   0.0800 
 35 H       -5.6990     1.2690     0.3900 H     1 <1>   0.2700 
 36 H        4.1270    -0.4630     0.5990 H     1 <1>   0.0800 
 37 H        4.3100    -1.1650    -0.9950 H     1 <1>   0.0800 
 38 H        4.4490    -3.2410     0.0390 H     1 <1>   0.0800 
 39 H        4.0890    -2.4910     1.5810 H     1 <1>   0.0800 
 40 H       -8.3990     0.7030     0.8950 H     1 <1>   0.1500 
 41 H       -6.9060    -3.9520     0.1210 H     1 <1>   0.1500 
 42 H      -10.0080    -1.1690     1.0560 H     1 <1>   0.1500 
 43 H       -9.2730    -3.4710     0.6740 H     1 <1>   0.1500 
@<TRIPOS>BOND
  1   1   2  2   
  2   2   3  am  
  3   2   4  1   
  4   3   5  1   
  5   3   6  1   
  6   4   7  1   
  7   4  22  1   
  8   4  23  1   
  9   5   8  1   
 10   5  24  1   
 11   5  25  1   
 12   6   9  1   
 13   6  26  1   
 14   6  27  1   
 15   7  10  1   
 16   7  11  1   
 17   7  28  1   
 18   8  12  1   
 19   8  13  2   
 20   9  13  1   
 21   9  29  1   
 22   9  30  1   
 23  10  14  1   
 24  10  31  1   
 25  10  32  1   
 26  11  15  1   
 27  11  33  1   
 28  11  34  1   
 29  12  16  1   
 30  12  35  1   
 31  13  17  1   
 32  14  15  1   
 33  14  36  1   
 34  14  37  1   
 35  15  38  1   
 36  15  39  1   
 37  16  17  ar  
 38  16  18  ar  
 39  17  19  ar  
 40  18  20  ar  
 41  18  40  1   
 42  19  21  ar  
 43  19  41  1   
 44  20  21  ar  
 45  20  42  1   
 46  21  43  1   
@<TRIPOS>SUBSTRUCTURE
  1 ****   3 GROUP 4 **** **** 0

# MOE 2024.06 (io_trps.svl 2023.06)
