@<TRIPOS>MOLECULE
NONAME
50 52 1 0 0 
SMALL
USER_CHARGES


@<TRIPOS>ATOM
  1 S        0.7740    -0.0160     1.2030 S.o2  1 <1>   1.4470 
  2 O        0.1750     0.2070     2.4990 O.2   1 <1>  -0.6500 
  3 O        2.1640    -0.4040     1.1080 O.2   1 <1>  -0.6500 
  4 N        0.6390     1.4660     0.3180 N.am  1 <1>  -0.6930 
  5 C       -0.2470    -1.1370     0.2070 C.ar  1 <1>  -0.0090 
  6 C       -0.5930     2.1070     0.1980 C.ar  1 <1>   0.1990 
  7 C        1.7610     1.7530    -0.6360 C.3   1 <1>   0.2570 
  8 C       -1.6350    -1.0960     0.2840 C.ar  1 <1>  -0.1500 
  9 C        0.3270    -2.0410    -0.6800 C.ar  1 <1>  -0.1500 
 10 C       -1.1920     2.6910     1.3070 C.ar  1 <1>  -0.1500 
 11 C       -1.2600     2.1700    -1.0210 C.ar  1 <1>  -0.1500 
 12 C        1.6950     3.0960    -1.3760 C.2   1 <1>   0.5690 
 13 C       -2.4240    -1.9260    -0.4930 C.ar  1 <1>  -0.1500 
 14 C       -0.4540    -2.8760    -1.4610 C.ar  1 <1>  -0.1500 
 15 C       -2.4190     3.3200     1.2050 C.ar  1 <1>  -0.1500 
 16 C       -2.4860     2.8000    -1.1270 C.ar  1 <1>  -0.1500 
 17 O        1.5730     3.0430    -2.5800 O.2   1 <1>  -0.5700 
 18 N        1.7830     4.2990    -0.7120 N.am  1 <1>  -0.6600 
 19 C       -1.8320    -2.8190    -1.3670 C.ar  1 <1>  -0.1500 
 20 C       -3.0740     3.3780    -0.0140 C.ar  1 <1>  -0.1430 
 21 C        1.8930     4.4440     0.7690 C.3   1 <1>   0.1400 
 22 C        1.6550     5.5930    -1.4370 C.3   1 <1>   0.1400 
 23 C       -4.4190     4.0710    -0.1320 C.3   1 <1>  -0.0970 
 24 C        3.0910     5.3340     1.1160 C.3   1 <1>  -0.1600 
 25 C        2.8510     6.4930    -1.1100 C.3   1 <1>  -0.1600 
 26 C        3.0130     6.6910     0.4030 C.3   1 <1>  -0.1600 
 27 H        1.7950     0.9690    -1.3710 H     1 <1>   0.0800 
 28 H        2.6920     1.7300    -0.0990 H     1 <1>   0.0800 
 29 H       -2.1050    -0.4000     0.9600 H     1 <1>   0.1500 
 30 H        1.4000    -2.0960    -0.7620 H     1 <1>   0.1500 
 31 H       -0.6910     2.6480     2.2580 H     1 <1>   0.1500 
 32 H       -0.8190     1.7240    -1.8940 H     1 <1>   0.1500 
 33 H       -3.4960    -1.8760    -0.4160 H     1 <1>   0.1500 
 34 H        0.0110    -3.5700    -2.1400 H     1 <1>   0.1500 
 35 H       -2.8610     3.7650     2.0790 H     1 <1>   0.1500 
 36 H       -2.9800     2.8400    -2.0830 H     1 <1>   0.1500 
 37 H       -2.4430    -3.4660    -1.9730 H     1 <1>   0.1500 
 38 H        2.0120     3.4910     1.2510 H     1 <1>   0.0800 
 39 H        0.9860     4.8910     1.1400 H     1 <1>   0.0800 
 40 H        0.7400     6.0720    -1.1330 H     1 <1>   0.0800 
 41 H        1.6070     5.4320    -2.5010 H     1 <1>   0.0800 
 42 H       -4.2740     5.1030    -0.3960 H     1 <1>   0.0800 
 43 H       -4.9510     4.0230     0.8020 H     1 <1>   0.0800 
 44 H       -5.0200     3.6000    -0.8890 H     1 <1>   0.0800 
 45 H        3.9960     4.8250     0.8300 H     1 <1>   0.0800 
 46 H        3.1230     5.4860     2.1800 H     1 <1>   0.0800 
 47 H        2.7160     7.4470    -1.5880 H     1 <1>   0.0800 
 48 H        3.7400     6.0450    -1.5180 H     1 <1>   0.0800 
 49 H        3.9050     7.2600     0.6030 H     1 <1>   0.0800 
 50 H        2.1720     7.2460     0.7830 H     1 <1>   0.0800 
@<TRIPOS>BOND
  1   1   2  2   
  2   1   3  2   
  3   1   4  am  
  4   1   5  1   
  5   4   6  1   
  6   4   7  1   
  7   5   8  ar  
  8   5   9  ar  
  9   6  10  ar  
 10   6  11  ar  
 11   7  12  1   
 12   7  27  1   
 13   7  28  1   
 14   8  13  ar  
 15   8  29  1   
 16   9  14  ar  
 17   9  30  1   
 18  10  15  ar  
 19  10  31  1   
 20  11  16  ar  
 21  11  32  1   
 22  12  17  2   
 23  12  18  am  
 24  13  19  ar  
 25  13  33  1   
 26  14  19  ar  
 27  14  34  1   
 28  15  20  ar  
 29  15  35  1   
 30  16  20  ar  
 31  16  36  1   
 32  18  21  1   
 33  18  22  1   
 34  19  37  1   
 35  20  23  1   
 36  21  24  1   
 37  21  38  1   
 38  21  39  1   
 39  22  25  1   
 40  22  40  1   
 41  22  41  1   
 42  23  42  1   
 43  23  43  1   
 44  23  44  1   
 45  24  26  1   
 46  24  45  1   
 47  24  46  1   
 48  25  26  1   
 49  25  47  1   
 50  25  48  1   
 51  26  49  1   
 52  26  50  1   
@<TRIPOS>SUBSTRUCTURE
  1 ****   6 GROUP 4 **** **** 0

# MOE 2024.06 (io_trps.svl 2023.06)
