@<TRIPOS>MOLECULE
NONAME
38 39 1 0 0 
SMALL
USER_CHARGES


@<TRIPOS>ATOM
  1 F       -1.0410    -0.9710    -1.3570 F     1 <1>  -0.3400 
  2 C       -1.2670    -2.1180    -0.7320 C.3   1 <1>   1.1640 
  3 F       -1.5700    -3.0040    -1.6730 F     1 <1>  -0.3400 
  4 F       -0.1050    -2.5040    -0.2200 F     1 <1>  -0.3400 
  5 C       -2.3790    -1.9890     0.3240 C.ar  1 <1>  -0.1440 
  6 C       -3.7160    -2.1050    -0.0390 C.ar  1 <1>  -0.1500 
  7 C       -2.0740    -1.7450     1.6590 C.ar  1 <1>  -0.1500 
  8 C       -4.7540    -1.9990     0.8880 C.ar  1 <1>   0.0860 
  9 C       -3.0820    -1.6240     2.5970 C.ar  1 <1>  -0.1500 
 10 C       -6.1480    -2.1420     0.4970 C.2   1 <1>   0.5440 
 11 C       -4.4030    -1.7480     2.2130 C.ar  1 <1>  -0.1500 
 12 O       -7.0410    -1.6300     1.1460 O.2   1 <1>  -0.5700 
 13 N       -6.5340    -2.9190    -0.5710 N.am  1 <1>  -0.6600 
 14 C       -7.7000    -2.5200    -1.4280 C.3   1 <1>   0.1400 
 15 C       -6.1700    -4.3560    -0.6260 C.3   1 <1>   0.1400 
 16 C       -9.0740    -2.7720    -0.7650 C.3   1 <1>   0.3430 
 17 C       -7.0210    -5.1540     0.3720 C.3   1 <1>  -0.1600 
 18 N       -8.9750    -3.6140     0.4690 N.4   1 <1>  -0.9590 
 19 C       -8.5370    -5.0120     0.1980 C.3   1 <1>   0.3430 
 20 C      -10.2170    -3.5430     1.2890 C.3   1 <1>   0.2630 
 21 H       -3.9690    -2.2770    -1.0730 H     1 <1>   0.1500 
 22 H       -1.0490    -1.6440     1.9800 H     1 <1>   0.1500 
 23 H       -2.8360    -1.4300     3.6280 H     1 <1>   0.1500 
 24 H       -5.1790    -1.6450     2.9530 H     1 <1>   0.1500 
 25 H       -7.6540    -3.0460    -2.3650 H     1 <1>   0.0800 
 26 H       -7.6200    -1.4700    -1.6560 H     1 <1>   0.0800 
 27 H       -5.1270    -4.4770    -0.3800 H     1 <1>   0.0800 
 28 H       -6.3130    -4.7310    -1.6250 H     1 <1>   0.0800 
 29 H       -9.7460    -3.2210    -1.4770 H     1 <1>   0.0800 
 30 H       -9.4820    -1.8110    -0.4950 H     1 <1>   0.0800 
 31 H       -6.7470    -4.8840     1.3770 H     1 <1>   0.0800 
 32 H       -6.7710    -6.1930     0.2550 H     1 <1>   0.0800 
 33 H       -8.2080    -3.1420     0.9970 H     1 <1>   0.4500 
 34 H       -9.0200    -5.6780     0.8950 H     1 <1>   0.0800 
 35 H       -8.8270    -5.3070    -0.7970 H     1 <1>   0.0800 
 36 H      -11.0460    -3.9760     0.7560 H     1 <1>   0.0800 
 37 H      -10.4490    -2.5160     1.5200 H     1 <1>   0.0800 
 38 H      -10.0810    -4.0770     2.2160 H     1 <1>   0.0800 
@<TRIPOS>BOND
  1   1   2  1   
  2   2   3  1   
  3   2   4  1   
  4   2   5  1   
  5   5   6  ar  
  6   5   7  ar  
  7   6   8  ar  
  8   6  21  1   
  9   7   9  ar  
 10   7  22  1   
 11   8  10  1   
 12   8  11  ar  
 13   9  11  ar  
 14   9  23  1   
 15  10  12  2   
 16  10  13  am  
 17  11  24  1   
 18  13  14  1   
 19  13  15  1   
 20  14  16  1   
 21  14  25  1   
 22  14  26  1   
 23  15  17  1   
 24  15  27  1   
 25  15  28  1   
 26  16  18  1   
 27  16  29  1   
 28  16  30  1   
 29  17  19  1   
 30  17  31  1   
 31  17  32  1   
 32  18  19  1   
 33  18  20  1   
 34  18  33  1   
 35  19  34  1   
 36  19  35  1   
 37  20  36  1   
 38  20  37  1   
 39  20  38  1   
@<TRIPOS>SUBSTRUCTURE
  1 ****   8 GROUP 4 **** **** 0

# MOE 2024.06 (io_trps.svl 2023.06)
