@<TRIPOS>MOLECULE
NONAME
34 34 1 0 0 
SMALL
USER_CHARGES


@<TRIPOS>ATOM
  1 CL      -4.2090     1.7170    -0.1800 Cl    1 <1>  -0.1770 
  2 C       -3.6480     0.1140    -0.6060 C.ar  1 <1>   0.1770 
  3 C       -3.6570    -0.8980     0.3550 C.ar  1 <1>   0.1170 
  4 C       -3.2030    -0.1030    -1.8950 C.ar  1 <1>  -0.1500 
  5 N       -4.1330    -0.6540     1.6540 N.am  1 <1>  -0.5470 
  6 C       -3.1630    -2.1490    -0.0060 C.ar  1 <1>  -0.1500 
  7 C       -2.7420    -1.3620    -2.2260 C.ar  1 <1>   0.1770 
  8 C       -5.1270    -1.2390     2.3740 C.2   1 <1>   0.5690 
  9 C       -2.7130    -2.3850    -1.2950 C.ar  1 <1>  -0.1500 
 10 CL      -2.1740    -1.6650    -3.8490 Cl    1 <1>  -0.1770 
 11 O       -5.3860    -0.8140     3.4690 O.2   1 <1>  -0.5700 
 12 C       -5.9620    -2.3920     1.8410 C.3   1 <1>  -0.0990 
 13 C       -7.2860    -1.9080     1.2250 C.3   1 <1>  -0.0990 
 14 C       -7.0690    -1.0220     0.0160 C.2   1 <1>   0.6590 
 15 O       -6.5260    -1.4350    -0.9740 O.2   1 <1>  -0.5700 
 16 O       -7.5160     0.2220     0.1160 O.3   1 <1>  -0.4300 
 17 C       -7.4480     1.1530    -0.9600 C.3   1 <1>   0.1200 
 18 C       -8.7470     1.2010    -1.7870 C.3   1 <1>   0.6800 
 19 F       -8.5000     1.8940    -2.8980 F     1 <1>  -0.3400 
 20 F       -9.0450    -0.0180    -2.2370 F     1 <1>  -0.3400 
 21 C       -9.9810     1.8060    -1.0770 C.3   1 <1>   0.6000 
 22 F       -9.7210     3.0280    -0.6100 F     1 <1>  -0.3400 
 23 F      -10.3350     1.1090     0.0030 F     1 <1>  -0.3400 
 24 H       -3.2130     0.6850    -2.6250 H     1 <1>   0.1500 
 25 H       -3.8020     0.2060     2.0960 H     1 <1>   0.3700 
 26 H       -3.1270    -2.9400     0.7220 H     1 <1>   0.1500 
 27 H       -2.3400    -3.3530    -1.5810 H     1 <1>   0.1500 
 28 H       -6.1810    -3.0490     2.6630 H     1 <1>   0.0800 
 29 H       -5.4160    -2.9600     1.1150 H     1 <1>   0.0800 
 30 H       -7.8500    -1.3670     1.9640 H     1 <1>   0.0800 
 31 H       -7.8680    -2.7560     0.9170 H     1 <1>   0.0800 
 32 H       -6.6180     0.9020    -1.5960 H     1 <1>   0.0800 
 33 H       -7.2640     2.1200    -0.5260 H     1 <1>   0.0800 
 34 H      -10.8360     1.8720    -1.7230 H     1 <1>   0.0800 
@<TRIPOS>BOND
  1   1   2  1   
  2   2   3  ar  
  3   2   4  ar  
  4   3   5  1   
  5   3   6  ar  
  6   4   7  ar  
  7   4  24  1   
  8   5   8  am  
  9   5  25  1   
 10   6   9  ar  
 11   6  26  1   
 12   7   9  ar  
 13   7  10  1   
 14   8  11  2   
 15   8  12  1   
 16   9  27  1   
 17  12  13  1   
 18  12  28  1   
 19  12  29  1   
 20  13  14  1   
 21  13  30  1   
 22  13  31  1   
 23  14  15  2   
 24  14  16  1   
 25  16  17  1   
 26  17  18  1   
 27  17  32  1   
 28  17  33  1   
 29  18  19  1   
 30  18  20  1   
 31  18  21  1   
 32  21  22  1   
 33  21  23  1   
 34  21  34  1   
@<TRIPOS>SUBSTRUCTURE
  1 ****  14 GROUP 4 **** **** 0

# MOE 2024.06 (io_trps.svl 2023.06)
