@<TRIPOS>MOLECULE
NONAME
33 33 1 0 0 
SMALL
USER_CHARGES


@<TRIPOS>ATOM
  1 O        0.9660    -0.0640     2.2360 O.2   1 <1>  -0.5700 
  2 C        1.4160     0.5510     1.3020 C.2   1 <1>   0.5690 
  3 N        1.9490    -0.0310     0.1840 N.am  1 <1>  -0.5470 
  4 C        1.3950     2.0670     1.3570 C.3   1 <1>  -0.0990 
  5 C        2.1240    -1.3740    -0.1750 C.ar  1 <1>   0.1170 
  6 C        0.3270     2.6690     0.4280 C.3   1 <1>  -0.1600 
  7 C        1.8520    -2.4560     0.6460 C.ar  1 <1>  -0.1500 
  8 C        2.6070    -1.6910    -1.4330 C.ar  1 <1>  -0.1500 
  9 C        0.3210     4.2010     0.5050 C.3   1 <1>  -0.1600 
 10 C        2.0640    -3.7420     0.1890 C.ar  1 <1>   0.1600 
 11 C        2.7850    -3.0130    -1.7940 C.ar  1 <1>   0.1600 
 12 C       -0.7460     4.7950    -0.4220 C.3   1 <1>  -0.1600 
 13 N        2.5260    -4.0490    -1.0140 N.ar  1 <1>  -0.6200 
 14 C       -0.7530     6.3260    -0.3460 C.3   1 <1>  -0.1600 
 15 C       -1.8190     6.9190    -1.2730 C.3   1 <1>  -0.2400 
 16 H        2.2560     0.6380    -0.5190 H     1 <1>   0.3700 
 17 H        2.3680     2.4380     1.0940 H     1 <1>   0.0800 
 18 H        1.1940     2.3660     2.3710 H     1 <1>   0.0800 
 19 H       -0.6400     2.2920     0.7180 H     1 <1>   0.0800 
 20 H        0.5120     2.3620    -0.5870 H     1 <1>   0.0800 
 21 H        1.4760    -2.3150     1.6410 H     1 <1>   0.1500 
 22 H        2.8450    -0.9160    -2.1350 H     1 <1>   0.1500 
 23 H        1.2890     4.5800     0.2240 H     1 <1>   0.0800 
 24 H        0.1230     4.5080     1.5180 H     1 <1>   0.0800 
 25 H        1.8430    -4.5640     0.8470 H     1 <1>   0.1500 
 26 H        3.1620    -3.2350    -2.7780 H     1 <1>   0.1500 
 27 H       -1.7150     4.4200    -0.1390 H     1 <1>   0.0800 
 28 H       -0.5520     4.4900    -1.4370 H     1 <1>   0.0800 
 29 H        0.2130     6.7090    -0.6300 H     1 <1>   0.0800 
 30 H       -0.9510     6.6380     0.6650 H     1 <1>   0.0800 
 31 H       -1.6280     6.6390    -2.2940 H     1 <1>   0.0800 
 32 H       -1.8100     7.9920    -1.2050 H     1 <1>   0.0800 
 33 H       -2.7970     6.5670    -0.9940 H     1 <1>   0.0800 
@<TRIPOS>BOND
  1   1   2  2   
  2   2   3  am  
  3   2   4  1   
  4   3   5  1   
  5   3  16  1   
  6   4   6  1   
  7   4  17  1   
  8   4  18  1   
  9   5   7  ar  
 10   5   8  ar  
 11   6   9  1   
 12   6  19  1   
 13   6  20  1   
 14   7  10  ar  
 15   7  21  1   
 16   8  11  ar  
 17   8  22  1   
 18   9  12  1   
 19   9  23  1   
 20   9  24  1   
 21  10  13  ar  
 22  10  25  1   
 23  11  13  ar  
 24  11  26  1   
 25  12  14  1   
 26  12  27  1   
 27  12  28  1   
 28  14  15  1   
 29  14  29  1   
 30  14  30  1   
 31  15  31  1   
 32  15  32  1   
 33  15  33  1   
@<TRIPOS>SUBSTRUCTURE
  1 ****   3 GROUP 4 **** **** 0

# MOE 2024.06 (io_trps.svl 2023.06)
