@<TRIPOS>MOLECULE
NONAME
42 44 1 0 0 
SMALL
USER_CHARGES


@<TRIPOS>ATOM
  1 O        0.1220    -1.0820    -1.4180 O.2   1 <1>  -0.5700 
  2 C       -0.3950    -1.5450    -0.4310 C.2   1 <1>   0.5690 
  3 N        0.1220    -2.5020     0.3960 N.am  1 <1>  -0.6600 
  4 C       -1.7380    -1.1370     0.0920 C.3   1 <1>  -0.0190 
  5 C       -0.9120    -2.9880     1.3640 C.3   1 <1>   0.1400 
  6 C        1.4280    -3.1770     0.2340 C.3   1 <1>   0.1400 
  7 C       -2.1680    -2.4720     0.6620 C.3   1 <1>   0.4180 
  8 C       -3.0410    -0.6720    -0.5900 C.3   1 <1>  -0.0190 
  9 C        1.2610    -4.4120    -0.6530 C.3   1 <1>  -0.1600 
 10 O       -3.3550    -2.0640     1.2330 O.3   1 <1>  -0.5600 
 11 C       -2.7120    -3.4170    -0.4000 C.2   1 <1>  -0.2880 
 12 C       -3.4050     0.7630    -0.2790 C.2   1 <1>   0.6590 
 13 C       -4.0360    -1.6660     0.0610 C.3   1 <1>   0.3380 
 14 C        2.5990    -5.1070    -0.9040 C.3   1 <1>   0.1200 
 15 C       -3.8960    -2.9350    -0.7410 C.2   1 <1>  -0.2880 
 16 O       -4.5410     1.1010    -0.0620 O.2   1 <1>  -0.5700 
 17 O       -2.4060     1.6350    -0.2890 O.3   1 <1>  -0.4300 
 18 O        3.1370    -5.4780     0.3230 O.3   1 <1>  -0.5600 
 19 C       -2.6150     3.0050    -0.0440 C.3   1 <1>   0.1200 
 20 C        4.3650    -6.1230     0.2270 C.3   1 <1>   0.0400 
 21 C       -1.2630     3.7070    -0.1140 C.3   1 <1>  -0.2400 
 22 H       -1.5330    -0.4810     0.9210 H     1 <1>   0.0800 
 23 H       -0.7730    -2.5220     2.3230 H     1 <1>   0.0800 
 24 H       -0.9100    -4.0610     1.4400 H     1 <1>   0.0800 
 25 H        1.8130    -3.4550     1.2010 H     1 <1>   0.0800 
 26 H        2.1220    -2.4930    -0.2240 H     1 <1>   0.0800 
 27 H       -2.9990    -0.7970    -1.6570 H     1 <1>   0.0800 
 28 H        0.8490    -4.1110    -1.6000 H     1 <1>   0.0800 
 29 H        0.5890    -5.1130    -0.1940 H     1 <1>   0.0800 
 30 H       -2.1550    -4.2770    -0.7300 H     1 <1>   0.1500 
 31 H       -5.0420    -1.3410     0.2720 H     1 <1>   0.0800 
 32 H        3.2850    -4.4390    -1.3970 H     1 <1>   0.0800 
 33 H        2.4560    -5.9910    -1.5030 H     1 <1>   0.0800 
 34 H       -4.6510    -3.2540    -1.4380 H     1 <1>   0.1500 
 35 H       -3.0590     3.1150     0.9310 H     1 <1>   0.0800 
 36 H       -3.2890     3.3870    -0.7940 H     1 <1>   0.0800 
 37 H        4.6940    -6.3670     1.2210 H     1 <1>   0.0800 
 38 H        5.0780    -5.4650    -0.2400 H     1 <1>   0.0800 
 39 H        4.2480    -7.0260    -0.3480 H     1 <1>   0.0800 
 40 H       -0.6000     3.3090     0.6340 H     1 <1>   0.0800 
 41 H       -1.3900     4.7590     0.0650 H     1 <1>   0.0800 
 42 H       -0.8270     3.5750    -1.0880 H     1 <1>   0.0800 
@<TRIPOS>BOND
  1   1   2  2   
  2   2   3  am  
  3   2   4  1   
  4   3   5  1   
  5   3   6  1   
  6   4   7  1   
  7   4   8  1   
  8   4  22  1   
  9   5   7  1   
 10   5  23  1   
 11   5  24  1   
 12   6   9  1   
 13   6  25  1   
 14   6  26  1   
 15   7  10  1   
 16   7  11  1   
 17   8  12  1   
 18   8  13  1   
 19   8  27  1   
 20   9  14  1   
 21   9  28  1   
 22   9  29  1   
 23  10  13  1   
 24  11  15  2   
 25  11  30  1   
 26  12  16  2   
 27  12  17  1   
 28  13  15  1   
 29  13  31  1   
 30  14  18  1   
 31  14  32  1   
 32  14  33  1   
 33  15  34  1   
 34  17  19  1   
 35  18  20  1   
 36  19  21  1   
 37  19  35  1   
 38  19  36  1   
 39  20  37  1   
 40  20  38  1   
 41  20  39  1   
 42  21  40  1   
 43  21  41  1   
 44  21  42  1   
@<TRIPOS>SUBSTRUCTURE
  1 ****   2 GROUP 4 **** **** 0

# MOE 2024.06 (io_trps.svl 2023.06)
