@<TRIPOS>MOLECULE
NONAME
40 41 1 0 0 
SMALL
USER_CHARGES


@<TRIPOS>ATOM
  1 F       -1.8990     0.1420     1.9300 F     1 <1>  -0.3400 
  2 C       -0.9360     0.9120     1.4360 C.3   1 <1>   1.1640 
  3 F       -0.1870     0.1310     0.6710 F     1 <1>  -0.3400 
  4 F       -0.1830     1.2770     2.4660 F     1 <1>  -0.3400 
  5 C       -1.5200     2.1000     0.6480 C.ar  1 <1>  -0.1440 
  6 C       -2.6060     1.9130    -0.2040 C.ar  1 <1>  -0.1500 
  7 C       -0.9770     3.3750     0.7590 C.ar  1 <1>  -0.1500 
  8 C       -3.1450     2.9710    -0.9230 C.ar  1 <1>  -0.1440 
  9 C       -1.5010     4.4310     0.0360 C.ar  1 <1>  -0.1500 
 10 C       -2.5790     4.2320    -0.8050 C.ar  1 <1>  -0.1500 
 11 C       -4.3420     2.7560    -1.8310 C.3   1 <1>   0.4870 
 12 N       -5.5780     2.6970    -0.9820 N.4   1 <1>  -0.9590 
 13 C       -6.7430     2.1700    -1.7860 C.3   1 <1>   0.3430 
 14 C       -5.7870     4.0360    -0.3400 C.3   1 <1>   0.3430 
 15 C       -7.8090     1.4060    -0.9460 C.3   1 <1>   0.3430 
 16 C       -7.1750     4.2460     0.2700 C.3   1 <1>  -0.1600 
 17 N       -8.5760     2.2100     0.0810 N.4   1 <1>  -0.9590 
 18 C       -7.7580     3.0450     1.0130 C.3   1 <1>   0.3430 
 19 C       -9.4550     1.2910     0.8830 C.3   1 <1>   0.2630 
 20 H       -3.0180     0.9210    -0.3050 H     1 <1>   0.1500 
 21 H       -0.1330     3.5590     1.4050 H     1 <1>   0.1500 
 22 H       -1.0590     5.4100     0.1280 H     1 <1>   0.1500 
 23 H       -2.9550     5.0720    -1.3650 H     1 <1>   0.1500 
 24 H       -4.2080     1.8310    -2.3700 H     1 <1>   0.0800 
 25 H       -4.4100     3.5590    -2.5480 H     1 <1>   0.0800 
 26 H       -5.3270     2.0310    -0.2380 H     1 <1>   0.4500 
 27 H       -6.3680     1.4780    -2.5220 H     1 <1>   0.0800 
 28 H       -7.2150     2.9760    -2.3240 H     1 <1>   0.0800 
 29 H       -5.6180     4.8170    -1.0660 H     1 <1>   0.0800 
 30 H       -5.0450     4.1650     0.4350 H     1 <1>   0.0800 
 31 H       -7.3180     0.5830    -0.4540 H     1 <1>   0.0800 
 32 H       -8.5190     0.9740    -1.6340 H     1 <1>   0.0800 
 33 H       -7.8610     4.6040    -0.4770 H     1 <1>   0.0800 
 34 H       -7.0730     5.0470     0.9820 H     1 <1>   0.0800 
 35 H       -9.2210     2.8500    -0.4120 H     1 <1>   0.4500 
 36 H       -8.4000     3.4150     1.7980 H     1 <1>   0.0800 
 37 H       -6.9790     2.4600     1.4760 H     1 <1>   0.0800 
 38 H       -8.8600     0.5940     1.4510 H     1 <1>   0.0800 
 39 H      -10.1110     0.7330     0.2340 H     1 <1>   0.0800 
 40 H      -10.0640     1.8580     1.5700 H     1 <1>   0.0800 
@<TRIPOS>BOND
  1   1   2  1   
  2   2   3  1   
  3   2   4  1   
  4   2   5  1   
  5   5   6  ar  
  6   5   7  ar  
  7   6   8  ar  
  8   6  20  1   
  9   7   9  ar  
 10   7  21  1   
 11   8  10  ar  
 12   8  11  1   
 13   9  10  ar  
 14   9  22  1   
 15  10  23  1   
 16  11  12  1   
 17  11  24  1   
 18  11  25  1   
 19  12  13  1   
 20  12  14  1   
 21  12  26  1   
 22  13  15  1   
 23  13  27  1   
 24  13  28  1   
 25  14  16  1   
 26  14  29  1   
 27  14  30  1   
 28  15  17  1   
 29  15  31  1   
 30  15  32  1   
 31  16  18  1   
 32  16  33  1   
 33  16  34  1   
 34  17  18  1   
 35  17  19  1   
 36  17  35  1   
 37  18  36  1   
 38  18  37  1   
 39  19  38  1   
 40  19  39  1   
 41  19  40  1   
@<TRIPOS>SUBSTRUCTURE
  1 ****   8 GROUP 4 **** **** 0

# MOE 2024.06 (io_trps.svl 2023.06)
