@<TRIPOS>MOLECULE
NONAME
51 53 1 0 0 
SMALL
USER_CHARGES


@<TRIPOS>ATOM
  1 O        1.3180    -1.5140    -2.0830 O.2   1 <1>  -0.5700 
  2 C        1.7300    -1.4030    -0.9520 C.2   1 <1>   0.5690 
  3 N        2.1850    -0.2050    -0.4740 N.am  1 <1>  -0.6600 
  4 C        1.7190    -2.6650    -0.0840 C.3   1 <1>  -0.0190 
  5 C        2.1560     1.0190    -1.3080 C.3   1 <1>   0.1400 
  6 C        2.7410     0.0910     0.8680 C.3   1 <1>   0.1400 
  7 C        2.6350    -3.7440    -0.6940 C.3   1 <1>  -0.1600 
  8 C        0.2840    -3.2070     0.0670 C.3   1 <1>  -0.1600 
  9 C        2.4500     2.1600    -0.3420 C.3   1 <1>  -0.1600 
 10 C        3.2720     1.5160     0.7700 C.3   1 <1>  -0.1600 
 11 C        2.5450    -5.0720     0.0540 C.3   1 <1>   0.3430 
 12 C        0.2430    -4.5450     0.7990 C.3   1 <1>   0.3430 
 13 N        1.1280    -5.5210     0.0980 N.4   1 <1>  -0.9590 
 14 C        1.0030    -6.8910     0.6670 C.3   1 <1>   0.4860 
 15 C       -0.4240    -7.3650     0.4880 C.ar  1 <1>  -0.1440 
 16 C       -1.2770    -7.4400     1.5800 C.ar  1 <1>  -0.1500 
 17 C       -0.8950    -7.7200    -0.7680 C.ar  1 <1>  -0.1500 
 18 C       -2.5870    -7.8530     1.4130 C.ar  1 <1>  -0.1500 
 19 C       -2.2050    -8.1320    -0.9300 C.ar  1 <1>  -0.1500 
 20 C       -3.0590    -8.1990     0.1580 C.ar  1 <1>  -0.1440 
 21 C       -4.4990    -8.6510    -0.0230 C.3   1 <1>  -0.0170 
 22 C       -5.4050    -7.4560    -0.3240 C.3   1 <1>  -0.2400 
 23 H        2.0870    -2.4310     0.8970 H     1 <1>   0.0800 
 24 H        1.1980     1.1380    -1.7860 H     1 <1>   0.0800 
 25 H        2.9250     0.9500    -2.0590 H     1 <1>   0.0800 
 26 H        3.5290    -0.5960     1.1240 H     1 <1>   0.0800 
 27 H        1.9510     0.0400     1.5970 H     1 <1>   0.0800 
 28 H        3.6530    -3.3960    -0.6770 H     1 <1>   0.0800 
 29 H        2.3740    -3.9050    -1.7270 H     1 <1>   0.0800 
 30 H       -0.1690    -3.3270    -0.9030 H     1 <1>   0.0800 
 31 H       -0.3110    -2.4900     0.6070 H     1 <1>   0.0800 
 32 H        1.5210     2.5300     0.0540 H     1 <1>   0.0800 
 33 H        2.9710     2.9670    -0.8260 H     1 <1>   0.0800 
 34 H        4.3090     1.4860     0.4840 H     1 <1>   0.0800 
 35 H        3.1830     2.0440     1.7030 H     1 <1>   0.0800 
 36 H        2.9220    -4.9480     1.0560 H     1 <1>   0.0800 
 37 H        3.1520    -5.8060    -0.4520 H     1 <1>   0.0800 
 38 H       -0.7730    -4.9080     0.8140 H     1 <1>   0.0800 
 39 H        0.5720    -4.4150     1.8170 H     1 <1>   0.0800 
 40 H        0.7780    -5.5760    -0.8680 H     1 <1>   0.4500 
 41 H        1.2610    -6.8870     1.7130 H     1 <1>   0.0800 
 42 H        1.6660    -7.5680     0.1540 H     1 <1>   0.0800 
 43 H       -0.9390    -7.1830     2.5690 H     1 <1>   0.1500 
 44 H       -0.2550    -7.6860    -1.6340 H     1 <1>   0.1500 
 45 H       -3.2440    -7.9070     2.2650 H     1 <1>   0.1500 
 46 H       -2.5640    -8.4040    -1.9080 H     1 <1>   0.1500 
 47 H       -4.8410    -9.1460     0.8700 H     1 <1>   0.0800 
 48 H       -4.5590    -9.3620    -0.8290 H     1 <1>   0.0800 
 49 H       -5.3690    -6.7480     0.4850 H     1 <1>   0.0800 
 50 H       -6.4210    -7.7840    -0.4510 H     1 <1>   0.0800 
 51 H       -5.0850    -6.9650    -1.2270 H     1 <1>   0.0800 
@<TRIPOS>BOND
  1   1   2  2   
  2   2   3  am  
  3   2   4  1   
  4   3   5  1   
  5   3   6  1   
  6   4   7  1   
  7   4   8  1   
  8   4  23  1   
  9   5   9  1   
 10   5  24  1   
 11   5  25  1   
 12   6  10  1   
 13   6  26  1   
 14   6  27  1   
 15   7  11  1   
 16   7  28  1   
 17   7  29  1   
 18   8  12  1   
 19   8  30  1   
 20   8  31  1   
 21   9  10  1   
 22   9  32  1   
 23   9  33  1   
 24  10  34  1   
 25  10  35  1   
 26  11  13  1   
 27  11  36  1   
 28  11  37  1   
 29  12  13  1   
 30  12  38  1   
 31  12  39  1   
 32  13  14  1   
 33  13  40  1   
 34  14  15  1   
 35  14  41  1   
 36  14  42  1   
 37  15  16  ar  
 38  15  17  ar  
 39  16  18  ar  
 40  16  43  1   
 41  17  19  ar  
 42  17  44  1   
 43  18  20  ar  
 44  18  45  1   
 45  19  20  ar  
 46  19  46  1   
 47  20  21  1   
 48  21  22  1   
 49  21  47  1   
 50  21  48  1   
 51  22  49  1   
 52  22  50  1   
 53  22  51  1   
@<TRIPOS>SUBSTRUCTURE
  1 ****  12 GROUP 4 **** **** 0

# MOE 2024.06 (io_trps.svl 2023.06)
