@<TRIPOS>MOLECULE
NONAME
40 41 1 0 0 
SMALL
USER_CHARGES


@<TRIPOS>ATOM
  1 CL       7.5070     1.1400    -3.7300 Cl    1 <1>  -0.1770 
  2 C        6.6880     1.6420    -2.2740 C.ar  1 <1>   0.1770 
  3 C        6.0680     2.8760    -2.2360 C.ar  1 <1>  -0.1500 
  4 C        6.6790     0.8010    -1.1780 C.ar  1 <1>  -0.1500 
  5 C        5.4340     3.2780    -1.0720 C.ar  1 <1>  -0.1500 
  6 C        6.0480     1.2110    -0.0160 C.ar  1 <1>  -0.1500 
  7 C        5.4250     2.4510     0.0440 C.ar  1 <1>  -0.1430 
  8 C        4.7360     2.8950     1.3270 C.3   1 <1>   0.2140 
  9 S        5.4530     4.4790     1.8650 S.3   1 <1>  -0.4600 
 10 C        6.8290     3.9960     2.9740 C.3   1 <1>   0.1310 
 11 C        7.6790     2.8590     2.4120 C.2   1 <1>   0.5690 
 12 O        7.5300     1.7720     2.9250 O.2   1 <1>  -0.5700 
 13 N        8.5710     3.0570     1.3840 N.am  1 <1>  -0.6600 
 14 C        8.6180     4.2870     0.5420 C.3   1 <1>   0.1400 
 15 C        9.4320     1.9440     0.8950 C.3   1 <1>   0.1400 
 16 C       10.0620     4.7730     0.4030 C.3   1 <1>  -0.1600 
 17 C       10.8800     2.4200     0.7640 C.3   1 <1>  -0.1600 
 18 C       10.9840     3.6640    -0.1360 C.3   1 <1>  -0.0190 
 19 C       12.4300     4.1380    -0.2570 C.2   1 <1>   0.5690 
 20 O       12.9900     4.6440     0.6800 O.2   1 <1>  -0.5700 
 21 N       13.0850     3.9840    -1.4220 N.am  1 <1>  -0.8000 
 22 H        6.0830     3.5110    -3.1030 H     1 <1>   0.1500 
 23 H        7.1630    -0.1580    -1.2320 H     1 <1>   0.1500 
 24 H        4.9500     4.2390    -1.0330 H     1 <1>   0.1500 
 25 H        6.0510     0.5640     0.8460 H     1 <1>   0.1500 
 26 H        4.8670     2.1880     2.1270 H     1 <1>   0.0800 
 27 H        3.6880     3.0650     1.1580 H     1 <1>   0.0800 
 28 H        6.3840     3.6910     3.9030 H     1 <1>   0.0800 
 29 H        7.4300     4.8700     3.1410 H     1 <1>   0.0800 
 30 H        8.0230     5.0750     0.9640 H     1 <1>   0.0800 
 31 H        8.2150     4.0540    -0.4290 H     1 <1>   0.0800 
 32 H        9.0670     1.6160    -0.0620 H     1 <1>   0.0800 
 33 H        9.3920     1.1080     1.5730 H     1 <1>   0.0800 
 34 H       10.4140     5.1030     1.3660 H     1 <1>   0.0800 
 35 H       10.0900     5.6190    -0.2610 H     1 <1>   0.0800 
 36 H       11.4780     1.6250     0.3550 H     1 <1>   0.0800 
 37 H       11.2640     2.6460     1.7440 H     1 <1>   0.0800 
 38 H       10.6380     3.3950    -1.1180 H     1 <1>   0.0800 
 39 H       14.0530     4.3010    -1.4880 H     1 <1>   0.3700 
 40 H       12.6850     3.5600    -2.2580 H     1 <1>   0.3700 
@<TRIPOS>BOND
  1   1   2  1   
  2   2   3  ar  
  3   2   4  ar  
  4   3   5  ar  
  5   3  22  1   
  6   4   6  ar  
  7   4  23  1   
  8   5   7  ar  
  9   5  24  1   
 10   6   7  ar  
 11   6  25  1   
 12   7   8  1   
 13   8   9  1   
 14   8  26  1   
 15   8  27  1   
 16   9  10  1   
 17  10  11  1   
 18  10  28  1   
 19  10  29  1   
 20  11  12  2   
 21  11  13  am  
 22  13  14  1   
 23  13  15  1   
 24  14  16  1   
 25  14  30  1   
 26  14  31  1   
 27  15  17  1   
 28  15  32  1   
 29  15  33  1   
 30  16  18  1   
 31  16  34  1   
 32  16  35  1   
 33  17  18  1   
 34  17  36  1   
 35  17  37  1   
 36  18  19  1   
 37  18  38  1   
 38  19  20  2   
 39  19  21  am  
 40  21  39  1   
 41  21  40  1   
@<TRIPOS>SUBSTRUCTURE
  1 ****  13 GROUP 4 **** **** 0

# MOE 2024.06 (io_trps.svl 2023.06)
