@<TRIPOS>MOLECULE
Structure2429
23 24 1 0 0 
SMALL
USER_CHARGES


@<TRIPOS>ATOM
  1 F       -1.6820    -1.3680     1.5380 F     1 <1>  -0.1900 
  2 C       -0.9660    -2.1440     0.7610 C.ar  1 <1>   0.1900 
  3 C       -1.4840    -2.5250    -0.4710 C.ar  1 <1>   0.0830 
  4 C        0.2670    -2.5800     1.2040 C.ar  1 <1>  -0.1500 
  5 O       -2.6910    -2.0720    -0.8780 O.3   1 <1>  -0.3400 
  6 C       -0.7370    -3.3640    -1.2830 C.ar  1 <1>  -0.1500 
  7 C        1.0030    -3.4240     0.3870 C.ar  1 <1>  -0.1500 
  8 C       -3.7950    -2.9540    -0.7370 C.3   1 <1>   0.2580 
  9 C        0.5020    -3.8120    -0.8490 C.ar  1 <1>  -0.1500 
 10 C       -5.1000    -2.1370    -0.5700 C.3   1 <1>   0.4720 
 11 C       -4.0710    -3.3650     0.7360 C.3   1 <1>   0.4720 
 12 N       -4.7610    -2.0400     0.8950 N.4   1 <1>  -0.8440 
 13 H        0.6450    -2.2680     2.1630 H     1 <1>   0.1500 
 14 H       -1.1080    -3.6590    -2.2490 H     1 <1>   0.1500 
 15 H        1.9690    -3.7770     0.7090 H     1 <1>   0.1500 
 16 H       -3.7970    -3.7330    -1.4770 H     1 <1>   0.0000 
 17 H        1.0870    -4.4640    -1.4770 H     1 <1>   0.1500 
 18 H       -5.9900    -2.7210    -0.7220 H     1 <1>   0.0000 
 19 H       -5.0980    -1.1810    -1.0630 H     1 <1>   0.0000 
 20 H       -3.1980    -3.4600     1.3540 H     1 <1>   0.0000 
 21 H       -4.7710    -4.1770     0.8230 H     1 <1>   0.0000 
 22 H       -5.5610    -2.0390     1.5340 H     1 <1>   0.4500 
 23 H       -4.0720    -1.2960     1.0770 H     1 <1>   0.4500 
@<TRIPOS>BOND
  1   1   2  1   
  2   2   3  ar  
  3   2   4  ar  
  4   3   5  1   
  5   3   6  ar  
  6   4   7  ar  
  7   4  13  1   
  8   5   8  1   
  9   6   9  ar  
 10   6  14  1   
 11   7   9  ar  
 12   7  15  1   
 13   8  10  1   
 14   8  11  1   
 15   8  16  1   
 16   9  17  1   
 17  10  12  1   
 18  10  18  1   
 19  10  19  1   
 20  11  12  1   
 21  11  20  1   
 22  11  21  1   
 23  12  22  1   
 24  12  23  1   
@<TRIPOS>SUBSTRUCTURE
  1 ****   3 GROUP 4 **** **** 0

# MOE 2024.06 (io_trps.svl 2023.06)
