@<TRIPOS>MOLECULE
NONAME
48 49 1 0 0 
SMALL
USER_CHARGES


@<TRIPOS>ATOM
  1 O       -8.3220     1.8780    -0.1440 O.3   1 <1>  -0.3630 
  2 C       -9.5040     1.1990    -0.2110 C.ar  1 <1>   0.0830 
  3 C       -7.0870     1.2070    -0.1580 C.3   1 <1>   0.1200 
  4 C       -9.7050    -0.0490    -0.8270 C.ar  1 <1>   0.0830 
  5 C      -10.5720     1.8410     0.3950 C.ar  1 <1>  -0.1500 
  6 C       -6.0350     2.1750     0.3820 C.3   1 <1>  -0.1600 
  7 O       -8.6710    -0.6750    -1.4640 O.3   1 <1>  -0.3630 
  8 C      -10.9770    -0.6210    -0.7870 C.ar  1 <1>  -0.1500 
  9 C      -11.8290     1.2660     0.4200 C.ar  1 <1>  -0.1500 
 10 C       -4.6280     1.5540     0.3470 C.3   1 <1>  -0.1600 
 11 C       -8.8720    -1.8090    -2.2800 C.3   1 <1>   0.0400 
 12 C      -12.0290     0.0320    -0.1690 C.ar  1 <1>  -0.1500 
 13 C       -3.5390     2.4350     0.9690 C.3   1 <1>   0.3430 
 14 N       -3.4470     3.7300     0.2420 N.4   1 <1>  -0.9590 
 15 C       -2.0310     4.0860    -0.0600 C.3   1 <1>   0.3430 
 16 C       -4.1400     4.8260     0.9820 C.3   1 <1>   0.3430 
 17 C       -1.9940     5.3400    -0.9350 C.3   1 <1>  -0.1600 
 18 C       -4.1490     6.0930     0.1270 C.3   1 <1>  -0.1600 
 19 C       -2.7280     6.5160    -0.2740 C.3   1 <1>  -0.0800 
 20 C       -2.7680     7.7250    -1.2140 C.3   1 <1>  -0.2400 
 21 H       -6.8670     0.9310    -1.1750 H     1 <1>   0.0800 
 22 H       -7.1660     0.3290     0.4600 H     1 <1>   0.0800 
 23 H      -10.4140     2.8000     0.8530 H     1 <1>   0.1500 
 24 H       -6.2970     2.4290     1.3950 H     1 <1>   0.0800 
 25 H       -6.0680     3.0640    -0.2230 H     1 <1>   0.0800 
 26 H      -11.1760    -1.5760    -1.2320 H     1 <1>   0.1500 
 27 H      -12.6470     1.7770     0.8970 H     1 <1>   0.1500 
 28 H       -4.3570     1.3140    -0.6670 H     1 <1>   0.0800 
 29 H       -4.6490     0.6270     0.8950 H     1 <1>   0.0800 
 30 H       -7.9350    -2.0580    -2.7440 H     1 <1>   0.0800 
 31 H       -9.6000    -1.5710    -3.0360 H     1 <1>   0.0800 
 32 H       -9.2030    -2.6270    -1.6670 H     1 <1>   0.0800 
 33 H      -13.0050    -0.4210    -0.1470 H     1 <1>   0.1500 
 34 H       -2.5980     1.9120     0.9080 H     1 <1>   0.0800 
 35 H       -3.7560     2.6070     2.0120 H     1 <1>   0.0800 
 36 H       -3.9320     3.6160    -0.6570 H     1 <1>   0.4500 
 37 H       -1.5470     3.2740    -0.5780 H     1 <1>   0.0800 
 38 H       -1.4970     4.2720     0.8580 H     1 <1>   0.0800 
 39 H       -3.6270     5.0220     1.9100 H     1 <1>   0.0800 
 40 H       -5.1550     4.5410     1.2090 H     1 <1>   0.0800 
 41 H       -2.4320     5.1170    -1.8920 H     1 <1>   0.0800 
 42 H       -0.9670     5.6120    -1.1070 H     1 <1>   0.0800 
 43 H       -4.6130     6.8870     0.6870 H     1 <1>   0.0800 
 44 H       -4.7510     5.9250    -0.7500 H     1 <1>   0.0800 
 45 H       -2.1900     6.8010     0.6170 H     1 <1>   0.0800 
 46 H       -3.2970     7.4920    -2.1220 H     1 <1>   0.0800 
 47 H       -1.7700     8.0350    -1.4700 H     1 <1>   0.0800 
 48 H       -3.2610     8.5550    -0.7370 H     1 <1>   0.0800 
@<TRIPOS>BOND
  1   1   2  1   
  2   1   3  1   
  3   2   4  ar  
  4   2   5  ar  
  5   3   6  1   
  6   3  21  1   
  7   3  22  1   
  8   4   7  1   
  9   4   8  ar  
 10   5   9  ar  
 11   5  23  1   
 12   6  10  1   
 13   6  24  1   
 14   6  25  1   
 15   7  11  1   
 16   8  12  ar  
 17   8  26  1   
 18   9  12  ar  
 19   9  27  1   
 20  10  13  1   
 21  10  28  1   
 22  10  29  1   
 23  11  30  1   
 24  11  31  1   
 25  11  32  1   
 26  12  33  1   
 27  13  14  1   
 28  13  34  1   
 29  13  35  1   
 30  14  15  1   
 31  14  16  1   
 32  14  36  1   
 33  15  17  1   
 34  15  37  1   
 35  15  38  1   
 36  16  18  1   
 37  16  39  1   
 38  16  40  1   
 39  17  19  1   
 40  17  41  1   
 41  17  42  1   
 42  18  19  1   
 43  18  43  1   
 44  18  44  1   
 45  19  20  1   
 46  19  45  1   
 47  20  46  1   
 48  20  47  1   
 49  20  48  1   
@<TRIPOS>SUBSTRUCTURE
  1 ****   6 GROUP 4 **** **** 0

# MOE 2024.06 (io_trps.svl 2023.06)
