@<TRIPOS>MOLECULE
NONAME
44 45 1 0 0 
SMALL
USER_CHARGES


@<TRIPOS>ATOM
  1 CL       0.3390    -0.6560     0.0530 Cl    1 <1>  -0.1770 
  2 C        2.0520    -0.3220    -0.0070 C.ar  1 <1>   0.1770 
  3 C        2.9370    -1.3560    -0.2480 C.ar  1 <1>  -0.1500 
  4 C        2.4970     0.9740     0.1860 C.ar  1 <1>  -0.1500 
  5 C        4.2940    -1.0850    -0.2950 C.ar  1 <1>  -0.1500 
  6 C        3.8550     1.2420     0.1380 C.ar  1 <1>  -0.1500 
  7 C        4.7600     0.2080    -0.1030 C.ar  1 <1>   0.0830 
  8 O        6.1040     0.3830    -0.1650 O.3   1 <1>  -0.3630 
  9 C        6.6900     1.6470     0.0150 C.3   1 <1>   0.1200 
 10 C        8.2020     1.4640    -0.1160 C.3   1 <1>  -0.1600 
 11 C        8.9280     2.7940     0.0760 C.3   1 <1>   0.3430 
 12 N       10.3880     2.6220    -0.1560 N.4   1 <1>  -0.9590 
 13 C       11.0720     1.8550     0.9250 C.3   1 <1>   0.3430 
 14 C       11.0600     3.9460    -0.3870 C.3   1 <1>   0.3430 
 15 C       12.4670     1.4160     0.4410 C.3   1 <1>  -0.0800 
 16 C       12.6020     3.8620    -0.3110 C.3   1 <1>  -0.0800 
 17 C       13.1110     2.4260    -0.5350 C.3   1 <1>  -0.1600 
 18 C       12.4110     0.0220    -0.2030 C.3   1 <1>  -0.2400 
 19 C       13.1320     4.4430     1.0120 C.3   1 <1>  -0.2400 
 20 H        2.5660    -2.3550    -0.3950 H     1 <1>   0.1500 
 21 H        1.7840     1.7570     0.3710 H     1 <1>   0.1500 
 22 H        4.9970    -1.8770    -0.4810 H     1 <1>   0.1500 
 23 H        4.1800     2.2530     0.2910 H     1 <1>   0.1500 
 24 H        6.4230     2.0040     0.9960 H     1 <1>   0.0800 
 25 H        6.3070     2.3070    -0.7450 H     1 <1>   0.0800 
 26 H        8.4120     1.0750    -1.0960 H     1 <1>   0.0800 
 27 H        8.5170     0.7550     0.6280 H     1 <1>   0.0800 
 28 H        8.7540     3.1730     1.0710 H     1 <1>   0.0800 
 29 H        8.5350     3.5080    -0.6310 H     1 <1>   0.0800 
 30 H       10.5190     2.0690    -1.0130 H     1 <1>   0.4500 
 31 H       10.5030     0.9830     1.2000 H     1 <1>   0.0800 
 32 H       11.1720     2.4790     1.7980 H     1 <1>   0.0800 
 33 H       10.7180     4.6620     0.3420 H     1 <1>   0.0800 
 34 H       10.7800     4.3140    -1.3610 H     1 <1>   0.0800 
 35 H       13.0930     1.3410     1.3160 H     1 <1>   0.0800 
 36 H       12.9970     4.4840    -1.0980 H     1 <1>   0.0800 
 37 H       12.8800     2.1480    -1.5500 H     1 <1>   0.0800 
 38 H       14.1840     2.3900    -0.4410 H     1 <1>   0.0800 
 39 H       11.7790     0.0160    -1.0740 H     1 <1>   0.0800 
 40 H       12.0350    -0.7030     0.4980 H     1 <1>   0.0800 
 41 H       13.3990    -0.2880    -0.5000 H     1 <1>   0.0800 
 42 H       12.7770     3.8980     1.8680 H     1 <1>   0.0800 
 43 H       12.8310     5.4710     1.1170 H     1 <1>   0.0800 
 44 H       14.2080     4.4160     1.0210 H     1 <1>   0.0800 
@<TRIPOS>BOND
  1   1   2  1   
  2   2   3  ar  
  3   2   4  ar  
  4   3   5  ar  
  5   3  20  1   
  6   4   6  ar  
  7   4  21  1   
  8   5   7  ar  
  9   5  22  1   
 10   6   7  ar  
 11   6  23  1   
 12   7   8  1   
 13   8   9  1   
 14   9  10  1   
 15   9  24  1   
 16   9  25  1   
 17  10  11  1   
 18  10  26  1   
 19  10  27  1   
 20  11  12  1   
 21  11  28  1   
 22  11  29  1   
 23  12  13  1   
 24  12  14  1   
 25  12  30  1   
 26  13  15  1   
 27  13  31  1   
 28  13  32  1   
 29  14  16  1   
 30  14  33  1   
 31  14  34  1   
 32  15  17  1   
 33  15  18  1   
 34  15  35  1   
 35  16  17  1   
 36  16  19  1   
 37  16  36  1   
 38  17  37  1   
 39  17  38  1   
 40  18  39  1   
 41  18  40  1   
 42  18  41  1   
 43  19  42  1   
 44  19  43  1   
 45  19  44  1   
@<TRIPOS>SUBSTRUCTURE
  1 ****  10 GROUP 4 **** **** 0

# MOE 2024.06 (io_trps.svl 2023.06)
