@<TRIPOS>MOLECULE
NONAME
49 50 1 0 0 
SMALL
USER_CHARGES


@<TRIPOS>ATOM
  1 S        0.9880     2.0280     1.4590 S.o2  1 <1>   1.3330 
  2 O       -0.3980     2.4230     1.4940 O.2   1 <1>  -0.6500 
  3 O        1.4790     1.0140     2.3610 O.2   1 <1>  -0.6500 
  4 N        1.2740     1.4420    -0.1420 N.am  1 <1>  -0.6930 
  5 C        2.0360     3.4610     1.5930 C.3   1 <1>  -0.1350 
  6 C        1.1150     2.2840    -1.2390 C.ar  1 <1>   0.1990 
  7 C        0.9690     0.0040    -0.3190 C.3   1 <1>   0.3390 
  8 C        2.1910     2.9890    -1.8150 C.ar  1 <1>   0.0860 
  9 C       -0.1640     2.4410    -1.7700 C.ar  1 <1>  -0.1500 
 10 C        2.2440    -0.7230    -0.7010 C.ar  1 <1>  -0.1440 
 11 C        3.5450     2.9410    -1.3040 C.2   1 <1>   0.5440 
 12 C        1.9240     3.7990    -2.9210 C.ar  1 <1>  -0.1500 
 13 C       -0.3980     3.2460    -2.8640 C.ar  1 <1>  -0.1500 
 14 C        2.6010    -0.8650    -2.0340 C.ar  1 <1>  -0.1500 
 15 C        3.0730    -1.2350     0.2850 C.ar  1 <1>  -0.1500 
 16 O        4.1980     3.9640    -1.2270 O.2   1 <1>  -0.5700 
 17 N        4.1280     1.7750    -0.8970 N.am  1 <1>  -0.7300 
 18 C        0.6540     3.9270    -3.4470 C.ar  1 <1>  -0.1500 
 19 C        3.7770    -1.5100    -2.3760 C.ar  1 <1>  -0.1500 
 20 C        4.2480    -1.8810    -0.0560 C.ar  1 <1>  -0.1500 
 21 C        5.5200     1.5970    -0.4440 C.3   1 <1>   0.1400 
 22 C        4.6010    -2.0190    -1.3870 C.ar  1 <1>  -0.1500 
 23 C        5.5420     1.4690     1.0790 C.3   1 <1>  -0.1600 
 24 C        6.9430     1.1090     1.5870 C.3   1 <1>  -0.1600 
 25 C        6.9570     0.9810     3.1130 C.3   1 <1>  -0.2400 
 26 H        1.9380     3.8970     2.5670 H     1 <1>   0.0800 
 27 H        1.7640     4.1960     0.8610 H     1 <1>   0.0800 
 28 H        3.0610     3.1880     1.4430 H     1 <1>   0.0800 
 29 H        0.2340    -0.1270    -1.0930 H     1 <1>   0.0800 
 30 H        0.5620    -0.4180     0.5850 H     1 <1>   0.0800 
 31 H       -0.9910     1.9300    -1.3070 H     1 <1>   0.1500 
 32 H        2.7380     4.3440    -3.3700 H     1 <1>   0.1500 
 33 H       -1.3940     3.3500    -3.2610 H     1 <1>   0.1500 
 34 H        1.9700    -0.4700    -2.8120 H     1 <1>   0.1500 
 35 H        2.8090    -1.1250     1.3250 H     1 <1>   0.1500 
 36 H        3.5550     0.9200    -0.8710 H     1 <1>   0.3700 
 37 H        0.4810     4.5590    -4.3020 H     1 <1>   0.1500 
 38 H        4.0520    -1.6170    -3.4110 H     1 <1>   0.1500 
 39 H        4.8870    -2.2750     0.7150 H     1 <1>   0.1500 
 40 H        6.1200     2.4370    -0.7530 H     1 <1>   0.0800 
 41 H        5.9200     0.7060    -0.8980 H     1 <1>   0.0800 
 42 H        5.5150    -2.5210    -1.6530 H     1 <1>   0.1500 
 43 H        4.8470     0.7070     1.3860 H     1 <1>   0.0800 
 44 H        5.2390     2.4060     1.5100 H     1 <1>   0.0800 
 45 H        7.6430     1.8720     1.2880 H     1 <1>   0.0800 
 46 H        7.2580     0.1760     1.1510 H     1 <1>   0.0800 
 47 H        6.6670     1.9100     3.5700 H     1 <1>   0.0800 
 48 H        7.9450     0.7260     3.4520 H     1 <1>   0.0800 
 49 H        6.2760     0.2110     3.4320 H     1 <1>   0.0800 
@<TRIPOS>BOND
  1   1   2  2   
  2   1   3  2   
  3   1   4  am  
  4   1   5  1   
  5   4   6  1   
  6   4   7  1   
  7   5  26  1   
  8   5  27  1   
  9   5  28  1   
 10   6   8  ar  
 11   6   9  ar  
 12   7  10  1   
 13   7  29  1   
 14   7  30  1   
 15   8  11  1   
 16   8  12  ar  
 17   9  13  ar  
 18   9  31  1   
 19  10  14  ar  
 20  10  15  ar  
 21  11  16  2   
 22  11  17  am  
 23  12  18  ar  
 24  12  32  1   
 25  13  18  ar  
 26  13  33  1   
 27  14  19  ar  
 28  14  34  1   
 29  15  20  ar  
 30  15  35  1   
 31  17  21  1   
 32  17  36  1   
 33  18  37  1   
 34  19  22  ar  
 35  19  38  1   
 36  20  22  ar  
 37  20  39  1   
 38  21  23  1   
 39  21  40  1   
 40  21  41  1   
 41  22  42  1   
 42  23  24  1   
 43  23  43  1   
 44  23  44  1   
 45  24  25  1   
 46  24  45  1   
 47  24  46  1   
 48  25  47  1   
 49  25  48  1   
 50  25  49  1   
@<TRIPOS>SUBSTRUCTURE
  1 ****  17 GROUP 4 **** **** 0

# MOE 2024.06 (io_trps.svl 2023.06)
