@<TRIPOS>MOLECULE
NONAME
53 54 1 0 0 
SMALL
USER_CHARGES


@<TRIPOS>ATOM
  1 S       -2.6310    -1.5000     1.3330 S.o2  1 <1>   1.3330 
  2 O       -1.8080    -0.4120     1.8000 O.2   1 <1>  -0.6500 
  3 O       -4.0150    -1.5740     1.7360 O.2   1 <1>  -0.6500 
  4 N       -1.8690    -2.9900     1.7870 N.am  1 <1>  -0.6930 
  5 C       -2.5450    -1.5620    -0.4450 C.3   1 <1>  -0.1350 
  6 C       -0.5080    -3.1720     1.5550 C.ar  1 <1>   0.1990 
  7 C       -2.6870    -4.2050     2.1120 C.3   1 <1>   0.3370 
  8 C       -0.0600    -4.0910     0.6110 C.ar  1 <1>  -0.1500 
  9 C        0.4360    -2.4390     2.2590 C.ar  1 <1>  -0.1500 
 10 C       -3.5920    -4.7090     0.9660 C.2   1 <1>   0.5690 
 11 C       -3.4030    -4.0420     3.4610 C.3   1 <1>  -0.2400 
 12 C        1.2910    -4.2820     0.3720 C.ar  1 <1>  -0.1440 
 13 C        1.7860    -2.6190     2.0280 C.ar  1 <1>  -0.1500 
 14 O       -3.2470    -5.7100     0.3810 O.2   1 <1>  -0.5700 
 15 N       -4.7260    -4.0220     0.6220 N.am  1 <1>  -0.5470 
 16 C        2.2250    -3.5380     1.0860 C.ar  1 <1>  -0.1430 
 17 C        1.7180    -5.3040    -0.6720 C.3   1 <1>  -0.0970 
 18 C       -5.6360    -4.2450    -0.4290 C.ar  1 <1>   0.1170 
 19 C        3.7200    -3.7090     0.8600 C.3   1 <1>  -0.0970 
 20 C       -6.2200    -3.1530    -1.0800 C.ar  1 <1>   0.0830 
 21 C       -5.9900    -5.5290    -0.8270 C.ar  1 <1>  -0.1500 
 22 O       -5.8480    -1.9050    -0.6750 O.3   1 <1>  -0.3630 
 23 C       -7.1360    -3.3600    -2.1060 C.ar  1 <1>  -0.1500 
 24 C       -6.9020    -5.7300    -1.8480 C.ar  1 <1>  -0.1500 
 25 C       -6.6800    -0.7930    -0.9110 C.3   1 <1>   0.1200 
 26 C       -7.4760    -4.6460    -2.4870 C.ar  1 <1>  -0.1500 
 27 C       -6.1240     0.3880    -0.1210 C.3   1 <1>  -0.2400 
 28 H       -3.0060    -0.6900    -0.8640 H     1 <1>   0.0800 
 29 H       -3.0520    -2.4280    -0.8210 H     1 <1>   0.0800 
 30 H       -1.5220    -1.5950    -0.7640 H     1 <1>   0.0800 
 31 H       -1.9840    -5.0050     2.2740 H     1 <1>   0.0800 
 32 H       -0.7820    -4.6610     0.0560 H     1 <1>   0.1500 
 33 H        0.1070    -1.7230     2.9910 H     1 <1>   0.1500 
 34 H       -4.2230    -3.3530     3.4040 H     1 <1>   0.0800 
 35 H       -2.7060    -3.7050     4.2070 H     1 <1>   0.0800 
 36 H       -3.7960    -4.9930     3.7700 H     1 <1>   0.0800 
 37 H        2.4940    -2.0350     2.5880 H     1 <1>   0.1500 
 38 H       -4.8450    -3.1000     1.0720 H     1 <1>   0.3700 
 39 H        0.8650    -5.7910    -1.1080 H     1 <1>   0.0800 
 40 H        2.3380    -6.0570    -0.2180 H     1 <1>   0.0800 
 41 H        2.2700    -4.8210    -1.4570 H     1 <1>   0.0800 
 42 H        4.0140    -4.7180     1.0830 H     1 <1>   0.0800 
 43 H        4.2840    -3.0460     1.4920 H     1 <1>   0.0800 
 44 H        3.9650    -3.4880    -0.1630 H     1 <1>   0.0800 
 45 H       -5.5520    -6.3790    -0.3360 H     1 <1>   0.1500 
 46 H       -7.5890    -2.5360    -2.6240 H     1 <1>   0.1500 
 47 H       -7.1630    -6.7320    -2.1440 H     1 <1>   0.1500 
 48 H       -7.6760    -1.0350    -0.5810 H     1 <1>   0.0800 
 49 H       -6.6770    -0.5790    -1.9650 H     1 <1>   0.0800 
 50 H       -8.1840    -4.8050    -3.2820 H     1 <1>   0.1500 
 51 H       -6.1020     0.1520     0.9290 H     1 <1>   0.0800 
 52 H       -6.7490     1.2500    -0.2650 H     1 <1>   0.0800 
 53 H       -5.1300     0.6250    -0.4540 H     1 <1>   0.0800 
@<TRIPOS>BOND
  1   1   2  2   
  2   1   3  2   
  3   1   4  am  
  4   1   5  1   
  5   4   6  1   
  6   4   7  1   
  7   5  28  1   
  8   5  29  1   
  9   5  30  1   
 10   6   8  ar  
 11   6   9  ar  
 12   7  10  1   
 13   7  11  1   
 14   7  31  1   
 15   8  12  ar  
 16   8  32  1   
 17   9  13  ar  
 18   9  33  1   
 19  10  14  2   
 20  10  15  am  
 21  11  34  1   
 22  11  35  1   
 23  11  36  1   
 24  12  16  ar  
 25  12  17  1   
 26  13  16  ar  
 27  13  37  1   
 28  15  18  1   
 29  15  38  1   
 30  16  19  1   
 31  17  39  1   
 32  17  40  1   
 33  17  41  1   
 34  18  20  ar  
 35  18  21  ar  
 36  19  42  1   
 37  19  43  1   
 38  19  44  1   
 39  20  22  1   
 40  20  23  ar  
 41  21  24  ar  
 42  21  45  1   
 43  22  25  1   
 44  23  26  ar  
 45  23  46  1   
 46  24  26  ar  
 47  24  47  1   
 48  25  27  1   
 49  25  48  1   
 50  25  49  1   
 51  26  50  1   
 52  27  51  1   
 53  27  52  1   
 54  27  53  1   
@<TRIPOS>SUBSTRUCTURE
  1 ****  10 GROUP 4 **** **** 0

# MOE 2024.06 (io_trps.svl 2023.06)
