@<TRIPOS>MOLECULE
NONAME
56 59 1 0 0 
SMALL
USER_CHARGES


@<TRIPOS>ATOM
  1 S       -0.3460    -0.1430     0.1180 S.3   1 <1>  -0.0800 
  2 C       -1.6520     1.0570     0.1160 C.2   1 <1>   0.3250 
  3 C        0.8460     1.1310     0.1670 C.ar  1 <1>   0.0400 
  4 N       -1.2140     2.2660     0.1490 N.2   1 <1>  -0.5650 
  5 C       -3.0270     0.6040     0.0810 C.ar  1 <1>   0.0530 
  6 C        0.1710     2.3340     0.1780 C.ar  1 <1>   0.2270 
  7 C        2.2240     1.0240     0.1930 C.ar  1 <1>  -0.1500 
  8 C       -3.4000    -0.7400    -0.0190 C.ar  1 <1>  -0.1500 
  9 C       -4.0680     1.5320     0.1460 C.ar  1 <1>  -0.1500 
 10 C        0.9220     3.5000     0.2160 C.ar  1 <1>  -0.1500 
 11 C        2.9620     2.1960     0.2310 C.ar  1 <1>  -0.1430 
 12 C       -4.7260    -1.1250    -0.0480 C.ar  1 <1>  -0.1500 
 13 C       -5.3950     1.1500     0.1170 C.ar  1 <1>  -0.1500 
 14 C        2.3060     3.4270     0.2430 C.ar  1 <1>  -0.1500 
 15 C        4.4790     2.1570     0.2610 C.3   1 <1>  -0.0970 
 16 C       -5.7530    -0.1910     0.0210 C.ar  1 <1>   0.1170 
 17 N       -7.0770    -0.6460    -0.0240 N.am  1 <1>  -0.5470 
 18 C       -8.2590    -0.0310     0.3080 C.2   1 <1>   0.5690 
 19 O       -8.3180     1.0870     0.7620 O.2   1 <1>  -0.5700 
 20 C       -9.5610    -0.8260     0.0850 C.3   1 <1>   0.1710 
 21 N      -10.7890    -0.0080    -0.1390 N.3   1 <1>  -0.8100 
 22 C      -10.7010     0.8780    -1.3280 C.3   1 <1>   0.1100 
 23 C      -12.0420    -0.7930    -0.1510 C.3   1 <1>   0.1100 
 24 C      -11.9500     1.7820    -1.4680 C.3   1 <1>   0.3430 
 25 C      -13.2870     0.1280    -0.2260 C.3   1 <1>   0.3430 
 26 N      -12.8850     1.5750    -0.3140 N.4   1 <1>  -0.9590 
 27 C      -14.0170     2.5510    -0.3040 C.3   1 <1>   0.3430 
 28 C      -14.7480     2.5870     1.0450 C.3   1 <1>   0.1200 
 29 O      -15.7790     3.5030     0.9420 O.3   1 <1>  -0.6800 
 30 H        2.6920     0.0560     0.1830 H     1 <1>   0.1500 
 31 H       -2.6480    -1.5060    -0.0760 H     1 <1>   0.1500 
 32 H       -3.8280     2.5790     0.2230 H     1 <1>   0.1500 
 33 H        0.4120     4.4460     0.2250 H     1 <1>   0.1500 
 34 H       -4.9640    -2.1710    -0.1220 H     1 <1>   0.1500 
 35 H       -6.1510     1.9110     0.1670 H     1 <1>   0.1500 
 36 H        2.8810     4.3360     0.2730 H     1 <1>   0.1500 
 37 H        4.8380     1.1430     0.2480 H     1 <1>   0.0800 
 38 H        4.8410     2.6360     1.1530 H     1 <1>   0.0800 
 39 H        4.8760     2.6710    -0.5960 H     1 <1>   0.0800 
 40 H       -7.1610    -1.6180    -0.3140 H     1 <1>   0.3700 
 41 H       -9.7100    -1.4320     0.9610 H     1 <1>   0.0800 
 42 H       -9.4230    -1.4860    -0.7530 H     1 <1>   0.0800 
 43 H      -10.5830     0.2890    -2.2220 H     1 <1>   0.0800 
 44 H       -9.8360     1.5140    -1.2450 H     1 <1>   0.0800 
 45 H      -12.1040    -1.3850     0.7470 H     1 <1>   0.0800 
 46 H      -12.0450    -1.4700    -0.9890 H     1 <1>   0.0800 
 47 H      -12.4510     1.5590    -2.3960 H     1 <1>   0.0800 
 48 H      -11.6310     2.8110    -1.5050 H     1 <1>   0.0800 
 49 H      -13.8900    -0.0330     0.6520 H     1 <1>   0.0800 
 50 H      -13.8800    -0.1430    -1.0840 H     1 <1>   0.0800 
 51 H      -12.2680     1.7170     0.5040 H     1 <1>   0.4500 
 52 H      -14.7230     2.2960    -1.0780 H     1 <1>   0.0800 
 53 H      -13.6380     3.5400    -0.5030 H     1 <1>   0.0800 
 54 H      -14.0880     2.9140     1.8310 H     1 <1>   0.0800 
 55 H      -15.1780     1.6310     1.2870 H     1 <1>   0.0800 
 56 H      -16.2630     3.6030     1.7900 H     1 <1>   0.4000 
@<TRIPOS>BOND
  1   1   2  1   
  2   1   3  1   
  3   2   4  2   
  4   2   5  1   
  5   3   6  ar  
  6   3   7  ar  
  7   4   6  1   
  8   5   8  ar  
  9   5   9  ar  
 10   6  10  ar  
 11   7  11  ar  
 12   7  30  1   
 13   8  12  ar  
 14   8  31  1   
 15   9  13  ar  
 16   9  32  1   
 17  10  14  ar  
 18  10  33  1   
 19  11  14  ar  
 20  11  15  1   
 21  12  16  ar  
 22  12  34  1   
 23  13  16  ar  
 24  13  35  1   
 25  14  36  1   
 26  15  37  1   
 27  15  38  1   
 28  15  39  1   
 29  16  17  1   
 30  17  18  am  
 31  17  40  1   
 32  18  19  2   
 33  18  20  1   
 34  20  21  1   
 35  20  41  1   
 36  20  42  1   
 37  21  22  1   
 38  21  23  1   
 39  22  24  1   
 40  22  43  1   
 41  22  44  1   
 42  23  25  1   
 43  23  45  1   
 44  23  46  1   
 45  24  26  1   
 46  24  47  1   
 47  24  48  1   
 48  25  26  1   
 49  25  49  1   
 50  25  50  1   
 51  26  27  1   
 52  26  51  1   
 53  27  28  1   
 54  27  52  1   
 55  27  53  1   
 56  28  29  1   
 57  28  54  1   
 58  28  55  1   
 59  29  56  1   
@<TRIPOS>SUBSTRUCTURE
  1 ****  13 GROUP 4 **** **** 0

# MOE 2024.06 (io_trps.svl 2023.06)
