@<TRIPOS>MOLECULE
NONAME
41 41 1 0 0 
SMALL
USER_CHARGES


@<TRIPOS>ATOM
  1 O        1.4120    -1.3240    -2.1160 O.2   1 <1>  -0.5700 
  2 C        1.5200    -1.6120    -0.9620 C.2   1 <1>   0.4480 
  3 C        0.3060    -1.7420    -0.0420 C.3   1 <1>   0.0420 
  4 C        2.9030    -1.7870    -0.3630 C.3   1 <1>  -0.1790 
  5 C        0.4950    -2.9180     0.9060 C.2   1 <1>   0.4480 
  6 C       -1.0210    -1.8570    -0.8310 C.3   1 <1>  -0.1600 
  7 O        0.7150    -4.0230     0.5150 O.2   1 <1>  -0.5700 
  8 C        0.4000    -2.6360     2.3910 C.3   1 <1>  -0.1790 
  9 C       -2.2680    -1.9350     0.0650 C.3   1 <1>  -0.1600 
 10 C       -3.5450    -1.9610    -0.7850 C.3   1 <1>  -0.1600 
 11 C       -4.7970    -2.0650     0.0870 C.3   1 <1>   0.1200 
 12 O       -5.9210    -2.0630    -0.7610 O.3   1 <1>  -0.3630 
 13 C       -7.1870    -2.1490    -0.2730 C.ar  1 <1>   0.0820 
 14 C       -8.2330    -2.1410    -1.1920 C.ar  1 <1>  -0.1440 
 15 C       -7.4680    -2.2440     1.0890 C.ar  1 <1>  -0.1500 
 16 C       -9.5420    -2.2260    -0.7430 C.ar  1 <1>  -0.1500 
 17 C       -7.9510    -2.0380    -2.6840 C.3   1 <1>  -0.0970 
 18 C       -8.7780    -2.3290     1.5260 C.ar  1 <1>  -0.1500 
 19 C       -9.8150    -2.3200     0.6110 C.ar  1 <1>  -0.1500 
 20 H        0.2660    -0.8390     0.5380 H     1 <1>   0.0800 
 21 H        3.0020    -1.2030     0.5330 H     1 <1>   0.0800 
 22 H        3.6430    -1.4600    -1.0710 H     1 <1>   0.0800 
 23 H        3.0820    -2.8230    -0.1430 H     1 <1>   0.0800 
 24 H       -0.9770    -2.7340    -1.4560 H     1 <1>   0.0800 
 25 H       -1.1110    -1.0040    -1.4820 H     1 <1>   0.0800 
 26 H       -0.5600    -2.2180     2.6290 H     1 <1>   0.0800 
 27 H        1.1720    -1.9510     2.6880 H     1 <1>   0.0800 
 28 H        0.5220    -3.5520     2.9410 H     1 <1>   0.0800 
 29 H       -2.2970    -1.0830     0.7230 H     1 <1>   0.0800 
 30 H       -2.2320    -2.8300     0.6640 H     1 <1>   0.0800 
 31 H       -3.5160    -2.8070    -1.4510 H     1 <1>   0.0800 
 32 H       -3.6050    -1.0620    -1.3740 H     1 <1>   0.0800 
 33 H       -4.8720    -1.2200     0.7500 H     1 <1>   0.0800 
 34 H       -4.7960    -2.9840     0.6470 H     1 <1>   0.0800 
 35 H       -6.6860    -2.2540     1.8220 H     1 <1>   0.1500 
 36 H      -10.3570    -2.2200    -1.4440 H     1 <1>   0.1500 
 37 H       -7.3370    -2.8650    -2.9940 H     1 <1>   0.0800 
 38 H       -7.4270    -1.1230    -2.8910 H     1 <1>   0.0800 
 39 H       -8.8610    -2.0520    -3.2550 H     1 <1>   0.0800 
 40 H       -8.9920    -2.4020     2.5780 H     1 <1>   0.1500 
 41 H      -10.8340    -2.3860     0.9500 H     1 <1>   0.1500 
@<TRIPOS>BOND
  1   1   2  2   
  2   2   3  1   
  3   2   4  1   
  4   3   5  1   
  5   3   6  1   
  6   3  20  1   
  7   4  21  1   
  8   4  22  1   
  9   4  23  1   
 10   5   7  2   
 11   5   8  1   
 12   6   9  1   
 13   6  24  1   
 14   6  25  1   
 15   8  26  1   
 16   8  27  1   
 17   8  28  1   
 18   9  10  1   
 19   9  29  1   
 20   9  30  1   
 21  10  11  1   
 22  10  31  1   
 23  10  32  1   
 24  11  12  1   
 25  11  33  1   
 26  11  34  1   
 27  12  13  1   
 28  13  14  ar  
 29  13  15  ar  
 30  14  16  ar  
 31  14  17  1   
 32  15  18  ar  
 33  15  35  1   
 34  16  19  ar  
 35  16  36  1   
 36  17  37  1   
 37  17  38  1   
 38  17  39  1   
 39  18  19  ar  
 40  18  40  1   
 41  19  41  1   
@<TRIPOS>SUBSTRUCTURE
  1 ****  10 GROUP 4 **** **** 0

# MOE 2024.06 (io_trps.svl 2023.06)
