@<TRIPOS>MOLECULE
NONAME
38 38 1 0 0 
SMALL
USER_CHARGES


@<TRIPOS>ATOM
  1 O        3.8210    -5.0680     0.0000 O.3   1 <1>  -0.3620 
  2 C        2.4630    -5.0450    -0.0020 C.ar  1 <1>   0.0830 
  3 C        4.5720    -3.8810     0.0030 C.3   1 <1>   0.1200 
  4 C        1.7040    -3.8760    -0.0030 C.ar  1 <1>  -0.1500 
  5 C        1.8210    -6.2730    -0.0030 C.ar  1 <1>  -0.1500 
  6 C        6.0480    -4.2850     0.0060 C.3   1 <1>   0.3430 
  7 C        0.3210    -3.9450    -0.0060 C.ar  1 <1>  -0.1500 
  8 C        0.4400    -6.3410    -0.0050 C.ar  1 <1>  -0.1500 
  9 N        6.9540    -3.0960     0.0100 N.4   1 <1>  -0.9060 
 10 C       -0.3190    -5.1820    -0.0070 C.ar  1 <1>   0.0830 
 11 C        8.3810    -3.4880     0.0130 C.3   1 <1>   0.3430 
 12 O       -1.6680    -5.3390    -0.0090 O.3   1 <1>  -0.3630 
 13 C        9.2190    -2.2190     0.0170 C.3   1 <1>  -0.2400 
 14 C       -2.5340    -4.2270    -0.0100 C.3   1 <1>   0.1200 
 15 C       -3.9730    -4.7420    -0.0120 C.3   1 <1>  -0.1600 
 16 C       -4.9810    -3.5870    -0.0140 C.3   1 <1>  -0.2400 
 17 H        4.3180    -3.3290     0.8910 H     1 <1>   0.0800 
 18 H        4.3220    -3.3270    -0.8850 H     1 <1>   0.0800 
 19 H        2.1610    -2.9060    -0.0030 H     1 <1>   0.1500 
 20 H        2.4040    -7.1770    -0.0020 H     1 <1>   0.1500 
 21 H        6.2410    -4.8850    -0.8690 H     1 <1>   0.0800 
 22 H        6.2370    -4.8870     0.8810 H     1 <1>   0.0800 
 23 H       -0.2420    -3.0310    -0.0070 H     1 <1>   0.1500 
 24 H       -0.0600    -7.2930    -0.0060 H     1 <1>   0.1500 
 25 H        6.7710    -2.5130     0.8370 H     1 <1>   0.4500 
 26 H        6.7750    -2.5120    -0.8170 H     1 <1>   0.4500 
 27 H        8.6100    -4.0740    -0.8640 H     1 <1>   0.0800 
 28 H        8.6050    -4.0770     0.8890 H     1 <1>   0.0800 
 29 H        9.0320    -1.6280    -0.8630 H     1 <1>   0.0800 
 30 H       10.2620    -2.4840     0.0190 H     1 <1>   0.0800 
 31 H        9.0280    -1.6310     0.8970 H     1 <1>   0.0800 
 32 H       -2.3380    -3.6450    -0.8940 H     1 <1>   0.0800 
 33 H       -2.3400    -3.6450     0.8740 H     1 <1>   0.0800 
 34 H       -4.1310    -5.3500     0.8620 H     1 <1>   0.0800 
 35 H       -4.1290    -5.3500    -0.8870 H     1 <1>   0.0800 
 36 H       -4.8540    -2.9750     0.8620 H     1 <1>   0.0800 
 37 H       -5.9840    -3.9760    -0.0150 H     1 <1>   0.0800 
 38 H       -4.8510    -2.9750    -0.8890 H     1 <1>   0.0800 
@<TRIPOS>BOND
  1   1   2  1   
  2   1   3  1   
  3   2   4  ar  
  4   2   5  ar  
  5   3   6  1   
  6   3  17  1   
  7   3  18  1   
  8   4   7  ar  
  9   4  19  1   
 10   5   8  ar  
 11   5  20  1   
 12   6   9  1   
 13   6  21  1   
 14   6  22  1   
 15   7  10  ar  
 16   7  23  1   
 17   8  10  ar  
 18   8  24  1   
 19   9  11  1   
 20   9  25  1   
 21   9  26  1   
 22  10  12  1   
 23  11  13  1   
 24  11  27  1   
 25  11  28  1   
 26  12  14  1   
 27  13  29  1   
 28  13  30  1   
 29  13  31  1   
 30  14  15  1   
 31  14  32  1   
 32  14  33  1   
 33  15  16  1   
 34  15  34  1   
 35  15  35  1   
 36  16  36  1   
 37  16  37  1   
 38  16  38  1   
@<TRIPOS>SUBSTRUCTURE
  1 ****   4 GROUP 4 **** **** 0

# MOE 2024.06 (io_trps.svl 2023.06)
