@<TRIPOS>MOLECULE
NONAME
35 37 1 0 0 
SMALL
USER_CHARGES


@<TRIPOS>ATOM
  1 O       -1.1550    -0.7310    -2.1340 O.co2 1 <1>  -0.9000 
  2 C       -1.9040    -1.4820    -1.4940 C.2   1 <1>   0.9060 
  3 O       -1.6970    -2.7030    -1.4470 O.co2 1 <1>  -0.9000 
  4 C       -3.1210    -0.8990    -0.7380 C.3   1 <1>  -0.1060 
  5 C       -4.4350    -1.3010    -1.4550 C.3   1 <1>  -0.1600 
  6 C       -3.0690     0.6520    -0.6560 C.3   1 <1>  -0.1600 
  7 C       -3.1740    -1.4450     0.7140 C.3   1 <1>  -0.1600 
  8 C       -5.6400    -0.7420    -0.6900 C.3   1 <1>   0.2800 
  9 C       -4.2860     1.2380     0.0990 C.3   1 <1>   0.0000 
 10 C       -4.3960    -0.8960     1.4750 C.3   1 <1>  -0.0800 
 11 O       -6.8000    -1.1050    -1.3380 O.3   1 <1>  -0.6800 
 12 C       -5.5680     0.7890    -0.6390 C.3   1 <1>  -0.1600 
 13 C       -5.6780    -1.3140     0.7330 C.3   1 <1>  -0.1600 
 14 C       -4.3090     0.6410     1.5260 C.3   1 <1>  -0.1600 
 15 C       -4.2540     2.7850     0.1230 C.3   1 <1>  -0.1600 
 16 C       -3.0440     3.4250     0.8240 C.3   1 <1>  -0.2400 
 17 H       -4.4960    -2.3740    -1.5070 H     1 <1>   0.0800 
 18 H       -4.4230    -0.9160    -2.4590 H     1 <1>   0.0800 
 19 H       -3.0290     1.0550    -1.6540 H     1 <1>   0.0800 
 20 H       -2.1530     0.9290    -0.1670 H     1 <1>   0.0800 
 21 H       -2.2670    -1.1760     1.2260 H     1 <1>   0.0800 
 22 H       -3.2160    -2.5210     0.6870 H     1 <1>   0.0800 
 23 H       -4.4050    -1.2950     2.4740 H     1 <1>   0.0800 
 24 H       -7.5590    -0.7590    -0.8410 H     1 <1>   0.4000 
 25 H       -6.4320     1.1770    -0.1310 H     1 <1>   0.0800 
 26 H       -5.5570     1.1730    -1.6440 H     1 <1>   0.0800 
 27 H       -5.7310    -2.3880     0.6890 H     1 <1>   0.0800 
 28 H       -6.5360    -0.9450     1.2630 H     1 <1>   0.0800 
 29 H       -3.4120     0.9120     2.0530 H     1 <1>   0.0800 
 30 H       -5.1450     1.0340     2.0760 H     1 <1>   0.0800 
 31 H       -5.1480     3.1440     0.6040 H     1 <1>   0.0800 
 32 H       -4.2760     3.1420    -0.8920 H     1 <1>   0.0800 
 33 H       -3.0020     3.1430     1.8600 H     1 <1>   0.0800 
 34 H       -3.1220     4.4960     0.7720 H     1 <1>   0.0800 
 35 H       -2.1260     3.1360     0.3450 H     1 <1>   0.0800 
@<TRIPOS>BOND
  1   1   2  ar  
  2   2   3  ar  
  3   2   4  1   
  4   4   5  1   
  5   4   6  1   
  6   4   7  1   
  7   5   8  1   
  8   5  17  1   
  9   5  18  1   
 10   6   9  1   
 11   6  19  1   
 12   6  20  1   
 13   7  10  1   
 14   7  21  1   
 15   7  22  1   
 16   8  11  1   
 17   8  12  1   
 18   8  13  1   
 19   9  12  1   
 20   9  14  1   
 21   9  15  1   
 22  10  13  1   
 23  10  14  1   
 24  10  23  1   
 25  11  24  1   
 26  12  25  1   
 27  12  26  1   
 28  13  27  1   
 29  13  28  1   
 30  14  29  1   
 31  14  30  1   
 32  15  16  1   
 33  15  31  1   
 34  15  32  1   
 35  16  33  1   
 36  16  34  1   
 37  16  35  1   
@<TRIPOS>SUBSTRUCTURE
  1 ****   4 GROUP 4 **** **** 0

# MOE 2024.06 (io_trps.svl 2023.06)
