@<TRIPOS>MOLECULE
NONAME
44 46 1 0 0 
SMALL
USER_CHARGES


@<TRIPOS>ATOM
  1 O       -0.6990     1.0300     2.4800 O.co2 1 <1>  -0.9000 
  2 C       -0.3380     2.0300     1.8420 C.2   1 <1>   0.9060 
  3 O        0.6570     2.6840     2.1670 O.co2 1 <1>  -0.9000 
  4 C       -1.1100     2.3710     0.5790 C.3   1 <1>  -0.1860 
  5 C       -2.6470     2.3890     0.7980 C.3   1 <1>  -0.0190 
  6 C       -0.8400     3.7630    -0.0300 C.3   1 <1>   0.0580 
  7 C       -3.3350     1.0680     0.4830 C.2   1 <1>   0.5690 
  8 C       -3.0920     3.6390     0.0200 C.3   1 <1>   0.0580 
  9 C       -2.0080     4.5770     0.4810 C.2   1 <1>  -0.2760 
 10 C       -1.2210     3.6990    -1.5150 C.3   1 <1>  -0.1600 
 11 O       -4.2910     1.0070    -0.2580 O.2   1 <1>  -0.5700 
 12 N       -2.8330    -0.0250     1.0940 N.am  1 <1>  -0.7300 
 13 C       -2.7540     3.5390    -1.4790 C.3   1 <1>  -0.1600 
 14 C       -2.0570     5.7420     1.1410 C.2   1 <1>  -0.2760 
 15 C       -3.1800    -1.4270     0.8490 C.3   1 <1>   0.2840 
 16 C       -3.3420     6.4260     1.5810 C.3   1 <1>  -0.1020 
 17 C       -0.8230     6.5290     1.5550 C.3   1 <1>  -0.1020 
 18 C       -1.9690    -2.1630     0.2950 C.ar  1 <1>  -0.1440 
 19 C       -0.7060    -2.0270     0.8410 C.ar  1 <1>  -0.1500 
 20 C       -2.0690    -3.0100    -0.7910 C.ar  1 <1>  -0.1500 
 21 C        0.3580    -2.7210     0.2930 C.ar  1 <1>   0.1600 
 22 C       -0.9400    -3.6630    -1.2590 C.ar  1 <1>   0.1600 
 23 N        0.2720    -3.5440    -0.7420 N.ar  1 <1>  -0.6200 
 24 H       -0.8450     1.6130    -0.1330 H     1 <1>   0.0800 
 25 H       -2.8370     2.5890     1.8380 H     1 <1>   0.0800 
 26 H        0.1500     4.1440     0.1450 H     1 <1>   0.0800 
 27 H       -4.1060     3.9280     0.2250 H     1 <1>   0.0800 
 28 H       -0.9580     4.6270    -1.9920 H     1 <1>   0.0800 
 29 H       -0.7350     2.8860    -2.0250 H     1 <1>   0.0800 
 30 H       -2.0100     0.1390     1.7140 H     1 <1>   0.3700 
 31 H       -3.0690     2.6000    -1.9000 H     1 <1>   0.0800 
 32 H       -3.2220     4.3450    -2.0150 H     1 <1>   0.0800 
 33 H       -3.4870    -1.8780     1.7760 H     1 <1>   0.0800 
 34 H       -4.0010    -1.4780     0.1530 H     1 <1>   0.0800 
 35 H       -3.3570     6.5190     2.6520 H     1 <1>   0.0800 
 36 H       -4.2100     5.8700     1.2820 H     1 <1>   0.0800 
 37 H       -3.4050     7.4060     1.1450 H     1 <1>   0.0800 
 38 H       -0.8130     6.6570     2.6220 H     1 <1>   0.0800 
 39 H       -0.8230     7.4950     1.0850 H     1 <1>   0.0800 
 40 H        0.0820     6.0200     1.2820 H     1 <1>   0.0800 
 41 H       -0.5340    -1.3780     1.6840 H     1 <1>   0.1500 
 42 H       -3.0130    -3.1650    -1.2790 H     1 <1>   0.1500 
 43 H        1.3310    -2.5870     0.7350 H     1 <1>   0.1500 
 44 H       -1.0400    -4.3190    -2.1060 H     1 <1>   0.1500 
@<TRIPOS>BOND
  1   1   2  ar  
  2   2   3  ar  
  3   2   4  1   
  4   4   5  1   
  5   4   6  1   
  6   4  24  1   
  7   5   7  1   
  8   5   8  1   
  9   5  25  1   
 10   6   9  1   
 11   6  10  1   
 12   6  26  1   
 13   7  11  2   
 14   7  12  am  
 15   8   9  1   
 16   8  13  1   
 17   8  27  1   
 18   9  14  2   
 19  10  13  1   
 20  10  28  1   
 21  10  29  1   
 22  12  15  1   
 23  12  30  1   
 24  13  31  1   
 25  13  32  1   
 26  14  16  1   
 27  14  17  1   
 28  15  18  1   
 29  15  33  1   
 30  15  34  1   
 31  16  35  1   
 32  16  36  1   
 33  16  37  1   
 34  17  38  1   
 35  17  39  1   
 36  17  40  1   
 37  18  19  ar  
 38  18  20  ar  
 39  19  21  ar  
 40  19  41  1   
 41  20  22  ar  
 42  20  42  1   
 43  21  23  ar  
 44  21  43  1   
 45  22  23  ar  
 46  22  44  1   
@<TRIPOS>SUBSTRUCTURE
  1 ****   4 GROUP 4 **** **** 0

# MOE 2024.06 (io_trps.svl 2023.06)
