@<TRIPOS>MOLECULE
NONAME
48 51 1 0 0 
SMALL
USER_CHARGES


@<TRIPOS>ATOM
  1 O       -0.9600     0.1570     1.3600 O.2   1 <1>  -0.5700 
  2 C       -1.9050    -0.3860     0.8510 C.2   1 <1>   0.5690 
  3 N       -3.1490    -0.2050     1.3630 N.am  1 <1>  -0.5470 
  4 C       -1.6820    -1.2490    -0.3690 C.3   1 <1>  -0.1790 
  5 C       -4.3840    -0.7480     0.9790 C.ar  1 <1>   0.1170 
  6 C       -5.4520     0.0860     0.7190 C.ar  1 <1>  -0.1500 
  7 C       -4.5500    -2.1400     0.8750 C.ar  1 <1>  -0.1500 
  8 C       -6.6760    -0.4600     0.3440 C.ar  1 <1>   0.2270 
  9 C       -5.7550    -2.6910     0.5020 C.ar  1 <1>  -0.1500 
 10 N       -7.8490     0.1690     0.0480 N.2   1 <1>  -0.5650 
 11 C       -6.8220    -1.8310     0.2320 C.ar  1 <1>  -0.1520 
 12 C       -8.6590    -0.7880    -0.2320 C.2   1 <1>   0.0060 
 13 N       -8.1120    -2.0280    -0.1470 N.pl3 1 <1>   0.0480 
 14 C      -10.1120    -0.5970    -0.6220 C.3   1 <1>   0.5230 
 15 C       -8.8460    -3.3030    -0.2470 C.3   1 <1>   0.0960 
 16 N      -10.8970    -1.8170    -0.2510 N.4   1 <1>  -0.9590 
 17 C      -10.2650    -3.0720    -0.7970 C.3   1 <1>   0.3430 
 18 C      -12.3450    -1.6760    -0.5510 C.3   1 <1>   0.5660 
 19 C      -13.0630    -2.8300     0.1420 C.ar  1 <1>  -0.1440 
 20 C      -12.6130    -1.5760    -2.0560 C.3   1 <1>  -0.2400 
 21 C      -13.4270    -4.0050    -0.5100 C.ar  1 <1>  -0.1500 
 22 C      -13.3520    -2.7000     1.4950 C.ar  1 <1>  -0.1500 
 23 C      -14.0530    -5.0270     0.1810 C.ar  1 <1>  -0.1500 
 24 C      -13.9780    -3.7240     2.1840 C.ar  1 <1>  -0.1500 
 25 C      -14.3270    -4.8890     1.5280 C.ar  1 <1>  -0.1500 
 26 H       -3.1680     0.4880     2.1120 H     1 <1>   0.3700 
 27 H       -2.4920    -1.1320    -1.0640 H     1 <1>   0.0800 
 28 H       -1.6030    -2.2770    -0.0740 H     1 <1>   0.0800 
 29 H       -0.7680    -0.9560    -0.8520 H     1 <1>   0.0800 
 30 H       -5.3630     1.1530     0.7940 H     1 <1>   0.1500 
 31 H       -3.7140    -2.7770     1.1010 H     1 <1>   0.1500 
 32 H       -5.8720    -3.7580     0.4230 H     1 <1>   0.1500 
 33 H      -10.1640    -0.4260    -1.6840 H     1 <1>   0.0800 
 34 H      -10.4990     0.2730    -0.1170 H     1 <1>   0.0800 
 35 H       -8.9010    -3.7430     0.7330 H     1 <1>   0.0800 
 36 H       -8.3050    -3.9750    -0.8890 H     1 <1>   0.0800 
 37 H      -10.8500    -1.8860     0.7740 H     1 <1>   0.4500 
 38 H      -10.8710    -3.9300    -0.5530 H     1 <1>   0.0800 
 39 H      -10.2120    -3.0080    -1.8710 H     1 <1>   0.0800 
 40 H      -12.7050    -0.7650    -0.0980 H     1 <1>   0.0800 
 41 H      -12.2120    -2.4090    -2.6020 H     1 <1>   0.0800 
 42 H      -12.2150    -0.6630    -2.4570 H     1 <1>   0.0800 
 43 H      -13.6770    -1.5560    -2.2180 H     1 <1>   0.0800 
 44 H      -13.2400    -4.1550    -1.5590 H     1 <1>   0.1500 
 45 H      -13.1020    -1.8030     2.0360 H     1 <1>   0.1500 
 46 H      -14.3350    -5.9340    -0.3290 H     1 <1>   0.1500 
 47 H      -14.2010    -3.6160     3.2330 H     1 <1>   0.1500 
 48 H      -14.8170    -5.6840     2.0640 H     1 <1>   0.1500 
@<TRIPOS>BOND
  1   1   2  2   
  2   2   3  am  
  3   2   4  1   
  4   3   5  1   
  5   3  26  1   
  6   4  27  1   
  7   4  28  1   
  8   4  29  1   
  9   5   6  ar  
 10   5   7  ar  
 11   6   8  ar  
 12   6  30  1   
 13   7   9  ar  
 14   7  31  1   
 15   8  10  1   
 16   8  11  ar  
 17   9  11  ar  
 18   9  32  1   
 19  10  12  2   
 20  11  13  1   
 21  12  13  1   
 22  12  14  1   
 23  13  15  1   
 24  14  16  1   
 25  14  33  1   
 26  14  34  1   
 27  15  17  1   
 28  15  35  1   
 29  15  36  1   
 30  16  17  1   
 31  16  18  1   
 32  16  37  1   
 33  17  38  1   
 34  17  39  1   
 35  18  19  1   
 36  18  20  1   
 37  18  40  1   
 38  19  21  ar  
 39  19  22  ar  
 40  20  41  1   
 41  20  42  1   
 42  20  43  1   
 43  21  23  ar  
 44  21  44  1   
 45  22  24  ar  
 46  22  45  1   
 47  23  25  ar  
 48  23  46  1   
 49  24  25  ar  
 50  24  47  1   
 51  25  48  1   
@<TRIPOS>SUBSTRUCTURE
  1 ****  13 GROUP 4 **** **** 0

# MOE 2024.06 (io_trps.svl 2023.06)
