@<TRIPOS>MOLECULE
NONAME
33 35 1 0 0 
SMALL
USER_CHARGES


@<TRIPOS>ATOM
  1 S       -0.2050     0.5940     0.3790 S.3   1 <1>  -0.2860 
  2 C        1.5530     0.3550     0.1920 C.2   1 <1>   0.2420 
  3 C       -0.5690     1.9060    -0.8920 C.3   1 <1>   0.1310 
  4 N        2.2100    -0.5460     0.9540 N.pl3 1 <1>   0.0330 
  5 N        2.2660     1.0070    -0.6540 N.2   1 <1>  -0.5650 
  6 C       -2.0390     2.2950    -0.9110 C.2   1 <1>   0.5690 
  7 C        3.5040    -0.4610     0.5500 C.ar  1 <1>  -0.1520 
  8 C        3.5170     0.5040    -0.4450 C.ar  1 <1>   0.2270 
  9 O       -2.4060     3.0970    -1.7370 O.2   1 <1>  -0.5700 
 10 N       -2.8960     1.7420    -0.0080 N.am  1 <1>  -0.5790 
 11 C        4.6710    -1.1200     0.9390 C.ar  1 <1>  -0.1500 
 12 C        4.7170     0.8290    -1.0730 C.ar  1 <1>  -0.1500 
 13 C       -4.3340     2.0170     0.1010 C.3   1 <1>   0.0490 
 14 C        5.8550    -0.7930     0.3130 C.ar  1 <1>  -0.1430 
 15 C        5.8730     0.1820    -0.6930 C.ar  1 <1>  -0.1500 
 16 C       -4.9470     2.0080     1.4610 C.3   1 <1>  -0.2000 
 17 C       -5.2330     0.8940     0.4990 C.3   1 <1>  -0.2000 
 18 C        7.1550    -1.4770     0.6950 C.3   1 <1>  -0.0970 
 19 H       -0.2750     1.5120    -1.8470 H     1 <1>   0.0800 
 20 H        0.0390     2.7580    -0.6520 H     1 <1>   0.0800 
 21 H        1.8100    -1.1500     1.6730 H     1 <1>   0.2700 
 22 H       -2.5230     1.0650     0.6600 H     1 <1>   0.3700 
 23 H        4.6340    -1.8660     1.7140 H     1 <1>   0.1500 
 24 H        4.7110     1.5790    -1.8420 H     1 <1>   0.1500 
 25 H       -4.6890     2.7330    -0.6240 H     1 <1>   0.1000 
 26 H        6.8050     0.4270    -1.1730 H     1 <1>   0.1500 
 27 H       -5.7340     2.7110     1.6740 H     1 <1>   0.1000 
 28 H       -4.3200     1.8190     2.3140 H     1 <1>   0.1000 
 29 H       -4.8050    -0.0770     0.6780 H     1 <1>   0.1000 
 30 H       -6.2130     0.8400     0.0590 H     1 <1>   0.1000 
 31 H        6.9960    -2.1990     1.4750 H     1 <1>   0.0800 
 32 H        7.8630    -0.7470     1.0430 H     1 <1>   0.0800 
 33 H        7.5680    -1.9820    -0.1600 H     1 <1>   0.0800 
@<TRIPOS>BOND
  1   1   2  1   
  2   1   3  1   
  3   2   4  1   
  4   2   5  2   
  5   3   6  1   
  6   3  19  1   
  7   3  20  1   
  8   4   7  1   
  9   4  21  1   
 10   5   8  1   
 11   6   9  2   
 12   6  10  am  
 13   7   8  ar  
 14   7  11  ar  
 15   8  12  ar  
 16  10  13  1   
 17  10  22  1   
 18  11  14  ar  
 19  11  23  1   
 20  12  15  ar  
 21  12  24  1   
 22  13  16  1   
 23  13  17  1   
 24  13  25  1   
 25  14  15  ar  
 26  14  18  1   
 27  15  26  1   
 28  16  17  1   
 29  16  27  1   
 30  16  28  1   
 31  17  29  1   
 32  17  30  1   
 33  18  31  1   
 34  18  32  1   
 35  18  33  1   
@<TRIPOS>SUBSTRUCTURE
  1 ****   2 GROUP 4 **** **** 0

# MOE 2024.06 (io_trps.svl 2023.06)
