@<TRIPOS>MOLECULE
NONAME
33 34 1 0 0 
SMALL
USER_CHARGES


@<TRIPOS>ATOM
  1 O       -0.3900     0.0700     1.1130 O.2   1 <1>  -0.5700 
  2 C       -0.4990     1.1420     0.5710 C.2   1 <1>   0.6590 
  3 O       -1.4870     1.4010    -0.2810 O.3   1 <1>  -0.4300 
  4 C        0.4820     2.2880     0.8490 C.3   1 <1>   0.1710 
  5 C       -2.4480     0.4250    -0.6230 C.3   1 <1>   0.0400 
  6 N        1.5980     2.4300    -0.1270 N.3   1 <1>  -0.8100 
  7 C        2.3870     3.6520     0.1510 C.3   1 <1>   0.1100 
  8 C        2.4850     1.2380    -0.1020 C.3   1 <1>   0.1100 
  9 C        3.5580     3.8250    -0.8330 C.3   1 <1>   0.2090 
 10 C        3.6750     1.3630    -1.0730 C.3   1 <1>   0.2090 
 11 N        4.4420     2.6200    -0.8060 N.pl3 1 <1>  -0.8380 
 12 C        5.7090     2.6210    -0.2620 C.ar  1 <1>   0.7200 
 13 N        6.1200     3.7430     0.3310 N.ar  1 <1>  -0.6200 
 14 N        6.4190     1.4980    -0.3720 N.ar  1 <1>  -0.6200 
 15 C        7.3280     3.7300     0.8360 C.ar  1 <1>   0.1600 
 16 C        7.6230     1.5130     0.1420 C.ar  1 <1>   0.1600 
 17 C        8.1360     2.6220     0.7680 C.ar  1 <1>  -0.1500 
 18 H        0.8880     2.1450     1.8340 H     1 <1>   0.0800 
 19 H       -0.0890     3.1990     0.8590 H     1 <1>   0.0800 
 20 H       -3.1390     0.8570    -1.3240 H     1 <1>   0.0800 
 21 H       -2.9660     0.1190     0.2700 H     1 <1>   0.0800 
 22 H       -1.9450    -0.4170    -1.0670 H     1 <1>   0.0800 
 23 H        2.7860     3.6140     1.1510 H     1 <1>   0.0800 
 24 H        1.7470     4.5140     0.0760 H     1 <1>   0.0800 
 25 H        1.9200     0.3620    -0.3720 H     1 <1>   0.0800 
 26 H        2.8710     1.0890     0.8920 H     1 <1>   0.0800 
 27 H        4.1040     4.7190    -0.5910 H     1 <1>   0.0800 
 28 H        3.1650     3.9470    -1.8270 H     1 <1>   0.0800 
 29 H        3.3060     1.3860    -2.0820 H     1 <1>   0.0800 
 30 H        4.2980     0.4930    -0.9750 H     1 <1>   0.0800 
 31 H        7.6840     4.6250     1.3170 H     1 <1>   0.1500 
 32 H        8.2170     0.6180     0.0620 H     1 <1>   0.1500 
 33 H        9.1250     2.6230     1.1850 H     1 <1>   0.1500 
@<TRIPOS>BOND
  1   1   2  2   
  2   2   3  1   
  3   2   4  1   
  4   3   5  1   
  5   4   6  1   
  6   4  18  1   
  7   4  19  1   
  8   5  20  1   
  9   5  21  1   
 10   5  22  1   
 11   6   7  1   
 12   6   8  1   
 13   7   9  1   
 14   7  23  1   
 15   7  24  1   
 16   8  10  1   
 17   8  25  1   
 18   8  26  1   
 19   9  11  1   
 20   9  27  1   
 21   9  28  1   
 22  10  11  1   
 23  10  29  1   
 24  10  30  1   
 25  11  12  1   
 26  12  13  ar  
 27  12  14  ar  
 28  13  15  ar  
 29  14  16  ar  
 30  15  17  ar  
 31  15  31  1   
 32  16  17  ar  
 33  16  32  1   
 34  17  33  1   
@<TRIPOS>SUBSTRUCTURE
  1 ****   8 GROUP 4 **** **** 0

# MOE 2024.06 (io_trps.svl 2023.06)
