@<TRIPOS>MOLECULE
NONAME
41 42 1 0 0 
SMALL
USER_CHARGES


@<TRIPOS>ATOM
  1 O        0.0970    -0.3670     0.0000 O.3   1 <1>  -0.3630 
  2 C       -1.1290    -0.9480     0.0010 C.ar  1 <1>   0.0830 
  3 C        1.2800    -1.1270    -0.0240 C.3   1 <1>   0.1200 
  4 C       -2.2190    -0.1210     0.0260 C.ar  1 <1>  -0.1500 
  5 C       -1.3200    -2.3430    -0.0220 C.ar  1 <1>  -0.1500 
  6 C        2.4530    -0.1440    -0.0180 C.3   1 <1>  -0.1600 
  7 C       -3.5330    -0.6260     0.0290 C.ar  1 <1>   0.0000 
  8 C       -2.5870    -2.8590    -0.0200 C.ar  1 <1>  -0.1500 
  9 C        3.8070    -0.8670    -0.0430 C.3   1 <1>  -0.1600 
 10 C       -3.7220    -2.0240     0.0050 C.ar  1 <1>   0.0000 
 11 C       -4.6680     0.2100     0.0540 C.ar  1 <1>  -0.1500 
 12 C        4.9510     0.1450    -0.0350 C.3   1 <1>   0.3430 
 13 C       -5.0370    -2.5310     0.0080 C.ar  1 <1>  -0.1500 
 14 C       -5.9340    -0.3090     0.0560 C.ar  1 <1>  -0.1500 
 15 N        6.2440    -0.5800    -0.0590 N.4   1 <1>  -0.9060 
 16 C       -6.1210    -1.6950     0.0330 C.ar  1 <1>  -0.1500 
 17 C        7.4030     0.3620    -0.0530 C.3   1 <1>   0.3430 
 18 C        8.7440    -0.3820    -0.0780 C.3   1 <1>   0.1200 
 19 O        9.7440     0.5710    -0.0700 O.3   1 <1>  -0.6800 
 20 H        1.2790    -1.7240    -0.9200 H     1 <1>   0.0800 
 21 H        1.2950    -1.7560     0.8490 H     1 <1>   0.0800 
 22 H       -2.0750     0.9430     0.0430 H     1 <1>   0.1500 
 23 H       -0.4820    -3.0120    -0.0420 H     1 <1>   0.1500 
 24 H        2.3800     0.4640     0.8690 H     1 <1>   0.0800 
 25 H        2.3640     0.4950    -0.8800 H     1 <1>   0.0800 
 26 H       -2.7390    -3.9230    -0.0380 H     1 <1>   0.1500 
 27 H        3.8620    -1.4730    -0.9310 H     1 <1>   0.0800 
 28 H        3.8770    -1.5040     0.8230 H     1 <1>   0.0800 
 29 H       -4.5170     1.2750     0.0720 H     1 <1>   0.1500 
 30 H        4.8860     0.7570     0.8520 H     1 <1>   0.0800 
 31 H        4.8710     0.7880    -0.8980 H     1 <1>   0.0800 
 32 H       -5.1760    -3.5960    -0.0090 H     1 <1>   0.1500 
 33 H       -6.7960     0.3350     0.0760 H     1 <1>   0.1500 
 34 H        6.2820    -1.1720    -0.8990 H     1 <1>   0.4500 
 35 H        6.2970    -1.2010     0.7580 H     1 <1>   0.4500 
 36 H       -7.1220    -2.0880     0.0350 H     1 <1>   0.1500 
 37 H        7.3690     0.9750     0.8330 H     1 <1>   0.0800 
 38 H        7.3530     1.0060    -0.9150 H     1 <1>   0.0800 
 39 H        8.8510    -0.9680    -0.9750 H     1 <1>   0.0800 
 40 H        8.8670    -1.0000     0.7960 H     1 <1>   0.0800 
 41 H       10.6380     0.1670    -0.0850 H     1 <1>   0.4000 
@<TRIPOS>BOND
  1   1   2  1   
  2   1   3  1   
  3   2   4  ar  
  4   2   5  ar  
  5   3   6  1   
  6   3  20  1   
  7   3  21  1   
  8   4   7  ar  
  9   4  22  1   
 10   5   8  ar  
 11   5  23  1   
 12   6   9  1   
 13   6  24  1   
 14   6  25  1   
 15   7  10  ar  
 16   7  11  ar  
 17   8  10  ar  
 18   8  26  1   
 19   9  12  1   
 20   9  27  1   
 21   9  28  1   
 22  10  13  ar  
 23  11  14  ar  
 24  11  29  1   
 25  12  15  1   
 26  12  30  1   
 27  12  31  1   
 28  13  16  ar  
 29  13  32  1   
 30  14  16  ar  
 31  14  33  1   
 32  15  17  1   
 33  15  34  1   
 34  15  35  1   
 35  16  36  1   
 36  17  18  1   
 37  17  37  1   
 38  17  38  1   
 39  18  19  1   
 40  18  39  1   
 41  18  40  1   
 42  19  41  1   
@<TRIPOS>SUBSTRUCTURE
  1 ****   1 GROUP 4 **** **** 0

# MOE 2024.06 (io_trps.svl 2023.06)
