@<TRIPOS>MOLECULE
NONAME
53 55 1 0 0 
SMALL
USER_CHARGES


@<TRIPOS>ATOM
  1 O       -0.4520    -0.1210     0.0630 O.2   1 <1>  -0.5700 
  2 C       -1.4760     0.5550     0.0580 C.2   1 <1>   0.6160 
  3 N       -2.6750    -0.0510    -0.3430 N.am  1 <1>  -0.2860 
  4 C       -1.4870     1.9380     0.4510 C.2   1 <1>   0.0290 
  5 C       -2.6270    -1.3830    -0.8210 C.ar  1 <1>   0.1170 
  6 C       -3.8640     0.6500    -0.3050 C.2   1 <1>  -0.0290 
  7 C       -0.2700     2.6180     0.8490 C.2   1 <1>   0.6160 
  8 C       -2.6890     2.5980     0.4350 C.2   1 <1>  -0.1500 
  9 C       -2.5600    -1.6400    -2.1850 C.ar  1 <1>  -0.1500 
 10 C       -2.6600    -2.4540     0.0640 C.ar  1 <1>  -0.1500 
 11 C       -3.9070     1.9780     0.0550 C.2   1 <1>   0.0140 
 12 C       -5.1560    -0.0840    -0.6940 C.3   1 <1>  -0.0220 
 13 O       -0.3180     3.7800     1.2070 O.2   1 <1>  -0.5700 
 14 N        0.9570     2.0190     0.8450 N.am  1 <1>  -0.7300 
 15 C       -2.5380    -2.9400    -2.6560 C.ar  1 <1>  -0.1500 
 16 C       -2.6380    -3.7560    -0.4040 C.ar  1 <1>  -0.1500 
 17 C       -5.1280     2.7430     0.0480 C.2   1 <1>   0.4950 
 18 C       -6.4330     0.5750    -0.1340 C.3   1 <1>   0.0000 
 19 C        2.2500     2.6340     1.2040 C.3   1 <1>   0.1400 
 20 C       -2.5790    -4.0000    -1.7660 C.ar  1 <1>  -0.1500 
 21 O       -5.2030     3.8960     0.3920 O.2   1 <1>  -0.5700 
 22 C       -6.4050     2.0830    -0.4360 C.3   1 <1>  -0.0990 
 23 C       -7.6700    -0.0540    -0.7940 C.3   1 <1>  -0.2400 
 24 C       -6.5280     0.3400     1.3860 C.3   1 <1>  -0.2400 
 25 C        3.2700     2.3190     0.1100 C.3   1 <1>  -0.1600 
 26 C        4.6370     2.9360     0.4310 C.3   1 <1>  -0.1600 
 27 C        5.6560     2.6190    -0.6660 C.3   1 <1>  -0.2400 
 28 H       -2.7360     3.6380     0.7210 H     1 <1>   0.1500 
 29 H       -2.5230    -0.8170    -2.8760 H     1 <1>   0.1500 
 30 H       -2.7000    -2.2630     1.1210 H     1 <1>   0.1500 
 31 H       -5.1340    -1.1010    -0.3430 H     1 <1>   0.0800 
 32 H       -5.2070    -0.1180    -1.7690 H     1 <1>   0.0800 
 33 H        0.9870     1.0250     0.5720 H     1 <1>   0.3700 
 34 H       -2.4860    -3.1300    -3.7150 H     1 <1>   0.1500 
 35 H       -2.6630    -4.5790     0.2890 H     1 <1>   0.1500 
 36 H        2.5810     2.2350     2.1480 H     1 <1>   0.0800 
 37 H        2.1370     3.7010     1.3050 H     1 <1>   0.0800 
 38 H       -2.5600    -5.0120    -2.1310 H     1 <1>   0.1500 
 39 H       -6.4770     2.2490    -1.4960 H     1 <1>   0.0800 
 40 H       -7.2460     2.5670     0.0280 H     1 <1>   0.0800 
 41 H       -7.6530     0.0900    -1.8600 H     1 <1>   0.0800 
 42 H       -8.5720     0.3910    -0.4090 H     1 <1>   0.0800 
 43 H       -7.7080    -1.1120    -0.5980 H     1 <1>   0.0800 
 44 H       -7.4110     0.8080     1.7860 H     1 <1>   0.0800 
 45 H       -6.5820    -0.7130     1.6030 H     1 <1>   0.0800 
 46 H       -5.6750     0.7400     1.9050 H     1 <1>   0.0800 
 47 H        2.9130     2.7130    -0.8250 H     1 <1>   0.0800 
 48 H        3.3740     1.2520     0.0180 H     1 <1>   0.0800 
 49 H        4.9980     2.5510     1.3710 H     1 <1>   0.0800 
 50 H        4.5390     4.0040     0.5240 H     1 <1>   0.0800 
 51 H        5.7870     1.5550    -0.7630 H     1 <1>   0.0800 
 52 H        6.6070     3.0600    -0.4250 H     1 <1>   0.0800 
 53 H        5.3270     3.0150    -1.6110 H     1 <1>   0.0800 
@<TRIPOS>BOND
  1   1   2  2   
  2   2   3  am  
  3   2   4  1   
  4   3   5  1   
  5   3   6  1   
  6   4   7  1   
  7   4   8  2   
  8   5   9  ar  
  9   5  10  ar  
 10   6  11  2   
 11   6  12  1   
 12   7  13  2   
 13   7  14  am  
 14   8  11  1   
 15   8  28  1   
 16   9  15  ar  
 17   9  29  1   
 18  10  16  ar  
 19  10  30  1   
 20  11  17  1   
 21  12  18  1   
 22  12  31  1   
 23  12  32  1   
 24  14  19  1   
 25  14  33  1   
 26  15  20  ar  
 27  15  34  1   
 28  16  20  ar  
 29  16  35  1   
 30  17  21  2   
 31  17  22  1   
 32  18  22  1   
 33  18  23  1   
 34  18  24  1   
 35  19  25  1   
 36  19  36  1   
 37  19  37  1   
 38  20  38  1   
 39  22  39  1   
 40  22  40  1   
 41  23  41  1   
 42  23  42  1   
 43  23  43  1   
 44  24  44  1   
 45  24  45  1   
 46  24  46  1   
 47  25  26  1   
 48  25  47  1   
 49  25  48  1   
 50  26  27  1   
 51  26  49  1   
 52  26  50  1   
 53  27  51  1   
 54  27  52  1   
 55  27  53  1   
@<TRIPOS>SUBSTRUCTURE
  1 ****   2 GROUP 4 **** **** 0

# MOE 2024.06 (io_trps.svl 2023.06)
