@<TRIPOS>MOLECULE
NONAME
37 37 1 0 0 
SMALL
USER_CHARGES


@<TRIPOS>ATOM
  1 CL       0.3430    -1.0520     0.2290 Cl    1 <1>  -0.1770 
  2 C       -0.8050     0.2280    -0.1150 C.ar  1 <1>   0.1770 
  3 C       -0.5340     1.5870     0.1120 C.ar  1 <1>   0.0830 
  4 C       -2.0270    -0.1820    -0.6140 C.ar  1 <1>  -0.1500 
  5 O        0.6470     2.0800     0.5850 O.3   1 <1>  -0.3630 
  6 C       -1.5330     2.5270    -0.1520 C.ar  1 <1>  -0.1440 
  7 C       -2.9910     0.7670    -0.8790 C.ar  1 <1>   0.1770 
  8 C        1.8840     1.5090     0.2360 C.3   1 <1>   0.1200 
  9 C       -2.7580     2.1100    -0.6510 C.ar  1 <1>  -0.1500 
 10 C       -1.3040     4.0120     0.1000 C.3   1 <1>  -0.0960 
 11 CL      -4.5370     0.2610    -1.5110 Cl    1 <1>  -0.1770 
 12 C        2.9580     2.5930     0.3680 C.3   1 <1>   0.3430 
 13 N        4.3270     2.1170    -0.0320 N.4   1 <1>  -0.9590 
 14 C        4.8410     1.0470     0.8690 C.3   1 <1>   0.3430 
 15 C        5.2600     3.2750    -0.0950 C.3   1 <1>   0.3430 
 16 C        4.8480    -0.2690     0.1030 C.3   1 <1>  -0.2400 
 17 C        6.4860     2.9000    -0.9190 C.3   1 <1>  -0.2400 
 18 H       -2.2290    -1.2230    -0.7890 H     1 <1>   0.1500 
 19 H        1.8220     1.1520    -0.7770 H     1 <1>   0.0800 
 20 H        2.0780     0.7060     0.9230 H     1 <1>   0.0800 
 21 H       -3.5410     2.8160    -0.8650 H     1 <1>   0.1500 
 22 H       -1.0330     4.1720     1.1280 H     1 <1>   0.0800 
 23 H       -2.1910     4.5820    -0.1070 H     1 <1>   0.0800 
 24 H       -0.5120     4.3740    -0.5300 H     1 <1>   0.0800 
 25 H        2.9790     2.9370     1.3890 H     1 <1>   0.0800 
 26 H        2.6720     3.4200    -0.2620 H     1 <1>   0.0800 
 27 H        4.2730     1.7240    -0.9820 H     1 <1>   0.4500 
 28 H        4.2220     0.9620     1.7490 H     1 <1>   0.0800 
 29 H        5.8460     1.2760     1.1890 H     1 <1>   0.0800 
 30 H        5.5540     3.5730     0.9000 H     1 <1>   0.0800 
 31 H        4.7700     4.1120    -0.5660 H     1 <1>   0.0800 
 32 H        3.8580    -0.5500    -0.2080 H     1 <1>   0.0800 
 33 H        5.2230    -1.0470     0.7440 H     1 <1>   0.0800 
 34 H        5.4940    -0.2090    -0.7540 H     1 <1>   0.0800 
 35 H        7.0520     2.1140    -0.4530 H     1 <1>   0.0800 
 36 H        7.1290     3.7590    -1.0020 H     1 <1>   0.0800 
 37 H        6.2040     2.6030    -1.9130 H     1 <1>   0.0800 
@<TRIPOS>BOND
  1   1   2  1   
  2   2   3  ar  
  3   2   4  ar  
  4   3   5  1   
  5   3   6  ar  
  6   4   7  ar  
  7   4  18  1   
  8   5   8  1   
  9   6   9  ar  
 10   6  10  1   
 11   7   9  ar  
 12   7  11  1   
 13   8  12  1   
 14   8  19  1   
 15   8  20  1   
 16   9  21  1   
 17  10  22  1   
 18  10  23  1   
 19  10  24  1   
 20  12  13  1   
 21  12  25  1   
 22  12  26  1   
 23  13  14  1   
 24  13  15  1   
 25  13  27  1   
 26  14  16  1   
 27  14  28  1   
 28  14  29  1   
 29  15  17  1   
 30  15  30  1   
 31  15  31  1   
 32  16  32  1   
 33  16  33  1   
 34  16  34  1   
 35  17  35  1   
 36  17  36  1   
 37  17  37  1   
@<TRIPOS>SUBSTRUCTURE
  1 ****   5 GROUP 4 **** **** 0

# MOE 2024.06 (io_trps.svl 2023.06)
