@<TRIPOS>MOLECULE
NONAME
39 41 1 0 0 
SMALL
USER_CHARGES


@<TRIPOS>ATOM
  1 BR       1.0360    -0.3930    -2.0790 Br    1 <1>  -0.1110 
  2 C        0.1770    -1.5940    -0.8370 C.ar  1 <1>   0.1110 
  3 C        0.6220    -1.6790     0.4750 C.ar  1 <1>   0.0820 
  4 C       -0.8870    -2.3450    -1.2990 C.ar  1 <1>  -0.1500 
  5 O        1.6460    -0.9300     0.9320 O.3   1 <1>  -0.3630 
  6 C       -0.0280    -2.5410     1.3420 C.ar  1 <1>  -0.1500 
  7 C       -1.5400    -3.2030    -0.4210 C.ar  1 <1>  -0.1430 
  8 C        2.9410    -1.4530     0.7380 C.3   1 <1>   0.0400 
  9 C       -1.0990    -3.3000     0.8950 C.ar  1 <1>  -0.1500 
 10 C       -2.7310    -4.0140    -0.8960 C.3   1 <1>   0.4870 
 11 N       -3.9680    -3.4160    -0.3320 N.4   1 <1>  -0.9590 
 12 C       -5.1650    -4.2590    -0.5930 C.3   1 <1>   0.4860 
 13 C       -4.2090    -2.0160    -0.7980 C.3   1 <1>   0.3430 
 14 C       -6.3920    -3.6410     0.0570 C.ar  1 <1>  -0.1430 
 15 C       -5.2830    -1.3550     0.0690 C.3   1 <1>  -0.0170 
 16 C       -6.4550    -2.2830     0.3560 C.ar  1 <1>  -0.1430 
 17 C       -7.4770    -4.4560     0.3480 C.ar  1 <1>  -0.1500 
 18 C       -7.5970    -1.7590     0.9390 C.ar  1 <1>  -0.1500 
 19 C       -8.6140    -3.9260     0.9310 C.ar  1 <1>  -0.1500 
 20 C       -8.6740    -2.5780     1.2250 C.ar  1 <1>  -0.1500 
 21 H       -1.1860    -2.2440    -2.3280 H     1 <1>   0.1500 
 22 H        0.3090    -2.6090     2.3620 H     1 <1>   0.1500 
 23 H        3.6500    -0.7560     1.1470 H     1 <1>   0.0800 
 24 H        3.1170    -1.5780    -0.3160 H     1 <1>   0.0800 
 25 H        3.0160    -2.3970     1.2470 H     1 <1>   0.0800 
 26 H       -1.5800    -3.9670     1.5930 H     1 <1>   0.1500 
 27 H       -2.6220    -5.0320    -0.5580 H     1 <1>   0.0800 
 28 H       -2.7710    -4.0130    -1.9730 H     1 <1>   0.0800 
 29 H       -3.8590    -3.3680     0.6890 H     1 <1>   0.4500 
 30 H       -5.0150    -5.2480    -0.1920 H     1 <1>   0.0800 
 31 H       -5.3360    -4.3420    -1.6540 H     1 <1>   0.0800 
 32 H       -4.5360    -2.0280    -1.8250 H     1 <1>   0.0800 
 33 H       -3.3030    -1.4340    -0.7360 H     1 <1>   0.0800 
 34 H       -5.6340    -0.4680    -0.4290 H     1 <1>   0.0800 
 35 H       -4.8430    -1.0480     1.0020 H     1 <1>   0.0800 
 36 H       -7.4560    -5.5100     0.1270 H     1 <1>   0.1500 
 37 H       -7.6600    -0.7110     1.1770 H     1 <1>   0.1500 
 38 H       -9.4540    -4.5610     1.1550 H     1 <1>   0.1500 
 39 H       -9.5600    -2.1650     1.6780 H     1 <1>   0.1500 
@<TRIPOS>BOND
  1   1   2  1   
  2   2   3  ar  
  3   2   4  ar  
  4   3   5  1   
  5   3   6  ar  
  6   4   7  ar  
  7   4  21  1   
  8   5   8  1   
  9   6   9  ar  
 10   6  22  1   
 11   7   9  ar  
 12   7  10  1   
 13   8  23  1   
 14   8  24  1   
 15   8  25  1   
 16   9  26  1   
 17  10  11  1   
 18  10  27  1   
 19  10  28  1   
 20  11  12  1   
 21  11  13  1   
 22  11  29  1   
 23  12  14  1   
 24  12  30  1   
 25  12  31  1   
 26  13  15  1   
 27  13  32  1   
 28  13  33  1   
 29  14  16  ar  
 30  14  17  ar  
 31  15  16  1   
 32  15  34  1   
 33  15  35  1   
 34  16  18  ar  
 35  17  19  ar  
 36  17  36  1   
 37  18  20  ar  
 38  18  37  1   
 39  19  20  ar  
 40  19  38  1   
 41  20  39  1   
@<TRIPOS>SUBSTRUCTURE
  1 ****  11 GROUP 4 **** **** 0

# MOE 2024.06 (io_trps.svl 2023.06)
