@<TRIPOS>MOLECULE
NONAME
35 36 1 0 0 
SMALL
USER_CHARGES


@<TRIPOS>ATOM
  1 S       -0.1410    -0.2150     0.2030 S.3   1 <1>  -0.2860 
  2 C       -1.7780     0.2020    -0.4100 C.2   1 <1>   0.2420 
  3 C        0.8580     1.2910    -0.2410 C.3   1 <1>   0.1310 
  4 N       -2.0230     1.2960    -1.0350 N.2   1 <1>  -0.3380 
  5 N       -2.8430    -0.5870    -0.2620 N.pl3 1 <1>   0.0480 
  6 C        2.3160     1.1280     0.1600 C.2   1 <1>   0.5690 
  7 N       -3.3200     1.2570    -1.3340 N.2   1 <1>  -0.3380 
  8 C       -3.8050     0.1370    -0.8770 C.2   1 <1>   0.1870 
  9 C       -2.8900    -1.9090     0.4280 C.3   1 <1>   0.1760 
 10 O        2.9770     2.1070     0.3940 O.2   1 <1>  -0.5700 
 11 N        2.8800    -0.0940     0.2440 N.am  1 <1>  -0.8000 
 12 C       -5.1870    -0.2500    -1.0100 C.2   1 <1>  -0.0010 
 13 C       -3.1090    -3.0480    -0.5750 C.3   1 <1>  -0.2400 
 14 C       -3.9430    -1.9370     1.5420 C.3   1 <1>  -0.2400 
 15 C       -6.2520     0.0810    -0.2330 C.2   1 <1>  -0.0400 
 16 C       -5.7300    -1.0670    -2.0190 C.2   1 <1>  -0.1500 
 17 O       -7.3550    -0.4820    -0.6740 O.3   1 <1>  -0.2800 
 18 C       -6.3290     0.9630     0.9950 C.3   1 <1>  -0.0600 
 19 C       -7.0470    -1.1700    -1.7530 C.2   1 <1>  -0.0100 
 20 H        0.4190     2.1260     0.2720 H     1 <1>   0.0800 
 21 H        0.7740     1.4310    -1.3020 H     1 <1>   0.0800 
 22 H       -1.9340    -2.0700     0.8940 H     1 <1>   0.0800 
 23 H        3.8570    -0.1820     0.5250 H     1 <1>   0.3700 
 24 H        2.3530    -0.9570     0.1100 H     1 <1>   0.3700 
 25 H       -4.0920    -3.0000    -1.0060 H     1 <1>   0.0800 
 26 H       -3.0120    -3.9950    -0.0750 H     1 <1>   0.0800 
 27 H       -2.3730    -3.0040    -1.3580 H     1 <1>   0.0800 
 28 H       -4.9390    -1.9310     1.1400 H     1 <1>   0.0800 
 29 H       -3.8160    -1.0960     2.2000 H     1 <1>   0.0800 
 30 H       -3.8300    -2.8360     2.1220 H     1 <1>   0.0800 
 31 H       -5.1690    -1.4960    -2.8280 H     1 <1>   0.1500 
 32 H       -5.3610     1.3670     1.2280 H     1 <1>   0.0800 
 33 H       -6.6860     0.3930     1.8330 H     1 <1>   0.0800 
 34 H       -7.0080     1.7760     0.8110 H     1 <1>   0.0800 
 35 H       -7.8290    -1.6980    -2.2710 H     1 <1>   0.1500 
@<TRIPOS>BOND
  1   1   2  1   
  2   1   3  1   
  3   2   4  2   
  4   2   5  1   
  5   3   6  1   
  6   3  20  1   
  7   3  21  1   
  8   4   7  1   
  9   5   8  1   
 10   5   9  1   
 11   6  10  2   
 12   6  11  am  
 13   7   8  2   
 14   8  12  1   
 15   9  13  1   
 16   9  14  1   
 17   9  22  1   
 18  11  23  1   
 19  11  24  1   
 20  12  15  2   
 21  12  16  1   
 22  13  25  1   
 23  13  26  1   
 24  13  27  1   
 25  14  28  1   
 26  14  29  1   
 27  14  30  1   
 28  15  17  1   
 29  15  18  1   
 30  16  19  2   
 31  16  31  1   
 32  17  19  1   
 33  18  32  1   
 34  18  33  1   
 35  18  34  1   
 36  19  35  1   
@<TRIPOS>SUBSTRUCTURE
  1 ****   5 GROUP 4 **** **** 0

# MOE 2024.06 (io_trps.svl 2023.06)
