@<TRIPOS>MOLECULE
NONAME
21 22 1 0 0 
SMALL
USER_CHARGES


@<TRIPOS>ATOM
  1 O       -0.3810    -0.0920     0.0980 O.co2 1 <1>  -0.9000 
  2 C       -0.8850    -1.2310    -0.0150 C.2   1 <1>   1.0320 
  3 O       -0.0960    -2.1940    -0.1080 O.co2 1 <1>  -0.9000 
  4 C       -2.3300    -1.4340    -0.0340 C.2   1 <1>  -0.0920 
  5 O       -3.1780    -0.4080     0.0980 O.3   1 <1>  -0.2800 
  6 C       -3.0670    -2.5760    -0.1710 C.2   1 <1>  -0.1500 
  7 C       -4.4060    -0.8860     0.0420 C.2   1 <1>  -0.0400 
  8 C       -4.4320    -2.2340    -0.1120 C.2   1 <1>  -0.0860 
  9 C       -5.6060     0.0230     0.1460 C.3   1 <1>   0.0200 
 10 C       -5.6560    -2.9960    -0.1640 C.2   1 <1>   0.4750 
 11 C       -6.8500    -0.7260    -0.3660 C.3   1 <1>  -0.1600 
 12 N       -5.8800    -4.2550    -0.4170 N.2   1 <1>  -0.8000 
 13 C       -6.9070    -2.1790     0.1570 C.3   1 <1>  -0.0990 
 14 O       -4.8930    -4.9440    -0.6740 O.3   1 <1>  -0.6500 
 15 H       -2.7170    -3.5860    -0.3020 H     1 <1>   0.1500 
 16 H       -5.7320     0.3070     1.1750 H     1 <1>   0.0800 
 17 H       -5.4390     0.9080    -0.4410 H     1 <1>   0.0800 
 18 H       -7.7410    -0.1950    -0.0850 H     1 <1>   0.0800 
 19 H       -6.8050    -0.7630    -1.4410 H     1 <1>   0.0800 
 20 H       -7.7590    -2.6780    -0.2700 H     1 <1>   0.0800 
 21 H       -7.0270    -2.1800     1.2230 H     1 <1>   0.0800 
@<TRIPOS>BOND
  1   1   2  ar  
  2   2   3  ar  
  3   2   4  1   
  4   4   5  1   
  5   4   6  2   
  6   5   7  1   
  7   6   8  1   
  8   6  15  1   
  9   7   8  2   
 10   7   9  1   
 11   8  10  1   
 12   9  11  1   
 13   9  16  1   
 14   9  17  1   
 15  10  12  2   
 16  10  13  1   
 17  11  13  1   
 18  11  18  1   
 19  11  19  1   
 20  12  14  1   
 21  13  20  1   
 22  13  21  1   
@<TRIPOS>SUBSTRUCTURE
  1 ****   8 GROUP 4 **** **** 0

# MOE 2024.06 (io_trps.svl 2023.06)
