@<TRIPOS>MOLECULE
NONAME
51 52 1 0 0 
SMALL
USER_CHARGES


@<TRIPOS>ATOM
  1 S        0.2440    -0.7170     0.0210 S.o2  1 <1>   1.4470 
  2 O        1.2990    -1.1940    -0.8470 O.2   1 <1>  -0.6500 
  3 O       -1.0670    -1.3220    -0.0630 O.2   1 <1>  -0.6500 
  4 N        0.7950    -0.9640     1.6040 N.am  1 <1>  -0.8490 
  5 C        0.1380     1.0870    -0.1050 C.ar  1 <1>  -0.0090 
  6 C        1.4430    -2.2920     1.7790 C.3   1 <1>   0.2570 
  7 C       -0.2350    -0.7320     2.6230 C.3   1 <1>   0.1160 
  8 C       -1.0140     1.7100    -0.5690 C.ar  1 <1>  -0.1500 
  9 C        1.2110     1.8880     0.2580 C.ar  1 <1>  -0.1500 
 10 C        2.9780    -2.2590     1.7510 C.2   1 <1>   0.5690 
 11 C       -1.1160     3.0960    -0.6710 C.ar  1 <1>   0.0820 
 12 C        1.1320     3.2640     0.1670 C.ar  1 <1>  -0.1500 
 13 O        3.5570    -2.7420     2.6950 O.2   1 <1>  -0.5700 
 14 N        3.6210    -1.7120     0.6680 N.am  1 <1>  -0.5470 
 15 O       -2.2590     3.6770    -1.1370 O.3   1 <1>  -0.3630 
 16 C       -0.0170     3.8870    -0.2890 C.ar  1 <1>   0.0830 
 17 C        4.9850    -1.5130     0.3810 C.ar  1 <1>   0.1170 
 18 C       -3.3450     2.9320    -1.6480 C.3   1 <1>   0.0400 
 19 O        0.0660     5.2490    -0.3100 O.3   1 <1>  -0.3630 
 20 C        5.4010    -1.2950    -0.9380 C.ar  1 <1>  -0.1430 
 21 C        5.9500    -1.5130     1.3860 C.ar  1 <1>  -0.1500 
 22 C       -1.0120     6.0960    -0.6360 C.3   1 <1>   0.0400 
 23 C        6.7470    -1.1090    -1.2160 C.ar  1 <1>  -0.1500 
 24 C        4.4210    -1.2490    -2.1090 C.3   1 <1>  -0.0170 
 25 C        7.2880    -1.3230     1.1000 C.ar  1 <1>  -0.1500 
 26 C        7.6910    -1.1230    -0.2060 C.ar  1 <1>  -0.1500 
 27 C        3.9810    -2.6560    -2.5230 C.3   1 <1>  -0.2400 
 28 H        1.0980    -2.9830     1.0280 H     1 <1>   0.0800 
 29 H        1.1640    -2.7080     2.7310 H     1 <1>   0.0800 
 30 H       -0.6530     0.2540     2.5090 H     1 <1>   0.0800 
 31 H        0.1970    -0.8020     3.6070 H     1 <1>   0.0800 
 32 H       -1.0270    -1.4580     2.5330 H     1 <1>   0.0800 
 33 H       -1.8350     1.0760    -0.8480 H     1 <1>   0.1500 
 34 H        2.1190     1.4320     0.6190 H     1 <1>   0.1500 
 35 H        1.9720     3.8710     0.4550 H     1 <1>   0.1500 
 36 H        2.9900    -1.4620    -0.1040 H     1 <1>   0.3700 
 37 H       -4.0890     3.6250    -1.9960 H     1 <1>   0.0800 
 38 H       -3.7550     2.3240    -0.8610 H     1 <1>   0.0800 
 39 H       -3.0000     2.3270    -2.4680 H     1 <1>   0.0800 
 40 H        5.6630    -1.6600     2.4100 H     1 <1>   0.1500 
 41 H       -0.6890     7.1130    -0.5110 H     1 <1>   0.0800 
 42 H       -1.8320     5.8880     0.0280 H     1 <1>   0.0800 
 43 H       -1.2930     5.9250    -1.6600 H     1 <1>   0.0800 
 44 H        7.0750    -0.9500    -2.2290 H     1 <1>   0.1500 
 45 H        4.8850    -0.7710    -2.9530 H     1 <1>   0.0800 
 46 H        3.5680    -0.6510    -1.8510 H     1 <1>   0.0800 
 47 H        8.0140    -1.3330     1.8940 H     1 <1>   0.1500 
 48 H        8.7320    -0.9780    -0.4340 H     1 <1>   0.1500 
 49 H        4.8370    -3.2410    -2.8100 H     1 <1>   0.0800 
 50 H        3.3030    -2.6000    -3.3560 H     1 <1>   0.0800 
 51 H        3.4830    -3.1530    -1.7100 H     1 <1>   0.0800 
@<TRIPOS>BOND
  1   1   2  2   
  2   1   3  2   
  3   1   4  am  
  4   1   5  1   
  5   4   6  1   
  6   4   7  1   
  7   5   8  ar  
  8   5   9  ar  
  9   6  10  1   
 10   6  28  1   
 11   6  29  1   
 12   7  30  1   
 13   7  31  1   
 14   7  32  1   
 15   8  11  ar  
 16   8  33  1   
 17   9  12  ar  
 18   9  34  1   
 19  10  13  2   
 20  10  14  am  
 21  11  15  1   
 22  11  16  ar  
 23  12  16  ar  
 24  12  35  1   
 25  14  17  1   
 26  14  36  1   
 27  15  18  1   
 28  16  19  1   
 29  17  20  ar  
 30  17  21  ar  
 31  18  37  1   
 32  18  38  1   
 33  18  39  1   
 34  19  22  1   
 35  20  23  ar  
 36  20  24  1   
 37  21  25  ar  
 38  21  40  1   
 39  22  41  1   
 40  22  42  1   
 41  22  43  1   
 42  23  26  ar  
 43  23  44  1   
 44  24  27  1   
 45  24  45  1   
 46  24  46  1   
 47  25  26  ar  
 48  25  47  1   
 49  26  48  1   
 50  27  49  1   
 51  27  50  1   
 52  27  51  1   
@<TRIPOS>SUBSTRUCTURE
  1 ****   9 GROUP 4 **** **** 0

# MOE 2024.06 (io_trps.svl 2023.06)
