@<TRIPOS>MOLECULE
NONAME
57 60 1 0 0 
SMALL
USER_CHARGES


@<TRIPOS>ATOM
  1 O       -2.1960    -1.0550     2.3360 O.2   1 <1>  -0.5700 
  2 C       -2.1910    -1.2760     1.1390 C.2   1 <1>   0.5440 
  3 N       -1.5090    -2.3770     0.6690 N.am  1 <1>  -0.6600 
  4 C       -2.9010    -0.3930     0.2420 C.ar  1 <1>   0.0860 
  5 C       -0.8220    -3.3230     1.5760 C.3   1 <1>   0.1400 
  6 C       -1.0260    -2.5340    -0.7240 C.3   1 <1>   0.1400 
  7 C       -3.9370    -0.8680    -0.5770 C.ar  1 <1>   0.1170 
  8 C       -2.5650     0.9590     0.1810 C.ar  1 <1>  -0.1500 
  9 C       -0.0410    -4.2520     0.6540 C.3   1 <1>  -0.1600 
 10 C        0.2030    -3.4280    -0.6070 C.3   1 <1>  -0.1600 
 11 N       -4.3240    -2.2140    -0.5060 N.am  1 <1>  -0.5470 
 12 C       -4.5580     0.0080    -1.4650 C.ar  1 <1>  -0.1500 
 13 C       -3.2030     1.8200    -0.6900 C.ar  1 <1>  -0.1500 
 14 C       -5.5090    -2.8570    -0.7270 C.2   1 <1>   0.5440 
 15 C       -4.1990     1.3400    -1.5220 C.ar  1 <1>  -0.1500 
 16 O       -5.4440    -4.0580    -0.8770 O.2   1 <1>  -0.5700 
 17 C       -6.7950    -2.1820    -0.7580 C.ar  1 <1>   0.0860 
 18 C       -7.7720    -2.5590    -1.6780 C.ar  1 <1>  -0.1500 
 19 C       -7.1180    -1.1550     0.1280 C.ar  1 <1>  -0.1500 
 20 C       -9.0090    -1.9430    -1.7170 C.ar  1 <1>  -0.1500 
 21 C       -8.3520    -0.5320     0.0970 C.ar  1 <1>  -0.1500 
 22 C       -9.3120    -0.9270    -0.8230 C.ar  1 <1>  -0.1430 
 23 C      -10.6800    -0.2690    -0.8460 C.3   1 <1>   0.4860 
 24 N      -11.4570    -0.7330     0.3340 N.4   1 <1>  -0.9590 
 25 C      -11.6200    -2.2260     0.4070 C.3   1 <1>   0.3430 
 26 C      -12.7800    -0.0410     0.4920 C.3   1 <1>   0.3430 
 27 C      -12.3850    -2.6430     1.6850 C.3   1 <1>   0.1200 
 28 C      -13.5840    -0.6140     1.6830 C.3   1 <1>   0.1200 
 29 O      -12.8120    -1.5240     2.4180 O.3   1 <1>  -0.5600 
 30 H       -1.5350    -3.8610     2.1780 H     1 <1>   0.0800 
 31 H       -0.1530    -2.7730     2.2170 H     1 <1>   0.0800 
 32 H       -0.7800    -1.5820    -1.1640 H     1 <1>   0.0800 
 33 H       -1.7820    -3.0240    -1.3130 H     1 <1>   0.0800 
 34 H       -1.7900     1.3280     0.8300 H     1 <1>   0.1500 
 35 H       -0.6510    -5.1070     0.4220 H     1 <1>   0.0800 
 36 H        0.8740    -4.5890     1.1090 H     1 <1>   0.0800 
 37 H        1.0740    -2.8100    -0.4770 H     1 <1>   0.0800 
 38 H        0.3360    -4.0430    -1.4800 H     1 <1>   0.0800 
 39 H       -3.5940    -2.8620    -0.1910 H     1 <1>   0.3700 
 40 H       -5.3260    -0.3540    -2.1240 H     1 <1>   0.1500 
 41 H       -2.9250     2.8600    -0.7240 H     1 <1>   0.1500 
 42 H       -4.6890     2.0060    -2.2110 H     1 <1>   0.1500 
 43 H       -7.5460    -3.3550    -2.3700 H     1 <1>   0.1500 
 44 H       -6.3850    -0.8440     0.8550 H     1 <1>   0.1500 
 45 H       -9.7270    -2.2700    -2.4520 H     1 <1>   0.1500 
 46 H       -8.5480     0.2610     0.7990 H     1 <1>   0.1500 
 47 H      -11.1950    -0.5300    -1.7570 H     1 <1>   0.0800 
 48 H      -10.5610     0.8020    -0.8150 H     1 <1>   0.0800 
 49 H      -10.9190    -0.5010     1.1810 H     1 <1>   0.4500 
 50 H      -10.6550    -2.7070     0.4070 H     1 <1>   0.0800 
 51 H      -12.1590    -2.5820    -0.4550 H     1 <1>   0.0800 
 52 H      -13.3670    -0.1480    -0.4050 H     1 <1>   0.0800 
 53 H      -12.6240     1.0130     0.6540 H     1 <1>   0.0800 
 54 H      -11.7450    -3.2260     2.3250 H     1 <1>   0.0800 
 55 H      -13.2450    -3.2410     1.4370 H     1 <1>   0.0800 
 56 H      -14.4730    -1.1150     1.3400 H     1 <1>   0.0800 
 57 H      -13.8820     0.1790     2.3470 H     1 <1>   0.0800 
@<TRIPOS>BOND
  1   1   2  2   
  2   2   3  am  
  3   2   4  1   
  4   3   5  1   
  5   3   6  1   
  6   4   7  ar  
  7   4   8  ar  
  8   5   9  1   
  9   5  30  1   
 10   5  31  1   
 11   6  10  1   
 12   6  32  1   
 13   6  33  1   
 14   7  11  1   
 15   7  12  ar  
 16   8  13  ar  
 17   8  34  1   
 18   9  10  1   
 19   9  35  1   
 20   9  36  1   
 21  10  37  1   
 22  10  38  1   
 23  11  14  am  
 24  11  39  1   
 25  12  15  ar  
 26  12  40  1   
 27  13  15  ar  
 28  13  41  1   
 29  14  16  2   
 30  14  17  1   
 31  15  42  1   
 32  17  18  ar  
 33  17  19  ar  
 34  18  20  ar  
 35  18  43  1   
 36  19  21  ar  
 37  19  44  1   
 38  20  22  ar  
 39  20  45  1   
 40  21  22  ar  
 41  21  46  1   
 42  22  23  1   
 43  23  24  1   
 44  23  47  1   
 45  23  48  1   
 46  24  25  1   
 47  24  26  1   
 48  24  49  1   
 49  25  27  1   
 50  25  50  1   
 51  25  51  1   
 52  26  28  1   
 53  26  52  1   
 54  26  53  1   
 55  27  29  1   
 56  27  54  1   
 57  27  55  1   
 58  28  29  1   
 59  28  56  1   
 60  28  57  1   
@<TRIPOS>SUBSTRUCTURE
  1 ****  19 GROUP 4 **** **** 0

# MOE 2024.06 (io_trps.svl 2023.06)
