@<TRIPOS>MOLECULE
NONAME
38 39 1 0 0 
SMALL
USER_CHARGES


@<TRIPOS>ATOM
  1 BR      -0.0140     0.4710    -0.4750 Br    1 <1>  -0.1110 
  2 C        1.7870     1.1290    -0.2960 C.ar  1 <1>   0.1110 
  3 C        1.9810     2.4430     0.0840 C.ar  1 <1>  -0.1500 
  4 C        2.8390     0.2690    -0.5530 C.ar  1 <1>  -0.1500 
  5 C        3.2790     2.9080     0.2100 C.ar  1 <1>  -0.1500 
  6 C        4.1330     0.7440    -0.4230 C.ar  1 <1>  -0.1500 
  7 C        4.3560     2.0680    -0.0410 C.ar  1 <1>   0.0830 
  8 O        5.5910     2.6100     0.1080 O.3   1 <1>  -0.3630 
  9 C        6.7570     1.8530    -0.1200 C.3   1 <1>   0.1200 
 10 C        7.9650     2.7550     0.1340 C.3   1 <1>  -0.1600 
 11 C        9.2830     2.0030    -0.0950 C.3   1 <1>  -0.1600 
 12 C       10.4890     2.9140     0.1640 C.3   1 <1>  -0.1600 
 13 C       11.8080     2.1630    -0.0630 C.3   1 <1>  -0.1600 
 14 C       13.0150     3.0710     0.2020 C.3   1 <1>   0.0960 
 15 N       14.2730     2.3330    -0.0190 N.pl3 1 <1>   0.0480 
 16 C       15.0410     2.3140    -1.1320 C.2   1 <1>   0.0360 
 17 C       14.9120     1.5260     0.8480 C.2   1 <1>  -0.3020 
 18 N       16.0950     1.5700    -1.0330 N.2   1 <1>  -0.5650 
 19 C       16.0150     1.0720     0.2140 C.2   1 <1>   0.0770 
 20 H        1.1390     3.0840     0.2760 H     1 <1>   0.1500 
 21 H        2.6450    -0.7470    -0.8460 H     1 <1>   0.1500 
 22 H        3.4670     3.9250     0.5040 H     1 <1>   0.1500 
 23 H        4.9480     0.0740    -0.6230 H     1 <1>   0.1500 
 24 H        6.7450     1.5100    -1.1400 H     1 <1>   0.0800 
 25 H        6.7570     1.0170     0.5580 H     1 <1>   0.0800 
 26 H        7.9260     3.1120     1.1490 H     1 <1>   0.0800 
 27 H        7.9140     3.6010    -0.5310 H     1 <1>   0.0800 
 28 H        9.3180     1.6420    -1.1100 H     1 <1>   0.0800 
 29 H        9.3280     1.1530     0.5650 H     1 <1>   0.0800 
 30 H       10.4500     3.2750     1.1780 H     1 <1>   0.0800 
 31 H       10.4400     3.7650    -0.4960 H     1 <1>   0.0800 
 32 H       11.8470     1.8080    -1.0780 H     1 <1>   0.0800 
 33 H       11.8520     1.3140     0.5980 H     1 <1>   0.0800 
 34 H       13.0000     3.4250     1.2170 H     1 <1>   0.0800 
 35 H       12.9930     3.9210    -0.4570 H     1 <1>   0.0800 
 36 H       14.7820     2.8740    -2.0130 H     1 <1>   0.1500 
 37 H       14.5580     1.3220     1.8410 H     1 <1>   0.1500 
 38 H       16.7680     0.4030     0.5960 H     1 <1>   0.1500 
@<TRIPOS>BOND
  1   1   2  1   
  2   2   3  ar  
  3   2   4  ar  
  4   3   5  ar  
  5   3  20  1   
  6   4   6  ar  
  7   4  21  1   
  8   5   7  ar  
  9   5  22  1   
 10   6   7  ar  
 11   6  23  1   
 12   7   8  1   
 13   8   9  1   
 14   9  10  1   
 15   9  24  1   
 16   9  25  1   
 17  10  11  1   
 18  10  26  1   
 19  10  27  1   
 20  11  12  1   
 21  11  28  1   
 22  11  29  1   
 23  12  13  1   
 24  12  30  1   
 25  12  31  1   
 26  13  14  1   
 27  13  32  1   
 28  13  33  1   
 29  14  15  1   
 30  14  34  1   
 31  14  35  1   
 32  15  16  1   
 33  15  17  1   
 34  16  18  2   
 35  16  36  1   
 36  17  19  2   
 37  17  37  1   
 38  18  19  1   
 39  19  38  1   
@<TRIPOS>SUBSTRUCTURE
  1 ****  11 GROUP 4 **** **** 0

# MOE 2024.06 (io_trps.svl 2023.06)
