@<TRIPOS>MOLECULE
NONAME
48 49 1 0 0 
SMALL
USER_CHARGES


@<TRIPOS>ATOM
  1 O       -4.6650     1.5350    -0.7210 O.co2 1 <1>  -0.9000 
  2 C       -4.3060     1.3340     0.4400 C.2   1 <1>   0.9060 
  3 O       -4.9620     0.5360     1.1190 O.co2 1 <1>  -0.9000 
  4 C       -3.3470     2.2490     1.1810 C.3   1 <1>  -0.1860 
  5 C       -3.8070     3.7300     1.1400 C.3   1 <1>  -0.0190 
  6 C       -1.8770     2.0480     0.7720 C.3   1 <1>  -0.0220 
  7 C       -5.3000     3.9440     1.4570 C.2   1 <1>   0.5690 
  8 C       -3.4650     4.3840    -0.2130 C.3   1 <1>  -0.0220 
  9 C       -1.3420     3.0400    -0.2560 C.2   1 <1>  -0.2760 
 10 O       -5.8160     5.0070     1.1970 O.2   1 <1>  -0.5700 
 11 N       -6.0610     2.9420     1.9750 N.am  1 <1>  -0.7300 
 12 C       -2.0560     4.0810    -0.7080 C.2   1 <1>  -0.2760 
 13 C        0.0760     2.6660    -0.6740 C.3   1 <1>  -0.1020 
 14 C       -7.5330     2.9070     1.8430 C.3   1 <1>   0.1400 
 15 C       -1.6250     5.0890    -1.7690 C.3   1 <1>  -0.1020 
 16 C       -7.9420     2.7540     0.3620 C.3   1 <1>   0.3430 
 17 N       -7.3830     1.5380    -0.3090 N.4   1 <1>  -0.9590 
 18 C       -7.5590     1.5650    -1.7930 C.3   1 <1>   0.3430 
 19 C       -7.7700     0.2280     0.3060 C.3   1 <1>   0.3430 
 20 C       -7.0570     0.2710    -2.4630 C.3   1 <1>   0.1200 
 21 C       -7.2490    -0.9700    -0.5100 C.3   1 <1>   0.1200 
 22 O       -7.6340    -0.8470    -1.8510 O.3   1 <1>  -0.5600 
 23 H       -3.4070     1.9370     2.2070 H     1 <1>   0.0800 
 24 H       -3.2490     4.2580     1.8910 H     1 <1>   0.0800 
 25 H       -1.7560     1.0440     0.3990 H     1 <1>   0.0800 
 26 H       -1.2680     2.1350     1.6550 H     1 <1>   0.0800 
 27 H       -3.5820     5.4480    -0.1040 H     1 <1>   0.0800 
 28 H       -4.1650     4.0570    -0.9620 H     1 <1>   0.0800 
 29 H       -5.6240     2.0000     2.0210 H     1 <1>   0.3700 
 30 H        0.7020     2.5770     0.1950 H     1 <1>   0.0800 
 31 H        0.5270     3.3900    -1.3210 H     1 <1>   0.0800 
 32 H        0.0640     1.7200    -1.1870 H     1 <1>   0.0800 
 33 H       -7.9370     3.8290     2.2250 H     1 <1>   0.0800 
 34 H       -7.9290     2.0990     2.4310 H     1 <1>   0.0800 
 35 H       -1.5350     6.0660    -1.3290 H     1 <1>   0.0800 
 36 H       -2.3650     5.1300    -2.5480 H     1 <1>   0.0800 
 37 H       -0.6910     4.8410    -2.2280 H     1 <1>   0.0800 
 38 H       -7.5980     3.6320    -0.1600 H     1 <1>   0.0800 
 39 H       -9.0160     2.7340     0.2970 H     1 <1>   0.0800 
 40 H       -6.3310     1.5490    -0.2030 H     1 <1>   0.4500 
 41 H       -7.0110     2.3980    -2.2000 H     1 <1>   0.0800 
 42 H       -8.6000     1.6920    -2.0330 H     1 <1>   0.0800 
 43 H       -8.8410     0.1570     0.3750 H     1 <1>   0.0800 
 44 H       -7.3570     0.1650     1.3000 H     1 <1>   0.0800 
 45 H       -5.9850     0.1960    -2.3930 H     1 <1>   0.0800 
 46 H       -7.3330     0.2600    -3.5020 H     1 <1>   0.0800 
 47 H       -7.6580    -1.8870    -0.1280 H     1 <1>   0.0800 
 48 H       -6.1740    -1.0260    -0.4580 H     1 <1>   0.0800 
@<TRIPOS>BOND
  1   1   2  ar  
  2   2   3  ar  
  3   2   4  1   
  4   4   5  1   
  5   4   6  1   
  6   4  23  1   
  7   5   7  1   
  8   5   8  1   
  9   5  24  1   
 10   6   9  1   
 11   6  25  1   
 12   6  26  1   
 13   7  10  2   
 14   7  11  am  
 15   8  12  1   
 16   8  27  1   
 17   8  28  1   
 18   9  12  2   
 19   9  13  1   
 20  11  14  1   
 21  11  29  1   
 22  12  15  1   
 23  13  30  1   
 24  13  31  1   
 25  13  32  1   
 26  14  16  1   
 27  14  33  1   
 28  14  34  1   
 29  15  35  1   
 30  15  36  1   
 31  15  37  1   
 32  16  17  1   
 33  16  38  1   
 34  16  39  1   
 35  17  18  1   
 36  17  19  1   
 37  17  40  1   
 38  18  20  1   
 39  18  41  1   
 40  18  42  1   
 41  19  21  1   
 42  19  43  1   
 43  19  44  1   
 44  20  22  1   
 45  20  45  1   
 46  20  46  1   
 47  21  22  1   
 48  21  47  1   
 49  21  48  1   
@<TRIPOS>SUBSTRUCTURE
  1 ****   1 GROUP 4 **** **** 0

# MOE 2024.06 (io_trps.svl 2023.06)
