@<TRIPOS>MOLECULE
NONAME
40 41 1 0 0 
SMALL
USER_CHARGES


@<TRIPOS>ATOM
  1 S        0.2400     0.0700     0.2340 S.o2  1 <1>   1.3330 
  2 O        0.5570    -1.0980     1.0250 O.2   1 <1>  -0.6500 
  3 O       -0.2250    -0.0900    -1.1260 O.2   1 <1>  -0.6500 
  4 N        1.6170     1.0560     0.1810 N.am  1 <1>  -0.8490 
  5 C       -0.9260     1.0810     1.1580 C.3   1 <1>  -0.0550 
  6 C        2.8670     0.2730     0.2830 C.3   1 <1>   0.1960 
  7 C        1.6220     1.9940    -0.9410 C.3   1 <1>   0.1960 
  8 C       -2.3070     0.4320     1.3670 C.3   1 <1>  -0.2400 
  9 C        4.1170     1.0390    -0.2010 C.3   1 <1>  -0.0190 
 10 C        2.6980     3.0700    -0.7220 C.3   1 <1>  -0.1600 
 11 C        5.3760     0.5040     0.4700 C.2   1 <1>   0.5690 
 12 C        3.9510     2.5540     0.0100 C.3   1 <1>  -0.1600 
 13 O        5.4160     0.4490     1.6740 O.2   1 <1>  -0.5700 
 14 N        6.4150     0.1260    -0.3370 N.am  1 <1>  -0.5470 
 15 C        7.6960    -0.3960    -0.0580 C.ar  1 <1>   0.1170 
 16 C        8.6250    -0.5260    -1.0900 C.ar  1 <1>   0.1900 
 17 C        8.1100    -0.8090     1.2070 C.ar  1 <1>  -0.1500 
 18 F        8.2770    -0.1560    -2.3000 F     1 <1>  -0.1900 
 19 C        9.8990    -1.0260    -0.9090 C.ar  1 <1>  -0.1500 
 20 C        9.3850    -1.3150     1.4120 C.ar  1 <1>  -0.1500 
 21 C       10.2820    -1.4250     0.3610 C.ar  1 <1>  -0.1500 
 22 H       -1.0610     2.0130     0.6460 H     1 <1>   0.0800 
 23 H       -0.5020     1.2980     2.1200 H     1 <1>   0.0800 
 24 H        2.7800    -0.6360    -0.2900 H     1 <1>   0.0800 
 25 H        2.9890    -0.0110     1.3170 H     1 <1>   0.0800 
 26 H        0.6600     2.4690    -1.0370 H     1 <1>   0.0800 
 27 H        1.8140     1.4530    -1.8540 H     1 <1>   0.0800 
 28 H       -2.7650     0.2240     0.4150 H     1 <1>   0.0800 
 29 H       -2.9470     1.0890     1.9270 H     1 <1>   0.0800 
 30 H       -2.2010    -0.4940     1.9060 H     1 <1>   0.0800 
 31 H        4.2080     0.8620    -1.2570 H     1 <1>   0.0800 
 32 H        2.2730     3.8810    -0.1560 H     1 <1>   0.0800 
 33 H        2.9760     3.4660    -1.6830 H     1 <1>   0.0800 
 34 H        4.8250     3.0860    -0.3250 H     1 <1>   0.0800 
 35 H        3.8400     2.7360     1.0670 H     1 <1>   0.0800 
 36 H        6.2690     0.2860    -1.3340 H     1 <1>   0.3700 
 37 H        7.4430    -0.7430     2.0460 H     1 <1>   0.1500 
 38 H       10.5760    -1.1030    -1.7410 H     1 <1>   0.1500 
 39 H        9.6790    -1.6250     2.4000 H     1 <1>   0.1500 
 40 H       11.2690    -1.8180     0.5310 H     1 <1>   0.1500 
@<TRIPOS>BOND
  1   1   2  2   
  2   1   3  2   
  3   1   4  am  
  4   1   5  1   
  5   4   6  1   
  6   4   7  1   
  7   5   8  1   
  8   5  22  1   
  9   5  23  1   
 10   6   9  1   
 11   6  24  1   
 12   6  25  1   
 13   7  10  1   
 14   7  26  1   
 15   7  27  1   
 16   8  28  1   
 17   8  29  1   
 18   8  30  1   
 19   9  11  1   
 20   9  12  1   
 21   9  31  1   
 22  10  12  1   
 23  10  32  1   
 24  10  33  1   
 25  11  13  2   
 26  11  14  am  
 27  12  34  1   
 28  12  35  1   
 29  14  15  1   
 30  14  36  1   
 31  15  16  ar  
 32  15  17  ar  
 33  16  18  1   
 34  16  19  ar  
 35  17  20  ar  
 36  17  37  1   
 37  19  21  ar  
 38  19  38  1   
 39  20  21  ar  
 40  20  39  1   
 41  21  40  1   
@<TRIPOS>SUBSTRUCTURE
  1 ****   9 GROUP 4 **** **** 0

# MOE 2024.06 (io_trps.svl 2023.06)
