@<TRIPOS>MOLECULE
NONAME
41 43 1 0 0 
SMALL
USER_CHARGES


@<TRIPOS>ATOM
  1 O        0.0050    -0.7300     2.1220 O.3   1 <1>  -0.3630 
  2 C       -0.3200    -1.1210     0.8730 C.ar  1 <1>   0.0830 
  3 C        1.3360    -0.8970     2.5800 C.3   1 <1>   0.1200 
  4 C       -0.4010    -2.5000     0.5470 C.ar  1 <1>   0.0000 
  5 C       -0.5400    -0.1520    -0.0710 C.ar  1 <1>  -0.1500 
  6 C        2.2980     0.0180     1.7990 C.3   1 <1>   0.3430 
  7 C       -0.5810    -2.8480    -0.8110 C.ar  1 <1>   0.0000 
  8 C       -0.3030    -3.5430     1.4930 C.ar  1 <1>  -0.1500 
  9 C       -0.7690    -0.5060    -1.4020 C.ar  1 <1>  -0.1500 
 10 N        3.2690    -0.7030     0.9020 N.4   1 <1>  -0.9590 
 11 C       -0.7740    -1.8260    -1.7620 C.ar  1 <1>  -0.1500 
 12 C       -0.5730    -4.2100    -1.1740 C.ar  1 <1>  -0.1500 
 13 C       -0.3080    -4.8570     1.1150 C.ar  1 <1>  -0.1500 
 14 C        4.1830     0.2850     0.2550 C.3   1 <1>   0.3430 
 15 C        2.5970    -1.5650    -0.1220 C.3   1 <1>   0.3430 
 16 C       -0.4330    -5.1940    -0.2360 C.ar  1 <1>  -0.1500 
 17 C        5.2620    -0.4430    -0.5480 C.3   1 <1>  -0.1600 
 18 C        3.6380    -2.3220    -0.9470 C.3   1 <1>  -0.1600 
 19 C        4.6500    -1.3750    -1.6010 C.3   1 <1>  -0.1600 
 20 H        1.6140    -1.9320     2.5080 H     1 <1>   0.0800 
 21 H        1.3360    -0.6120     3.6170 H     1 <1>   0.0800 
 22 H       -0.5360     0.8890     0.2020 H     1 <1>   0.1500 
 23 H        2.8620     0.5890     2.5190 H     1 <1>   0.0800 
 24 H        1.7130     0.7140     1.2200 H     1 <1>   0.0800 
 25 H       -0.2370    -3.2930     2.5370 H     1 <1>   0.1500 
 26 H       -0.9420     0.2660    -2.1330 H     1 <1>   0.1500 
 27 H        3.8550    -1.3260     1.4720 H     1 <1>   0.4500 
 28 H       -0.9430    -2.1050    -2.7880 H     1 <1>   0.1500 
 29 H       -0.6900    -4.4670    -2.2120 H     1 <1>   0.1500 
 30 H       -0.2280    -5.6460     1.8440 H     1 <1>   0.1500 
 31 H        4.6520     0.9020     1.0040 H     1 <1>   0.0800 
 32 H        3.6170     0.9230    -0.4050 H     1 <1>   0.0800 
 33 H        1.9870    -0.9590    -0.7730 H     1 <1>   0.0800 
 34 H        1.9610    -2.2850     0.3630 H     1 <1>   0.0800 
 35 H       -0.4320    -6.2340    -0.5190 H     1 <1>   0.1500 
 36 H        5.8910    -1.0050     0.1210 H     1 <1>   0.0800 
 37 H        5.8860     0.2840    -1.0390 H     1 <1>   0.0800 
 38 H        3.1310    -2.8860    -1.7110 H     1 <1>   0.0800 
 39 H        4.1490    -3.0280    -0.3150 H     1 <1>   0.0800 
 40 H        5.4270    -1.9440    -2.0840 H     1 <1>   0.0800 
 41 H        4.1550    -0.7880    -2.3570 H     1 <1>   0.0800 
@<TRIPOS>BOND
  1   1   2  1   
  2   1   3  1   
  3   2   4  ar  
  4   2   5  ar  
  5   3   6  1   
  6   3  20  1   
  7   3  21  1   
  8   4   7  ar  
  9   4   8  ar  
 10   5   9  ar  
 11   5  22  1   
 12   6  10  1   
 13   6  23  1   
 14   6  24  1   
 15   7  11  ar  
 16   7  12  ar  
 17   8  13  ar  
 18   8  25  1   
 19   9  11  ar  
 20   9  26  1   
 21  10  14  1   
 22  10  15  1   
 23  10  27  1   
 24  11  28  1   
 25  12  16  ar  
 26  12  29  1   
 27  13  16  ar  
 28  13  30  1   
 29  14  17  1   
 30  14  31  1   
 31  14  32  1   
 32  15  18  1   
 33  15  33  1   
 34  15  34  1   
 35  16  35  1   
 36  17  19  1   
 37  17  36  1   
 38  17  37  1   
 39  18  19  1   
 40  18  38  1   
 41  18  39  1   
 42  19  40  1   
 43  19  41  1   
@<TRIPOS>SUBSTRUCTURE
  1 ****  15 GROUP 4 **** **** 0

# MOE 2024.06 (io_trps.svl 2023.06)
