@<TRIPOS>MOLECULE
NONAME
47 48 1 0 0 
SMALL
USER_CHARGES


@<TRIPOS>ATOM
  1 S       -0.0150     0.1790     0.4840 S.o2  1 <1>   1.3330 
  2 O       -1.1770     1.0130     0.2690 O.2   1 <1>  -0.6500 
  3 O        0.2440    -0.3590     1.8010 O.2   1 <1>  -0.6500 
  4 N        1.3610     1.0530     0.0140 N.am  1 <1>  -0.8490 
  5 C       -0.0590    -1.1600    -0.7170 C.3   1 <1>  -0.0550 
  6 C        2.5940     0.4940     0.5790 C.3   1 <1>   0.1960 
  7 C        1.2270     2.4830     0.3120 C.3   1 <1>   0.1960 
  8 C       -1.2330    -2.1400    -0.5360 C.3   1 <1>  -0.2400 
  9 C        3.8180     1.2050    -0.0020 C.3   1 <1>  -0.1600 
 10 C        2.4160     3.2650    -0.2560 C.3   1 <1>  -0.1600 
 11 C        3.7550     2.7190     0.2650 C.3   1 <1>  -0.0190 
 12 C        4.9400     3.4610    -0.3530 C.2   1 <1>   0.5690 
 13 O        5.1810     3.3000    -1.5240 O.2   1 <1>  -0.5700 
 14 N        5.6640     4.2880     0.4620 N.am  1 <1>  -0.5470 
 15 C        6.7990     5.0780     0.2070 C.ar  1 <1>   0.1170 
 16 C        7.6680     4.8440    -0.8540 C.ar  1 <1>  -0.1500 
 17 C        7.0780     6.1360     1.0650 C.ar  1 <1>  -0.1500 
 18 C        8.7780     5.6460    -1.0500 C.ar  1 <1>  -0.1500 
 19 C        8.1880     6.9410     0.8750 C.ar  1 <1>  -0.1500 
 20 C        9.0480     6.6980    -0.1910 C.ar  1 <1>   0.0820 
 21 O       10.1590     7.4340    -0.4560 O.3   1 <1>  -0.3630 
 22 C       10.5060     8.5390     0.3450 C.3   1 <1>   0.1200 
 23 C       11.7840     9.1500    -0.2210 C.3   1 <1>  -0.2400 
 24 H        0.8570    -1.7130    -0.6580 H     1 <1>   0.0800 
 25 H       -0.1170    -0.7350    -1.7010 H     1 <1>   0.0800 
 26 H        2.6570    -0.5560     0.3480 H     1 <1>   0.0800 
 27 H        2.5860     0.5990     1.6530 H     1 <1>   0.0800 
 28 H        1.1560     2.6270     1.3790 H     1 <1>   0.0800 
 29 H        0.3270     2.8670    -0.1380 H     1 <1>   0.0800 
 30 H       -1.1850    -2.5990     0.4360 H     1 <1>   0.0800 
 31 H       -1.1960    -2.9090    -1.2870 H     1 <1>   0.0800 
 32 H       -2.1680    -1.6140    -0.6220 H     1 <1>   0.0800 
 33 H        3.8570     1.0200    -1.0620 H     1 <1>   0.0800 
 34 H        4.7110     0.7970     0.4350 H     1 <1>   0.0800 
 35 H        2.3170     4.3030     0.0070 H     1 <1>   0.0800 
 36 H        2.3900     3.1970    -1.3300 H     1 <1>   0.0800 
 37 H        3.7810     2.8640     1.3300 H     1 <1>   0.0800 
 38 H        5.3040     4.3800     1.4090 H     1 <1>   0.3700 
 39 H        7.4880     4.0320    -1.5340 H     1 <1>   0.1500 
 40 H        6.4220     6.3380     1.8920 H     1 <1>   0.1500 
 41 H        9.4440     5.4590    -1.8740 H     1 <1>   0.1500 
 42 H        8.3650     7.7470     1.5610 H     1 <1>   0.1500 
 43 H       10.6640     8.1940     1.3530 H     1 <1>   0.0800 
 44 H        9.6990     9.2500     0.3140 H     1 <1>   0.0800 
 45 H       12.5790     8.4260    -0.2010 H     1 <1>   0.0800 
 46 H       12.0760     9.9980     0.3700 H     1 <1>   0.0800 
 47 H       11.6200     9.4750    -1.2330 H     1 <1>   0.0800 
@<TRIPOS>BOND
  1   1   2  2   
  2   1   3  2   
  3   1   4  am  
  4   1   5  1   
  5   4   6  1   
  6   4   7  1   
  7   5   8  1   
  8   5  24  1   
  9   5  25  1   
 10   6   9  1   
 11   6  26  1   
 12   6  27  1   
 13   7  10  1   
 14   7  28  1   
 15   7  29  1   
 16   8  30  1   
 17   8  31  1   
 18   8  32  1   
 19   9  11  1   
 20   9  33  1   
 21   9  34  1   
 22  10  11  1   
 23  10  35  1   
 24  10  36  1   
 25  11  12  1   
 26  11  37  1   
 27  12  13  2   
 28  12  14  am  
 29  14  15  1   
 30  14  38  1   
 31  15  16  ar  
 32  15  17  ar  
 33  16  18  ar  
 34  16  39  1   
 35  17  19  ar  
 36  17  40  1   
 37  18  20  ar  
 38  18  41  1   
 39  19  20  ar  
 40  19  42  1   
 41  20  21  1   
 42  21  22  1   
 43  22  23  1   
 44  22  43  1   
 45  22  44  1   
 46  23  45  1   
 47  23  46  1   
 48  23  47  1   
@<TRIPOS>SUBSTRUCTURE
  1 ****  12 GROUP 4 **** **** 0

# MOE 2024.06 (io_trps.svl 2023.06)
