@<TRIPOS>MOLECULE
NONAME
44 46 1 0 0 
SMALL
USER_CHARGES


@<TRIPOS>ATOM
  1 BR       1.0010    -2.2710     3.0520 Br    1 <1>  -0.1110 
  2 C        0.1660    -2.4150     1.3220 C.ar  1 <1>   0.1110 
  3 C        0.7100    -1.7770     0.2230 C.ar  1 <1>   0.1900 
  4 C       -0.9890    -3.1670     1.2050 C.ar  1 <1>  -0.1500 
  5 F        1.8000    -1.0660     0.3460 F     1 <1>  -0.1900 
  6 C        0.1120    -1.8780    -1.0190 C.ar  1 <1>  -0.1500 
  7 C       -1.6060    -3.2700    -0.0380 C.ar  1 <1>  -0.1440 
  8 C       -1.0490    -2.6290    -1.1430 C.ar  1 <1>  -0.1500 
  9 C       -2.8830    -4.0800    -0.1870 C.3   1 <1>   0.4870 
 10 N       -4.0350    -3.1470    -0.2880 N.4   1 <1>  -0.9590 
 11 C       -4.2250    -2.3380     0.9750 C.3   1 <1>   0.3430 
 12 C       -5.3100    -3.8670    -0.6520 C.3   1 <1>   0.3430 
 13 C       -5.4210    -1.3700     0.8810 C.3   1 <1>   0.2090 
 14 C       -6.5150    -2.9110    -0.7620 C.3   1 <1>   0.2090 
 15 N       -6.6630    -2.0920     0.4760 N.pl3 1 <1>  -0.8380 
 16 C       -7.8240    -1.3060     0.5110 C.ar  1 <1>   0.1000 
 17 C       -8.0630    -0.2180    -0.3500 C.ar  1 <1>   0.0830 
 18 C       -8.7850    -1.6340     1.4560 C.ar  1 <1>  -0.1500 
 19 O       -7.1070     0.0990    -1.2810 O.3   1 <1>  -0.3620 
 20 C       -9.2500     0.5000    -0.2350 C.ar  1 <1>  -0.1500 
 21 C       -9.9610    -0.9150     1.5630 C.ar  1 <1>  -0.1500 
 22 C       -7.2810     1.1870    -2.1640 C.3   1 <1>   0.0400 
 23 C      -10.1930     0.1530     0.7170 C.ar  1 <1>  -0.1500 
 24 H       -1.3810    -3.6570     2.0810 H     1 <1>   0.1500 
 25 H        0.5530    -1.3790    -1.8650 H     1 <1>   0.1500 
 26 H       -1.5040    -2.7090    -2.1170 H     1 <1>   0.1500 
 27 H       -3.0070    -4.7350     0.6600 H     1 <1>   0.0800 
 28 H       -2.8160    -4.6840    -1.0780 H     1 <1>   0.0800 
 29 H       -3.8280    -2.4730    -1.0360 H     1 <1>   0.4500 
 30 H       -3.3350    -1.7670     1.1850 H     1 <1>   0.0800 
 31 H       -4.3980    -3.0000     1.8070 H     1 <1>   0.0800 
 32 H       -5.5390    -4.6010     0.1030 H     1 <1>   0.0800 
 33 H       -5.1890    -4.3820    -1.5910 H     1 <1>   0.0800 
 34 H       -5.1990    -0.5910     0.1730 H     1 <1>   0.0800 
 35 H       -5.5820    -0.9060     1.8390 H     1 <1>   0.0800 
 36 H       -7.4140    -3.4840    -0.9120 H     1 <1>   0.0800 
 37 H       -6.3900    -2.2690    -1.6160 H     1 <1>   0.0800 
 38 H       -8.6050    -2.4640     2.1140 H     1 <1>   0.1500 
 39 H       -9.4690     1.3350    -0.8720 H     1 <1>   0.1500 
 40 H      -10.6940    -1.1860     2.3040 H     1 <1>   0.1500 
 41 H       -6.4140     1.2510    -2.7950 H     1 <1>   0.0800 
 42 H       -7.3820     2.0910    -1.5900 H     1 <1>   0.0800 
 43 H       -8.1560     1.0130    -2.7650 H     1 <1>   0.0800 
 44 H      -11.1090     0.7130     0.7990 H     1 <1>   0.1500 
@<TRIPOS>BOND
  1   1   2  1   
  2   2   3  ar  
  3   2   4  ar  
  4   3   5  1   
  5   3   6  ar  
  6   4   7  ar  
  7   4  24  1   
  8   6   8  ar  
  9   6  25  1   
 10   7   8  ar  
 11   7   9  1   
 12   8  26  1   
 13   9  10  1   
 14   9  27  1   
 15   9  28  1   
 16  10  11  1   
 17  10  12  1   
 18  10  29  1   
 19  11  13  1   
 20  11  30  1   
 21  11  31  1   
 22  12  14  1   
 23  12  32  1   
 24  12  33  1   
 25  13  15  1   
 26  13  34  1   
 27  13  35  1   
 28  14  15  1   
 29  14  36  1   
 30  14  37  1   
 31  15  16  1   
 32  16  17  ar  
 33  16  18  ar  
 34  17  19  1   
 35  17  20  ar  
 36  18  21  ar  
 37  18  38  1   
 38  19  22  1   
 39  20  23  ar  
 40  20  39  1   
 41  21  23  ar  
 42  21  40  1   
 43  22  41  1   
 44  22  42  1   
 45  22  43  1   
 46  23  44  1   
@<TRIPOS>SUBSTRUCTURE
  1 ****  11 GROUP 4 **** **** 0

# MOE 2024.06 (io_trps.svl 2023.06)
