@<TRIPOS>MOLECULE
NONAME
28 27 1 0 0 
SMALL
USER_CHARGES


@<TRIPOS>ATOM
  1 O       -0.4620    -0.0990     0.8980 O.2   1 <1>  -0.5700 
  2 C       -1.5020    -0.6570     0.6190 C.2   1 <1>   0.7060 
  3 O       -1.4900    -1.9900     0.6780 O.3   1 <1>  -0.4300 
  4 C       -2.7070     0.0310     0.2670 C.2   1 <1>   0.0790 
  5 C       -1.8450    -2.7720    -0.4410 C.3   1 <1>   0.1200 
  6 C       -2.4970     1.2940    -0.3640 C.1   1 <1>   0.4920 
  7 C       -3.9620    -0.4560     0.5070 C.2   1 <1>  -0.1500 
  8 C       -1.7470    -4.2380    -0.0350 C.3   1 <1>  -0.2400 
  9 N       -2.3840     2.2950    -0.8990 N.1   1 <1>  -0.5570 
 10 C       -5.2140     0.1280     0.1760 C.2   1 <1>  -0.1500 
 11 C       -6.4300    -0.4150     0.4380 C.2   1 <1>  -0.0500 
 12 N       -7.6560     0.1280     0.1270 N.pl3 1 <1>  -0.8380 
 13 C       -8.9160    -0.6140     0.4000 C.3   1 <1>   0.1290 
 14 C       -7.8270     1.4660    -0.5040 C.3   1 <1>   0.1290 
 15 H       -2.8480    -2.5330    -0.7490 H     1 <1>   0.0800 
 16 H       -1.1560    -2.5520    -1.2390 H     1 <1>   0.0800 
 17 H       -4.0460    -1.4020     1.0160 H     1 <1>   0.1500 
 18 H       -2.4280    -4.4490     0.7700 H     1 <1>   0.0800 
 19 H       -0.7430    -4.4690     0.2750 H     1 <1>   0.0800 
 20 H       -1.9990    -4.8660    -0.8700 H     1 <1>   0.0800 
 21 H       -5.1800     1.0770    -0.3280 H     1 <1>   0.1500 
 22 H       -6.4670    -1.3700     0.9370 H     1 <1>   0.1500 
 23 H       -9.5170    -0.0630     1.1020 H     1 <1>   0.0800 
 24 H       -8.7000    -1.5830     0.8140 H     1 <1>   0.0800 
 25 H       -9.4670    -0.7440    -0.5160 H     1 <1>   0.0800 
 26 H       -8.8200     1.8400    -0.3270 H     1 <1>   0.0800 
 27 H       -7.6630     1.3890    -1.5640 H     1 <1>   0.0800 
 28 H       -7.1240     2.1650    -0.0860 H     1 <1>   0.0800 
@<TRIPOS>BOND
  1   1   2  2   
  2   2   3  1   
  3   2   4  1   
  4   3   5  1   
  5   4   6  1   
  6   4   7  2   
  7   5   8  1   
  8   5  15  1   
  9   5  16  1   
 10   6   9  3   
 11   7  10  1   
 12   7  17  1   
 13   8  18  1   
 14   8  19  1   
 15   8  20  1   
 16  10  11  2   
 17  10  21  1   
 18  11  12  1   
 19  11  22  1   
 20  12  13  1   
 21  12  14  1   
 22  13  23  1   
 23  13  24  1   
 24  13  25  1   
 25  14  26  1   
 26  14  27  1   
 27  14  28  1   
@<TRIPOS>SUBSTRUCTURE
  1 ****   7 GROUP 4 **** **** 0

# MOE 2024.06 (io_trps.svl 2023.06)
