@<TRIPOS>MOLECULE
NONAME
47 48 1 0 0 
SMALL
USER_CHARGES


@<TRIPOS>ATOM
  1 O        0.3040     4.8160     0.5670 O.2   1 <1>  -0.5700 
  2 C        0.5650     3.6350     0.5410 C.2   1 <1>   0.5690 
  3 N       -0.3970     2.6430     0.4800 N.am  1 <1>  -0.6600 
  4 C        2.0510     3.2920     0.6050 C.3   1 <1>   0.1810 
  5 C       -1.8750     2.8780     0.4230 C.3   1 <1>   0.2200 
  6 C       -0.0390     1.2330     0.1180 C.3   1 <1>   0.2200 
  7 O        2.5610     2.9890    -0.6850 O.3   1 <1>  -0.3630 
  8 C       -2.3180     2.8230    -1.0490 C.3   1 <1>  -0.1600 
  9 C       -2.3900     4.1280     1.1420 C.3   1 <1>  -0.2400 
 10 C       -1.0240     0.6390    -0.9140 C.3   1 <1>  -0.1600 
 11 C        0.0110     0.3870     1.3890 C.3   1 <1>  -0.2400 
 12 C        3.8990     2.8350    -0.7870 C.ar  1 <1>   0.0820 
 13 C       -1.5900     1.7220    -1.8490 C.3   1 <1>  -0.1600 
 14 C        4.5730     1.7500    -0.2190 C.ar  1 <1>   0.0820 
 15 C        4.5960     3.7950    -1.4980 C.ar  1 <1>  -0.1500 
 16 O        3.8450     0.8050     0.4430 O.3   1 <1>  -0.3630 
 17 C        5.9550     1.6710    -0.3600 C.ar  1 <1>  -0.1500 
 18 C        5.9680     3.6980    -1.6330 C.ar  1 <1>  -0.1500 
 19 C        4.4300    -0.3970     0.8890 C.3   1 <1>   0.1200 
 20 C        6.6650     2.6390    -1.0630 C.ar  1 <1>   0.0730 
 21 C        3.3270    -1.2730     1.4730 C.3   1 <1>  -0.2400 
 22 C        8.0900     2.5460    -1.1980 C.1   1 <1>   0.4840 
 23 N        9.2230     2.4650    -1.2980 N.1   1 <1>  -0.5570 
 24 H        2.2090     2.4540     1.2540 H     1 <1>   0.0800 
 25 H        2.5930     4.1380     0.9860 H     1 <1>   0.0800 
 26 H       -2.3380     2.0500     0.9310 H     1 <1>   0.0800 
 27 H        0.9330     1.2140    -0.3420 H     1 <1>   0.0800 
 28 H       -2.1340     3.7750    -1.5150 H     1 <1>   0.0800 
 29 H       -3.3780     2.6480    -1.0760 H     1 <1>   0.0800 
 30 H       -2.1480     5.0190     0.5930 H     1 <1>   0.0800 
 31 H       -1.9670     4.1870     2.1280 H     1 <1>   0.0800 
 32 H       -3.4590     4.0780     1.2300 H     1 <1>   0.0800 
 33 H       -1.8400     0.1520    -0.4100 H     1 <1>   0.0800 
 34 H       -0.5150    -0.1120    -1.4910 H     1 <1>   0.0800 
 35 H       -0.9440     0.3830     1.8820 H     1 <1>   0.0800 
 36 H        0.7520     0.7730     2.0640 H     1 <1>   0.0800 
 37 H        0.2710    -0.6260     1.1430 H     1 <1>   0.0800 
 38 H       -0.7690     2.1690    -2.3850 H     1 <1>   0.0800 
 39 H       -2.2570     1.2860    -2.5720 H     1 <1>   0.0800 
 40 H        4.0560     4.6150    -1.9400 H     1 <1>   0.1500 
 41 H        6.5090     0.8580     0.0720 H     1 <1>   0.1500 
 42 H        6.5000     4.4540    -2.1870 H     1 <1>   0.1500 
 43 H        5.1640    -0.1620     1.6400 H     1 <1>   0.0800 
 44 H        4.8940    -0.8850     0.0490 H     1 <1>   0.0800 
 45 H        2.8560    -0.7740     2.3010 H     1 <1>   0.0800 
 46 H        3.7460    -2.1980     1.8250 H     1 <1>   0.0800 
 47 H        2.5950    -1.4950     0.7180 H     1 <1>   0.0800 
@<TRIPOS>BOND
  1   1   2  2   
  2   2   3  am  
  3   2   4  1   
  4   3   5  1   
  5   3   6  1   
  6   4   7  1   
  7   4  24  1   
  8   4  25  1   
  9   5   8  1   
 10   5   9  1   
 11   5  26  1   
 12   6  10  1   
 13   6  11  1   
 14   6  27  1   
 15   7  12  1   
 16   8  13  1   
 17   8  28  1   
 18   8  29  1   
 19   9  30  1   
 20   9  31  1   
 21   9  32  1   
 22  10  13  1   
 23  10  33  1   
 24  10  34  1   
 25  11  35  1   
 26  11  36  1   
 27  11  37  1   
 28  12  14  ar  
 29  12  15  ar  
 30  13  38  1   
 31  13  39  1   
 32  14  16  1   
 33  14  17  ar  
 34  15  18  ar  
 35  15  40  1   
 36  16  19  1   
 37  17  20  ar  
 38  17  41  1   
 39  18  20  ar  
 40  18  42  1   
 41  19  21  1   
 42  19  43  1   
 43  19  44  1   
 44  20  22  1   
 45  21  45  1   
 46  21  46  1   
 47  21  47  1   
 48  22  23  3   
@<TRIPOS>SUBSTRUCTURE
  1 ****   7 GROUP 4 **** **** 0

# MOE 2024.06 (io_trps.svl 2023.06)
