@<TRIPOS>MOLECULE
NONAME
53 55 1 0 0 
SMALL
USER_CHARGES


@<TRIPOS>ATOM
  1 O       -0.4350     0.7700     0.6570 O.2   1 <1>  -0.5700 
  2 C       -1.1600     1.3100    -0.1540 C.2   1 <1>   0.6340 
  3 O       -0.6330     1.7140    -1.3160 O.3   1 <1>  -0.4300 
  4 C       -2.5750     1.5410     0.0730 C.ar  1 <1>   0.0860 
  5 C        0.7360     1.5240    -1.6190 C.3   1 <1>   0.0400 
  6 C       -3.1880     1.1350     1.2620 C.ar  1 <1>  -0.1500 
  7 C       -3.3880     2.1720    -0.8750 C.ar  1 <1>  -0.1500 
  8 C       -4.5330     1.3500     1.4980 C.ar  1 <1>  -0.1500 
  9 C       -4.7340     2.3910    -0.6480 C.ar  1 <1>  -0.1500 
 10 C       -5.3140     1.9870     0.5490 C.ar  1 <1>   0.0830 
 11 O       -6.6300     2.1680     0.8180 O.3   1 <1>  -0.1650 
 12 C       -7.3330     3.2860     0.5420 C.ar  1 <1>   0.7020 
 13 N       -8.6240     3.1220     0.4900 N.ar  1 <1>  -0.6200 
 14 N       -6.6840     4.4040     0.3620 N.ar  1 <1>  -0.6200 
 15 C       -9.2910     4.2170     0.2230 C.ar  1 <1>   0.7200 
 16 C       -7.4500     5.4350     0.1060 C.ar  1 <1>   0.7200 
 17 N       -8.7540     5.3910     0.0190 N.ar  1 <1>  -0.6200 
 18 N      -10.6630     4.1210     0.1510 N.pl3 1 <1>  -0.8380 
 19 N       -6.8300     6.6550    -0.0820 N.pl3 1 <1>  -0.8380 
 20 C      -11.4160     2.8490     0.3920 C.3   1 <1>   0.2090 
 21 C      -11.5620     5.3060    -0.0220 C.3   1 <1>   0.2090 
 22 C       -7.6050     7.9190    -0.2240 C.3   1 <1>   0.2090 
 23 C       -5.3630     6.7600    -0.3240 C.3   1 <1>   0.2090 
 24 C      -12.5640     2.6890    -0.6210 C.3   1 <1>   0.1200 
 25 C      -12.6990     4.9940    -1.0110 C.3   1 <1>   0.1200 
 26 C       -8.0320     8.4200     1.1540 C.3   1 <1>  -0.2400 
 27 C       -4.6480     7.0790     0.9840 C.3   1 <1>  -0.2400 
 28 O      -13.3810     3.8260    -0.6450 O.3   1 <1>  -0.5600 
 29 H        0.9280     1.9250    -2.5980 H     1 <1>   0.0800 
 30 H        0.9530     0.4700    -1.6000 H     1 <1>   0.0800 
 31 H        1.3300     2.0380    -0.8830 H     1 <1>   0.0800 
 32 H       -2.5930     0.6420     2.0130 H     1 <1>   0.1500 
 33 H       -2.9600     2.4970    -1.8080 H     1 <1>   0.1500 
 34 H       -4.9810     1.0270     2.4210 H     1 <1>   0.1500 
 35 H       -5.3330     2.8740    -1.3990 H     1 <1>   0.1500 
 36 H      -11.8220     2.8630     1.3880 H     1 <1>   0.0800 
 37 H      -10.7710     1.9920     0.3120 H     1 <1>   0.0800 
 38 H      -11.0190     6.1600    -0.3860 H     1 <1>   0.0800 
 39 H      -11.9860     5.5680     0.9310 H     1 <1>   0.0800 
 40 H       -8.4740     7.7490    -0.8370 H     1 <1>   0.0800 
 41 H       -7.0050     8.6690    -0.7090 H     1 <1>   0.0800 
 42 H       -5.1640     7.5290    -1.0500 H     1 <1>   0.0800 
 43 H       -4.9830     5.8360    -0.7250 H     1 <1>   0.0800 
 44 H      -13.1780     1.8480    -0.3520 H     1 <1>   0.0800 
 45 H      -12.1690     2.5270    -1.6090 H     1 <1>   0.0800 
 46 H      -12.3040     4.8660    -2.0040 H     1 <1>   0.0800 
 47 H      -13.4100     5.8000    -1.0230 H     1 <1>   0.0800 
 48 H       -8.6590     7.6900     1.6350 H     1 <1>   0.0800 
 49 H       -8.5890     9.3320     1.0500 H     1 <1>   0.0800 
 50 H       -7.1740     8.6090     1.7690 H     1 <1>   0.0800 
 51 H       -4.9410     8.0450     1.3500 H     1 <1>   0.0800 
 52 H       -3.5860     7.0840     0.8230 H     1 <1>   0.0800 
 53 H       -4.8790     6.3300     1.7200 H     1 <1>   0.0800 
@<TRIPOS>BOND
  1   1   2  2   
  2   2   3  1   
  3   2   4  1   
  4   3   5  1   
  5   4   6  ar  
  6   4   7  ar  
  7   5  29  1   
  8   5  30  1   
  9   5  31  1   
 10   6   8  ar  
 11   6  32  1   
 12   7   9  ar  
 13   7  33  1   
 14   8  10  ar  
 15   8  34  1   
 16   9  10  ar  
 17   9  35  1   
 18  10  11  1   
 19  11  12  1   
 20  12  13  ar  
 21  12  14  ar  
 22  13  15  ar  
 23  14  16  ar  
 24  15  17  ar  
 25  15  18  1   
 26  16  17  ar  
 27  16  19  1   
 28  18  20  1   
 29  18  21  1   
 30  19  22  1   
 31  19  23  1   
 32  20  24  1   
 33  20  36  1   
 34  20  37  1   
 35  21  25  1   
 36  21  38  1   
 37  21  39  1   
 38  22  26  1   
 39  22  40  1   
 40  22  41  1   
 41  23  27  1   
 42  23  42  1   
 43  23  43  1   
 44  24  28  1   
 45  24  44  1   
 46  24  45  1   
 47  25  28  1   
 48  25  46  1   
 49  25  47  1   
 50  26  48  1   
 51  26  49  1   
 52  26  50  1   
 53  27  51  1   
 54  27  52  1   
 55  27  53  1   
@<TRIPOS>SUBSTRUCTURE
  1 ****  14 GROUP 4 **** **** 0

# MOE 2024.06 (io_trps.svl 2023.06)
