@<TRIPOS>MOLECULE
NONAME
46 48 1 0 0 
SMALL
USER_CHARGES


@<TRIPOS>ATOM
  1 F       -1.1320    -0.5760    -2.3270 F     1 <1>  -0.1900 
  2 C       -2.1010     0.1450    -1.8370 C.ar  1 <1>   0.1900 
  3 C       -3.1880    -0.4890    -1.2710 C.ar  1 <1>  -0.1500 
  4 C       -2.0080     1.5220    -1.8960 C.ar  1 <1>  -0.1500 
  5 C       -4.2120     0.2860    -0.7550 C.ar  1 <1>  -0.1500 
  6 C       -3.0400     2.2820    -1.3740 C.ar  1 <1>  -0.1500 
  7 C       -4.1700     1.6850    -0.7960 C.ar  1 <1>   0.0860 
  8 C       -5.2670     2.4700    -0.2520 C.2   1 <1>   0.5440 
  9 O       -6.0280     1.9890     0.5640 O.2   1 <1>  -0.5700 
 10 N       -5.4380     3.7710    -0.6590 N.am  1 <1>  -0.5470 
 11 C       -6.3210     4.7880    -0.2750 C.ar  1 <1>   0.1170 
 12 C       -5.9020     6.1250    -0.3810 C.ar  1 <1>   0.0860 
 13 C       -7.6080     4.5100     0.1790 C.ar  1 <1>  -0.1500 
 14 C       -4.5560     6.4510    -0.8130 C.2   1 <1>   0.5440 
 15 C       -6.8100     7.1350    -0.0520 C.ar  1 <1>  -0.1500 
 16 C       -8.4820     5.5240     0.5150 C.ar  1 <1>  -0.1500 
 17 O       -4.1020     5.9230    -1.8160 O.2   1 <1>  -0.5700 
 18 N       -3.7510     7.3180    -0.1020 N.am  1 <1>  -0.6600 
 19 C       -8.0830     6.8440     0.3940 C.ar  1 <1>  -0.1500 
 20 C       -2.4810     7.8550    -0.6720 C.3   1 <1>   0.1400 
 21 C       -3.9180     7.5800     1.3550 C.3   1 <1>   0.1400 
 22 C       -1.2750     7.2580     0.0700 C.3   1 <1>  -0.0800 
 23 C       -2.7320     6.9860     2.1210 C.3   1 <1>  -0.1600 
 24 C       -1.3880     7.5030     1.5840 C.3   1 <1>  -0.1600 
 25 C        0.0380     7.8400    -0.4690 C.3   1 <1>  -0.2400 
 26 H       -3.2290    -1.5630    -1.2370 H     1 <1>   0.1500 
 27 H       -1.1440     1.9830    -2.3410 H     1 <1>   0.1500 
 28 H       -5.0660    -0.1960    -0.3090 H     1 <1>   0.1500 
 29 H       -2.9530     3.3550    -1.4170 H     1 <1>   0.1500 
 30 H       -4.7280     4.1120    -1.3190 H     1 <1>   0.3700 
 31 H       -7.9320     3.4880     0.2650 H     1 <1>   0.1500 
 32 H       -6.5030     8.1620    -0.1510 H     1 <1>   0.1500 
 33 H       -9.4720     5.2880     0.8650 H     1 <1>   0.1500 
 34 H       -8.7670     7.6360     0.6470 H     1 <1>   0.1500 
 35 H       -2.4800     8.9260    -0.5680 H     1 <1>   0.0800 
 36 H       -2.4120     7.6260    -1.7220 H     1 <1>   0.0800 
 37 H       -4.8280     7.1420     1.7270 H     1 <1>   0.0800 
 38 H       -3.9650     8.6430     1.5170 H     1 <1>   0.0800 
 39 H       -1.2710     6.1960    -0.1120 H     1 <1>   0.0800 
 40 H       -2.7670     5.9140     2.0370 H     1 <1>   0.0800 
 41 H       -2.8220     7.2350     3.1640 H     1 <1>   0.0800 
 42 H       -1.3090     8.5570     1.7860 H     1 <1>   0.0800 
 43 H       -0.5830     7.0050     2.0960 H     1 <1>   0.0800 
 44 H        0.0750     8.9040    -0.3160 H     1 <1>   0.0800 
 45 H        0.1280     7.6400    -1.5220 H     1 <1>   0.0800 
 46 H        0.8770     7.3910     0.0330 H     1 <1>   0.0800 
@<TRIPOS>BOND
  1   1   2  1   
  2   2   3  ar  
  3   2   4  ar  
  4   3   5  ar  
  5   3  26  1   
  6   4   6  ar  
  7   4  27  1   
  8   5   7  ar  
  9   5  28  1   
 10   6   7  ar  
 11   6  29  1   
 12   7   8  1   
 13   8   9  2   
 14   8  10  am  
 15  10  11  1   
 16  10  30  1   
 17  11  12  ar  
 18  11  13  ar  
 19  12  14  1   
 20  12  15  ar  
 21  13  16  ar  
 22  13  31  1   
 23  14  17  2   
 24  14  18  am  
 25  15  19  ar  
 26  15  32  1   
 27  16  19  ar  
 28  16  33  1   
 29  18  20  1   
 30  18  21  1   
 31  19  34  1   
 32  20  22  1   
 33  20  35  1   
 34  20  36  1   
 35  21  23  1   
 36  21  37  1   
 37  21  38  1   
 38  22  24  1   
 39  22  25  1   
 40  22  39  1   
 41  23  24  1   
 42  23  40  1   
 43  23  41  1   
 44  24  42  1   
 45  24  43  1   
 46  25  44  1   
 47  25  45  1   
 48  25  46  1   
@<TRIPOS>SUBSTRUCTURE
  1 ****  10 GROUP 4 **** **** 0

# MOE 2024.06 (io_trps.svl 2023.06)
