@<TRIPOS>MOLECULE
NONAME
39 41 1 0 0 
SMALL
USER_CHARGES


@<TRIPOS>ATOM
  1 S       -0.0130     0.1020    -0.7670 S.3   1 <1>  -0.0800 
  2 C        1.4820     0.9210    -0.3600 C.2   1 <1>   0.1040 
  3 C       -0.9280     1.5270    -0.2890 C.2   1 <1>  -0.1400 
  4 N        2.7220     0.3610    -0.4800 N.am  1 <1>  -0.4940 
  5 C        1.2790     2.1810     0.0980 C.2   1 <1>  -0.0860 
  6 C       -0.1210     2.5130     0.1250 C.2   1 <1>  -0.1810 
  7 C       -2.4400     1.5750    -0.3630 C.3   1 <1>   0.3000 
  8 C        3.8240     1.0680    -0.1390 C.2   1 <1>   0.5000 
  9 C        2.4360     2.9460     0.4660 C.2   1 <1>   0.7160 
 10 C       -0.7360     3.8240     0.5750 C.3   1 <1>   0.0210 
 11 O       -2.9020     2.7340     0.2920 O.3   1 <1>  -0.5600 
 12 S        5.2480     0.3060    -0.2620 S.2   1 <1>  -0.3800 
 13 N        3.6980     2.3630     0.3050 N.am  1 <1>  -0.4200 
 14 O        2.3320     4.0770     0.9110 O.2   1 <1>  -0.5700 
 15 C       -2.2100     3.9440     0.0950 C.3   1 <1>   0.2800 
 16 C        4.9020     3.1910     0.5940 C.3   1 <1>   0.2780 
 17 C       -2.3060     4.3370    -1.3880 C.3   1 <1>  -0.2400 
 18 C       -2.9570     4.9810     0.9340 C.3   1 <1>  -0.2400 
 19 C        5.4510     3.8110    -0.6900 C.2   1 <1>  -0.2760 
 20 C        6.6240     3.4560    -1.2240 C.2   1 <1>  -0.3000 
 21 C        4.5680     4.8810    -1.3170 C.3   1 <1>  -0.1020 
 22 H        2.8360    -0.5970    -0.8190 H     1 <1>   0.3700 
 23 H       -2.8710     0.7250     0.1340 H     1 <1>   0.0800 
 24 H       -2.7740     1.5970    -1.3850 H     1 <1>   0.0800 
 25 H       -0.1690     4.6520     0.1900 H     1 <1>   0.0800 
 26 H       -0.6940     3.8720     1.6480 H     1 <1>   0.0800 
 27 H        5.6580     2.5790     1.0540 H     1 <1>   0.0800 
 28 H        4.6700     3.9690     1.3000 H     1 <1>   0.0800 
 29 H       -1.7300     3.6730    -2.0060 H     1 <1>   0.0800 
 30 H       -1.9160     5.3290    -1.5280 H     1 <1>   0.0800 
 31 H       -3.3310     4.3280    -1.7100 H     1 <1>   0.0800 
 32 H       -2.9530     4.6940     1.9700 H     1 <1>   0.0800 
 33 H       -3.9750     5.0650     0.6010 H     1 <1>   0.0800 
 34 H       -2.4870     5.9440     0.8450 H     1 <1>   0.0800 
 35 H        7.0340     3.8810    -2.1240 H     1 <1>   0.1500 
 36 H        7.2750     2.7040    -0.8110 H     1 <1>   0.1500 
 37 H        3.6420     4.4550    -1.6570 H     1 <1>   0.0800 
 38 H        5.0590     5.3310    -2.1620 H     1 <1>   0.0800 
 39 H        4.3510     5.6530    -0.6000 H     1 <1>   0.0800 
@<TRIPOS>BOND
  1   1   2  1   
  2   1   3  1   
  3   2   4  1   
  4   2   5  2   
  5   3   6  2   
  6   3   7  1   
  7   4   8  am  
  8   4  22  1   
  9   5   6  1   
 10   5   9  1   
 11   6  10  1   
 12   7  11  1   
 13   7  23  1   
 14   7  24  1   
 15   8  12  2   
 16   8  13  am  
 17   9  13  am  
 18   9  14  2   
 19  10  15  1   
 20  10  25  1   
 21  10  26  1   
 22  11  15  1   
 23  13  16  1   
 24  15  17  1   
 25  15  18  1   
 26  16  19  1   
 27  16  27  1   
 28  16  28  1   
 29  17  29  1   
 30  17  30  1   
 31  17  31  1   
 32  18  32  1   
 33  18  33  1   
 34  18  34  1   
 35  19  20  2   
 36  19  21  1   
 37  20  35  1   
 38  20  36  1   
 39  21  37  1   
 40  21  38  1   
 41  21  39  1   
@<TRIPOS>SUBSTRUCTURE
  1 ****   5 GROUP 4 **** **** 0

# MOE 2024.06 (io_trps.svl 2023.06)
