@<TRIPOS>MOLECULE
NONAME
40 41 1 0 0 
SMALL
USER_CHARGES


@<TRIPOS>ATOM
  1 O        0.4380    -0.4250    -0.0300 O.2   1 <1>  -0.5700 
  2 C        0.9570    -1.5100     0.1590 C.2   1 <1>   0.5440 
  3 N        0.1680    -2.5770     0.5430 N.am  1 <1>  -0.6600 
  4 C        2.3870    -1.6440    -0.0330 C.ar  1 <1>   0.0860 
  5 C       -1.2660    -2.3990     0.9070 C.3   1 <1>   0.1400 
  6 C        0.6030    -3.9990     0.4610 C.3   1 <1>   0.1400 
  7 C        3.2230    -2.0910     0.9910 C.ar  1 <1>  -0.1500 
  8 C        2.9790    -1.3250    -1.2540 C.ar  1 <1>  -0.1500 
  9 C       -2.1520    -3.1370    -0.1010 C.3   1 <1>  -0.1600 
 10 C       -0.2730    -4.7510    -0.5460 C.3   1 <1>  -0.1600 
 11 C        4.5860    -2.2310     0.8050 C.ar  1 <1>  -0.1500 
 12 C        4.3400    -1.4630    -1.4500 C.ar  1 <1>  -0.1500 
 13 C       -1.7670    -4.6200    -0.2120 C.3   1 <1>  -0.0800 
 14 C        5.1560    -1.9190    -0.4270 C.ar  1 <1>   0.0820 
 15 C       -2.6220    -5.3220    -1.2730 C.3   1 <1>  -0.2400 
 16 O        6.4750    -2.0280    -0.6990 O.3   1 <1>  -0.3630 
 17 C        7.4060    -2.4240     0.2800 C.3   1 <1>   0.2580 
 18 C        8.7840    -2.4200    -0.3510 C.2   1 <1>  -0.2880 
 19 C        9.8380    -1.7230     0.0880 C.2   1 <1>  -0.3000 
 20 H       -1.5310    -1.3550     0.9240 H     1 <1>   0.0800 
 21 H       -1.4270    -2.7950     1.8940 H     1 <1>   0.0800 
 22 H        0.5090    -4.4500     1.4340 H     1 <1>   0.0800 
 23 H        1.6300    -4.0740     0.1530 H     1 <1>   0.0800 
 24 H        2.7860    -2.3260     1.9460 H     1 <1>   0.1500 
 25 H        2.3540    -0.9630    -2.0520 H     1 <1>   0.1500 
 26 H       -2.0510    -2.6550    -1.0590 H     1 <1>   0.0800 
 27 H       -3.1790    -3.0470     0.2040 H     1 <1>   0.0800 
 28 H        0.0080    -5.7890    -0.5500 H     1 <1>   0.0800 
 29 H       -0.0820    -4.3550    -1.5290 H     1 <1>   0.0800 
 30 H        5.1850    -2.5800     1.6250 H     1 <1>   0.1500 
 31 H        4.7820    -1.2150    -2.3990 H     1 <1>   0.1500 
 32 H       -1.9490    -5.0930     0.7400 H     1 <1>   0.0800 
 33 H       -2.4690    -4.8750    -2.2390 H     1 <1>   0.0800 
 34 H       -3.6650    -5.2460    -1.0210 H     1 <1>   0.0800 
 35 H       -2.3640    -6.3650    -1.3310 H     1 <1>   0.0800 
 36 H        7.1480    -3.4140     0.6140 H     1 <1>   0.0800 
 37 H        7.3570    -1.7290     1.1000 H     1 <1>   0.0800 
 38 H        8.8290    -3.0540    -1.2200 H     1 <1>   0.1500 
 39 H       10.8050    -1.7400    -0.3850 H     1 <1>   0.1500 
 40 H        9.8260    -1.0780     0.9500 H     1 <1>   0.1500 
@<TRIPOS>BOND
  1   1   2  2   
  2   2   3  am  
  3   2   4  1   
  4   3   5  1   
  5   3   6  1   
  6   4   7  ar  
  7   4   8  ar  
  8   5   9  1   
  9   5  20  1   
 10   5  21  1   
 11   6  10  1   
 12   6  22  1   
 13   6  23  1   
 14   7  11  ar  
 15   7  24  1   
 16   8  12  ar  
 17   8  25  1   
 18   9  13  1   
 19   9  26  1   
 20   9  27  1   
 21  10  13  1   
 22  10  28  1   
 23  10  29  1   
 24  11  14  ar  
 25  11  30  1   
 26  12  14  ar  
 27  12  31  1   
 28  13  15  1   
 29  13  32  1   
 30  14  16  1   
 31  15  33  1   
 32  15  34  1   
 33  15  35  1   
 34  16  17  1   
 35  17  18  1   
 36  17  36  1   
 37  17  37  1   
 38  18  19  2   
 39  18  38  1   
 40  19  39  1   
 41  19  40  1   
@<TRIPOS>SUBSTRUCTURE
  1 ****   4 GROUP 4 **** **** 0

# MOE 2024.06 (io_trps.svl 2023.06)
