@<TRIPOS>MOLECULE
NONAME
33 34 1 0 0 
SMALL
USER_CHARGES


@<TRIPOS>ATOM
  1 O       -0.3930    -0.2750     0.5040 O.2   1 <1>  -0.5700 
  2 C       -0.3650    -1.4750     0.3940 C.2   1 <1>   0.5690 
  3 N        0.7930    -2.1660     0.2350 N.am  1 <1>  -0.7300 
  4 C       -1.6700    -2.2380     0.4260 C.3   1 <1>  -0.0990 
  5 C        2.1470    -1.5560     0.1850 C.3   1 <1>   0.0600 
  6 C       -2.6020    -1.7790    -0.7030 C.3   1 <1>   0.0200 
  7 C       -3.8810    -2.5910    -0.7200 C.2   1 <1>   0.2980 
  8 O       -3.8230    -3.8460    -1.0820 O.3   1 <1>  -0.0190 
  9 N       -5.0330    -2.1670    -0.4070 N.2   1 <1>  -0.5650 
 10 N       -5.0470    -4.2580    -0.9890 N.2   1 <1>  -0.4100 
 11 C       -5.7690    -3.2690    -0.5910 C.2   1 <1>   0.4620 
 12 C       -7.2040    -3.3050    -0.3580 C.ar  1 <1>   0.0540 
 13 C       -7.9060    -2.1810     0.0840 C.ar  1 <1>  -0.1500 
 14 C       -7.9420    -4.4710    -0.5680 C.ar  1 <1>  -0.1500 
 15 C       -9.2720    -2.2110     0.3090 C.ar  1 <1>  -0.1430 
 16 C       -9.3060    -4.5140    -0.3480 C.ar  1 <1>  -0.1500 
 17 C       -9.9720    -3.3840     0.0900 C.ar  1 <1>  -0.1500 
 18 C      -10.0060    -0.9720     0.7890 C.3   1 <1>  -0.0970 
 19 H        0.7660    -3.1850     0.1600 H     1 <1>   0.3700 
 20 H       -2.1440    -2.0610     1.3750 H     1 <1>   0.0800 
 21 H       -1.4780    -3.2910     0.3370 H     1 <1>   0.0800 
 22 H        2.0800    -0.4850     0.2760 H     1 <1>   0.0800 
 23 H        2.6200    -1.7950    -0.7510 H     1 <1>   0.0800 
 24 H        2.7470    -1.9350     0.9940 H     1 <1>   0.0800 
 25 H       -2.1100    -1.8820    -1.6530 H     1 <1>   0.0800 
 26 H       -2.8480    -0.7400    -0.5660 H     1 <1>   0.0800 
 27 H       -7.3650    -1.2660     0.2540 H     1 <1>   0.1500 
 28 H       -7.4390    -5.3600    -0.9090 H     1 <1>   0.1500 
 29 H       -9.8510    -5.4260    -0.5190 H     1 <1>   0.1500 
 30 H      -11.0340    -3.4210     0.2580 H     1 <1>   0.1500 
 31 H       -9.3130    -0.2220     1.1260 H     1 <1>   0.0800 
 32 H      -10.6590    -1.2230     1.6060 H     1 <1>   0.0800 
 33 H      -10.5930    -0.5630    -0.0130 H     1 <1>   0.0800 
@<TRIPOS>BOND
  1   1   2  2   
  2   2   3  am  
  3   2   4  1   
  4   3   5  1   
  5   3  19  1   
  6   4   6  1   
  7   4  20  1   
  8   4  21  1   
  9   5  22  1   
 10   5  23  1   
 11   5  24  1   
 12   6   7  1   
 13   6  25  1   
 14   6  26  1   
 15   7   8  1   
 16   7   9  2   
 17   8  10  1   
 18   9  11  1   
 19  10  11  2   
 20  11  12  1   
 21  12  13  ar  
 22  12  14  ar  
 23  13  15  ar  
 24  13  27  1   
 25  14  16  ar  
 26  14  28  1   
 27  15  17  ar  
 28  15  18  1   
 29  16  17  ar  
 30  16  29  1   
 31  17  30  1   
 32  18  31  1   
 33  18  32  1   
 34  18  33  1   
@<TRIPOS>SUBSTRUCTURE
  1 ****   9 GROUP 4 **** **** 0

# MOE 2024.06 (io_trps.svl 2023.06)
