@<TRIPOS>MOLECULE
NONAME
32 33 1 0 0 
SMALL
USER_CHARGES


@<TRIPOS>ATOM
  1 O        0.3490     1.4360    -2.2490 O.2   1 <1>  -0.5700 
  2 C        0.1670     2.1680    -1.2760 C.2   1 <1>   0.6300 
  3 N        1.1520     2.2390    -0.3030 N.am  1 <1>  -0.3400 
  4 C       -1.0560     2.9540    -1.1120 C.2   1 <1>   0.5560 
  5 N        0.9730     3.0910     0.8550 N.pl3 1 <1>  -0.5200 
  6 C        2.4120     1.4370    -0.3800 C.3   1 <1>   0.2200 
  7 O       -1.9620     2.9300    -1.9500 O.2   1 <1>  -0.5700 
  8 C       -1.1670     3.7590     0.0680 C.2   1 <1>   0.0910 
  9 C       -0.1720     3.8160     0.9960 C.2   1 <1>  -0.0500 
 10 C        2.5070     0.4640     0.8060 C.3   1 <1>  -0.1600 
 11 C        3.6370     2.3640    -0.4420 C.3   1 <1>  -0.1600 
 12 O       -2.2780     4.5350     0.3010 O.3   1 <1>  -0.3570 
 13 C        3.8120    -0.3440     0.7550 C.3   1 <1>  -0.1600 
 14 C        4.9410     1.5540    -0.4920 C.3   1 <1>  -0.1600 
 15 C       -3.4900     3.8380     0.5030 C.3   1 <1>   0.0400 
 16 C        5.0360     0.5800     0.6900 C.3   1 <1>  -0.1600 
 17 H        1.7580     3.1600     1.5210 H     1 <1>   0.4000 
 18 H        2.4060     0.8490    -1.2820 H     1 <1>   0.0800 
 19 H       -0.2680     4.4450     1.8660 H     1 <1>   0.1500 
 20 H        1.6700    -0.2120     0.7770 H     1 <1>   0.0800 
 21 H        2.4740     1.0070     1.7340 H     1 <1>   0.0800 
 22 H        3.6620     3.0030     0.4220 H     1 <1>   0.0800 
 23 H        3.5690     2.9820    -1.3210 H     1 <1>   0.0800 
 24 H        3.8020    -0.9820    -0.1130 H     1 <1>   0.0800 
 25 H        3.8810    -0.9740     1.6250 H     1 <1>   0.0800 
 26 H        5.7830     2.2240    -0.4770 H     1 <1>   0.0800 
 27 H        4.9800     0.9990    -1.4140 H     1 <1>   0.0800 
 28 H       -4.2210     4.5380     0.8650 H     1 <1>   0.0800 
 29 H       -3.3360     3.0600     1.2290 H     1 <1>   0.0800 
 30 H       -3.8250     3.4230    -0.4310 H     1 <1>   0.0800 
 31 H        5.9290    -0.0130     0.5950 H     1 <1>   0.0800 
 32 H        5.1100     1.1390     1.6080 H     1 <1>   0.0800 
@<TRIPOS>BOND
  1   1   2  2   
  2   2   3  am  
  3   2   4  1   
  4   3   5  1   
  5   3   6  1   
  6   4   7  2   
  7   4   8  1   
  8   5   9  1   
  9   5  17  1   
 10   6  10  1   
 11   6  11  1   
 12   6  18  1   
 13   8   9  2   
 14   8  12  1   
 15   9  19  1   
 16  10  13  1   
 17  10  20  1   
 18  10  21  1   
 19  11  14  1   
 20  11  22  1   
 21  11  23  1   
 22  12  15  1   
 23  13  16  1   
 24  13  24  1   
 25  13  25  1   
 26  14  16  1   
 27  14  26  1   
 28  14  27  1   
 29  15  28  1   
 30  15  29  1   
 31  15  30  1   
 32  16  31  1   
 33  16  32  1   
@<TRIPOS>SUBSTRUCTURE
  1 ****   3 GROUP 4 **** **** 0

# MOE 2024.06 (io_trps.svl 2023.06)
