@<TRIPOS>MOLECULE
NONAME
48 51 1 0 0 
SMALL
USER_CHARGES


@<TRIPOS>ATOM
  1 CL       0.3550    -0.2300     0.7880 Cl    1 <1>  -0.1770 
  2 C        1.9520     0.2560     0.2870 C.ar  1 <1>   0.1770 
  3 C        2.9700     0.3060     1.2200 C.ar  1 <1>  -0.1500 
  4 C        2.1760     0.5880    -1.0350 C.ar  1 <1>  -0.1500 
  5 C        4.2350     0.7040     0.8220 C.ar  1 <1>  -0.1500 
  6 C        3.4430     0.9850    -1.4310 C.ar  1 <1>  -0.1500 
  7 C        4.4760     1.0550    -0.5020 C.ar  1 <1>  -0.1430 
  8 C        5.8620     1.5170    -0.9250 C.3   1 <1>   0.4980 
  9 N        6.1920     2.8440    -0.3180 N.pl3 1 <1>  -0.7640 
 10 C        7.5100     3.2350    -0.0590 C.2   1 <1>   0.2770 
 11 C        5.4090     3.8510     0.0780 C.cat 1 <1>   0.6560 
 12 C        8.8060     2.6510    -0.2630 C.2   1 <1>   0.7030 
 13 C        7.4540     4.4690     0.5030 C.2   1 <1>   0.4260 
 14 N        6.1530     4.8300     0.5790 N.pl3 1 <1>  -0.7000 
 15 C        3.8760     4.0010     0.0170 C.3   1 <1>   0.2540 
 16 O        8.9720     1.5590    -0.7680 O.2   1 <1>  -0.5700 
 17 N        9.8930     3.3770     0.1290 N.am  1 <1>  -0.4900 
 18 N        8.5700     5.1910     0.9010 N.am  1 <1>  -0.4360 
 19 N        3.4450     5.4170     0.1810 N.3   1 <1>  -0.8100 
 20 C        9.8150     4.6180     0.6920 C.2   1 <1>   0.6900 
 21 C        8.4330     6.5390     1.5260 C.3   1 <1>   0.0600 
 22 C        2.0400     5.4870     0.6490 C.3   1 <1>   0.1100 
 23 C        3.5650     6.1760    -1.0880 C.3   1 <1>   0.1100 
 24 O       10.8420     5.1810     0.9890 O.2   1 <1>  -0.5700 
 25 C        1.5530     6.9440     0.7490 C.3   1 <1>   0.1200 
 26 C        3.0430     7.6150    -0.9280 C.3   1 <1>   0.1200 
 27 O        1.7230     7.5950    -0.4760 O.3   1 <1>  -0.5600 
 28 H        2.7680     0.0300     2.2410 H     1 <1>   0.1500 
 29 H        1.3660     0.5300    -1.7420 H     1 <1>   0.1500 
 30 H        5.0270     0.7350     1.5530 H     1 <1>   0.1500 
 31 H        3.6080     1.2350    -2.4660 H     1 <1>   0.1500 
 32 H        5.9270     1.5870    -1.9980 H     1 <1>   0.0800 
 33 H        6.5770     0.7780    -0.6010 H     1 <1>   0.0800 
 34 H        5.7250     5.6940     0.9280 H     1 <1>   0.4500 
 35 H        3.4620     3.4100     0.8150 H     1 <1>   0.0800 
 36 H        3.5020     3.6150    -0.9140 H     1 <1>   0.0800 
 37 H       10.8230     2.9850    -0.0100 H     1 <1>   0.3700 
 38 H        7.7220     6.5010     2.3320 H     1 <1>   0.0800 
 39 H        8.1020     7.2500     0.7890 H     1 <1>   0.0800 
 40 H        9.3760     6.8740     1.9250 H     1 <1>   0.0800 
 41 H        1.9570     5.0270     1.6190 H     1 <1>   0.0800 
 42 H        1.3940     4.9560    -0.0300 H     1 <1>   0.0800 
 43 H        2.9930     5.6960    -1.8650 H     1 <1>   0.0800 
 44 H        4.5930     6.2140    -1.4030 H     1 <1>   0.0800 
 45 H        2.1000     7.4800     1.5050 H     1 <1>   0.0800 
 46 H        0.5060     6.9730     0.9930 H     1 <1>   0.0800 
 47 H        3.0560     8.1270    -1.8740 H     1 <1>   0.0800 
 48 H        3.6400     8.1680    -0.2240 H     1 <1>   0.0800 
@<TRIPOS>BOND
  1   1   2  1   
  2   2   3  ar  
  3   2   4  ar  
  4   3   5  ar  
  5   3  28  1   
  6   4   6  ar  
  7   4  29  1   
  8   5   7  ar  
  9   5  30  1   
 10   6   7  ar  
 11   6  31  1   
 12   7   8  1   
 13   8   9  1   
 14   8  32  1   
 15   8  33  1   
 16   9  10  1   
 17   9  11  ar  
 18  10  12  1   
 19  10  13  2   
 20  11  14  ar  
 21  11  15  1   
 22  12  16  2   
 23  12  17  am  
 24  13  14  1   
 25  13  18  1   
 26  14  34  1   
 27  15  19  1   
 28  15  35  1   
 29  15  36  1   
 30  17  20  am  
 31  17  37  1   
 32  18  20  am  
 33  18  21  1   
 34  19  22  1   
 35  19  23  1   
 36  20  24  2   
 37  21  38  1   
 38  21  39  1   
 39  21  40  1   
 40  22  25  1   
 41  22  41  1   
 42  22  42  1   
 43  23  26  1   
 44  23  43  1   
 45  23  44  1   
 46  25  27  1   
 47  25  45  1   
 48  25  46  1   
 49  26  27  1   
 50  26  47  1   
 51  26  48  1   
@<TRIPOS>SUBSTRUCTURE
  1 ****  11 GROUP 4 **** **** 0

# MOE 2024.06 (io_trps.svl 2023.06)
