@<TRIPOS>MOLECULE
NONAME
50 52 1 0 0 
SMALL
USER_CHARGES


@<TRIPOS>ATOM
  1 O        0.8000    -0.9650    -0.1940 O.3   1 <1>  -0.6800 
  2 C        1.9270    -0.2940    -0.6310 C.3   1 <1>   0.1200 
  3 C        2.4600     0.5310     0.5490 C.3   1 <1>   0.3430 
  4 N        3.7170     1.2740     0.2070 N.4   1 <1>  -0.9590 
  5 C        4.7500     1.0530     1.2580 C.3   1 <1>   0.4860 
  6 C        3.4990     2.7380    -0.0100 C.3   1 <1>   0.3430 
  7 C        6.0750     1.5800     0.7480 C.ar  1 <1>  -0.1440 
  8 C        2.6570     2.9960    -1.2610 C.3   1 <1>  -0.1600 
  9 C        6.5860     2.7660     1.2400 C.ar  1 <1>  -0.1500 
 10 C        6.7800     0.8700    -0.2310 C.ar  1 <1>  -0.1500 
 11 C        2.6060     4.4940    -1.5800 C.3   1 <1>  -0.2400 
 12 C        7.7890     3.2600     0.7420 C.ar  1 <1>   0.0000 
 13 C        7.9720     1.3510    -0.7280 C.ar  1 <1>  -0.1500 
 14 C        8.4730     2.5580    -0.2410 C.ar  1 <1>  -0.1520 
 15 C        8.5490     4.4270     1.0330 C.ar  1 <1>   0.0000 
 16 N        9.6220     3.2560    -0.5640 N.pl3 1 <1>   0.0480 
 17 C        9.6710     4.3970     0.2150 C.ar  1 <1>  -0.1520 
 18 C        8.3640     5.4870     1.9210 C.ar  1 <1>  -0.1500 
 19 C       10.6300     2.8570    -1.5700 C.3   1 <1>   0.0960 
 20 C       10.6210     5.4190     0.2750 C.ar  1 <1>  -0.1500 
 21 C        9.3000     6.4970     1.9770 C.ar  1 <1>  -0.1500 
 22 C       11.7230     2.0010    -0.9240 C.3   1 <1>  -0.2400 
 23 C       10.4280     6.4620     1.1550 C.ar  1 <1>  -0.1500 
 24 H        0.3980    -1.5080    -0.9050 H     1 <1>   0.4000 
 25 H        1.6420     0.3320    -1.4580 H     1 <1>   0.0800 
 26 H        2.6480    -1.0300    -0.9460 H     1 <1>   0.0800 
 27 H        2.6480    -0.1490     1.3640 H     1 <1>   0.0800 
 28 H        1.6970     1.2250     0.8630 H     1 <1>   0.0800 
 29 H        4.1240     0.9000    -0.6590 H     1 <1>   0.4500 
 30 H        4.8490     0.0000     1.4710 H     1 <1>   0.0800 
 31 H        4.4750     1.5610     2.1680 H     1 <1>   0.0800 
 32 H        4.4510     3.2280    -0.1420 H     1 <1>   0.0800 
 33 H        3.0170     3.1750     0.8500 H     1 <1>   0.0800 
 34 H        1.6500     2.6500    -1.1110 H     1 <1>   0.0800 
 35 H        3.0870     2.4830    -2.1040 H     1 <1>   0.0800 
 36 H        6.0850     3.3340     2.0040 H     1 <1>   0.1500 
 37 H        6.4030    -0.0660    -0.6060 H     1 <1>   0.1500 
 38 H        2.1640     5.0450    -0.7690 H     1 <1>   0.0800 
 39 H        2.0140     4.6620    -2.4630 H     1 <1>   0.0800 
 40 H        3.5950     4.8800    -1.7620 H     1 <1>   0.0800 
 41 H        8.5180     0.8060    -1.4780 H     1 <1>   0.1500 
 42 H        7.4960     5.5060     2.5540 H     1 <1>   0.1500 
 43 H       11.0590     3.7440    -2.0010 H     1 <1>   0.0800 
 44 H       10.1410     2.3070    -2.3530 H     1 <1>   0.0800 
 45 H       11.4910     5.3920    -0.3550 H     1 <1>   0.1500 
 46 H        9.1700     7.3200     2.6580 H     1 <1>   0.1500 
 47 H       12.2190     2.5560    -0.1470 H     1 <1>   0.0800 
 48 H       12.4520     1.7210    -1.6630 H     1 <1>   0.0800 
 49 H       11.2980     1.1070    -0.5040 H     1 <1>   0.0800 
 50 H       11.1490     7.2590     1.2160 H     1 <1>   0.1500 
@<TRIPOS>BOND
  1   1   2  1   
  2   1  24  1   
  3   2   3  1   
  4   2  25  1   
  5   2  26  1   
  6   3   4  1   
  7   3  27  1   
  8   3  28  1   
  9   4   5  1   
 10   4   6  1   
 11   4  29  1   
 12   5   7  1   
 13   5  30  1   
 14   5  31  1   
 15   6   8  1   
 16   6  32  1   
 17   6  33  1   
 18   7   9  ar  
 19   7  10  ar  
 20   8  11  1   
 21   8  34  1   
 22   8  35  1   
 23   9  12  ar  
 24   9  36  1   
 25  10  13  ar  
 26  10  37  1   
 27  11  38  1   
 28  11  39  1   
 29  11  40  1   
 30  12  14  ar  
 31  12  15  1   
 32  13  14  ar  
 33  13  41  1   
 34  14  16  1   
 35  15  17  ar  
 36  15  18  ar  
 37  16  17  1   
 38  16  19  1   
 39  17  20  ar  
 40  18  21  ar  
 41  18  42  1   
 42  19  22  1   
 43  19  43  1   
 44  19  44  1   
 45  20  23  ar  
 46  20  45  1   
 47  21  23  ar  
 48  21  46  1   
 49  22  47  1   
 50  22  48  1   
 51  22  49  1   
 52  23  50  1   
@<TRIPOS>SUBSTRUCTURE
  1 ****   9 GROUP 4 **** **** 0

# MOE 2024.06 (io_trps.svl 2023.06)
