@<TRIPOS>MOLECULE
NONAME
52 55 1 0 0 
SMALL
USER_CHARGES


@<TRIPOS>ATOM
  1 O       -0.2480     3.2370    -2.8440 O.2   1 <1>  -0.5700 
  2 C        0.1660     3.0080    -1.7230 C.2   1 <1>   0.5440 
  3 N       -0.7380     2.6950    -0.7290 N.am  1 <1>  -0.6600 
  4 C        1.5880     3.0670    -1.4670 C.ar  1 <1>   0.0860 
  5 C       -2.2130     2.7630    -0.9490 C.3   1 <1>   0.1400 
  6 C       -0.3690     2.1390     0.6060 C.3   1 <1>   0.1400 
  7 C        2.4650     2.1550    -2.0510 C.ar  1 <1>  -0.1500 
  8 C        2.1370     4.0350    -0.6260 C.ar  1 <1>  -0.1500 
  9 C       -2.9090     3.4180     0.2560 C.3   1 <1>   0.1200 
 10 C       -1.1660     2.8380     1.7200 C.3   1 <1>   0.1200 
 11 C        3.8210     2.1950    -1.7940 C.ar  1 <1>  -0.1500 
 12 C        3.4940     4.0780    -0.3690 C.ar  1 <1>  -0.1500 
 13 O       -2.5390     2.7890     1.4510 O.3   1 <1>  -0.5600 
 14 C        4.3610     3.1540    -0.9420 C.ar  1 <1>   0.1170 
 15 N        5.7260     3.2390    -0.6530 N.am  1 <1>  -0.5470 
 16 C        6.7360     2.3170    -0.7360 C.2   1 <1>   0.5690 
 17 O        6.5710     1.1730    -1.0850 O.2   1 <1>  -0.5700 
 18 C        8.1440     2.7570    -0.3540 C.3   1 <1>   0.1810 
 19 O        8.1520     4.0970     0.1240 O.3   1 <1>  -0.3630 
 20 C        9.3090     4.6920     0.5110 C.ar  1 <1>   0.0830 
 21 C       10.5500     4.0540     0.4910 C.ar  1 <1>  -0.1500 
 22 C        9.2180     6.0080     0.9470 C.ar  1 <1>  -0.1500 
 23 C       11.6680     4.7520     0.9060 C.ar  1 <1>  -0.1430 
 24 C       10.3460     6.6970     1.3600 C.ar  1 <1>  -0.1500 
 25 C       11.5690     6.0530     1.3340 C.ar  1 <1>  -0.1430 
 26 C       13.0950     4.2660     0.9650 C.3   1 <1>  -0.0170 
 27 C       12.9150     6.6040     1.7350 C.3   1 <1>  -0.0170 
 28 C       13.8130     5.3560     1.7790 C.3   1 <1>  -0.1600 
 29 H       -2.5970     1.7680    -1.0850 H     1 <1>   0.0800 
 30 H       -2.4370     3.3300    -1.8360 H     1 <1>   0.0800 
 31 H        0.6830     2.2490     0.7970 H     1 <1>   0.0800 
 32 H       -0.5980     1.0870     0.6220 H     1 <1>   0.0800 
 33 H        2.0660     1.4090    -2.7180 H     1 <1>   0.1500 
 34 H        1.4810     4.7600    -0.1770 H     1 <1>   0.1500 
 35 H       -3.9770     3.3350     0.1570 H     1 <1>   0.0800 
 36 H       -2.6490     4.4610     0.3190 H     1 <1>   0.0800 
 37 H       -0.8690     3.8690     1.8090 H     1 <1>   0.0800 
 38 H       -0.9990     2.3470     2.6610 H     1 <1>   0.0800 
 39 H        4.4650     1.4740    -2.2660 H     1 <1>   0.1500 
 40 H        3.8860     4.8360     0.2850 H     1 <1>   0.1500 
 41 H        6.0470     4.1360    -0.2810 H     1 <1>   0.3700 
 42 H        8.7800     2.6990    -1.2180 H     1 <1>   0.0800 
 43 H        8.5170     2.1160     0.4220 H     1 <1>   0.0800 
 44 H       10.6670     3.0400     0.1630 H     1 <1>   0.1500 
 45 H        8.2600     6.4930     0.9600 H     1 <1>   0.1500 
 46 H       10.2740     7.7160     1.6970 H     1 <1>   0.1500 
 47 H       13.4960     4.2110    -0.0320 H     1 <1>   0.0800 
 48 H       13.1670     3.3050     1.4430 H     1 <1>   0.0800 
 49 H       12.8730     7.0960     2.6910 H     1 <1>   0.0800 
 50 H       13.2570     7.2930     0.9830 H     1 <1>   0.0800 
 51 H       14.7980     5.5580     1.3970 H     1 <1>   0.0800 
 52 H       13.8950     5.0270     2.8010 H     1 <1>   0.0800 
@<TRIPOS>BOND
  1   1   2  2   
  2   2   3  am  
  3   2   4  1   
  4   3   5  1   
  5   3   6  1   
  6   4   7  ar  
  7   4   8  ar  
  8   5   9  1   
  9   5  29  1   
 10   5  30  1   
 11   6  10  1   
 12   6  31  1   
 13   6  32  1   
 14   7  11  ar  
 15   7  33  1   
 16   8  12  ar  
 17   8  34  1   
 18   9  13  1   
 19   9  35  1   
 20   9  36  1   
 21  10  13  1   
 22  10  37  1   
 23  10  38  1   
 24  11  14  ar  
 25  11  39  1   
 26  12  14  ar  
 27  12  40  1   
 28  14  15  1   
 29  15  16  am  
 30  15  41  1   
 31  16  17  2   
 32  16  18  1   
 33  18  19  1   
 34  18  42  1   
 35  18  43  1   
 36  19  20  1   
 37  20  21  ar  
 38  20  22  ar  
 39  21  23  ar  
 40  21  44  1   
 41  22  24  ar  
 42  22  45  1   
 43  23  25  ar  
 44  23  26  1   
 45  24  25  ar  
 46  24  46  1   
 47  25  27  1   
 48  26  28  1   
 49  26  47  1   
 50  26  48  1   
 51  27  28  1   
 52  27  49  1   
 53  27  50  1   
 54  28  51  1   
 55  28  52  1   
@<TRIPOS>SUBSTRUCTURE
  1 ****  15 GROUP 4 **** **** 0

# MOE 2024.06 (io_trps.svl 2023.06)
