@<TRIPOS>MOLECULE
NONAME
45 47 1 0 0 
SMALL
USER_CHARGES


@<TRIPOS>ATOM
  1 O       -0.4700    -0.8410     1.4520 O.2   1 <1>  -0.5700 
  2 C       -1.1020    -1.6480     0.8200 C.2   1 <1>   0.5690 
  3 N       -0.6100    -2.7430     0.1900 N.am  1 <1>  -0.2370 
  4 C       -2.6070    -1.5580     0.6460 C.3   1 <1>  -0.0190 
  5 C        0.6960    -3.1500     0.2510 C.ar  1 <1>   0.7370 
  6 C       -1.5850    -3.3950    -0.4900 C.2   1 <1>   0.5690 
  7 C       -2.8860    -2.6070    -0.4620 C.3   1 <1>  -0.0190 
  8 C       -3.0990    -0.1080     0.4370 C.3   1 <1>  -0.0160 
  9 N        1.4910    -2.7410    -0.7340 N.ar  1 <1>  -0.6200 
 10 N        1.0320    -3.9100     1.2890 N.ar  1 <1>  -0.6200 
 11 O       -1.4830    -4.4590    -1.0450 O.2   1 <1>  -0.5700 
 12 C       -3.1950    -2.0520    -1.8660 C.3   1 <1>  -0.2400 
 13 C       -4.6180     0.0100     0.3600 C.ar  1 <1>  -0.1430 
 14 C        2.7370    -3.1380    -0.6650 C.ar  1 <1>   0.1670 
 15 C        2.2840    -4.2930     1.3360 C.ar  1 <1>   0.1670 
 16 C       -5.4200    -0.4470     1.3960 C.ar  1 <1>  -0.1500 
 17 C       -5.2180     0.5970    -0.7430 C.ar  1 <1>  -0.1500 
 18 C        3.1880    -3.9280     0.3670 C.ar  1 <1>  -0.1500 
 19 C        3.6630    -2.6880    -1.7750 C.3   1 <1>  -0.0970 
 20 C        2.6920    -5.1600     2.5080 C.3   1 <1>  -0.0970 
 21 C       -6.7970    -0.3360     1.3190 C.ar  1 <1>  -0.1500 
 22 C       -6.5960     0.7080    -0.8190 C.ar  1 <1>  -0.1500 
 23 C       -7.3940     0.2410     0.2110 C.ar  1 <1>  -0.1430 
 24 C       -8.9050     0.3610     0.1280 C.3   1 <1>  -0.0970 
 25 H       -3.0260    -1.9260     1.5650 H     1 <1>   0.0800 
 26 H       -3.6840    -3.2600    -0.1560 H     1 <1>   0.0800 
 27 H       -2.6460     0.3080    -0.4440 H     1 <1>   0.0800 
 28 H       -2.7680     0.4930     1.2670 H     1 <1>   0.0800 
 29 H       -2.4430    -1.3510    -2.1830 H     1 <1>   0.0800 
 30 H       -4.1580    -1.5780    -1.8840 H     1 <1>   0.0800 
 31 H       -3.2200    -2.8610    -2.5760 H     1 <1>   0.0800 
 32 H       -4.9820    -0.8870     2.2730 H     1 <1>   0.1500 
 33 H       -4.6190     0.9720    -1.5530 H     1 <1>   0.1500 
 34 H        4.2110    -4.2470     0.4140 H     1 <1>   0.1500 
 35 H        3.2920    -3.0450    -2.7180 H     1 <1>   0.0800 
 36 H        4.6580    -3.0650    -1.6270 H     1 <1>   0.0800 
 37 H        3.6970    -1.6140    -1.8010 H     1 <1>   0.0800 
 38 H        2.1100    -6.0630     2.5060 H     1 <1>   0.0800 
 39 H        2.5090    -4.6320     3.4260 H     1 <1>   0.0800 
 40 H        3.7340    -5.4170     2.4550 H     1 <1>   0.0800 
 41 H       -7.4050    -0.6990     2.1300 H     1 <1>   0.1500 
 42 H       -7.0440     1.1620    -1.6850 H     1 <1>   0.1500 
 43 H       -9.1830     1.2140    -0.4650 H     1 <1>   0.0800 
 44 H       -9.3270     0.4790     1.1090 H     1 <1>   0.0800 
 45 H       -9.3150    -0.5250    -0.3240 H     1 <1>   0.0800 
@<TRIPOS>BOND
  1   1   2  2   
  2   2   3  am  
  3   2   4  1   
  4   3   5  1   
  5   3   6  am  
  6   4   7  1   
  7   4   8  1   
  8   4  25  1   
  9   5   9  ar  
 10   5  10  ar  
 11   6   7  1   
 12   6  11  2   
 13   7  12  1   
 14   7  26  1   
 15   8  13  1   
 16   8  27  1   
 17   8  28  1   
 18   9  14  ar  
 19  10  15  ar  
 20  12  29  1   
 21  12  30  1   
 22  12  31  1   
 23  13  16  ar  
 24  13  17  ar  
 25  14  18  ar  
 26  14  19  1   
 27  15  18  ar  
 28  15  20  1   
 29  16  21  ar  
 30  16  32  1   
 31  17  22  ar  
 32  17  33  1   
 33  18  34  1   
 34  19  35  1   
 35  19  36  1   
 36  19  37  1   
 37  20  38  1   
 38  20  39  1   
 39  20  40  1   
 40  21  23  ar  
 41  21  41  1   
 42  22  23  ar  
 43  22  42  1   
 44  23  24  1   
 45  24  43  1   
 46  24  44  1   
 47  24  45  1   
@<TRIPOS>SUBSTRUCTURE
  1 ****   4 GROUP 4 **** **** 0

# MOE 2024.06 (io_trps.svl 2023.06)
