@<TRIPOS>MOLECULE
NONAME
52 54 1 0 0 
SMALL
USER_CHARGES


@<TRIPOS>ATOM
  1 O       -0.0360     2.9840     4.3400 O.2   1 <1>  -0.5700 
  2 C        0.2760     3.3810     3.2330 C.2   1 <1>   0.5440 
  3 N       -0.7200     3.6560     2.3170 N.am  1 <1>  -0.6600 
  4 C        1.6830     3.5700     2.9320 C.ar  1 <1>   0.0860 
  5 C       -0.5230     4.4930     1.1010 C.3   1 <1>   0.1400 
  6 C       -2.1340     3.2620     2.5690 C.3   1 <1>   0.1400 
  7 C        2.2820     2.9910     1.8150 C.ar  1 <1>  -0.1500 
  8 C        2.4900     4.3390     3.7690 C.ar  1 <1>  -0.1500 
  9 C       -1.0510     3.7460    -0.1260 C.3   1 <1>  -0.1600 
 10 C       -2.6830     2.5130     1.3520 C.3   1 <1>  -0.1600 
 11 C        3.6220     3.1800     1.5280 C.ar  1 <1>   0.0830 
 12 C        3.8310     4.5370     3.4960 C.ar  1 <1>  -0.1500 
 13 C       -2.5260     3.3320     0.0570 C.3   1 <1>  -0.0190 
 14 O        4.0980     2.5730     0.4140 O.3   1 <1>  -0.3630 
 15 C        4.4020     3.9620     2.3750 C.ar  1 <1>  -0.1500 
 16 C       -3.0880     2.5710    -1.1440 C.2   1 <1>   0.6590 
 17 C        5.4750     2.5900     0.1000 C.3   1 <1>   0.2630 
 18 O       -2.3900     2.1130    -2.0120 O.2   1 <1>  -0.5700 
 19 O       -4.4090     2.4490    -1.1700 O.3   1 <1>  -0.4300 
 20 C        5.7220     1.7560    -1.1490 C.ar  1 <1>  -0.1430 
 21 C       -5.0630     1.7650    -2.2130 C.3   1 <1>   0.1200 
 22 C        5.2510     0.4540    -1.2260 C.ar  1 <1>  -0.1500 
 23 C        6.4310     2.2840    -2.2180 C.ar  1 <1>  -0.1500 
 24 C       -6.5610     1.7950    -1.9310 C.3   1 <1>  -0.2400 
 25 C        5.4860    -0.3120    -2.3550 C.ar  1 <1>  -0.1500 
 26 C        6.6680     1.5200    -3.3480 C.ar  1 <1>  -0.1500 
 27 C        6.1960     0.2210    -3.4170 C.ar  1 <1>  -0.1500 
 28 H        0.5140     4.7400     0.9600 H     1 <1>   0.0800 
 29 H       -1.0640     5.4150     1.2250 H     1 <1>   0.0800 
 30 H       -2.7170     4.1470     2.7560 H     1 <1>   0.0800 
 31 H       -2.2050     2.6280     3.4370 H     1 <1>   0.0800 
 32 H        1.6910     2.3770     1.1590 H     1 <1>   0.1500 
 33 H        2.0490     4.7810     4.6470 H     1 <1>   0.1500 
 34 H       -0.4430     2.8730    -0.2920 H     1 <1>   0.0800 
 35 H       -0.9570     4.3760    -0.9930 H     1 <1>   0.0800 
 36 H       -3.7230     2.2910     1.5200 H     1 <1>   0.0800 
 37 H       -2.1610     1.5770     1.2570 H     1 <1>   0.0800 
 38 H        4.4310     5.1380     4.1590 H     1 <1>   0.1500 
 39 H       -3.1110     4.2290     0.1540 H     1 <1>   0.0800 
 40 H        5.4450     4.1340     2.1850 H     1 <1>   0.1500 
 41 H        6.0170     2.1740     0.9310 H     1 <1>   0.0800 
 42 H        5.7700     3.6110    -0.0610 H     1 <1>   0.0800 
 43 H       -4.6940     0.7530    -2.2410 H     1 <1>   0.0800 
 44 H       -4.8320     2.2590    -3.1420 H     1 <1>   0.0800 
 45 H        4.6940     0.0350    -0.4060 H     1 <1>   0.1500 
 46 H        6.8040     3.2930    -2.1800 H     1 <1>   0.1500 
 47 H       -6.7730     1.3080    -0.9960 H     1 <1>   0.0800 
 48 H       -7.0860     1.2770    -2.7130 H     1 <1>   0.0800 
 49 H       -6.9130     2.8100    -1.8980 H     1 <1>   0.0800 
 50 H        5.1140    -1.3200    -2.4080 H     1 <1>   0.1500 
 51 H        7.2180     1.9350    -4.1730 H     1 <1>   0.1500 
 52 H        6.3790    -0.3730    -4.2950 H     1 <1>   0.1500 
@<TRIPOS>BOND
  1   1   2  2   
  2   2   3  am  
  3   2   4  1   
  4   3   5  1   
  5   3   6  1   
  6   4   7  ar  
  7   4   8  ar  
  8   5   9  1   
  9   5  28  1   
 10   5  29  1   
 11   6  10  1   
 12   6  30  1   
 13   6  31  1   
 14   7  11  ar  
 15   7  32  1   
 16   8  12  ar  
 17   8  33  1   
 18   9  13  1   
 19   9  34  1   
 20   9  35  1   
 21  10  13  1   
 22  10  36  1   
 23  10  37  1   
 24  11  14  1   
 25  11  15  ar  
 26  12  15  ar  
 27  12  38  1   
 28  13  16  1   
 29  13  39  1   
 30  14  17  1   
 31  15  40  1   
 32  16  18  2   
 33  16  19  1   
 34  17  20  1   
 35  17  41  1   
 36  17  42  1   
 37  19  21  1   
 38  20  22  ar  
 39  20  23  ar  
 40  21  24  1   
 41  21  43  1   
 42  21  44  1   
 43  22  25  ar  
 44  22  45  1   
 45  23  26  ar  
 46  23  46  1   
 47  24  47  1   
 48  24  48  1   
 49  24  49  1   
 50  25  27  ar  
 51  25  50  1   
 52  26  27  ar  
 53  26  51  1   
 54  27  52  1   
@<TRIPOS>SUBSTRUCTURE
  1 ****   7 GROUP 4 **** **** 0

# MOE 2024.06 (io_trps.svl 2023.06)
