@<TRIPOS>MOLECULE
NONAME
38 38 1 0 0 
SMALL
USER_CHARGES


@<TRIPOS>ATOM
  1 O       -0.9290     0.0720    -1.9110 O.2   1 <1>  -0.5700 
  2 C       -0.6690    -0.9980    -1.4220 C.2   1 <1>   0.5690 
  3 N       -1.5840    -1.7850    -0.7790 N.am  1 <1>  -0.5470 
  4 C        0.7510    -1.5230    -1.5380 C.3   1 <1>  -0.0990 
  5 C       -2.9360    -1.5550    -0.4770 C.ar  1 <1>   0.1170 
  6 C        1.4640    -1.6880    -0.1810 C.3   1 <1>  -0.0800 
  7 C       -3.7760    -2.6450    -0.2880 C.ar  1 <1>  -0.1500 
  8 C       -3.4660    -0.2770    -0.3370 C.ar  1 <1>  -0.1500 
  9 C        1.5800    -0.3470     0.5570 C.3   1 <1>  -0.2400 
 10 C        2.8620    -2.2830    -0.3900 C.3   1 <1>  -0.2400 
 11 C       -5.1180    -2.4870     0.0330 C.ar  1 <1>   0.1170 
 12 C       -4.8000    -0.0990    -0.0200 C.ar  1 <1>  -0.1500 
 13 N       -5.9160    -3.6310     0.1910 N.am  1 <1>  -0.5470 
 14 C       -5.6200    -1.1960     0.1630 C.ar  1 <1>  -0.1500 
 15 C       -7.0760    -3.8210     0.8900 C.2   1 <1>   0.5690 
 16 O       -7.6050    -2.9720     1.5630 O.2   1 <1>  -0.5700 
 17 C       -7.7180    -5.1960     0.8210 C.3   1 <1>  -0.0990 
 18 C       -8.2440    -5.5430    -0.5810 C.3   1 <1>  -0.2400 
 19 H       -1.2260    -2.6860    -0.4720 H     1 <1>   0.3700 
 20 H        1.3120    -0.8440    -2.1560 H     1 <1>   0.0800 
 21 H        0.7170    -2.4670    -2.0500 H     1 <1>   0.0800 
 22 H        0.9000    -2.3670     0.4360 H     1 <1>   0.0800 
 23 H       -3.3780    -3.6350    -0.3920 H     1 <1>   0.1500 
 24 H       -2.8390     0.5850    -0.4720 H     1 <1>   0.1500 
 25 H        2.1230     0.3680    -0.0370 H     1 <1>   0.0800 
 26 H        2.0960    -0.4770     1.4920 H     1 <1>   0.0800 
 27 H        0.6060     0.0580     0.7680 H     1 <1>   0.0800 
 28 H        3.4670    -1.6300    -0.9940 H     1 <1>   0.0800 
 29 H        2.7950    -3.2390    -0.8780 H     1 <1>   0.0800 
 30 H        3.3530    -2.4240     0.5570 H     1 <1>   0.0800 
 31 H       -5.1990     0.8950     0.0850 H     1 <1>   0.1500 
 32 H       -5.5730    -4.4600    -0.2870 H     1 <1>   0.3700 
 33 H       -6.6560    -1.0420     0.4050 H     1 <1>   0.1500 
 34 H       -8.5360    -5.2220     1.5200 H     1 <1>   0.0800 
 35 H       -7.0000    -5.9310     1.1360 H     1 <1>   0.0800 
 36 H       -8.9690    -4.8100    -0.8920 H     1 <1>   0.0800 
 37 H       -8.7190    -6.5080    -0.5680 H     1 <1>   0.0800 
 38 H       -7.4450    -5.5630    -1.2990 H     1 <1>   0.0800 
@<TRIPOS>BOND
  1   1   2  2   
  2   2   3  am  
  3   2   4  1   
  4   3   5  1   
  5   3  19  1   
  6   4   6  1   
  7   4  20  1   
  8   4  21  1   
  9   5   7  ar  
 10   5   8  ar  
 11   6   9  1   
 12   6  10  1   
 13   6  22  1   
 14   7  11  ar  
 15   7  23  1   
 16   8  12  ar  
 17   8  24  1   
 18   9  25  1   
 19   9  26  1   
 20   9  27  1   
 21  10  28  1   
 22  10  29  1   
 23  10  30  1   
 24  11  13  1   
 25  11  14  ar  
 26  12  14  ar  
 27  12  31  1   
 28  13  15  am  
 29  13  32  1   
 30  14  33  1   
 31  15  16  2   
 32  15  17  1   
 33  17  18  1   
 34  17  34  1   
 35  17  35  1   
 36  18  36  1   
 37  18  37  1   
 38  18  38  1   
@<TRIPOS>SUBSTRUCTURE
  1 ****   5 GROUP 4 **** **** 0

# MOE 2024.06 (io_trps.svl 2023.06)
