@<TRIPOS>MOLECULE
NONAME
45 47 1 0 0 
SMALL
USER_CHARGES


@<TRIPOS>ATOM
  1 S        0.1890     1.0950     0.3830 S.3   1 <1>  -0.2860 
  2 C       -1.4070     0.2820     0.2660 C.2   1 <1>   0.2420 
  3 C        1.2920    -0.2770     0.9910 C.3   1 <1>   0.1310 
  4 N       -1.5780    -0.9620     0.5300 N.2   1 <1>  -0.3380 
  5 N       -2.5190     0.9090    -0.1060 N.pl3 1 <1>   0.0480 
  6 C        2.7460     0.1600     1.0580 C.2   1 <1>   0.5690 
  7 N       -2.8730    -1.1980     0.3250 N.2   1 <1>  -0.3380 
  8 C       -3.4380    -0.0780    -0.0480 C.2   1 <1>   0.1860 
  9 C       -2.6800     2.3160    -0.5300 C.3   1 <1>   0.0160 
 10 O        3.4770    -0.4360     1.8130 O.2   1 <1>  -0.5700 
 11 N        3.1580     1.1910     0.2670 N.am  1 <1>  -0.4930 
 12 C       -4.8360     0.0890    -0.3540 C.2   1 <1>   0.1400 
 13 C        4.4330     1.7990     0.1450 C.2   1 <1>   0.0630 
 14 O       -5.5090    -0.8950    -0.9400 O.3   1 <1>  -0.2800 
 15 C       -5.6900     1.1330    -0.1540 C.2   1 <1>  -0.1500 
 16 C        5.7050     1.2190     0.0990 C.2   1 <1>   0.1080 
 17 C        4.6550     3.1250     0.0150 C.2   1 <1>  -0.3320 
 18 C       -6.7550    -0.5110    -1.1200 C.2   1 <1>  -0.0100 
 19 C       -6.9330     0.7420    -0.6540 C.2   1 <1>  -0.1500 
 20 N        6.6410     2.1050    -0.0460 N.2   1 <1>  -0.7070 
 21 C        6.0280    -0.2560     0.1850 C.3   1 <1>  -0.0590 
 22 N        5.9990     3.2840    -0.0950 N.pl3 1 <1>   0.3140 
 23 C        3.6540     4.2720     0.0010 C.3   1 <1>  -0.0600 
 24 C        6.7530     4.5470    -0.2440 C.3   1 <1>   0.0960 
 25 C        6.8770     4.9500    -1.7190 C.3   1 <1>  -0.2400 
 26 H        1.1830    -1.1030     0.3130 H     1 <1>   0.0800 
 27 H        0.9400    -0.5590     1.9660 H     1 <1>   0.0800 
 28 H       -1.7410     2.7030    -0.8810 H     1 <1>   0.0800 
 29 H       -3.0190     2.9030     0.3040 H     1 <1>   0.0800 
 30 H       -3.3980     2.3720    -1.3290 H     1 <1>   0.0800 
 31 H        2.4190     1.6730    -0.2420 H     1 <1>   0.3700 
 32 H       -5.4870     2.0810     0.3070 H     1 <1>   0.1500 
 33 H       -7.4460    -1.1920    -1.5860 H     1 <1>   0.1500 
 34 H       -7.8310     1.3350    -0.6510 H     1 <1>   0.1500 
 35 H        6.1100    -0.5430     1.2170 H     1 <1>   0.0800 
 36 H        6.9610    -0.4540    -0.3090 H     1 <1>   0.0800 
 37 H        5.2540    -0.8340    -0.2830 H     1 <1>   0.0800 
 38 H        2.6530     3.9050     0.1350 H     1 <1>   0.0800 
 39 H        3.7030     4.7970    -0.9370 H     1 <1>   0.0800 
 40 H        3.8680     4.9590     0.8000 H     1 <1>   0.0800 
 41 H        7.7310     4.3990     0.1760 H     1 <1>   0.0800 
 42 H        6.2560     5.3160     0.3170 H     1 <1>   0.0800 
 43 H        7.3870     4.1760    -2.2660 H     1 <1>   0.0800 
 44 H        7.4450     5.8590    -1.8030 H     1 <1>   0.0800 
 45 H        5.9060     5.1090    -2.1510 H     1 <1>   0.0800 
@<TRIPOS>BOND
  1   1   2  1   
  2   1   3  1   
  3   2   4  2   
  4   2   5  1   
  5   3   6  1   
  6   3  26  1   
  7   3  27  1   
  8   4   7  1   
  9   5   8  1   
 10   5   9  1   
 11   6  10  2   
 12   6  11  am  
 13   7   8  2   
 14   8  12  1   
 15   9  28  1   
 16   9  29  1   
 17   9  30  1   
 18  11  13  1   
 19  11  31  1   
 20  12  14  1   
 21  12  15  2   
 22  13  16  1   
 23  13  17  2   
 24  14  18  1   
 25  15  19  1   
 26  15  32  1   
 27  16  20  2   
 28  16  21  1   
 29  17  22  1   
 30  17  23  1   
 31  18  19  2   
 32  18  33  1   
 33  19  34  1   
 34  20  22  1   
 35  21  35  1   
 36  21  36  1   
 37  21  37  1   
 38  22  24  1   
 39  23  38  1   
 40  23  39  1   
 41  23  40  1   
 42  24  25  1   
 43  24  41  1   
 44  24  42  1   
 45  25  43  1   
 46  25  44  1   
 47  25  45  1   
@<TRIPOS>SUBSTRUCTURE
  1 ****   1 GROUP 4 **** **** 0

# MOE 2024.06 (io_trps.svl 2023.06)
