@<TRIPOS>MOLECULE
NONAME
44 45 1 0 0 
SMALL
USER_CHARGES


@<TRIPOS>ATOM
  1 CL      -2.1600     0.3160    -3.1240 Cl    1 <1>  -0.1770 
  2 C       -2.6730     0.7430    -1.5060 C.ar  1 <1>   0.1770 
  3 C       -4.0010     0.6180    -1.1120 C.ar  1 <1>  -0.1440 
  4 C       -1.6970     1.2130    -0.6470 C.ar  1 <1>  -0.1500 
  5 C       -4.3500     0.9950     0.1880 C.ar  1 <1>   0.1170 
  6 C       -5.0650     0.0810    -2.0730 C.3   1 <1>  -0.0960 
  7 C       -2.0440     1.5770     0.6400 C.ar  1 <1>  -0.1500 
  8 N       -5.6910     0.9140     0.6010 N.am  1 <1>  -0.5470 
  9 C       -3.3610     1.4700     1.0470 C.ar  1 <1>  -0.1500 
 10 C       -6.2570     0.7490     1.8360 C.2   1 <1>   0.5690 
 11 O       -5.6170     0.6290     2.8520 O.2   1 <1>  -0.5700 
 12 C       -7.7740     0.7150     1.9390 C.3   1 <1>   0.1310 
 13 S       -8.5520     0.1570     0.3420 S.3   1 <1>  -0.2860 
 14 C      -10.3060     0.3270     0.6890 C.2   1 <1>   0.2430 
 15 N      -10.7630     0.8040     1.7910 N.2   1 <1>  -0.3380 
 16 N      -11.2540    -0.0320    -0.1750 N.pl3 1 <1>   0.0480 
 17 N      -12.0940     0.7660     1.6740 N.2   1 <1>  -0.3380 
 18 C      -12.3680     0.2660     0.5130 C.2   1 <1>   0.0060 
 19 C      -11.0890    -0.6130    -1.5230 C.3   1 <1>   0.0160 
 20 C      -13.7880     0.0500     0.0070 C.3   1 <1>   0.0200 
 21 C      -14.1830    -1.4380    -0.0660 C.3   1 <1>  -0.0800 
 22 C      -15.5950    -1.5860    -0.6470 C.3   1 <1>  -0.2400 
 23 C      -14.1210    -2.1080     1.3140 C.3   1 <1>  -0.2400 
 24 H       -0.6800     1.2920    -0.9850 H     1 <1>   0.1500 
 25 H       -4.6320    -0.4250    -2.9150 H     1 <1>   0.0800 
 26 H       -5.6670     0.8930    -2.4410 H     1 <1>   0.0800 
 27 H       -5.6990    -0.6300    -1.5730 H     1 <1>   0.0800 
 28 H       -1.2960     1.9440     1.3210 H     1 <1>   0.1500 
 29 H       -6.3650     0.8930    -0.1650 H     1 <1>   0.3700 
 30 H       -3.6180     1.7660     2.0480 H     1 <1>   0.1500 
 31 H       -8.1560     1.6950     2.1580 H     1 <1>   0.0800 
 32 H       -8.0850     0.0260     2.7020 H     1 <1>   0.0800 
 33 H      -10.9140    -1.6690    -1.4330 H     1 <1>   0.0800 
 34 H      -10.2510    -0.1510    -2.0130 H     1 <1>   0.0800 
 35 H      -11.9750    -0.4420    -2.1060 H     1 <1>   0.0800 
 36 H      -13.8840     0.5040    -0.9620 H     1 <1>   0.0800 
 37 H      -14.4660     0.5630     0.6670 H     1 <1>   0.0800 
 38 H      -13.4990    -1.9510    -0.7190 H     1 <1>   0.0800 
 39 H      -16.3170    -1.0970    -0.0170 H     1 <1>   0.0800 
 40 H      -15.8590    -2.6260    -0.7240 H     1 <1>   0.0800 
 41 H      -15.6460    -1.1520    -1.6300 H     1 <1>   0.0800 
 42 H      -14.7800    -1.6130     2.0060 H     1 <1>   0.0800 
 43 H      -13.1220    -2.0680     1.7130 H     1 <1>   0.0800 
 44 H      -14.4110    -3.1420     1.2450 H     1 <1>   0.0800 
@<TRIPOS>BOND
  1   1   2  1   
  2   2   3  ar  
  3   2   4  ar  
  4   3   5  ar  
  5   3   6  1   
  6   4   7  ar  
  7   4  24  1   
  8   5   8  1   
  9   5   9  ar  
 10   6  25  1   
 11   6  26  1   
 12   6  27  1   
 13   7   9  ar  
 14   7  28  1   
 15   8  10  am  
 16   8  29  1   
 17   9  30  1   
 18  10  11  2   
 19  10  12  1   
 20  12  13  1   
 21  12  31  1   
 22  12  32  1   
 23  13  14  1   
 24  14  15  2   
 25  14  16  1   
 26  15  17  1   
 27  16  18  1   
 28  16  19  1   
 29  17  18  2   
 30  18  20  1   
 31  19  33  1   
 32  19  34  1   
 33  19  35  1   
 34  20  21  1   
 35  20  36  1   
 36  20  37  1   
 37  21  22  1   
 38  21  23  1   
 39  21  38  1   
 40  22  39  1   
 41  22  40  1   
 42  22  41  1   
 43  23  42  1   
 44  23  43  1   
 45  23  44  1   
@<TRIPOS>SUBSTRUCTURE
  1 ****  13 GROUP 4 **** **** 0

# MOE 2024.06 (io_trps.svl 2023.06)
