@<TRIPOS>MOLECULE
NONAME
33 33 1 0 0 
SMALL
USER_CHARGES


@<TRIPOS>ATOM
  1 CL      -2.4160     0.7910    -3.5680 Cl    1 <1>  -0.1770 
  2 C       -2.5950     1.1310    -1.8620 C.ar  1 <1>   0.1770 
  3 C       -1.5820     1.7530    -1.1520 C.ar  1 <1>   0.1770 
  4 C       -3.7690     0.7670    -1.2280 C.ar  1 <1>  -0.1500 
  5 CL      -0.0920     2.2200    -1.9380 Cl    1 <1>  -0.1770 
  6 C       -1.7350     2.0150     0.1970 C.ar  1 <1>  -0.1500 
  7 C       -3.9330     1.0250     0.1270 C.ar  1 <1>  -0.1440 
  8 C       -2.9110     1.6490     0.8340 C.ar  1 <1>  -0.1500 
  9 C       -5.2270     0.6220     0.8270 C.3   1 <1>   0.3390 
 10 N       -6.4010     1.2250     0.1870 N.am  1 <1>  -0.8490 
 11 S       -7.8270     0.6580     0.9000 S.o2  1 <1>   1.3330 
 12 C       -6.2990     2.7170     0.1520 C.3   1 <1>   0.2570 
 13 O       -7.5800    -0.6750     1.3960 O.2   1 <1>  -0.6500 
 14 O       -8.2850     1.6720     1.8260 O.2   1 <1>  -0.6500 
 15 C       -8.9540     0.5080    -0.4730 C.3   1 <1>  -0.1350 
 16 C       -7.4190     3.4690    -0.5850 C.2   1 <1>   0.5690 
 17 O       -7.2980     3.6920    -1.7660 O.2   1 <1>  -0.5700 
 18 N       -8.5230     3.8700     0.1050 N.am  1 <1>  -0.7300 
 19 C       -9.6590     4.6490    -0.4480 C.3   1 <1>   0.0600 
 20 H       -4.5510     0.2900    -1.7940 H     1 <1>   0.1500 
 21 H       -0.9410     2.4980     0.7390 H     1 <1>   0.1500 
 22 H       -3.0230     1.8530     1.8860 H     1 <1>   0.1500 
 23 H       -5.1960     0.9010     1.8680 H     1 <1>   0.0800 
 24 H       -5.2940    -0.4520     0.7760 H     1 <1>   0.0800 
 25 H       -5.3870     3.0020    -0.3410 H     1 <1>   0.0800 
 26 H       -6.2470     3.0950     1.1580 H     1 <1>   0.0800 
 27 H       -8.5530    -0.1680    -1.2010 H     1 <1>   0.0800 
 28 H       -9.1220     1.4540    -0.9450 H     1 <1>   0.0800 
 29 H       -9.8950     0.1240    -0.1330 H     1 <1>   0.0800 
 30 H       -8.6450     3.5140     1.0670 H     1 <1>   0.3700 
 31 H       -9.4560     4.9370    -1.4660 H     1 <1>   0.0800 
 32 H       -9.8100     5.5380     0.1400 H     1 <1>   0.0800 
 33 H      -10.5550     4.0540    -0.4260 H     1 <1>   0.0800 
@<TRIPOS>BOND
  1   1   2  1   
  2   2   3  ar  
  3   2   4  ar  
  4   3   5  1   
  5   3   6  ar  
  6   4   7  ar  
  7   4  20  1   
  8   6   8  ar  
  9   6  21  1   
 10   7   8  ar  
 11   7   9  1   
 12   8  22  1   
 13   9  10  1   
 14   9  23  1   
 15   9  24  1   
 16  10  11  am  
 17  10  12  1   
 18  11  13  2   
 19  11  14  2   
 20  11  15  1   
 21  12  16  1   
 22  12  25  1   
 23  12  26  1   
 24  15  27  1   
 25  15  28  1   
 26  15  29  1   
 27  16  17  2   
 28  16  18  am  
 29  18  19  1   
 30  18  30  1   
 31  19  31  1   
 32  19  32  1   
 33  19  33  1   
@<TRIPOS>SUBSTRUCTURE
  1 ****  10 GROUP 4 **** **** 0

# MOE 2024.06 (io_trps.svl 2023.06)
