@<TRIPOS>MOLECULE
NONAME
37 38 1 0 0 
SMALL
USER_CHARGES


@<TRIPOS>ATOM
  1 S       -0.1460    -0.1540    -0.4280 S.o2  1 <1>   1.4470 
  2 O       -0.5170    -1.0450     0.6460 O.2   1 <1>  -0.6500 
  3 O       -0.0980    -0.6250    -1.7910 O.2   1 <1>  -0.6500 
  4 N       -1.2860     1.0750    -0.4700 N.am  1 <1>  -0.9140 
  5 C        1.3890     0.7180    -0.0030 C.ar  1 <1>  -0.0090 
  6 C       -2.6430     0.5870    -0.3060 C.3   1 <1>   0.1960 
  7 C        2.4920     0.6860    -0.8540 C.ar  1 <1>  -0.1500 
  8 C        1.4910     1.4380     1.1890 C.ar  1 <1>  -0.1500 
  9 C       -3.6050     1.7590    -0.4650 C.3   1 <1>  -0.1600 
 10 C        3.6500     1.3570    -0.5070 C.ar  1 <1>   0.1900 
 11 C        2.6520     2.1130     1.5410 C.ar  1 <1>  -0.1500 
 12 C       -5.0500     1.3010    -0.2630 C.3   1 <1>   0.1400 
 13 F        4.6710     1.3130    -1.3230 F     1 <1>  -0.1900 
 14 C        3.7310     2.0650     0.6790 C.ar  1 <1>   0.1900 
 15 N       -5.9640     2.4370    -0.5020 N.am  1 <1>  -0.6600 
 16 F        4.8280     2.6990     1.0030 F     1 <1>  -0.1900 
 17 C       -6.6360     2.6640    -1.6530 C.2   1 <1>   0.5690 
 18 C       -6.2250     3.4540     0.5280 C.3   1 <1>   0.1400 
 19 O       -6.5820     1.9850    -2.6490 O.2   1 <1>  -0.5700 
 20 C       -7.4730     3.9080    -1.5450 C.3   1 <1>  -0.0990 
 21 C       -7.3760     4.2870    -0.0560 C.3   1 <1>  -0.1600 
 22 H       -1.2190     1.4260    -1.4240 H     1 <1>   0.4200 
 23 H       -2.7560     0.1530     0.6750 H     1 <1>   0.0800 
 24 H       -2.8540    -0.1710    -1.0450 H     1 <1>   0.0800 
 25 H        2.4540     0.1410    -1.7830 H     1 <1>   0.1500 
 26 H        0.6420     1.4670     1.8530 H     1 <1>   0.1500 
 27 H       -3.5080     2.1690    -1.4550 H     1 <1>   0.0800 
 28 H       -3.3660     2.5140     0.2620 H     1 <1>   0.0800 
 29 H        2.7210     2.6640     2.4620 H     1 <1>   0.1500 
 30 H       -5.1960     0.9250     0.7350 H     1 <1>   0.0800 
 31 H       -5.2830     0.5130    -0.9600 H     1 <1>   0.0800 
 32 H       -5.3460     4.0590     0.6690 H     1 <1>   0.0800 
 33 H       -6.5090     2.9920     1.4590 H     1 <1>   0.0800 
 34 H       -8.4860     3.7070    -1.8440 H     1 <1>   0.0800 
 35 H       -7.0470     4.6700    -2.1710 H     1 <1>   0.0800 
 36 H       -7.2060     5.3400     0.0800 H     1 <1>   0.0800 
 37 H       -8.2890     4.0180     0.4460 H     1 <1>   0.0800 
@<TRIPOS>BOND
  1   1   2  2   
  2   1   3  2   
  3   1   4  am  
  4   1   5  1   
  5   4   6  1   
  6   4  22  1   
  7   5   7  ar  
  8   5   8  ar  
  9   6   9  1   
 10   6  23  1   
 11   6  24  1   
 12   7  10  ar  
 13   7  25  1   
 14   8  11  ar  
 15   8  26  1   
 16   9  12  1   
 17   9  27  1   
 18   9  28  1   
 19  10  13  1   
 20  10  14  ar  
 21  11  14  ar  
 22  11  29  1   
 23  12  15  1   
 24  12  30  1   
 25  12  31  1   
 26  14  16  1   
 27  15  17  am  
 28  15  18  1   
 29  17  19  2   
 30  17  20  1   
 31  18  21  1   
 32  18  32  1   
 33  18  33  1   
 34  20  21  1   
 35  20  34  1   
 36  20  35  1   
 37  21  36  1   
 38  21  37  1   
@<TRIPOS>SUBSTRUCTURE
  1 ****   4 GROUP 4 **** **** 0

# MOE 2024.06 (io_trps.svl 2023.06)
