@<TRIPOS>MOLECULE
NONAME
54 58 1 0 0 
SMALL
USER_CHARGES


@<TRIPOS>ATOM
  1 O        2.3950     3.3220    -0.5120 O.2   1 <1>  -0.5700 
  2 C        3.4910     3.3340    -1.0110 C.2   1 <1>   0.7200 
  3 O        4.4110     2.4520    -0.6580 O.3   1 <1>  -0.4300 
  4 C        3.8990     4.3340    -2.0820 C.3   1 <1>  -0.1000 
  5 C        4.2760     1.5660     0.4410 C.3   1 <1>   0.3440 
  6 C        4.7870     5.4970    -1.7450 C.3   1 <1>  -0.2000 
  7 C        3.3530     5.7330    -2.1070 C.3   1 <1>  -0.2000 
  8 C        5.6820     1.1360     0.8590 C.ar  1 <1>  -0.1440 
  9 C        3.3580     0.3440     0.1090 C.3   1 <1>   0.4230 
 10 C        6.5700     0.4340     0.0030 C.ar  1 <1>   0.0000 
 11 C        6.1140     1.4100     2.1260 C.ar  1 <1>  -0.1500 
 12 N        1.8890     0.6730    -0.0510 N.4   1 <1>  -0.9590 
 13 C        3.4790    -0.8300     1.1170 C.3   1 <1>  -0.1600 
 14 C        7.8060     0.0100     0.5500 C.ar  1 <1>   0.3100 
 15 C        6.3170     0.1280    -1.3570 C.ar  1 <1>  -0.1500 
 16 C        7.3720     0.9710     2.5550 C.ar  1 <1>   0.1600 
 17 C        1.2200     0.8410     1.2910 C.3   1 <1>   0.3430 
 18 C        1.2150    -0.4450    -0.7890 C.3   1 <1>   0.3430 
 19 C        2.1100    -1.5120     1.3310 C.3   1 <1>  -0.0800 
 20 N        8.1860     0.2880     1.8200 N.ar  1 <1>  -0.6200 
 21 C        8.6890    -0.7340    -0.2480 C.ar  1 <1>  -0.1500 
 22 C        7.2020    -0.5950    -2.1100 C.ar  1 <1>  -0.1500 
 23 C        1.2030    -0.4990     2.0700 C.3   1 <1>   0.0580 
 24 C        1.5080    -1.7770    -0.0680 C.3   1 <1>  -0.1600 
 25 C        8.4000    -1.0390    -1.5490 C.ar  1 <1>  -0.1500 
 26 C       -0.1980    -1.0770     2.2640 C.2   1 <1>  -0.2880 
 27 C       -1.3650    -0.6270     1.7880 C.2   1 <1>  -0.3000 
 28 H        4.0620     3.8530    -3.0290 H     1 <1>   0.1000 
 29 H        3.8380     2.1210     1.2520 H     1 <1>   0.0800 
 30 H        5.5510     5.7860    -2.4460 H     1 <1>   0.1000 
 31 H        5.0880     5.6540    -0.7230 H     1 <1>   0.1000 
 32 H        2.6700     6.0420    -1.3340 H     1 <1>   0.1000 
 33 H        3.1290     6.1870    -3.0570 H     1 <1>   0.1000 
 34 H        3.7060    -0.0380    -0.8350 H     1 <1>   0.0800 
 35 H        5.5170     1.9570     2.8330 H     1 <1>   0.1500 
 36 H        1.7920     1.5750    -0.5580 H     1 <1>   0.4500 
 37 H        3.8580    -0.4890     2.0650 H     1 <1>   0.0800 
 38 H        4.1920    -1.5410     0.7370 H     1 <1>   0.0800 
 39 H        5.4220     0.4760    -1.8310 H     1 <1>   0.1500 
 40 H        7.6780     1.2090     3.5610 H     1 <1>   0.1500 
 41 H        0.2160     1.2020     1.1570 H     1 <1>   0.0800 
 42 H        1.7520     1.5790     1.8670 H     1 <1>   0.0800 
 43 H        1.5660    -0.4930    -1.8070 H     1 <1>   0.0800 
 44 H        0.1500    -0.2730    -0.8060 H     1 <1>   0.0800 
 45 H        2.2140    -2.4250     1.8940 H     1 <1>   0.0800 
 46 H        9.6110    -1.0570     0.2020 H     1 <1>   0.1500 
 47 H        6.9980    -0.8240    -3.1430 H     1 <1>   0.1500 
 48 H        1.6030    -0.3120     3.0520 H     1 <1>   0.0800 
 49 H        2.1890    -2.3650    -0.6580 H     1 <1>   0.0800 
 50 H        0.5970    -2.3440     0.0100 H     1 <1>   0.0800 
 51 H        9.0880    -1.6100    -2.1500 H     1 <1>   0.1500 
 52 H       -0.1700    -1.9650     2.8780 H     1 <1>   0.1500 
 53 H       -2.3040    -1.1170     1.9910 H     1 <1>   0.1500 
 54 H       -1.5190     0.2410     1.1710 H     1 <1>   0.1500 
@<TRIPOS>BOND
  1   1   2  2   
  2   2   3  1   
  3   2   4  1   
  4   3   5  1   
  5   4   6  1   
  6   4   7  1   
  7   4  28  1   
  8   5   8  1   
  9   5   9  1   
 10   5  29  1   
 11   6   7  1   
 12   6  30  1   
 13   6  31  1   
 14   7  32  1   
 15   7  33  1   
 16   8  10  ar  
 17   8  11  ar  
 18   9  12  1   
 19   9  13  1   
 20   9  34  1   
 21  10  14  ar  
 22  10  15  ar  
 23  11  16  ar  
 24  11  35  1   
 25  12  17  1   
 26  12  18  1   
 27  12  36  1   
 28  13  19  1   
 29  13  37  1   
 30  13  38  1   
 31  14  20  ar  
 32  14  21  ar  
 33  15  22  ar  
 34  15  39  1   
 35  16  20  ar  
 36  16  40  1   
 37  17  23  1   
 38  17  41  1   
 39  17  42  1   
 40  18  24  1   
 41  18  43  1   
 42  18  44  1   
 43  19  23  1   
 44  19  24  1   
 45  19  45  1   
 46  21  25  ar  
 47  21  46  1   
 48  22  25  ar  
 49  22  47  1   
 50  23  26  1   
 51  23  48  1   
 52  24  49  1   
 53  24  50  1   
 54  25  51  1   
 55  26  27  2   
 56  26  52  1   
 57  27  53  1   
 58  27  54  1   
@<TRIPOS>SUBSTRUCTURE
  1 ****   5 GROUP 4 **** **** 0

# MOE 2024.06 (io_trps.svl 2023.06)
