@<TRIPOS>MOLECULE
NONAME
48 49 1 0 0 
SMALL
USER_CHARGES


@<TRIPOS>ATOM
  1 O        0.2030     0.3930    -0.8590 O.3   1 <1>  -0.3630 
  2 C        0.1710     1.7190    -0.5800 C.ar  1 <1>   0.0830 
  3 C       -0.9420    -0.4150    -0.6930 C.3   1 <1>   0.0400 
  4 C       -0.9390     2.3780    -0.0660 C.ar  1 <1>  -0.1500 
  5 C        1.3310     2.4290    -0.8310 C.ar  1 <1>  -0.1500 
  6 C       -0.8850     3.7370     0.1910 C.ar  1 <1>   0.0830 
  7 C        1.4000     3.7880    -0.5670 C.ar  1 <1>  -0.1430 
  8 O       -2.0130     4.3030     0.6870 O.3   1 <1>  -0.3630 
  9 C        0.2880     4.4440    -0.0590 C.ar  1 <1>  -0.1500 
 10 C        2.6890     4.5330    -0.8190 C.3   1 <1>   0.4860 
 11 C       -2.1500     5.6990     0.8360 C.3   1 <1>   0.0400 
 12 N        3.5430     4.2860     0.3600 N.4   1 <1>  -0.9060 
 13 C        4.8950     4.8660     0.2720 C.3   1 <1>   0.4230 
 14 C        5.8010     4.1450     1.2840 C.3   1 <1>  -0.1600 
 15 C        4.8430     6.3840     0.4910 C.3   1 <1>  -0.1600 
 16 C        6.9180     3.3690     0.5750 C.3   1 <1>  -0.1600 
 17 C        5.9200     7.1320    -0.3130 C.3   1 <1>  -0.1600 
 18 C        8.1270     4.2350     0.1810 C.3   1 <1>  -0.1600 
 19 C        7.3700     6.7100    -0.0190 C.3   1 <1>  -0.1600 
 20 C        7.8380     5.4300    -0.7470 C.3   1 <1>  -0.1600 
 21 H       -0.6920    -1.4170    -0.9940 H     1 <1>   0.0800 
 22 H       -1.7330    -0.0340    -1.3150 H     1 <1>   0.0800 
 23 H       -1.2300    -0.4060     0.3440 H     1 <1>   0.0800 
 24 H       -1.8570     1.8620     0.1430 H     1 <1>   0.1500 
 25 H        2.1680     1.8880    -1.2390 H     1 <1>   0.1500 
 26 H        0.3310     5.4990     0.1420 H     1 <1>   0.1500 
 27 H        2.4930     5.5860    -0.9390 H     1 <1>   0.0800 
 28 H        3.1600     4.1590    -1.7140 H     1 <1>   0.0800 
 29 H       -3.1490     5.9000     1.1780 H     1 <1>   0.0800 
 30 H       -1.9910     6.1710    -0.1170 H     1 <1>   0.0800 
 31 H       -1.4400     6.0450     1.5660 H     1 <1>   0.0800 
 32 H        3.6170     3.2690     0.4730 H     1 <1>   0.4500 
 33 H        3.0640     4.6270     1.1990 H     1 <1>   0.4500 
 34 H        5.2780     4.6810    -0.7190 H     1 <1>   0.0800 
 35 H        5.2320     3.4530     1.8800 H     1 <1>   0.0800 
 36 H        6.2530     4.8390     1.9710 H     1 <1>   0.0800 
 37 H        4.9550     6.6180     1.5360 H     1 <1>   0.0800 
 38 H        3.8940     6.7820     0.1800 H     1 <1>   0.0800 
 39 H        6.5350     2.8630    -0.2950 H     1 <1>   0.0800 
 40 H        7.2780     2.6060     1.2450 H     1 <1>   0.0800 
 41 H        5.8320     8.1800    -0.0760 H     1 <1>   0.0800 
 42 H        5.7280     7.0400    -1.3690 H     1 <1>   0.0800 
 43 H        8.8270     3.5910    -0.3250 H     1 <1>   0.0800 
 44 H        8.6280     4.5830     1.0690 H     1 <1>   0.0800 
 45 H        7.5360     6.6430     1.0420 H     1 <1>   0.0800 
 46 H        8.0010     7.5130    -0.3640 H     1 <1>   0.0800 
 47 H        7.1680     5.1480    -1.5390 H     1 <1>   0.0800 
 48 H        8.7710     5.6730    -1.2270 H     1 <1>   0.0800 
@<TRIPOS>BOND
  1   1   2  1   
  2   1   3  1   
  3   2   4  ar  
  4   2   5  ar  
  5   3  21  1   
  6   3  22  1   
  7   3  23  1   
  8   4   6  ar  
  9   4  24  1   
 10   5   7  ar  
 11   5  25  1   
 12   6   8  1   
 13   6   9  ar  
 14   7   9  ar  
 15   7  10  1   
 16   8  11  1   
 17   9  26  1   
 18  10  12  1   
 19  10  27  1   
 20  10  28  1   
 21  11  29  1   
 22  11  30  1   
 23  11  31  1   
 24  12  13  1   
 25  12  32  1   
 26  12  33  1   
 27  13  14  1   
 28  13  15  1   
 29  13  34  1   
 30  14  16  1   
 31  14  35  1   
 32  14  36  1   
 33  15  17  1   
 34  15  37  1   
 35  15  38  1   
 36  16  18  1   
 37  16  39  1   
 38  16  40  1   
 39  17  19  1   
 40  17  41  1   
 41  17  42  1   
 42  18  20  1   
 43  18  43  1   
 44  18  44  1   
 45  19  20  1   
 46  19  45  1   
 47  19  46  1   
 48  20  47  1   
 49  20  48  1   
@<TRIPOS>SUBSTRUCTURE
  1 ****  10 GROUP 4 **** **** 0

# MOE 2024.06 (io_trps.svl 2023.06)
