@<TRIPOS>MOLECULE
NONAME
51 53 1 0 0 
SMALL
USER_CHARGES


@<TRIPOS>ATOM
  1 O       -4.7330     4.6450     0.5890 O.2   1 <1>  -0.5700 
  2 C       -5.0560     5.7030     0.1000 C.2   1 <1>   0.5690 
  3 N       -6.3740     6.0510    -0.0620 N.am  1 <1>  -0.6600 
  4 C       -3.9200     6.6290    -0.3290 C.3   1 <1>  -0.0190 
  5 C       -7.4640     5.1220     0.3630 C.3   1 <1>   0.1400 
  6 C       -6.8940     7.3540    -0.5760 C.3   1 <1>   0.1400 
  7 C       -2.6590     5.7930    -0.6360 C.3   1 <1>   0.3430 
  8 C       -3.6360     7.7110     0.7340 C.3   1 <1>  -0.1600 
  9 C       -8.3020     5.7800     1.4640 C.3   1 <1>  -0.1600 
 10 C       -7.7240     8.0430     0.5120 C.3   1 <1>  -0.1600 
 11 N       -1.3830     6.5050    -0.2920 N.4   1 <1>  -0.9590 
 12 C       -2.4830     8.6360     0.2950 C.3   1 <1>  -0.1600 
 13 C       -8.8570     7.1390     1.0170 C.3   1 <1>  -0.1600 
 14 C       -1.4330     7.9610    -0.5990 C.3   1 <1>   0.3430 
 15 C       -0.2000     5.8270    -0.8850 C.3   1 <1>   0.4860 
 16 C        1.0540     6.4470    -0.3030 C.ar  1 <1>  -0.1440 
 17 C        1.4280     6.1760     1.0060 C.ar  1 <1>  -0.1500 
 18 C        1.8340     7.2980    -1.0710 C.ar  1 <1>  -0.1500 
 19 C        2.5610     6.7610     1.5410 C.ar  1 <1>  -0.1500 
 20 C        2.9670     7.8810    -0.5320 C.ar  1 <1>  -0.1500 
 21 C        3.3350     7.6170     0.7760 C.ar  1 <1>  -0.1440 
 22 C        4.5790     8.2580     1.3660 C.3   1 <1>  -0.0970 
 23 H       -4.2050     7.1020    -1.2490 H     1 <1>   0.0800 
 24 H       -7.0620     4.1920     0.7280 H     1 <1>   0.0800 
 25 H       -8.0880     4.9000    -0.4860 H     1 <1>   0.0800 
 26 H       -7.5150     7.1650    -1.4350 H     1 <1>   0.0800 
 27 H       -6.1000     8.0090    -0.8800 H     1 <1>   0.0800 
 28 H       -2.6690     5.5360    -1.6830 H     1 <1>   0.0800 
 29 H       -2.6880     4.8700    -0.0800 H     1 <1>   0.0800 
 30 H       -3.3730     7.2240     1.6590 H     1 <1>   0.0800 
 31 H       -4.5190     8.2960     0.9270 H     1 <1>   0.0800 
 32 H       -7.6870     5.9050     2.3390 H     1 <1>   0.0800 
 33 H       -9.1150     5.1270     1.7280 H     1 <1>   0.0800 
 34 H       -8.1410     8.9540     0.1200 H     1 <1>   0.0800 
 35 H       -7.0800     8.3060     1.3340 H     1 <1>   0.0800 
 36 H       -1.2620     6.4440     0.7280 H     1 <1>   0.4500 
 37 H       -1.9990     9.0350     1.1690 H     1 <1>   0.0800 
 38 H       -2.8840     9.4770    -0.2460 H     1 <1>   0.0800 
 39 H       -9.3650     7.6130     1.8390 H     1 <1>   0.0800 
 40 H       -9.5720     6.9880     0.2260 H     1 <1>   0.0800 
 41 H       -1.6960     8.0990    -1.6360 H     1 <1>   0.0800 
 42 H       -0.4720     8.4220    -0.4280 H     1 <1>   0.0800 
 43 H       -0.2030     5.9380    -1.9570 H     1 <1>   0.0800 
 44 H       -0.2180     4.7750    -0.6490 H     1 <1>   0.0800 
 45 H        0.8520     5.5080     1.6230 H     1 <1>   0.1500 
 46 H        1.5770     7.5180    -2.0930 H     1 <1>   0.1500 
 47 H        2.8450     6.5470     2.5580 H     1 <1>   0.1500 
 48 H        3.5670     8.5430    -1.1340 H     1 <1>   0.1500 
 49 H        5.0170     7.6180     2.1100 H     1 <1>   0.0800 
 50 H        4.3240     9.1970     1.8240 H     1 <1>   0.0800 
 51 H        5.3120     8.4350     0.6000 H     1 <1>   0.0800 
@<TRIPOS>BOND
  1   1   2  2   
  2   2   3  am  
  3   2   4  1   
  4   3   5  1   
  5   3   6  1   
  6   4   7  1   
  7   4   8  1   
  8   4  23  1   
  9   5   9  1   
 10   5  24  1   
 11   5  25  1   
 12   6  10  1   
 13   6  26  1   
 14   6  27  1   
 15   7  11  1   
 16   7  28  1   
 17   7  29  1   
 18   8  12  1   
 19   8  30  1   
 20   8  31  1   
 21   9  13  1   
 22   9  32  1   
 23   9  33  1   
 24  10  13  1   
 25  10  34  1   
 26  10  35  1   
 27  11  14  1   
 28  11  15  1   
 29  11  36  1   
 30  12  14  1   
 31  12  37  1   
 32  12  38  1   
 33  13  39  1   
 34  13  40  1   
 35  14  41  1   
 36  14  42  1   
 37  15  16  1   
 38  15  43  1   
 39  15  44  1   
 40  16  17  ar  
 41  16  18  ar  
 42  17  19  ar  
 43  17  45  1   
 44  18  20  ar  
 45  18  46  1   
 46  19  21  ar  
 47  19  47  1   
 48  20  21  ar  
 49  20  48  1   
 50  21  22  1   
 51  22  49  1   
 52  22  50  1   
 53  22  51  1   
@<TRIPOS>SUBSTRUCTURE
  1 ****  11 GROUP 4 **** **** 0

# MOE 2024.06 (io_trps.svl 2023.06)
