@<TRIPOS>MOLECULE
NONAME
58 60 1 0 0 
SMALL
USER_CHARGES


@<TRIPOS>ATOM
  1 O       -1.4190    -4.5690     0.3230 O.3   1 <1>  -0.5600 
  2 C       -2.6950    -4.3560    -0.1970 C.3   1 <1>   0.2000 
  3 C       -0.7960    -5.7560    -0.0680 C.3   1 <1>   0.1200 
  4 C       -2.9230    -2.8410    -0.2170 C.3   1 <1>  -0.1600 
  5 C       -3.7270    -5.0610     0.6940 C.3   1 <1>  -0.1600 
  6 C        0.5880    -5.8050     0.5950 C.3   1 <1>   0.2000 
  7 C       -4.3510    -2.4550    -0.6550 C.3   1 <1>   0.0000 
  8 C       -5.1620    -4.7330     0.2520 C.3   1 <1>  -0.0800 
  9 O        1.1940    -4.5610     0.4310 O.3   1 <1>  -0.6800 
 10 C        1.5070    -6.8950     0.0060 C.3   1 <1>   0.3430 
 11 C       -5.3840    -3.2100     0.2090 C.3   1 <1>  -0.1600 
 12 C       -4.5640    -2.7570    -2.1500 C.3   1 <1>  -0.2400 
 13 C       -4.5410    -0.9450    -0.4510 C.3   1 <1>  -0.2400 
 14 C       -6.1730    -5.3920     1.1970 C.3   1 <1>  -0.2400 
 15 N        2.9420    -6.5430     0.2320 N.4   1 <1>  -0.9590 
 16 C        3.8650    -7.1310    -0.7740 C.3   1 <1>   0.4860 
 17 C        3.4120    -6.7950     1.6230 C.3   1 <1>   0.3430 
 18 C        5.3020    -6.7080    -0.5090 C.ar  1 <1>  -0.1430 
 19 C        4.7190    -6.0390     1.8700 C.3   1 <1>  -0.0170 
 20 C        5.7080    -6.2110     0.7260 C.ar  1 <1>  -0.1430 
 21 C        6.2320    -6.8350    -1.5310 C.ar  1 <1>  -0.1500 
 22 C        7.0310    -5.8500     0.9230 C.ar  1 <1>  -0.1500 
 23 C        7.5510    -6.4740    -1.3290 C.ar  1 <1>  -0.1500 
 24 C        7.9510    -5.9820    -0.1010 C.ar  1 <1>  -0.1500 
 25 H       -2.7360    -4.7380    -1.2030 H     1 <1>   0.0800 
 26 H       -0.7040    -5.7560    -1.1410 H     1 <1>   0.0800 
 27 H       -1.3960    -6.5920     0.2450 H     1 <1>   0.0800 
 28 H       -2.2070    -2.3830    -0.8760 H     1 <1>   0.0800 
 29 H       -2.7520    -2.4640     0.7760 H     1 <1>   0.0800 
 30 H       -3.5880    -4.7360     1.7100 H     1 <1>   0.0800 
 31 H       -3.5850    -6.1240     0.6500 H     1 <1>   0.0800 
 32 H        0.4590    -5.9670     1.6510 H     1 <1>   0.0800 
 33 H       -5.3210    -5.1380    -0.7330 H     1 <1>   0.0800 
 34 H        0.4740    -3.8860     0.5140 H     1 <1>   0.4000 
 35 H        1.3190    -6.9480    -1.0540 H     1 <1>   0.0800 
 36 H        1.2730    -7.8560     0.4330 H     1 <1>   0.0800 
 37 H       -6.3760    -3.0030    -0.1550 H     1 <1>   0.0800 
 38 H       -5.3310    -2.8330     1.2170 H     1 <1>   0.0800 
 39 H       -3.8570    -2.2080    -2.7470 H     1 <1>   0.0800 
 40 H       -5.5540    -2.4660    -2.4520 H     1 <1>   0.0800 
 41 H       -4.4440    -3.8010    -2.3710 H     1 <1>   0.0800 
 42 H       -4.4030    -0.6790     0.5820 H     1 <1>   0.0800 
 43 H       -5.5320    -0.6460    -0.7450 H     1 <1>   0.0800 
 44 H       -3.8320    -0.3910    -1.0400 H     1 <1>   0.0800 
 45 H       -6.0540    -5.0220     2.2000 H     1 <1>   0.0800 
 46 H       -6.0370    -6.4590     1.2060 H     1 <1>   0.0800 
 47 H       -7.1770    -5.1830     0.8720 H     1 <1>   0.0800 
 48 H        2.9630    -5.5120     0.1060 H     1 <1>   0.4500 
 49 H        3.5800    -6.8090    -1.7620 H     1 <1>   0.0800 
 50 H        3.8080    -8.2070    -0.7380 H     1 <1>   0.0800 
 51 H        3.5770    -7.8500     1.7640 H     1 <1>   0.0800 
 52 H        2.6740    -6.4620     2.3350 H     1 <1>   0.0800 
 53 H        5.1570    -6.3920     2.7870 H     1 <1>   0.0800 
 54 H        4.5030    -4.9930     1.9930 H     1 <1>   0.0800 
 55 H        5.9440    -7.2170    -2.4960 H     1 <1>   0.1500 
 56 H        7.3580    -5.4610     1.8720 H     1 <1>   0.1500 
 57 H        8.2690    -6.5750    -2.1250 H     1 <1>   0.1500 
 58 H        8.9790    -5.7000     0.0570 H     1 <1>   0.1500 
@<TRIPOS>BOND
  1   1   2  1   
  2   1   3  1   
  3   2   4  1   
  4   2   5  1   
  5   2  25  1   
  6   3   6  1   
  7   3  26  1   
  8   3  27  1   
  9   4   7  1   
 10   4  28  1   
 11   4  29  1   
 12   5   8  1   
 13   5  30  1   
 14   5  31  1   
 15   6   9  1   
 16   6  10  1   
 17   6  32  1   
 18   7  11  1   
 19   7  12  1   
 20   7  13  1   
 21   8  11  1   
 22   8  14  1   
 23   8  33  1   
 24   9  34  1   
 25  10  15  1   
 26  10  35  1   
 27  10  36  1   
 28  11  37  1   
 29  11  38  1   
 30  12  39  1   
 31  12  40  1   
 32  12  41  1   
 33  13  42  1   
 34  13  43  1   
 35  13  44  1   
 36  14  45  1   
 37  14  46  1   
 38  14  47  1   
 39  15  16  1   
 40  15  17  1   
 41  15  48  1   
 42  16  18  1   
 43  16  49  1   
 44  16  50  1   
 45  17  19  1   
 46  17  51  1   
 47  17  52  1   
 48  18  20  ar  
 49  18  21  ar  
 50  19  20  1   
 51  19  53  1   
 52  19  54  1   
 53  20  22  ar  
 54  21  23  ar  
 55  21  55  1   
 56  22  24  ar  
 57  22  56  1   
 58  23  24  ar  
 59  23  57  1   
 60  24  58  1   
@<TRIPOS>SUBSTRUCTURE
  1 ****   6 GROUP 4 **** **** 0

# MOE 2024.06 (io_trps.svl 2023.06)
