@<TRIPOS>MOLECULE
NONAME
50 52 1 0 0 
SMALL
USER_CHARGES


@<TRIPOS>ATOM
  1 O        0.3720    -1.2970    -2.1560 O.2   1 <1>  -0.5700 
  2 C        0.3670    -1.6870    -1.0030 C.2   1 <1>   0.5440 
  3 N        1.5410    -1.6110    -0.2830 N.am  1 <1>  -0.6600 
  4 C       -0.8510    -2.2340    -0.4490 C.ar  1 <1>   0.0860 
  5 C        1.6550    -1.8730     1.1890 C.3   1 <1>   0.1400 
  6 C        2.8660    -1.6120    -0.9690 C.3   1 <1>   0.1400 
  7 C       -0.9330    -3.5730    -0.0260 C.ar  1 <1>   0.1170 
  8 C       -1.9820    -1.4230    -0.3540 C.ar  1 <1>  -0.1500 
  9 C        2.8330    -2.8260     1.5090 C.3   1 <1>   0.2000 
 10 C        3.5770    -2.9700    -0.7500 C.3   1 <1>   0.2000 
 11 N        0.2020    -4.4030    -0.1230 N.am  1 <1>  -0.5470 
 12 C       -2.1500    -4.0410     0.4700 C.ar  1 <1>  -0.1500 
 13 C       -3.1730    -1.9030     0.1500 C.ar  1 <1>  -0.1500 
 14 O        3.1190    -3.6350     0.4020 O.3   1 <1>  -0.5600 
 15 C        2.5320    -3.7560     2.6820 C.3   1 <1>  -0.2400 
 16 C        5.0990    -2.8470    -0.6630 C.3   1 <1>  -0.2400 
 17 C        0.4740    -5.6960     0.2590 C.2   1 <1>   0.5440 
 18 C       -3.2560    -3.2200     0.5630 C.ar  1 <1>  -0.1500 
 19 O       -0.2360    -6.2630     1.0650 O.2   1 <1>  -0.5700 
 20 C        1.6500    -6.3510    -0.2810 C.ar  1 <1>   0.0860 
 21 C        2.4280    -7.1990     0.5050 C.ar  1 <1>  -0.1500 
 22 C        2.0520    -6.1560    -1.6040 C.ar  1 <1>  -0.1500 
 23 C        3.5630    -7.8100     0.0030 C.ar  1 <1>  -0.1500 
 24 C        3.1860    -6.7640    -2.1100 C.ar  1 <1>  -0.1500 
 25 C        3.9520    -7.5920    -1.3080 C.ar  1 <1>  -0.1430 
 26 C        5.1980    -8.2610    -1.8590 C.3   1 <1>  -0.0970 
 27 H        0.7430    -2.2900     1.5730 H     1 <1>   0.0800 
 28 H        1.8120    -0.9410     1.7020 H     1 <1>   0.0800 
 29 H        3.4640    -0.8150    -0.5660 H     1 <1>   0.0800 
 30 H        2.7610    -1.4290    -2.0250 H     1 <1>   0.0800 
 31 H       -1.9160    -0.4020    -0.6900 H     1 <1>   0.1500 
 32 H        3.7130    -2.2500     1.7370 H     1 <1>   0.0800 
 33 H        3.3390    -3.6120    -1.5800 H     1 <1>   0.0800 
 34 H        1.0560    -3.9160    -0.4240 H     1 <1>   0.3700 
 35 H       -2.2480    -5.0620     0.7890 H     1 <1>   0.1500 
 36 H       -4.0350    -1.2610     0.2170 H     1 <1>   0.1500 
 37 H        1.6580    -4.3490     2.4820 H     1 <1>   0.0800 
 38 H        2.3590    -3.1810     3.5730 H     1 <1>   0.0800 
 39 H        3.3690    -4.4080     2.8540 H     1 <1>   0.0800 
 40 H        5.3900    -2.2070     0.1490 H     1 <1>   0.0800 
 41 H        5.4830    -2.4350    -1.5780 H     1 <1>   0.0800 
 42 H        5.5310    -3.8220    -0.5230 H     1 <1>   0.0800 
 43 H       -4.1820    -3.6060     0.9530 H     1 <1>   0.1500 
 44 H        2.1340    -7.3750     1.5250 H     1 <1>   0.1500 
 45 H        1.4650    -5.5230    -2.2460 H     1 <1>   0.1500 
 46 H        4.1430    -8.4560     0.6390 H     1 <1>   0.1500 
 47 H        3.4700    -6.5930    -3.1340 H     1 <1>   0.1500 
 48 H        4.9440    -9.2230    -2.2660 H     1 <1>   0.0800 
 49 H        5.9280    -8.3950    -1.0800 H     1 <1>   0.0800 
 50 H        5.6370    -7.6600    -2.6340 H     1 <1>   0.0800 
@<TRIPOS>BOND
  1   1   2  2   
  2   2   3  am  
  3   2   4  1   
  4   3   5  1   
  5   3   6  1   
  6   4   7  ar  
  7   4   8  ar  
  8   5   9  1   
  9   5  27  1   
 10   5  28  1   
 11   6  10  1   
 12   6  29  1   
 13   6  30  1   
 14   7  11  1   
 15   7  12  ar  
 16   8  13  ar  
 17   8  31  1   
 18   9  14  1   
 19   9  15  1   
 20   9  32  1   
 21  10  14  1   
 22  10  16  1   
 23  10  33  1   
 24  11  17  am  
 25  11  34  1   
 26  12  18  ar  
 27  12  35  1   
 28  13  18  ar  
 29  13  36  1   
 30  15  37  1   
 31  15  38  1   
 32  15  39  1   
 33  16  40  1   
 34  16  41  1   
 35  16  42  1   
 36  17  19  2   
 37  17  20  1   
 38  18  43  1   
 39  20  21  ar  
 40  20  22  ar  
 41  21  23  ar  
 42  21  44  1   
 43  22  24  ar  
 44  22  45  1   
 45  23  25  ar  
 46  23  46  1   
 47  24  25  ar  
 48  24  47  1   
 49  25  26  1   
 50  26  48  1   
 51  26  49  1   
 52  26  50  1   
@<TRIPOS>SUBSTRUCTURE
  1 ****  11 GROUP 4 **** **** 0

# MOE 2024.06 (io_trps.svl 2023.06)
