@<TRIPOS>MOLECULE
NONAME
42 43 1 0 0 
SMALL
USER_CHARGES


@<TRIPOS>ATOM
  1 CL       0.8430     1.0820     2.8430 Cl    1 <1>  -0.1770 
  2 C        1.9790     0.5300     1.6390 C.ar  1 <1>   0.1770 
  3 C        2.8950     1.4190     1.1120 C.ar  1 <1>  -0.1500 
  4 C        1.9470    -0.7870     1.2330 C.ar  1 <1>  -0.1500 
  5 C        3.8110     1.0110     0.1470 C.ar  1 <1>  -0.0090 
  6 C        2.8530    -1.2170     0.2820 C.ar  1 <1>  -0.1500 
  7 S        5.0000     2.2130    -0.5190 S.o2  1 <1>   1.4470 
  8 C        3.7820    -0.3260    -0.2570 C.ar  1 <1>   0.0830 
  9 O        5.4430     1.9090    -1.8620 O.2   1 <1>  -0.6500 
 10 O        4.4650     3.5360    -0.2730 O.2   1 <1>  -0.6500 
 11 N        6.3560     2.0710     0.4920 N.am  1 <1>  -0.8490 
 12 O        4.6880    -0.7370    -1.1770 O.3   1 <1>  -0.3630 
 13 C        7.2450     3.2390     0.3340 C.3   1 <1>   0.1960 
 14 C        7.1110     0.8270     0.2430 C.3   1 <1>   0.1960 
 15 C        4.4410    -1.8430    -2.0180 C.3   1 <1>   0.0400 
 16 C        8.4640     3.1750     1.2700 C.3   1 <1>   0.1400 
 17 C        8.3250     0.6860     1.1770 C.3   1 <1>   0.1400 
 18 N        9.1990     1.8910     1.0920 N.am  1 <1>  -0.6600 
 19 C       10.5240     1.8510     0.7530 C.2   1 <1>   0.7800 
 20 O       11.2010     2.8540     0.6370 O.2   1 <1>  -0.5700 
 21 O       11.0720     0.6540     0.5390 O.3   1 <1>  -0.4300 
 22 C       12.4270     0.5350     0.1730 C.3   1 <1>   0.1200 
 23 C       12.7350    -0.9460    -0.0210 C.3   1 <1>  -0.2400 
 24 H        2.8900     2.4390     1.4560 H     1 <1>   0.1500 
 25 H        1.2240    -1.4610     1.6590 H     1 <1>   0.1500 
 26 H        2.8290    -2.2470    -0.0210 H     1 <1>   0.1500 
 27 H        6.7010     4.1420     0.5560 H     1 <1>   0.0800 
 28 H        7.5870     3.3040    -0.6860 H     1 <1>   0.0800 
 29 H        7.4500     0.7960    -0.7800 H     1 <1>   0.0800 
 30 H        6.4710    -0.0210     0.4060 H     1 <1>   0.0800 
 31 H        5.1850    -1.8430    -2.7940 H     1 <1>   0.0800 
 32 H        3.4620    -1.7420    -2.4530 H     1 <1>   0.0800 
 33 H        4.5160    -2.7480    -1.4420 H     1 <1>   0.0800 
 34 H        8.1320     3.2530     2.2900 H     1 <1>   0.0800 
 35 H        9.1100     4.0120     1.0680 H     1 <1>   0.0800 
 36 H        8.8700    -0.2030     0.9130 H     1 <1>   0.0800 
 37 H        7.9800     0.5740     2.1890 H     1 <1>   0.0800 
 38 H       13.0310     0.9580     0.9580 H     1 <1>   0.0800 
 39 H       12.5830     1.0860    -0.7400 H     1 <1>   0.0800 
 40 H       12.5690    -1.4820     0.8960 H     1 <1>   0.0800 
 41 H       13.7650    -1.0660    -0.3060 H     1 <1>   0.0800 
 42 H       12.1150    -1.3550    -0.7980 H     1 <1>   0.0800 
@<TRIPOS>BOND
  1   1   2  1   
  2   2   3  ar  
  3   2   4  ar  
  4   3   5  ar  
  5   3  24  1   
  6   4   6  ar  
  7   4  25  1   
  8   5   7  1   
  9   5   8  ar  
 10   6   8  ar  
 11   6  26  1   
 12   7   9  2   
 13   7  10  2   
 14   7  11  am  
 15   8  12  1   
 16  11  13  1   
 17  11  14  1   
 18  12  15  1   
 19  13  16  1   
 20  13  27  1   
 21  13  28  1   
 22  14  17  1   
 23  14  29  1   
 24  14  30  1   
 25  15  31  1   
 26  15  32  1   
 27  15  33  1   
 28  16  18  1   
 29  16  34  1   
 30  16  35  1   
 31  17  18  1   
 32  17  36  1   
 33  17  37  1   
 34  18  19  am  
 35  19  20  2   
 36  19  21  1   
 37  21  22  1   
 38  22  23  1   
 39  22  38  1   
 40  22  39  1   
 41  23  40  1   
 42  23  41  1   
 43  23  42  1   
@<TRIPOS>SUBSTRUCTURE
  1 ****  14 GROUP 4 **** **** 0

# MOE 2024.06 (io_trps.svl 2023.06)
