@<TRIPOS>MOLECULE
NONAME
42 43 1 0 0 
SMALL
USER_CHARGES


@<TRIPOS>ATOM
  1 O       -0.3860     3.3080     2.7650 O.2   1 <1>  -0.5700 
  2 C        0.0920     2.7930     1.7700 C.2   1 <1>   0.5440 
  3 N       -0.5950     1.7580     1.2110 N.am  1 <1>  -0.7300 
  4 C        1.3540     3.2620     1.2180 C.ar  1 <1>   0.0860 
  5 C       -1.9730     1.3670     1.5370 C.3   1 <1>   0.2840 
  6 C        1.7490     3.0650    -0.1200 C.ar  1 <1>   0.0830 
  7 C        2.2410     3.9550     2.0480 C.ar  1 <1>  -0.1500 
  8 C       -2.6640     0.9910     0.2410 C.ar  1 <1>  -0.1440 
  9 O        0.9040     2.4130    -0.9610 O.3   1 <1>  -0.3630 
 10 C        2.9790     3.5390    -0.5680 C.ar  1 <1>  -0.1500 
 11 C        3.4590     4.4260     1.6000 C.ar  1 <1>  -0.1500 
 12 C       -3.0600     1.9820    -0.6450 C.ar  1 <1>   0.1600 
 13 C       -2.9020    -0.3290    -0.0870 C.ar  1 <1>  -0.1500 
 14 C        1.1410     2.2650    -2.3420 C.3   1 <1>   0.1200 
 15 C        3.8360     4.2160     0.2780 C.ar  1 <1>   0.0830 
 16 N       -3.6640     1.7670    -1.8040 N.ar  1 <1>  -0.6200 
 17 C       -3.5300    -0.5710    -1.2890 C.ar  1 <1>  -0.1500 
 18 C       -0.0690     1.5610    -2.9480 C.3   1 <1>  -0.2400 
 19 O        5.0080     4.6390    -0.2470 O.3   1 <1>  -0.3630 
 20 C       -3.8860     0.4960    -2.0970 C.ar  1 <1>   0.1600 
 21 C        5.9570     5.3410     0.5220 C.3   1 <1>   0.1200 
 22 C        7.1480     5.6620    -0.3760 C.3   1 <1>  -0.2400 
 23 H       -0.2700     1.4450     0.2890 H     1 <1>   0.3700 
 24 H       -2.4900     2.1840     2.0120 H     1 <1>   0.0800 
 25 H       -1.9540     0.5330     2.2160 H     1 <1>   0.0800 
 26 H        1.9610     4.1250     3.0740 H     1 <1>   0.1500 
 27 H        3.3050     3.3970    -1.5790 H     1 <1>   0.1500 
 28 H        4.0960     4.9500     2.2870 H     1 <1>   0.1500 
 29 H       -2.8630     3.0100    -0.3860 H     1 <1>   0.1500 
 30 H       -2.6110    -1.1370     0.5630 H     1 <1>   0.1500 
 31 H        2.0320     1.6750    -2.4750 H     1 <1>   0.0800 
 32 H        1.2690     3.2420    -2.7760 H     1 <1>   0.0800 
 33 H       -3.7450    -1.5770    -1.6010 H     1 <1>   0.1500 
 34 H       -0.2190     0.6030    -2.4830 H     1 <1>   0.0800 
 35 H        0.0850     1.4110    -4.0010 H     1 <1>   0.0800 
 36 H       -0.9520     2.1620    -2.8170 H     1 <1>   0.0800 
 37 H       -4.3780     0.2940    -3.0330 H     1 <1>   0.1500 
 38 H        6.2580     4.7170     1.3450 H     1 <1>   0.0800 
 39 H        5.4990     6.2460     0.8850 H     1 <1>   0.0800 
 40 H        7.5870     4.7530    -0.7460 H     1 <1>   0.0800 
 41 H        7.8920     6.1990     0.1830 H     1 <1>   0.0800 
 42 H        6.8330     6.2720    -1.2040 H     1 <1>   0.0800 
@<TRIPOS>BOND
  1   1   2  2   
  2   2   3  am  
  3   2   4  1   
  4   3   5  1   
  5   3  23  1   
  6   4   6  ar  
  7   4   7  ar  
  8   5   8  1   
  9   5  24  1   
 10   5  25  1   
 11   6   9  1   
 12   6  10  ar  
 13   7  11  ar  
 14   7  26  1   
 15   8  12  ar  
 16   8  13  ar  
 17   9  14  1   
 18  10  15  ar  
 19  10  27  1   
 20  11  15  ar  
 21  11  28  1   
 22  12  16  ar  
 23  12  29  1   
 24  13  17  ar  
 25  13  30  1   
 26  14  18  1   
 27  14  31  1   
 28  14  32  1   
 29  15  19  1   
 30  16  20  ar  
 31  17  20  ar  
 32  17  33  1   
 33  18  34  1   
 34  18  35  1   
 35  18  36  1   
 36  19  21  1   
 37  20  37  1   
 38  21  22  1   
 39  21  38  1   
 40  21  39  1   
 41  22  40  1   
 42  22  41  1   
 43  22  42  1   
@<TRIPOS>SUBSTRUCTURE
  1 ****   9 GROUP 4 **** **** 0

# MOE 2024.06 (io_trps.svl 2023.06)
