@<TRIPOS>MOLECULE
NONAME
54 56 1 0 0 
SMALL
USER_CHARGES


@<TRIPOS>ATOM
  1 O       -5.3300    12.3710    -1.9120 O.2   1 <1>  -0.5700 
  2 C       -5.1780    12.2300    -0.7260 C.2   1 <1>   0.6590 
  3 O       -4.0690    12.5910    -0.0980 O.3   1 <1>  -0.4300 
  4 C       -6.2740    11.6240     0.1440 C.3   1 <1>  -0.0190 
  5 C       -2.9860    13.1650    -0.7930 C.3   1 <1>   0.1200 
  6 C       -6.6410    10.2070    -0.3340 C.3   1 <1>  -0.1600 
  7 C       -7.5260    12.5200     0.1520 C.3   1 <1>  -0.1600 
  8 C       -1.8800    13.4590     0.2150 C.3   1 <1>  -0.2400 
  9 C       -7.8260     9.6250     0.4340 C.3   1 <1>   0.3430 
 10 C       -8.6800    11.8790     0.9200 C.3   1 <1>   0.3430 
 11 N       -9.0030    10.5480     0.3300 N.4   1 <1>  -0.9590 
 12 C      -10.2300     9.9920     0.9960 C.3   1 <1>   0.3430 
 13 C      -10.8800     8.8360     0.2240 C.3   1 <1>  -0.0990 
 14 C      -10.1680     7.5220     0.4520 C.2   1 <1>   0.5690 
 15 O       -9.4800     7.4240     1.4380 O.2   1 <1>  -0.5700 
 16 N      -10.3040     6.5450    -0.4900 N.am  1 <1>  -0.5470 
 17 C       -9.6760     5.2940    -0.5960 C.ar  1 <1>   0.1170 
 18 C       -9.1830     4.5980     0.5060 C.ar  1 <1>  -0.1500 
 19 C       -9.5520     4.7190    -1.8600 C.ar  1 <1>  -0.1500 
 20 C       -8.5740     3.3710     0.3270 C.ar  1 <1>  -0.1440 
 21 C       -8.9420     3.4880    -2.0320 C.ar  1 <1>  -0.1500 
 22 C       -8.4540     2.8220    -0.9240 C.ar  1 <1>  -0.1440 
 23 C       -7.9790     2.4710     1.3800 C.3   1 <1>  -0.0170 
 24 C       -7.7590     1.4840    -0.8720 C.3   1 <1>  -0.0170 
 25 C       -7.1980     1.4300     0.5590 C.3   1 <1>  -0.1600 
 26 H       -5.8960    11.5560     1.1490 H     1 <1>   0.0800 
 27 H       -3.3240    14.0690    -1.2700 H     1 <1>   0.0800 
 28 H       -2.6500    12.4660    -1.5420 H     1 <1>   0.0800 
 29 H       -5.7910     9.5570    -0.2060 H     1 <1>   0.0800 
 30 H       -6.8760    10.2190    -1.3850 H     1 <1>   0.0800 
 31 H       -7.8410    12.7250    -0.8570 H     1 <1>   0.0800 
 32 H       -7.2830    13.4640     0.6090 H     1 <1>   0.0800 
 33 H       -2.2290    14.1510     0.9600 H     1 <1>   0.0800 
 34 H       -1.0380    13.8980    -0.2890 H     1 <1>   0.0800 
 35 H       -1.5570    12.5490     0.6900 H     1 <1>   0.0800 
 36 H       -7.5610     9.4820     1.4700 H     1 <1>   0.0800 
 37 H       -8.0630     8.6610     0.0170 H     1 <1>   0.0800 
 38 H       -9.5430    12.5250     0.8690 H     1 <1>   0.0800 
 39 H       -8.4050    11.7620     1.9560 H     1 <1>   0.0800 
 40 H       -9.1950    10.6940    -0.6690 H     1 <1>   0.4500 
 41 H      -10.9610    10.7800     1.0820 H     1 <1>   0.0800 
 42 H       -9.9890     9.6650     1.9960 H     1 <1>   0.0800 
 43 H      -10.9340     9.0670    -0.8230 H     1 <1>   0.0800 
 44 H      -11.8830     8.7130     0.5900 H     1 <1>   0.0800 
 45 H      -10.9380     6.7420    -1.2630 H     1 <1>   0.3700 
 46 H       -9.2740     4.9980     1.4980 H     1 <1>   0.1500 
 47 H       -9.9290     5.2340    -2.7230 H     1 <1>   0.1500 
 48 H       -8.8470     3.0520    -3.0110 H     1 <1>   0.1500 
 49 H       -8.7700     2.0010     1.9370 H     1 <1>   0.0800 
 50 H       -7.3330     3.0150     2.0470 H     1 <1>   0.0800 
 51 H       -6.9770     1.4150    -1.6070 H     1 <1>   0.0800 
 52 H       -8.4800     0.7010    -1.0280 H     1 <1>   0.0800 
 53 H       -7.2780     0.4440     0.9830 H     1 <1>   0.0800 
 54 H       -6.1610     1.7170     0.5350 H     1 <1>   0.0800 
@<TRIPOS>BOND
  1   1   2  2   
  2   2   3  1   
  3   2   4  1   
  4   3   5  1   
  5   4   6  1   
  6   4   7  1   
  7   4  26  1   
  8   5   8  1   
  9   5  27  1   
 10   5  28  1   
 11   6   9  1   
 12   6  29  1   
 13   6  30  1   
 14   7  10  1   
 15   7  31  1   
 16   7  32  1   
 17   8  33  1   
 18   8  34  1   
 19   8  35  1   
 20   9  11  1   
 21   9  36  1   
 22   9  37  1   
 23  10  11  1   
 24  10  38  1   
 25  10  39  1   
 26  11  12  1   
 27  11  40  1   
 28  12  13  1   
 29  12  41  1   
 30  12  42  1   
 31  13  14  1   
 32  13  43  1   
 33  13  44  1   
 34  14  15  2   
 35  14  16  am  
 36  16  17  1   
 37  16  45  1   
 38  17  18  ar  
 39  17  19  ar  
 40  18  20  ar  
 41  18  46  1   
 42  19  21  ar  
 43  19  47  1   
 44  20  22  ar  
 45  20  23  1   
 46  21  22  ar  
 47  21  48  1   
 48  22  24  1   
 49  23  25  1   
 50  23  49  1   
 51  23  50  1   
 52  24  25  1   
 53  24  51  1   
 54  24  52  1   
 55  25  53  1   
 56  25  54  1   
@<TRIPOS>SUBSTRUCTURE
  1 ****   9 GROUP 4 **** **** 0

# MOE 2024.06 (io_trps.svl 2023.06)
