@<TRIPOS>MOLECULE
NONAME
49 50 1 0 0 
SMALL
USER_CHARGES


@<TRIPOS>ATOM
  1 O        0.0230    -2.0750    -1.8090 O.2   1 <1>  -0.5700 
  2 C        0.0420    -2.1630    -0.6090 C.2   1 <1>   0.6590 
  3 O       -0.9200    -1.6770     0.1610 O.3   1 <1>  -0.4300 
  4 C        1.1990    -2.8420     0.1190 C.3   1 <1>  -0.0190 
  5 C       -2.0400    -1.0210    -0.3890 C.3   1 <1>   0.1200 
  6 C        2.4480    -1.9410     0.1150 C.3   1 <1>  -0.1600 
  7 C        1.5320    -4.2120    -0.5040 C.3   1 <1>  -0.1600 
  8 C       -2.9450    -0.5870     0.7590 C.3   1 <1>  -0.2400 
  9 C        3.6540    -2.6270     0.7520 C.3   1 <1>   0.3430 
 10 C        2.7520    -4.8570     0.1490 C.3   1 <1>   0.3430 
 11 N        3.9110    -3.9270     0.0640 N.4   1 <1>  -0.9590 
 12 C        5.1630    -4.5690     0.5520 C.3   1 <1>   0.4860 
 13 C        6.3310    -3.6610     0.2280 C.ar  1 <1>  -0.1440 
 14 C        6.9610    -2.9470     1.2360 C.ar  1 <1>  -0.1500 
 15 C        6.7770    -3.5280    -1.0780 C.ar  1 <1>  -0.1500 
 16 C        8.0130    -2.1010     0.9370 C.ar  1 <1>  -0.1500 
 17 C        7.8300    -2.6810    -1.3720 C.ar  1 <1>  -0.1500 
 18 C        8.4560    -1.9570    -0.3700 C.ar  1 <1>  -0.1440 
 19 C        9.6180    -1.0260    -0.7150 C.3   1 <1>   0.0630 
 20 C       10.9040    -1.4710    -0.0110 C.3   1 <1>  -0.2400 
 21 C        9.2800     0.4260    -0.3610 C.3   1 <1>  -0.2400 
 22 H        0.8930    -2.9980     1.1390 H     1 <1>   0.0800 
 23 H       -2.5500    -1.7070    -1.0450 H     1 <1>   0.0800 
 24 H       -1.6960    -0.1700    -0.9530 H     1 <1>   0.0800 
 25 H        2.2350    -1.0350     0.6570 H     1 <1>   0.0800 
 26 H        2.6940    -1.6570    -0.8940 H     1 <1>   0.0800 
 27 H        1.7130    -4.1050    -1.5600 H     1 <1>   0.0800 
 28 H        0.6850    -4.8680    -0.3920 H     1 <1>   0.0800 
 29 H       -3.2740    -1.4450     1.3190 H     1 <1>   0.0800 
 30 H       -3.8100    -0.0840     0.3670 H     1 <1>   0.0800 
 31 H       -2.4220     0.0900     1.4100 H     1 <1>   0.0800 
 32 H        3.4650    -2.7970     1.8000 H     1 <1>   0.0800 
 33 H        4.5160    -1.9830     0.6630 H     1 <1>   0.0800 
 34 H        2.9800    -5.7820    -0.3560 H     1 <1>   0.0800 
 35 H        2.5350    -5.0780     1.1820 H     1 <1>   0.0800 
 36 H        4.0750    -3.7010    -0.9260 H     1 <1>   0.4500 
 37 H        5.3090    -5.5190     0.0640 H     1 <1>   0.0800 
 38 H        5.1090    -4.7360     1.6160 H     1 <1>   0.0800 
 39 H        6.6480    -3.0370     2.2620 H     1 <1>   0.1500 
 40 H        6.3210    -4.0800    -1.8830 H     1 <1>   0.1500 
 41 H        8.4930    -1.5520     1.7290 H     1 <1>   0.1500 
 42 H        8.1650    -2.5880    -2.3910 H     1 <1>   0.1500 
 43 H        9.7950    -1.0700    -1.7760 H     1 <1>   0.0800 
 44 H       10.8050    -1.3960     1.0560 H     1 <1>   0.0800 
 45 H       11.7300    -0.8580    -0.3230 H     1 <1>   0.0800 
 46 H       11.1240    -2.4930    -0.2640 H     1 <1>   0.0800 
 47 H        9.1430     0.5420     0.6990 H     1 <1>   0.0800 
 48 H        8.3750     0.7230    -0.8590 H     1 <1>   0.0800 
 49 H       10.0730     1.0790    -0.6770 H     1 <1>   0.0800 
@<TRIPOS>BOND
  1   1   2  2   
  2   2   3  1   
  3   2   4  1   
  4   3   5  1   
  5   4   6  1   
  6   4   7  1   
  7   4  22  1   
  8   5   8  1   
  9   5  23  1   
 10   5  24  1   
 11   6   9  1   
 12   6  25  1   
 13   6  26  1   
 14   7  10  1   
 15   7  27  1   
 16   7  28  1   
 17   8  29  1   
 18   8  30  1   
 19   8  31  1   
 20   9  11  1   
 21   9  32  1   
 22   9  33  1   
 23  10  11  1   
 24  10  34  1   
 25  10  35  1   
 26  11  12  1   
 27  11  36  1   
 28  12  13  1   
 29  12  37  1   
 30  12  38  1   
 31  13  14  ar  
 32  13  15  ar  
 33  14  16  ar  
 34  14  39  1   
 35  15  17  ar  
 36  15  40  1   
 37  16  18  ar  
 38  16  41  1   
 39  17  18  ar  
 40  17  42  1   
 41  18  19  1   
 42  19  20  1   
 43  19  21  1   
 44  19  43  1   
 45  20  44  1   
 46  20  45  1   
 47  20  46  1   
 48  21  47  1   
 49  21  48  1   
 50  21  49  1   
@<TRIPOS>SUBSTRUCTURE
  1 ****   9 GROUP 4 **** **** 0

# MOE 2024.06 (io_trps.svl 2023.06)
