@<TRIPOS>MOLECULE
NONAME
50 52 1 0 0 
SMALL
USER_CHARGES


@<TRIPOS>ATOM
  1 O        0.5730    -1.0990    -3.2840 O.2   1 <1>  -0.5700 
  2 C        0.0760    -1.4070    -2.2270 C.2   1 <1>   0.5690 
  3 N        0.7710    -1.4380    -1.0440 N.am  1 <1>  -0.5470 
  4 C       -1.3940    -1.8500    -2.2050 C.3   1 <1>   0.1710 
  5 C        2.0920    -1.0930    -0.7140 C.ar  1 <1>   0.1170 
  6 N       -2.3860    -0.8440    -1.7260 N.3   1 <1>  -0.8100 
  7 C        2.5730    -1.4610     0.5350 C.ar  1 <1>  -0.1500 
  8 C        2.9400    -0.3900    -1.5640 C.ar  1 <1>  -0.1500 
  9 C       -2.1650    -0.4010    -0.3250 C.3   1 <1>   0.1100 
 10 C       -3.7660    -1.3650    -1.8910 C.3   1 <1>   0.1100 
 11 C        3.8590    -1.1470     0.9360 C.ar  1 <1>   0.0820 
 12 C        4.2300    -0.0710    -1.1770 C.ar  1 <1>  -0.1500 
 13 C       -3.2170     0.6200     0.1490 C.3   1 <1>   0.2090 
 14 C       -4.8390    -0.3520    -1.4500 C.3   1 <1>   0.2090 
 15 O        4.2270    -1.5540     2.1770 O.3   1 <1>  -0.3630 
 16 C        4.6950    -0.4470     0.0710 C.ar  1 <1>  -0.1500 
 17 N       -4.5880     0.0810    -0.0500 N.pl3 1 <1>  -0.8380 
 18 C        5.5260    -1.3100     2.6710 C.3   1 <1>   0.0400 
 19 C       -5.6290     0.5660     0.7380 C.ar  1 <1>   0.1000 
 20 C       -6.3400     1.7410     0.4620 C.ar  1 <1>  -0.1430 
 21 C       -5.9690    -0.1710     1.8660 C.ar  1 <1>  -0.1500 
 22 C       -7.3620     2.1370     1.3110 C.ar  1 <1>  -0.1500 
 23 C       -6.0330     2.6120    -0.7480 C.3   1 <1>  -0.0970 
 24 C       -6.9870     0.2320     2.7090 C.ar  1 <1>  -0.1500 
 25 C       -7.6870     1.3900     2.4300 C.ar  1 <1>  -0.1500 
 26 H        0.2240    -1.7690    -0.2540 H     1 <1>   0.3700 
 27 H       -1.4730    -2.7400    -1.6080 H     1 <1>   0.0800 
 28 H       -1.6490    -2.1200    -3.2150 H     1 <1>   0.0800 
 29 H        1.9480    -2.0050     1.2180 H     1 <1>   0.1500 
 30 H        2.6020    -0.0820    -2.5360 H     1 <1>   0.1500 
 31 H       -1.2010     0.0660    -0.2420 H     1 <1>   0.0800 
 32 H       -2.1950    -1.2500     0.3360 H     1 <1>   0.0800 
 33 H       -3.8890    -2.2630    -1.3100 H     1 <1>   0.0800 
 34 H       -3.9330    -1.6090    -2.9260 H     1 <1>   0.0800 
 35 H        4.8710     0.4710    -1.8510 H     1 <1>   0.1500 
 36 H       -3.1000     1.5300    -0.4130 H     1 <1>   0.0800 
 37 H       -3.0670     0.8440     1.1900 H     1 <1>   0.0800 
 38 H       -5.8160    -0.7970    -1.5170 H     1 <1>   0.0800 
 39 H       -4.8040     0.4990    -2.1060 H     1 <1>   0.0800 
 40 H        5.6990    -0.1870     0.3480 H     1 <1>   0.1500 
 41 H        5.5910    -1.7270     3.6600 H     1 <1>   0.0800 
 42 H        5.6910    -0.2480     2.7120 H     1 <1>   0.0800 
 43 H        6.2410    -1.7880     2.0250 H     1 <1>   0.0800 
 44 H       -5.4210    -1.0700     2.0720 H     1 <1>   0.1500 
 45 H       -7.9160     3.0360     1.1070 H     1 <1>   0.1500 
 46 H       -6.4390     2.1580    -1.6330 H     1 <1>   0.0800 
 47 H       -4.9730     2.7300    -0.8680 H     1 <1>   0.0800 
 48 H       -6.4650     3.5900    -0.6370 H     1 <1>   0.0800 
 49 H       -7.2340    -0.3540     3.5760 H     1 <1>   0.1500 
 50 H       -8.4810     1.7100     3.0810 H     1 <1>   0.1500 
@<TRIPOS>BOND
  1   1   2  2   
  2   2   3  am  
  3   2   4  1   
  4   3   5  1   
  5   3  26  1   
  6   4   6  1   
  7   4  27  1   
  8   4  28  1   
  9   5   7  ar  
 10   5   8  ar  
 11   6   9  1   
 12   6  10  1   
 13   7  11  ar  
 14   7  29  1   
 15   8  12  ar  
 16   8  30  1   
 17   9  13  1   
 18   9  31  1   
 19   9  32  1   
 20  10  14  1   
 21  10  33  1   
 22  10  34  1   
 23  11  15  1   
 24  11  16  ar  
 25  12  16  ar  
 26  12  35  1   
 27  13  17  1   
 28  13  36  1   
 29  13  37  1   
 30  14  17  1   
 31  14  38  1   
 32  14  39  1   
 33  15  18  1   
 34  16  40  1   
 35  17  19  1   
 36  18  41  1   
 37  18  42  1   
 38  18  43  1   
 39  19  20  ar  
 40  19  21  ar  
 41  20  22  ar  
 42  20  23  1   
 43  21  24  ar  
 44  21  44  1   
 45  22  25  ar  
 46  22  45  1   
 47  23  46  1   
 48  23  47  1   
 49  23  48  1   
 50  24  25  ar  
 51  24  49  1   
 52  25  50  1   
@<TRIPOS>SUBSTRUCTURE
  1 ****   9 GROUP 4 **** **** 0

# MOE 2024.06 (io_trps.svl 2023.06)
