@<TRIPOS>MOLECULE
NONAME
44 45 1 0 0 
SMALL
USER_CHARGES


@<TRIPOS>ATOM
  1 CL       1.8560     1.9370     1.2480 Cl    1 <1>  -0.1770 
  2 C        0.3980     2.7710     0.7490 C.ar  1 <1>   0.1770 
  3 C        0.4670     3.9040    -0.0590 C.ar  1 <1>   0.0830 
  4 C       -0.8150     2.2800     1.1890 C.ar  1 <1>  -0.1500 
  5 O        1.6560     4.3900    -0.4970 O.3   1 <1>  -0.3630 
  6 C       -0.7060     4.5630    -0.4110 C.ar  1 <1>  -0.1440 
  7 C       -1.9860     2.9270     0.8270 C.ar  1 <1>  -0.1430 
  8 C        2.3620     3.6280    -1.4590 C.3   1 <1>   0.1200 
  9 C       -1.9210     4.0640     0.0350 C.ar  1 <1>  -0.1500 
 10 C       -0.6750     5.8160    -1.2740 C.3   1 <1>  -0.0960 
 11 C       -3.3310     2.4060     1.3000 C.3   1 <1>  -0.0970 
 12 C        3.8120     3.3880    -1.0010 C.3   1 <1>   0.3430 
 13 N        4.3630     4.5430    -0.2230 N.4   1 <1>  -0.9590 
 14 C        5.7980     4.8140    -0.5020 C.3   1 <1>   0.3430 
 15 C        4.0950     4.3900     1.2460 C.3   1 <1>   0.3430 
 16 C        6.1650     6.2140     0.0270 C.3   1 <1>  -0.0800 
 17 C        4.9800     5.3230     2.0890 C.3   1 <1>  -0.1600 
 18 C        5.4070     6.5830     1.3220 C.3   1 <1>  -0.1600 
 19 C        5.9340     7.2900    -1.0450 C.3   1 <1>  -0.2400 
 20 H       -0.8400     1.4030     1.8100 H     1 <1>   0.1500 
 21 H        2.3510     4.1850    -2.3790 H     1 <1>   0.0800 
 22 H        1.8590     2.6900    -1.6260 H     1 <1>   0.0800 
 23 H       -2.8350     4.5650    -0.2350 H     1 <1>   0.1500 
 24 H       -0.0430     6.5590    -0.8210 H     1 <1>   0.0800 
 25 H       -1.6600     6.2330    -1.3860 H     1 <1>   0.0800 
 26 H       -0.2910     5.5810    -2.2500 H     1 <1>   0.0800 
 27 H       -3.2620     1.3700     1.5810 H     1 <1>   0.0800 
 28 H       -4.0620     2.4950     0.5160 H     1 <1>   0.0800 
 29 H       -3.6640     2.9740     2.1500 H     1 <1>   0.0800 
 30 H        4.4160     3.2080    -1.8750 H     1 <1>   0.0800 
 31 H        3.8500     2.4950    -0.3990 H     1 <1>   0.0800 
 32 H        3.8360     5.3800    -0.5100 H     1 <1>   0.4500 
 33 H        5.9980     4.7650    -1.5600 H     1 <1>   0.0800 
 34 H        6.4030     4.0720    -0.0070 H     1 <1>   0.0800 
 35 H        4.2690     3.3720     1.5520 H     1 <1>   0.0800 
 36 H        3.0580     4.6160     1.4370 H     1 <1>   0.0800 
 37 H        7.2200     6.1970     0.2450 H     1 <1>   0.0800 
 38 H        5.8560     4.7820     2.4030 H     1 <1>   0.0800 
 39 H        4.4450     5.5980     2.9820 H     1 <1>   0.0800 
 40 H        4.5220     7.1520     1.0880 H     1 <1>   0.0800 
 41 H        6.0300     7.2030     1.9440 H     1 <1>   0.0800 
 42 H        4.8960     7.3470    -1.3260 H     1 <1>   0.0800 
 43 H        6.5160     7.0780    -1.9260 H     1 <1>   0.0800 
 44 H        6.2370     8.2540    -0.6730 H     1 <1>   0.0800 
@<TRIPOS>BOND
  1   1   2  1   
  2   2   3  ar  
  3   2   4  ar  
  4   3   5  1   
  5   3   6  ar  
  6   4   7  ar  
  7   4  20  1   
  8   5   8  1   
  9   6   9  ar  
 10   6  10  1   
 11   7   9  ar  
 12   7  11  1   
 13   8  12  1   
 14   8  21  1   
 15   8  22  1   
 16   9  23  1   
 17  10  24  1   
 18  10  25  1   
 19  10  26  1   
 20  11  27  1   
 21  11  28  1   
 22  11  29  1   
 23  12  13  1   
 24  12  30  1   
 25  12  31  1   
 26  13  14  1   
 27  13  15  1   
 28  13  32  1   
 29  14  16  1   
 30  14  33  1   
 31  14  34  1   
 32  15  17  1   
 33  15  35  1   
 34  15  36  1   
 35  16  18  1   
 36  16  19  1   
 37  16  37  1   
 38  17  18  1   
 39  17  38  1   
 40  17  39  1   
 41  18  40  1   
 42  18  41  1   
 43  19  42  1   
 44  19  43  1   
 45  19  44  1   
@<TRIPOS>SUBSTRUCTURE
  1 ****   5 GROUP 4 **** **** 0

# MOE 2024.06 (io_trps.svl 2023.06)
