@<TRIPOS>MOLECULE
NONAME
47 48 1 0 0 
SMALL
USER_CHARGES


@<TRIPOS>ATOM
  1 S       -0.6250     0.3710     0.2670 S.o2  1 <1>   1.4470 
  2 O       -1.6150     0.0850     1.2830 O.2   1 <1>  -0.6500 
  3 O       -0.8670     1.4270    -0.6880 O.2   1 <1>  -0.6500 
  4 N        0.8300     0.7710     1.1320 N.am  1 <1>  -0.6930 
  5 C       -0.1780    -1.1670    -0.5880 C.ar  1 <1>  -0.0090 
  6 C        2.0720     0.8330     0.4980 C.ar  1 <1>   0.1990 
  7 C        0.7170     1.1290     2.5640 C.3   1 <1>   0.1160 
  8 C        0.6410    -1.1450    -1.7120 C.ar  1 <1>  -0.1500 
  9 C       -0.6060    -2.4060    -0.1230 C.ar  1 <1>  -0.1500 
 10 C        2.9470    -0.2660     0.5130 C.ar  1 <1>  -0.1430 
 11 C        2.4390     1.9940    -0.1790 C.ar  1 <1>  -0.1430 
 12 C        1.0320    -2.3140    -2.3420 C.ar  1 <1>  -0.1500 
 13 C       -0.2240    -3.5800    -0.7490 C.ar  1 <1>  -0.1500 
 14 C        4.1680    -0.2350    -0.1820 C.ar  1 <1>  -0.0090 
 15 C        2.5480    -1.5300     1.2920 C.3   1 <1>  -0.0970 
 16 C        3.6220     2.0190    -0.8810 C.ar  1 <1>  -0.1500 
 17 C        1.5830     3.2580    -0.2030 C.3   1 <1>  -0.0970 
 18 C        0.6000    -3.5340    -1.8590 C.ar  1 <1>  -0.1500 
 19 S        5.3320    -1.6620    -0.2040 S.o2  1 <1>   1.4470 
 20 C        4.4680     0.9260    -0.9090 C.ar  1 <1>  -0.1440 
 21 O        5.1830    -2.5570     0.9200 O.2   1 <1>  -0.6500 
 22 O        5.3940    -2.2240    -1.5350 O.2   1 <1>  -0.6500 
 23 N        6.8450    -1.0080     0.1210 N.am  1 <1>  -0.9140 
 24 C        5.7160     1.0770    -1.7780 C.3   1 <1>  -0.0970 
 25 C        7.9500    -1.8460    -0.3370 C.3   1 <1>   0.1160 
 26 H        0.0290     1.9490     2.6780 H     1 <1>   0.0800 
 27 H        1.6780     1.4180     2.9520 H     1 <1>   0.0800 
 28 H        0.3490     0.2850     3.1220 H     1 <1>   0.0800 
 29 H        0.9860    -0.1980    -2.0940 H     1 <1>   0.1500 
 30 H       -1.2440    -2.4540     0.7440 H     1 <1>   0.1500 
 31 H        1.6750    -2.2720    -3.2050 H     1 <1>   0.1500 
 32 H       -0.5650    -4.5290    -0.3720 H     1 <1>   0.1500 
 33 H        1.5440    -1.5150     1.6640 H     1 <1>   0.0800 
 34 H        3.1920    -1.6540     2.1440 H     1 <1>   0.0800 
 35 H        2.6230    -2.3970     0.6590 H     1 <1>   0.0800 
 36 H        3.8860     2.9110    -1.4240 H     1 <1>   0.1500 
 37 H        0.9530     3.2530    -1.0740 H     1 <1>   0.0800 
 38 H        2.2060     4.1330    -0.2390 H     1 <1>   0.0800 
 39 H        0.9620     3.3330     0.6690 H     1 <1>   0.0800 
 40 H        0.9040    -4.4450    -2.3460 H     1 <1>   0.1500 
 41 H        6.8710    -1.0020     1.1400 H     1 <1>   0.4200 
 42 H        5.9110     0.1830    -2.3410 H     1 <1>   0.0800 
 43 H        6.5700     1.3040    -1.1660 H     1 <1>   0.0800 
 44 H        5.5960     1.8750    -2.4880 H     1 <1>   0.0800 
 45 H        7.9430    -1.9120    -1.4130 H     1 <1>   0.0800 
 46 H        7.8630    -2.8400     0.0730 H     1 <1>   0.0800 
 47 H        8.8870    -1.4180    -0.0250 H     1 <1>   0.0800 
@<TRIPOS>BOND
  1   1   2  2   
  2   1   3  2   
  3   1   4  am  
  4   1   5  1   
  5   4   6  1   
  6   4   7  1   
  7   5   8  ar  
  8   5   9  ar  
  9   6  10  ar  
 10   6  11  ar  
 11   7  26  1   
 12   7  27  1   
 13   7  28  1   
 14   8  12  ar  
 15   8  29  1   
 16   9  13  ar  
 17   9  30  1   
 18  10  14  ar  
 19  10  15  1   
 20  11  16  ar  
 21  11  17  1   
 22  12  18  ar  
 23  12  31  1   
 24  13  18  ar  
 25  13  32  1   
 26  14  19  1   
 27  14  20  ar  
 28  15  33  1   
 29  15  34  1   
 30  15  35  1   
 31  16  20  ar  
 32  16  36  1   
 33  17  37  1   
 34  17  38  1   
 35  17  39  1   
 36  18  40  1   
 37  19  21  2   
 38  19  22  2   
 39  19  23  am  
 40  20  24  1   
 41  23  25  1   
 42  23  41  1   
 43  24  42  1   
 44  24  43  1   
 45  24  44  1   
 46  25  45  1   
 47  25  46  1   
 48  25  47  1   
@<TRIPOS>SUBSTRUCTURE
  1 ****  10 GROUP 4 **** **** 0

# MOE 2024.06 (io_trps.svl 2023.06)
