@<TRIPOS>MOLECULE
NONAME
53 55 1 0 0 
SMALL
USER_CHARGES


@<TRIPOS>ATOM
  1 CL      -1.4460    -3.1380     1.4040 Cl    1 <1>  -0.1770 
  2 C        0.1920    -3.7420     1.5200 C.ar  1 <1>   0.1770 
  3 C        0.9520    -3.9350     0.3750 C.ar  1 <1>  -0.1440 
  4 C        0.6810    -4.0200     2.7820 C.ar  1 <1>  -0.1500 
  5 C        2.2510    -4.4350     0.5160 C.ar  1 <1>   0.1990 
  6 C        0.3430    -3.6100    -0.9900 C.3   1 <1>  -0.0960 
  7 C        1.9660    -4.5100     2.9180 C.ar  1 <1>  -0.1500 
  8 N        3.0590    -4.6730    -0.5910 N.am  1 <1>  -0.6930 
  9 C        2.7380    -4.7150     1.7900 C.ar  1 <1>  -0.1500 
 10 S        3.2750    -6.2720    -1.2150 S.o2  1 <1>   1.4470 
 11 C        4.0870    -3.6490    -0.9650 C.3   1 <1>   0.2570 
 12 O        3.9470    -6.9990    -0.1610 O.2   1 <1>  -0.6500 
 13 O        3.9270    -6.1040    -2.4920 O.2   1 <1>  -0.6500 
 14 C        1.5710    -6.8460    -1.4540 C.ar  1 <1>  -0.0090 
 15 C        5.4310    -3.7370    -0.2260 C.2   1 <1>   0.5690 
 16 C        0.8240    -7.3350    -0.3870 C.ar  1 <1>  -0.1500 
 17 C        0.9570    -6.7790    -2.7000 C.ar  1 <1>  -0.1500 
 18 O        6.0790    -2.7220    -0.1220 O.2   1 <1>  -0.5700 
 19 N        5.8770    -4.9150     0.2910 N.am  1 <1>  -0.7300 
 20 C       -0.4890    -7.7400    -0.5550 C.ar  1 <1>  -0.1500 
 21 C       -0.3550    -7.1840    -2.8770 C.ar  1 <1>  -0.1500 
 22 C        7.1470    -5.1240     0.9960 C.3   1 <1>   0.2200 
 23 C       -1.0800    -7.6640    -1.8030 C.ar  1 <1>  -0.1500 
 24 C        7.9350    -6.2160     0.2670 C.3   1 <1>  -0.1600 
 25 C        6.8430    -5.5300     2.4410 C.3   1 <1>  -0.1600 
 26 C        9.2250    -6.5690     1.0220 C.3   1 <1>  -0.1600 
 27 C        8.1290    -5.8810     3.2020 C.3   1 <1>  -0.1600 
 28 C        8.9240    -6.9730     2.4720 C.3   1 <1>  -0.1600 
 29 H        0.0600    -3.8550     3.6450 H     1 <1>   0.1500 
 30 H       -0.4360    -4.3170    -1.2150 H     1 <1>   0.0800 
 31 H        1.0670    -3.6420    -1.7830 H     1 <1>   0.0800 
 32 H       -0.0830    -2.6220    -0.9790 H     1 <1>   0.0800 
 33 H        2.3620    -4.7320     3.8950 H     1 <1>   0.1500 
 34 H        3.7340    -5.1020     1.9010 H     1 <1>   0.1500 
 35 H        3.6790    -2.6740    -0.7710 H     1 <1>   0.0800 
 36 H        4.2830    -3.7030    -2.0200 H     1 <1>   0.0800 
 37 H        1.2740    -7.3960     0.5900 H     1 <1>   0.1500 
 38 H        1.5120    -6.4050    -3.5450 H     1 <1>   0.1500 
 39 H        5.3020    -5.7640     0.2120 H     1 <1>   0.3700 
 40 H       -1.0500    -8.1140     0.2840 H     1 <1>   0.1500 
 41 H       -0.8110    -7.1250    -3.8510 H     1 <1>   0.1500 
 42 H        7.7210    -4.2110     0.9960 H     1 <1>   0.0800 
 43 H       -2.1010    -7.9800    -1.9370 H     1 <1>   0.1500 
 44 H        8.1840    -5.8730    -0.7220 H     1 <1>   0.0800 
 45 H        7.3270    -7.1000     0.1790 H     1 <1>   0.0800 
 46 H        6.1900    -6.3860     2.4430 H     1 <1>   0.0800 
 47 H        6.3450    -4.7170     2.9400 H     1 <1>   0.0800 
 48 H        9.8840    -5.7170     1.0190 H     1 <1>   0.0800 
 49 H        9.7280    -7.3770     0.5190 H     1 <1>   0.0800 
 50 H        7.8820    -6.2170     4.1950 H     1 <1>   0.0800 
 51 H        8.7400    -4.9990     3.2950 H     1 <1>   0.0800 
 52 H        9.8480    -7.1570     2.9940 H     1 <1>   0.0800 
 53 H        8.3560    -7.8880     2.4760 H     1 <1>   0.0800 
@<TRIPOS>BOND
  1   1   2  1   
  2   2   3  ar  
  3   2   4  ar  
  4   3   5  ar  
  5   3   6  1   
  6   4   7  ar  
  7   4  29  1   
  8   5   8  1   
  9   5   9  ar  
 10   6  30  1   
 11   6  31  1   
 12   6  32  1   
 13   7   9  ar  
 14   7  33  1   
 15   8  10  am  
 16   8  11  1   
 17   9  34  1   
 18  10  12  2   
 19  10  13  2   
 20  10  14  1   
 21  11  15  1   
 22  11  35  1   
 23  11  36  1   
 24  14  16  ar  
 25  14  17  ar  
 26  15  18  2   
 27  15  19  am  
 28  16  20  ar  
 29  16  37  1   
 30  17  21  ar  
 31  17  38  1   
 32  19  22  1   
 33  19  39  1   
 34  20  23  ar  
 35  20  40  1   
 36  21  23  ar  
 37  21  41  1   
 38  22  24  1   
 39  22  25  1   
 40  22  42  1   
 41  23  43  1   
 42  24  26  1   
 43  24  44  1   
 44  24  45  1   
 45  25  27  1   
 46  25  46  1   
 47  25  47  1   
 48  26  28  1   
 49  26  48  1   
 50  26  49  1   
 51  27  28  1   
 52  27  50  1   
 53  27  51  1   
 54  28  52  1   
 55  28  53  1   
@<TRIPOS>SUBSTRUCTURE
  1 ****   8 GROUP 4 **** **** 0

# MOE 2024.06 (io_trps.svl 2023.06)
