@<TRIPOS>MOLECULE
NONAME
38 40 1 0 0 
SMALL
USER_CHARGES


@<TRIPOS>ATOM
  1 CL      -0.9930     0.3970    -3.2080 Cl    1 <1>  -0.1770 
  2 C       -2.3360     0.2940    -2.1040 C.ar  1 <1>   0.1770 
  3 C       -3.3550     1.2240    -2.1820 C.ar  1 <1>  -0.1500 
  4 C       -2.3690    -0.7140    -1.1610 C.ar  1 <1>  -0.1500 
  5 C       -4.4210     1.1380    -1.3030 C.ar  1 <1>  -0.1500 
  6 C       -3.4390    -0.7900    -0.2870 C.ar  1 <1>  -0.1500 
  7 C       -4.4930     0.1290    -0.3350 C.ar  1 <1>   0.0860 
  8 C       -5.6080     0.0260     0.5900 C.2   1 <1>   0.6340 
  9 O       -5.6650    -0.7990     1.4760 O.2   1 <1>  -0.5700 
 10 O       -6.6320     0.8800     0.4510 O.3   1 <1>  -0.4300 
 11 C       -7.7320     0.8980     1.3420 C.3   1 <1>   0.2000 
 12 C       -8.7260    -0.2240     0.8970 C.3   1 <1>  -0.1600 
 13 C       -8.3150     2.3440     1.2640 C.3   1 <1>  -0.1600 
 14 C       -9.5900     0.3520    -0.2260 C.3   1 <1>   0.4230 
 15 C       -9.5170     2.5680     0.3020 C.3   1 <1>   0.4230 
 16 N      -10.3920     1.4150     0.4560 N.4   1 <1>  -0.9590 
 17 C       -9.6930     1.0150    -1.5880 C.3   1 <1>  -0.1600 
 18 C       -9.2600     2.4650    -1.2180 C.3   1 <1>  -0.1600 
 19 C      -11.0170     1.2080     1.8090 C.3   1 <1>   0.2630 
 20 H       -3.3060     2.0010    -2.9240 H     1 <1>   0.1500 
 21 H       -1.5640    -1.4270    -1.1150 H     1 <1>   0.1500 
 22 H       -5.2070     1.8700    -1.3720 H     1 <1>   0.1500 
 23 H       -3.4610    -1.5780     0.4480 H     1 <1>   0.1500 
 24 H       -7.3550     0.7080     2.3350 H     1 <1>   0.0800 
 25 H       -9.3000    -0.6030     1.7200 H     1 <1>   0.0800 
 26 H       -8.1720    -1.0670     0.5210 H     1 <1>   0.0800 
 27 H       -7.5310     3.0420     1.0290 H     1 <1>   0.0800 
 28 H       -8.6490     2.6080     2.2500 H     1 <1>   0.0800 
 29 H       -8.5910     0.6380    -0.4880 H     1 <1>   0.0800 
 30 H      -10.0270     3.4880     0.5400 H     1 <1>   0.0800 
 31 H      -11.1740     1.5880    -0.1870 H     1 <1>   0.4500 
 32 H      -10.6980     0.9700    -1.9750 H     1 <1>   0.0800 
 33 H       -9.0270     0.5670    -2.3080 H     1 <1>   0.0800 
 34 H       -8.2180     2.6350    -1.4300 H     1 <1>   0.0800 
 35 H       -9.8420     3.1920    -1.7580 H     1 <1>   0.0800 
 36 H      -10.2610     1.0860     2.5670 H     1 <1>   0.0800 
 37 H      -11.6390     0.3280     1.7990 H     1 <1>   0.0800 
 38 H      -11.6280     2.0570     2.0710 H     1 <1>   0.0800 
@<TRIPOS>BOND
  1   1   2  1   
  2   2   3  ar  
  3   2   4  ar  
  4   3   5  ar  
  5   3  20  1   
  6   4   6  ar  
  7   4  21  1   
  8   5   7  ar  
  9   5  22  1   
 10   6   7  ar  
 11   6  23  1   
 12   7   8  1   
 13   8   9  2   
 14   8  10  1   
 15  10  11  1   
 16  11  12  1   
 17  11  13  1   
 18  11  24  1   
 19  12  14  1   
 20  12  25  1   
 21  12  26  1   
 22  13  15  1   
 23  13  27  1   
 24  13  28  1   
 25  14  16  1   
 26  14  17  1   
 27  14  29  1   
 28  15  16  1   
 29  15  18  1   
 30  15  30  1   
 31  16  19  1   
 32  16  31  1   
 33  17  18  1   
 34  17  32  1   
 35  17  33  1   
 36  18  34  1   
 37  18  35  1   
 38  19  36  1   
 39  19  37  1   
 40  19  38  1   
@<TRIPOS>SUBSTRUCTURE
  1 ****  10 GROUP 4 **** **** 0

# MOE 2024.06 (io_trps.svl 2023.06)
