@<TRIPOS>MOLECULE
NONAME
43 44 1 0 0 
SMALL
USER_CHARGES


@<TRIPOS>ATOM
  1 F       -2.1150     0.0750     2.1610 F     1 <1>  -0.3400 
  2 C       -2.8430     0.5970     1.1850 C.3   1 <1>   1.1640 
  3 F       -4.0430     0.8500     1.7000 F     1 <1>  -0.3400 
  4 F       -3.0330    -0.3650     0.2930 F     1 <1>  -0.3400 
  5 C       -2.2510     1.8650     0.5390 C.ar  1 <1>  -0.1440 
  6 C       -2.8510     2.4850    -0.5660 C.ar  1 <1>  -0.1440 
  7 C       -1.0870     2.4220     1.0650 C.ar  1 <1>  -0.1500 
  8 C       -2.2710     3.6190    -1.1190 C.ar  1 <1>  -0.1500 
  9 C       -4.1340     1.9730    -1.2180 C.3   1 <1>   0.4870 
 10 C       -0.5260     3.5570     0.5110 C.ar  1 <1>  -0.1500 
 11 C       -1.1160     4.1550    -0.5830 C.ar  1 <1>  -0.1500 
 12 N       -5.3150     2.3400    -0.3840 N.4   1 <1>  -0.9590 
 13 C       -6.5670     1.7500    -0.9590 C.3   1 <1>   0.3430 
 14 C       -5.4270     3.8170    -0.1880 C.3   1 <1>   0.3430 
 15 C       -7.7850     2.0370    -0.0740 C.3   1 <1>  -0.0190 
 16 C       -6.6020     4.1250     0.7420 C.3   1 <1>  -0.1600 
 17 C       -9.0220     1.4840    -0.7610 C.2   1 <1>   0.6590 
 18 C       -7.9210     3.5450     0.2100 C.3   1 <1>  -0.1600 
 19 O       -8.9840     1.1090    -1.9040 O.2   1 <1>  -0.5700 
 20 O      -10.1240     1.4450    -0.0290 O.3   1 <1>  -0.4300 
 21 C      -11.3420     0.9650    -0.5520 C.3   1 <1>   0.1200 
 22 C      -12.4010     1.0750     0.5400 C.3   1 <1>  -0.2400 
 23 H       -0.5930     1.9800     1.9160 H     1 <1>   0.1500 
 24 H       -2.7040     4.1040    -1.9780 H     1 <1>   0.1500 
 25 H       -4.0820     0.9030    -1.3380 H     1 <1>   0.0800 
 26 H       -4.2340     2.4080    -2.2000 H     1 <1>   0.0800 
 27 H        0.3760     3.9730     0.9300 H     1 <1>   0.1500 
 28 H       -0.6700     5.0350    -1.0170 H     1 <1>   0.1500 
 29 H       -5.1730     1.9270     0.5500 H     1 <1>   0.4500 
 30 H       -6.4580     0.6820    -1.0700 H     1 <1>   0.0800 
 31 H       -6.7460     2.1650    -1.9390 H     1 <1>   0.0800 
 32 H       -5.5830     4.3030    -1.1380 H     1 <1>   0.0800 
 33 H       -4.5190     4.2060     0.2460 H     1 <1>   0.0800 
 34 H       -7.6700     1.5060     0.8540 H     1 <1>   0.0800 
 35 H       -6.6990     5.1930     0.8400 H     1 <1>   0.0800 
 36 H       -6.3940     3.7330     1.7230 H     1 <1>   0.0800 
 37 H       -8.7070     3.7120     0.9280 H     1 <1>   0.0800 
 38 H       -8.1960     4.0590    -0.6980 H     1 <1>   0.0800 
 39 H      -11.2060    -0.0590    -0.8570 H     1 <1>   0.0800 
 40 H      -11.6070     1.5640    -1.4080 H     1 <1>   0.0800 
 41 H      -12.1220     0.4790     1.3900 H     1 <1>   0.0800 
 42 H      -13.3430     0.7170     0.1670 H     1 <1>   0.0800 
 43 H      -12.5210     2.1000     0.8410 H     1 <1>   0.0800 
@<TRIPOS>BOND
  1   1   2  1   
  2   2   3  1   
  3   2   4  1   
  4   2   5  1   
  5   5   6  ar  
  6   5   7  ar  
  7   6   8  ar  
  8   6   9  1   
  9   7  10  ar  
 10   7  23  1   
 11   8  11  ar  
 12   8  24  1   
 13   9  12  1   
 14   9  25  1   
 15   9  26  1   
 16  10  11  ar  
 17  10  27  1   
 18  11  28  1   
 19  12  13  1   
 20  12  14  1   
 21  12  29  1   
 22  13  15  1   
 23  13  30  1   
 24  13  31  1   
 25  14  16  1   
 26  14  32  1   
 27  14  33  1   
 28  15  17  1   
 29  15  18  1   
 30  15  34  1   
 31  16  18  1   
 32  16  35  1   
 33  16  36  1   
 34  17  19  2   
 35  17  20  1   
 36  18  37  1   
 37  18  38  1   
 38  20  21  1   
 39  21  22  1   
 40  21  39  1   
 41  21  40  1   
 42  22  41  1   
 43  22  42  1   
 44  22  43  1   
@<TRIPOS>SUBSTRUCTURE
  1 ****  12 GROUP 4 **** **** 0

# MOE 2024.06 (io_trps.svl 2023.06)
