@<TRIPOS>MOLECULE
NONAME
31 31 1 0 0 
SMALL
USER_CHARGES


@<TRIPOS>ATOM
  1 O        0.0940    -0.5050     1.7110 O.2   1 <1>  -0.5700 
  2 C       -0.0920    -1.5190     1.0860 C.2   1 <1>   0.5690 
  3 N       -1.2450    -1.8160     0.4190 N.am  1 <1>  -0.5470 
  4 C        1.0290    -2.5190     1.0220 C.3   1 <1>  -0.0380 
  5 C       -2.4710    -1.1410     0.2600 C.ar  1 <1>   0.1170 
  6 C        1.5180    -2.5980    -0.4000 C.2   1 <1>   0.4480 
  7 C       -3.3960    -1.6680    -0.6480 C.ar  1 <1>   0.0820 
  8 C       -2.8040     0.0130     0.9610 C.ar  1 <1>  -0.1500 
  9 O        1.2130    -3.5150    -1.0990 O.2   1 <1>  -0.5700 
 10 C        2.3950    -1.4750    -0.9090 C.3   1 <1>  -0.1790 
 11 O       -3.0360    -2.8070    -1.3130 O.3   1 <1>  -0.3630 
 12 C       -4.6190    -1.0360    -0.8410 C.ar  1 <1>  -0.1500 
 13 C       -4.0230     0.6420     0.7690 C.ar  1 <1>  -0.1430 
 14 C       -3.8520    -3.3550    -2.3240 C.3   1 <1>   0.0400 
 15 C       -4.9280     0.1140    -0.1360 C.ar  1 <1>  -0.1500 
 16 C       -4.3610     1.9030     1.5430 C.3   1 <1>  -0.0970 
 17 H       -1.2210    -2.6690    -0.1510 H     1 <1>   0.3700 
 18 H        0.6680    -3.4790     1.3380 H     1 <1>   0.0800 
 19 H        1.8300    -2.2210     1.6720 H     1 <1>   0.0800 
 20 H       -2.1090     0.4300     1.6650 H     1 <1>   0.1500 
 21 H        3.2940    -1.4150    -0.3230 H     1 <1>   0.0800 
 22 H        1.8690    -0.5400    -0.8480 H     1 <1>   0.0800 
 23 H        2.6590    -1.6580    -1.9340 H     1 <1>   0.0800 
 24 H       -5.3460    -1.4180    -1.5310 H     1 <1>   0.1500 
 25 H       -3.3480    -4.2140    -2.7310 H     1 <1>   0.0800 
 26 H       -3.9970    -2.6180    -3.0940 H     1 <1>   0.0800 
 27 H       -4.7910    -3.6540    -1.8920 H     1 <1>   0.0800 
 28 H       -5.8760     0.5970    -0.2940 H     1 <1>   0.1500 
 29 H       -3.8490     1.9130     2.4890 H     1 <1>   0.0800 
 30 H       -5.4180     1.9590     1.7300 H     1 <1>   0.0800 
 31 H       -4.0600     2.7670     0.9780 H     1 <1>   0.0800 
@<TRIPOS>BOND
  1   1   2  2   
  2   2   3  am  
  3   2   4  1   
  4   3   5  1   
  5   3  17  1   
  6   4   6  1   
  7   4  18  1   
  8   4  19  1   
  9   5   7  ar  
 10   5   8  ar  
 11   6   9  2   
 12   6  10  1   
 13   7  11  1   
 14   7  12  ar  
 15   8  13  ar  
 16   8  20  1   
 17  10  21  1   
 18  10  22  1   
 19  10  23  1   
 20  11  14  1   
 21  12  15  ar  
 22  12  24  1   
 23  13  15  ar  
 24  13  16  1   
 25  14  25  1   
 26  14  26  1   
 27  14  27  1   
 28  15  28  1   
 29  16  29  1   
 30  16  30  1   
 31  16  31  1   
@<TRIPOS>SUBSTRUCTURE
  1 ****   5 GROUP 4 **** **** 0

# MOE 2024.06 (io_trps.svl 2023.06)
