@<TRIPOS>MOLECULE
NONAME
35 36 1 0 0 
SMALL
USER_CHARGES


@<TRIPOS>ATOM
  1 CL       0.0910     0.8090     0.4360 Cl    1 <1>  -0.1770 
  2 C       -1.2840     1.8690     0.2620 C.ar  1 <1>   0.1770 
  3 C       -2.5510     1.3280     0.1970 C.ar  1 <1>  -0.1500 
  4 C       -1.0800     3.2330     0.1910 C.ar  1 <1>  -0.1500 
  5 C       -3.6530     2.1600     0.0550 C.ar  1 <1>   0.1990 
  6 C       -2.1750     4.0690     0.0510 C.ar  1 <1>  -0.1500 
  7 N       -4.9120     1.5850    -0.0190 N.am  1 <1>  -0.7570 
  8 C       -3.4570     3.5430    -0.0190 C.ar  1 <1>  -0.1430 
  9 S       -5.7920     1.2240     1.3980 S.o2  1 <1>   1.5760 
 10 C       -4.6340     4.4970    -0.1740 C.3   1 <1>  -0.0960 
 11 O       -5.4020    -0.1270     1.7150 O.2   1 <1>  -0.6500 
 12 O       -5.6450     2.3310     2.3100 O.2   1 <1>  -0.6500 
 13 N       -7.3560     1.2250     0.7670 N.am  1 <1>  -0.8490 
 14 C       -7.8420     2.5580     0.3910 C.3   1 <1>   0.1960 
 15 C       -7.6510     0.1790    -0.2080 C.3   1 <1>   0.1960 
 16 C       -9.1630     2.5050    -0.3980 C.3   1 <1>  -0.1600 
 17 C       -9.1720    -0.0170    -0.3270 C.3   1 <1>  -0.1600 
 18 C       -9.9880     1.2600    -0.0540 C.3   1 <1>  -0.1600 
 19 H       -2.6750     0.2630     0.2660 H     1 <1>   0.1500 
 20 H       -0.0830     3.6300     0.2460 H     1 <1>   0.1500 
 21 H       -2.0180     5.1320    -0.0010 H     1 <1>   0.1500 
 22 H       -4.9170     0.7230    -0.5460 H     1 <1>   0.4200 
 23 H       -5.2500     4.4610     0.7070 H     1 <1>   0.0800 
 24 H       -5.2220     4.2170    -1.0290 H     1 <1>   0.0800 
 25 H       -4.2990     5.5090    -0.3110 H     1 <1>   0.0800 
 26 H       -7.1060     3.0690    -0.2030 H     1 <1>   0.0800 
 27 H       -7.9910     3.1260     1.2950 H     1 <1>   0.0800 
 28 H       -7.2040    -0.7550     0.0940 H     1 <1>   0.0800 
 29 H       -7.2420     0.4590    -1.1640 H     1 <1>   0.0800 
 30 H       -8.9400     2.5020    -1.4510 H     1 <1>   0.0800 
 31 H       -9.7320     3.3950    -0.1950 H     1 <1>   0.0800 
 32 H       -9.4810    -0.7800     0.3650 H     1 <1>   0.0800 
 33 H       -9.3870    -0.3790    -1.3160 H     1 <1>   0.0800 
 34 H      -10.9060     1.2430    -0.6150 H     1 <1>   0.0800 
 35 H      -10.2380     1.2970     0.9930 H     1 <1>   0.0800 
@<TRIPOS>BOND
  1   1   2  1   
  2   2   3  ar  
  3   2   4  ar  
  4   3   5  ar  
  5   3  19  1   
  6   4   6  ar  
  7   4  20  1   
  8   5   7  1   
  9   5   8  ar  
 10   6   8  ar  
 11   6  21  1   
 12   7   9  am  
 13   7  22  1   
 14   8  10  1   
 15   9  11  2   
 16   9  12  2   
 17   9  13  am  
 18  10  23  1   
 19  10  24  1   
 20  10  25  1   
 21  13  14  1   
 22  13  15  1   
 23  14  16  1   
 24  14  26  1   
 25  14  27  1   
 26  15  17  1   
 27  15  28  1   
 28  15  29  1   
 29  16  18  1   
 30  16  30  1   
 31  16  31  1   
 32  17  18  1   
 33  17  32  1   
 34  17  33  1   
 35  18  34  1   
 36  18  35  1   
@<TRIPOS>SUBSTRUCTURE
  1 ****   7 GROUP 4 **** **** 0

# MOE 2024.06 (io_trps.svl 2023.06)
