@<TRIPOS>MOLECULE
NONAME
41 42 1 0 0 
SMALL
USER_CHARGES


@<TRIPOS>ATOM
  1 CL       0.5700     0.1140     0.4680 Cl    1 <1>  -0.1770 
  2 C       -0.5180     1.4850     0.4280 C.ar  1 <1>   0.1770 
  3 C       -0.0160     2.7680     0.2150 C.ar  1 <1>   0.0830 
  4 C       -1.8680     1.2560     0.6110 C.ar  1 <1>  -0.1500 
  5 O        1.3260     2.9070     0.0420 O.3   1 <1>  -0.3630 
  6 C       -0.9040     3.8430     0.1900 C.ar  1 <1>  -0.1500 
  7 C       -2.7270     2.3360     0.5810 C.ar  1 <1>   0.1770 
  8 C        1.9300     4.1710    -0.1530 C.3   1 <1>   0.1200 
  9 C       -2.2610     3.6230     0.3740 C.ar  1 <1>  -0.1500 
 10 CL      -4.4370     2.0740     0.8100 Cl    1 <1>  -0.1770 
 11 C        3.4480     3.9840    -0.2710 C.3   1 <1>   0.2000 
 12 O        3.8900     3.2660     0.8360 O.3   1 <1>  -0.6800 
 13 C        4.1910     5.3380    -0.3850 C.3   1 <1>   0.1100 
 14 N        5.6560     5.2560    -0.1830 N.3   1 <1>  -0.8100 
 15 C        6.3590     4.3620    -1.1360 C.3   1 <1>   0.1100 
 16 C        6.3110     6.5790    -0.1000 C.3   1 <1>   0.1100 
 17 C        7.8710     4.2520    -0.8160 C.3   1 <1>   0.3430 
 18 C        7.8060     6.4520     0.2920 C.3   1 <1>   0.3430 
 19 N        8.2040     5.0110     0.4330 N.4   1 <1>  -0.9590 
 20 C        9.5990     4.8090     0.9130 C.3   1 <1>   0.2630 
 21 H       -2.2400     0.2610     0.7740 H     1 <1>   0.1500 
 22 H       -0.5660     4.8490     0.0310 H     1 <1>   0.1500 
 23 H        1.6960     4.7970     0.6900 H     1 <1>   0.0800 
 24 H        1.5330     4.6030    -1.0550 H     1 <1>   0.0800 
 25 H       -2.9580     4.4420     0.3570 H     1 <1>   0.1500 
 26 H        3.6500     3.3910    -1.1450 H     1 <1>   0.0800 
 27 H        3.2630     2.5280     0.9970 H     1 <1>   0.4000 
 28 H        3.7830     5.9990     0.3620 H     1 <1>   0.0800 
 29 H        3.9830     5.7720    -1.3480 H     1 <1>   0.0800 
 30 H        6.2280     4.7170    -2.1440 H     1 <1>   0.0800 
 31 H        5.9360     3.3740    -1.0790 H     1 <1>   0.0800 
 32 H        5.8110     7.1810     0.6400 H     1 <1>   0.0800 
 33 H        6.2300     7.0890    -1.0450 H     1 <1>   0.0800 
 34 H        8.4400     4.6370    -1.6460 H     1 <1>   0.0800 
 35 H        8.1250     3.2120    -0.6950 H     1 <1>   0.0800 
 36 H        7.9640     6.9670     1.2250 H     1 <1>   0.0800 
 37 H        8.4130     6.9330    -0.4570 H     1 <1>   0.0800 
 38 H        7.5150     4.6420     1.1150 H     1 <1>   0.4500 
 39 H       10.3020     5.1930     0.1930 H     1 <1>   0.0800 
 40 H        9.7930     3.7590     1.0610 H     1 <1>   0.0800 
 41 H        9.7480     5.3200     1.8500 H     1 <1>   0.0800 
@<TRIPOS>BOND
  1   1   2  1   
  2   2   3  ar  
  3   2   4  ar  
  4   3   5  1   
  5   3   6  ar  
  6   4   7  ar  
  7   4  21  1   
  8   5   8  1   
  9   6   9  ar  
 10   6  22  1   
 11   7   9  ar  
 12   7  10  1   
 13   8  11  1   
 14   8  23  1   
 15   8  24  1   
 16   9  25  1   
 17  11  12  1   
 18  11  13  1   
 19  11  26  1   
 20  12  27  1   
 21  13  14  1   
 22  13  28  1   
 23  13  29  1   
 24  14  15  1   
 25  14  16  1   
 26  15  17  1   
 27  15  30  1   
 28  15  31  1   
 29  16  18  1   
 30  16  32  1   
 31  16  33  1   
 32  17  19  1   
 33  17  34  1   
 34  17  35  1   
 35  18  19  1   
 36  18  36  1   
 37  18  37  1   
 38  19  20  1   
 39  19  38  1   
 40  20  39  1   
 41  20  40  1   
 42  20  41  1   
@<TRIPOS>SUBSTRUCTURE
  1 ****  11 GROUP 4 **** **** 0

# MOE 2024.06 (io_trps.svl 2023.06)
