@<TRIPOS>MOLECULE
NONAME
45 47 1 0 0 
SMALL
USER_CHARGES


@<TRIPOS>ATOM
  1 O       -0.7170     2.7350    -1.7010 O.2   1 <1>  -0.5700 
  2 C       -0.1260     2.5470    -0.6570 C.2   1 <1>   0.5440 
  3 N       -0.8440     2.5970     0.5080 N.am  1 <1>  -0.7300 
  4 C        1.3020     2.2860    -0.6410 C.ar  1 <1>   0.0860 
  5 C       -2.2920     2.9480     0.6020 C.3   1 <1>   0.1400 
  6 C        1.9100     1.5460     0.3770 C.ar  1 <1>  -0.1500 
  7 C        2.1280     2.7700    -1.6570 C.ar  1 <1>  -0.1500 
  8 C       -3.2090     1.9400    -0.1100 C.3   1 <1>   0.2000 
  9 C        3.2730     1.3130     0.3910 C.ar  1 <1>  -0.1500 
 10 C        3.4910     2.5410    -1.6500 C.ar  1 <1>  -0.1500 
 11 O       -4.5410     2.2470     0.2700 O.3   1 <1>  -0.3630 
 12 C       -2.8850     0.4770     0.2470 C.3   1 <1>   0.1200 
 13 C        4.0770     1.8150    -0.6270 C.ar  1 <1>   0.0830 
 14 C       -5.4900     1.3070     0.0310 C.ar  1 <1>   0.0830 
 15 O       -3.8460    -0.4070    -0.3020 O.3   1 <1>  -0.3630 
 16 O        5.4150     1.6380    -0.6910 O.3   1 <1>  -0.3630 
 17 C       -5.1430    -0.0120    -0.2660 C.ar  1 <1>   0.0830 
 18 C       -6.8230     1.6770     0.0820 C.ar  1 <1>  -0.1500 
 19 C        6.1240     0.9250     0.2990 C.3   1 <1>   0.1200 
 20 C       -6.1320    -0.9440    -0.5260 C.ar  1 <1>  -0.1500 
 21 C       -7.8100     0.7380    -0.1730 C.ar  1 <1>  -0.1500 
 22 C        7.6170     0.9370    -0.0480 C.3   1 <1>  -0.1600 
 23 C       -7.4650    -0.5690    -0.4790 C.ar  1 <1>  -0.1500 
 24 C        8.2050     2.3550    -0.0780 C.3   1 <1>  -0.2400 
 25 H       -0.3260     2.6460     1.3870 H     1 <1>   0.3700 
 26 H       -2.4420     3.9200     0.1650 H     1 <1>   0.0800 
 27 H       -2.5650     2.9930     1.6420 H     1 <1>   0.0800 
 28 H        1.3070     1.1370     1.1670 H     1 <1>   0.1500 
 29 H        1.6880     3.3340    -2.4620 H     1 <1>   0.1500 
 30 H       -3.1370     2.0750    -1.1750 H     1 <1>   0.0800 
 31 H        3.6940     0.7390     1.1950 H     1 <1>   0.1500 
 32 H        4.1120     2.9230    -2.4400 H     1 <1>   0.1500 
 33 H       -2.8810     0.3440     1.3130 H     1 <1>   0.0800 
 34 H       -1.9250     0.1980    -0.1470 H     1 <1>   0.0800 
 35 H       -7.0810     2.6930     0.3170 H     1 <1>   0.1500 
 36 H        5.7520    -0.0840     0.3190 H     1 <1>   0.0800 
 37 H        5.9540     1.4020     1.2490 H     1 <1>   0.0800 
 38 H       -5.8540    -1.9560    -0.7610 H     1 <1>   0.1500 
 39 H       -8.8460     1.0260    -0.1350 H     1 <1>   0.1500 
 40 H        7.7590     0.4620    -1.0030 H     1 <1>   0.0800 
 41 H        8.1450     0.3560     0.6870 H     1 <1>   0.0800 
 42 H       -8.2330    -1.2950    -0.6800 H     1 <1>   0.1500 
 43 H        7.7180     2.9470    -0.8330 H     1 <1>   0.0800 
 44 H        9.2560     2.3140    -0.3020 H     1 <1>   0.0800 
 45 H        8.0750     2.8370     0.8750 H     1 <1>   0.0800 
@<TRIPOS>BOND
  1   1   2  2   
  2   2   3  am  
  3   2   4  1   
  4   3   5  1   
  5   3  25  1   
  6   4   6  ar  
  7   4   7  ar  
  8   5   8  1   
  9   5  26  1   
 10   5  27  1   
 11   6   9  ar  
 12   6  28  1   
 13   7  10  ar  
 14   7  29  1   
 15   8  11  1   
 16   8  12  1   
 17   8  30  1   
 18   9  13  ar  
 19   9  31  1   
 20  10  13  ar  
 21  10  32  1   
 22  11  14  1   
 23  12  15  1   
 24  12  33  1   
 25  12  34  1   
 26  13  16  1   
 27  14  17  ar  
 28  14  18  ar  
 29  15  17  1   
 30  16  19  1   
 31  17  20  ar  
 32  18  21  ar  
 33  18  35  1   
 34  19  22  1   
 35  19  36  1   
 36  19  37  1   
 37  20  23  ar  
 38  20  38  1   
 39  21  23  ar  
 40  21  39  1   
 41  22  24  1   
 42  22  40  1   
 43  22  41  1   
 44  23  42  1   
 45  24  43  1   
 46  24  44  1   
 47  24  45  1   
@<TRIPOS>SUBSTRUCTURE
  1 ****   2 GROUP 4 **** **** 0

# MOE 2024.06 (io_trps.svl 2023.06)
