@<TRIPOS>MOLECULE
NONAME
41 42 1 0 0 
SMALL
USER_CHARGES


@<TRIPOS>ATOM
  1 BR       3.7540     5.5270    -0.5900 Br    1 <1>  -0.1110 
  2 C        2.2130     4.4730    -0.0930 C.ar  1 <1>   0.1110 
  3 C        2.3950     3.2910     0.6110 C.ar  1 <1>   0.0820 
  4 C        0.9650     4.9370    -0.4590 C.ar  1 <1>  -0.1500 
  5 O        3.6620     2.9170     0.9260 O.3   1 <1>  -0.3630 
  6 C        1.2630     2.5570     0.9540 C.ar  1 <1>  -0.1500 
  7 C       -0.1590     4.2000    -0.1150 C.ar  1 <1>  -0.1440 
  8 C        3.9310     1.7100     1.6260 C.3   1 <1>   0.1810 
  9 C        0.0050     3.0130     0.5910 C.ar  1 <1>  -0.1500 
 10 C       -1.5450     4.7020    -0.5140 C.3   1 <1>   0.0630 
 11 C        5.4300     1.5180     1.8250 C.2   1 <1>   0.5690 
 12 C       -2.4050     4.9750     0.7240 C.3   1 <1>  -0.2400 
 13 C       -2.2380     3.7060    -1.4490 C.3   1 <1>  -0.2400 
 14 O        5.8170     0.5600     2.4490 O.2   1 <1>  -0.5700 
 15 N        6.2950     2.4200     1.2960 N.am  1 <1>  -0.7300 
 16 C        7.7620     2.3370     1.3460 C.3   1 <1>   0.2840 
 17 C        8.3020     2.6030    -0.0440 C.ar  1 <1>  -0.1440 
 18 C        8.3690     1.5720    -0.9700 C.ar  1 <1>   0.1600 
 19 C        8.7270     3.8630    -0.4180 C.ar  1 <1>  -0.1500 
 20 N        8.8250     1.6920    -2.2070 N.ar  1 <1>  -0.6200 
 21 C        9.2010     4.0060    -1.7040 C.ar  1 <1>  -0.1500 
 22 C        9.2280     2.9060    -2.5440 C.ar  1 <1>   0.1600 
 23 H        0.8830     5.8600    -1.0040 H     1 <1>   0.1500 
 24 H        1.3350     1.6350     1.4980 H     1 <1>   0.1500 
 25 H        3.5430     0.8890     1.0520 H     1 <1>   0.0800 
 26 H        3.4480     1.7550     2.5840 H     1 <1>   0.0800 
 27 H       -0.8580     2.4320     0.8650 H     1 <1>   0.1500 
 28 H       -1.4370     5.6310    -1.0480 H     1 <1>   0.0800 
 29 H       -2.5910     4.0690     1.2720 H     1 <1>   0.0800 
 30 H       -3.3490     5.4020     0.4350 H     1 <1>   0.0800 
 31 H       -1.9010     5.6700     1.3730 H     1 <1>   0.0800 
 32 H       -2.4210     2.7720    -0.9490 H     1 <1>   0.0800 
 33 H       -1.6190     3.5200    -2.3080 H     1 <1>   0.0800 
 34 H       -3.1780     4.1050    -1.7860 H     1 <1>   0.0800 
 35 H        5.9080     3.1920     0.7430 H     1 <1>   0.3700 
 36 H        8.0690     1.3620     1.6860 H     1 <1>   0.0800 
 37 H        8.1370     3.0700     2.0400 H     1 <1>   0.0800 
 38 H        8.0270     0.5930    -0.6760 H     1 <1>   0.1500 
 39 H        8.6900     4.6990     0.2590 H     1 <1>   0.1500 
 40 H        9.5460     4.9610    -2.0560 H     1 <1>   0.1500 
 41 H        9.6020     3.0310    -3.5460 H     1 <1>   0.1500 
@<TRIPOS>BOND
  1   1   2  1   
  2   2   3  ar  
  3   2   4  ar  
  4   3   5  1   
  5   3   6  ar  
  6   4   7  ar  
  7   4  23  1   
  8   5   8  1   
  9   6   9  ar  
 10   6  24  1   
 11   7   9  ar  
 12   7  10  1   
 13   8  11  1   
 14   8  25  1   
 15   8  26  1   
 16   9  27  1   
 17  10  12  1   
 18  10  13  1   
 19  10  28  1   
 20  11  14  2   
 21  11  15  am  
 22  12  29  1   
 23  12  30  1   
 24  12  31  1   
 25  13  32  1   
 26  13  33  1   
 27  13  34  1   
 28  15  16  1   
 29  15  35  1   
 30  16  17  1   
 31  16  36  1   
 32  16  37  1   
 33  17  18  ar  
 34  17  19  ar  
 35  18  20  ar  
 36  18  38  1   
 37  19  21  ar  
 38  19  39  1   
 39  20  22  ar  
 40  21  22  ar  
 41  21  40  1   
 42  22  41  1   
@<TRIPOS>SUBSTRUCTURE
  1 ****   5 GROUP 4 **** **** 0

# MOE 2024.06 (io_trps.svl 2023.06)
