@<TRIPOS>MOLECULE
Structure2590
29 30 1 0 0 
SMALL
USER_CHARGES


@<TRIPOS>ATOM
  1 F       -1.6500    -1.0800    -0.8730 F     1 <1>  -0.1900 
  2 C       -0.8600    -2.0250    -0.4280 C.ar  1 <1>   0.1900 
  3 C       -1.3340    -3.0020     0.4570 C.ar  1 <1>   0.0820 
  4 C        0.4520    -1.9960    -0.8610 C.ar  1 <1>  -0.1500 
  5 O       -2.6110    -3.0960     0.9220 O.3   1 <1>  -0.3630 
  6 C       -0.4410    -3.9590     0.9240 C.ar  1 <1>  -0.1500 
  7 C        1.3000    -2.9740    -0.3790 C.ar  1 <1>   0.1900 
  8 C       -3.7210    -2.8400     0.0960 C.3   1 <1>   0.2000 
  9 C        0.8810    -3.9520     0.5060 C.ar  1 <1>  -0.1500 
 10 F        2.5460    -2.9730    -0.7720 F     1 <1>  -0.1900 
 11 C       -4.4280    -1.5880     0.6250 C.3   1 <1>  -0.1600 
 12 C       -4.6400    -4.0600     0.1730 C.3   1 <1>  -0.1600 
 13 C       -5.7440    -1.3570    -0.1090 C.3   1 <1>   0.3430 
 14 C       -5.9590    -3.7960    -0.5500 C.3   1 <1>   0.3430 
 15 N       -6.5990    -2.5710     0.0070 N.4   1 <1>  -0.9060 
 16 H        0.8050    -1.2430    -1.5410 H     1 <1>   0.1500 
 17 H       -0.7840    -4.7090     1.6150 H     1 <1>   0.1500 
 18 H       -3.3940    -2.7070    -0.9210 H     1 <1>   0.0800 
 19 H        1.5790    -4.6900     0.8600 H     1 <1>   0.1500 
 20 H       -3.7970    -0.7290     0.4850 H     1 <1>   0.0800 
 21 H       -4.6170    -1.6900     1.6790 H     1 <1>   0.0800 
 22 H       -4.8380    -4.3100     1.2010 H     1 <1>   0.0800 
 23 H       -4.1500    -4.9000    -0.2860 H     1 <1>   0.0800 
 24 H       -5.5440    -1.1470    -1.1490 H     1 <1>   0.0800 
 25 H       -6.2500    -0.5040     0.3160 H     1 <1>   0.0800 
 26 H       -6.6130    -4.6450    -0.4300 H     1 <1>   0.0800 
 27 H       -5.7700    -3.6610    -1.6040 H     1 <1>   0.0800 
 28 H       -7.5000    -2.4070    -0.4630 H     1 <1>   0.4500 
 29 H       -6.8120    -2.7310     1.0010 H     1 <1>   0.4500 
@<TRIPOS>BOND
  1   1   2  1   
  2   2   3  ar  
  3   2   4  ar  
  4   3   5  1   
  5   3   6  ar  
  6   4   7  ar  
  7   4  16  1   
  8   5   8  1   
  9   6   9  ar  
 10   6  17  1   
 11   7   9  ar  
 12   7  10  1   
 13   8  11  1   
 14   8  12  1   
 15   8  18  1   
 16   9  19  1   
 17  11  13  1   
 18  11  20  1   
 19  11  21  1   
 20  12  14  1   
 21  12  22  1   
 22  12  23  1   
 23  13  15  1   
 24  13  24  1   
 25  13  25  1   
 26  14  15  1   
 27  14  26  1   
 28  14  27  1   
 29  15  28  1   
 30  15  29  1   
@<TRIPOS>SUBSTRUCTURE
  1 ****   3 GROUP 4 **** **** 0

# MOE 2024.06 (io_trps.svl 2023.06)
