@<TRIPOS>MOLECULE
NONAME
47 48 1 0 0 
SMALL
USER_CHARGES


@<TRIPOS>ATOM
  1 O       -4.7140    -1.6400    -0.2090 O.3   1 <1>  -0.5600 
  2 C       -6.0510    -1.6390    -0.6000 C.3   1 <1>   0.2640 
  3 C       -4.1240    -2.9060    -0.1700 C.3   1 <1>   0.1200 
  4 C       -6.5400    -0.2010    -0.6410 C.ar  1 <1>  -0.1440 
  5 C       -2.6430    -2.7500     0.2050 C.3   1 <1>   0.2000 
  6 C       -7.4680     0.2560     0.2830 C.ar  1 <1>  -0.1500 
  7 C       -6.0620     0.6680    -1.6100 C.ar  1 <1>  -0.1500 
  8 O       -2.1110    -1.7420    -0.5900 O.3   1 <1>  -0.6800 
  9 C       -1.8510    -4.0710     0.0430 C.3   1 <1>   0.1100 
 10 C       -7.9180     1.5650     0.2330 C.ar  1 <1>  -0.1500 
 11 C       -6.5110     1.9760    -1.6610 C.ar  1 <1>  -0.1500 
 12 N       -0.3800    -3.9060     0.0490 N.3   1 <1>  -0.8100 
 13 C       -7.4400     2.4250    -0.7400 C.ar  1 <1>  -0.1500 
 14 C        0.1680    -3.2840     1.2790 C.3   1 <1>   0.1100 
 15 C        0.3580    -5.1350    -0.3090 C.3   1 <1>   0.1100 
 16 C        1.6930    -3.0420     1.1710 C.3   1 <1>   0.3430 
 17 C        1.8730    -4.8550    -0.4840 C.3   1 <1>   0.3430 
 18 N        2.1910    -3.4160    -0.1950 N.4   1 <1>  -0.9590 
 19 C        3.5970    -3.0520    -0.4850 C.3   1 <1>   0.3430 
 20 C        3.7330    -1.5360    -0.5540 C.3   1 <1>  -0.2400 
 21 H       -6.6190    -2.2170     0.1070 H     1 <1>   0.0800 
 22 H       -6.1280    -2.0820    -1.5790 H     1 <1>   0.0800 
 23 H       -4.2130    -3.3600    -1.1420 H     1 <1>   0.0800 
 24 H       -4.6360    -3.5090     0.5610 H     1 <1>   0.0800 
 25 H       -2.5870    -2.4190     1.2260 H     1 <1>   0.0800 
 26 H       -7.8440    -0.4020     1.0460 H     1 <1>   0.1500 
 27 H       -5.3350     0.3260    -2.3250 H     1 <1>   0.1500 
 28 H       -2.8110    -1.0560    -0.6730 H     1 <1>   0.4000 
 29 H       -2.1380    -4.5120    -0.8960 H     1 <1>   0.0800 
 30 H       -2.1430    -4.7520     0.8240 H     1 <1>   0.0800 
 31 H       -8.6380     1.9140     0.9520 H     1 <1>   0.1500 
 32 H       -6.1350     2.6440    -2.4160 H     1 <1>   0.1500 
 33 H       -7.7890     3.4420    -0.7780 H     1 <1>   0.1500 
 34 H       -0.0410    -3.9040     2.1340 H     1 <1>   0.0800 
 35 H       -0.3070    -2.3310     1.4410 H     1 <1>   0.0800 
 36 H       -0.0290    -5.5290    -1.2340 H     1 <1>   0.0800 
 37 H        0.2150    -5.8850     0.4510 H     1 <1>   0.0800 
 38 H        2.2030    -3.6230     1.9220 H     1 <1>   0.0800 
 39 H        1.8900    -2.0020     1.3670 H     1 <1>   0.0800 
 40 H        2.1540    -5.0940    -1.4960 H     1 <1>   0.0800 
 41 H        2.4320    -5.4980     0.1750 H     1 <1>   0.0800 
 42 H        1.5480    -2.9010    -0.8230 H     1 <1>   0.4500 
 43 H        3.8880    -3.4700    -1.4360 H     1 <1>   0.0800 
 44 H        4.2500    -3.4500     0.2750 H     1 <1>   0.0800 
 45 H        3.0580    -1.1260    -1.2850 H     1 <1>   0.0800 
 46 H        4.7360    -1.2850    -0.8510 H     1 <1>   0.0800 
 47 H        3.5520    -1.0800     0.4020 H     1 <1>   0.0800 
@<TRIPOS>BOND
  1   1   2  1   
  2   1   3  1   
  3   2   4  1   
  4   2  21  1   
  5   2  22  1   
  6   3   5  1   
  7   3  23  1   
  8   3  24  1   
  9   4   6  ar  
 10   4   7  ar  
 11   5   8  1   
 12   5   9  1   
 13   5  25  1   
 14   6  10  ar  
 15   6  26  1   
 16   7  11  ar  
 17   7  27  1   
 18   8  28  1   
 19   9  12  1   
 20   9  29  1   
 21   9  30  1   
 22  10  13  ar  
 23  10  31  1   
 24  11  13  ar  
 25  11  32  1   
 26  12  14  1   
 27  12  15  1   
 28  13  33  1   
 29  14  16  1   
 30  14  34  1   
 31  14  35  1   
 32  15  17  1   
 33  15  36  1   
 34  15  37  1   
 35  16  18  1   
 36  16  38  1   
 37  16  39  1   
 38  17  18  1   
 39  17  40  1   
 40  17  41  1   
 41  18  19  1   
 42  18  42  1   
 43  19  20  1   
 44  19  43  1   
 45  19  44  1   
 46  20  45  1   
 47  20  46  1   
 48  20  47  1   
@<TRIPOS>SUBSTRUCTURE
  1 ****   8 GROUP 4 **** **** 0

# MOE 2024.06 (io_trps.svl 2023.06)
