@<TRIPOS>MOLECULE
NONAME
52 56 1 0 0 
SMALL
USER_CHARGES


@<TRIPOS>ATOM
  1 CL      -0.7210    -1.0850    -2.2340 Cl    1 <1>  -0.1770 
  2 C       -1.8880    -1.2250    -0.9360 C.ar  1 <1>   0.1770 
  3 C       -1.6360    -2.0850     0.1280 C.ar  1 <1>   0.1170 
  4 C       -3.0380    -0.4650    -1.0010 C.ar  1 <1>  -0.1500 
  5 N       -0.4650    -2.8640     0.1820 N.am  1 <1>  -0.2370 
  6 C       -2.5790    -2.1550     1.1460 C.ar  1 <1>  -0.1500 
  7 C       -3.9840    -0.5390     0.0160 C.ar  1 <1>   0.1170 
  8 C       -0.2650    -4.0320    -0.5080 C.2   1 <1>   0.5690 
  9 C        0.7040    -2.4760     0.7850 C.2   1 <1>   0.5690 
 10 C       -3.7340    -1.3930     1.0880 C.ar  1 <1>  -0.1500 
 11 N       -5.1680     0.2340    -0.0360 N.am  1 <1>  -0.2370 
 12 O       -1.0440    -4.5710    -1.2520 O.2   1 <1>  -0.5700 
 13 C        1.0990    -4.5900    -0.1610 C.3   1 <1>  -0.0190 
 14 O        0.8360    -1.5940     1.5940 O.2   1 <1>  -0.5700 
 15 C        1.8410    -3.3240     0.2570 C.3   1 <1>  -0.0190 
 16 C       -5.2340     1.5750    -0.3400 C.2   1 <1>   0.5690 
 17 C       -6.4400    -0.2340     0.2070 C.2   1 <1>   0.5690 
 18 C        1.9590    -5.3720    -1.1600 C.3   1 <1>  -0.1600 
 19 C        3.0600    -3.7080     1.1020 C.3   1 <1>  -0.1600 
 20 O       -4.3430     2.2710    -0.7570 O.2   1 <1>  -0.5700 
 21 C       -6.6270     2.0920    -0.0500 C.3   1 <1>  -0.0190 
 22 O       -6.7470    -1.3090     0.6540 O.2   1 <1>  -0.5700 
 23 C       -7.4510     0.8190    -0.1960 C.3   1 <1>  -0.0190 
 24 C        3.2750    -5.7660    -0.4540 C.3   1 <1>  -0.1600 
 25 C        3.9940    -4.5770     0.2290 C.3   1 <1>  -0.1600 
 26 C       -7.2840     3.2150    -0.8590 C.3   1 <1>  -0.1600 
 27 C       -8.7940     1.0010     0.5190 C.3   1 <1>  -0.1600 
 28 C       -8.6970     3.4580    -0.2850 C.3   1 <1>  -0.1600 
 29 C       -9.5440     2.1690    -0.1580 C.3   1 <1>  -0.1600 
 30 H       -3.1890     0.1870    -1.8430 H     1 <1>   0.1500 
 31 H       -2.4100    -2.8070     1.9840 H     1 <1>   0.1500 
 32 H       -4.4520    -1.4670     1.8870 H     1 <1>   0.1500 
 33 H        0.9410    -5.2150     0.7020 H     1 <1>   0.0800 
 34 H        2.1940    -2.8100    -0.6210 H     1 <1>   0.0800 
 35 H        2.1650    -4.7700    -2.0280 H     1 <1>   0.0800 
 36 H        1.4340    -6.2550    -1.4830 H     1 <1>   0.0800 
 37 H        2.7540    -4.2530     1.9780 H     1 <1>   0.0800 
 38 H        3.5770    -2.8200     1.4240 H     1 <1>   0.0800 
 39 H       -6.6110     2.3930     0.9840 H     1 <1>   0.0800 
 40 H       -7.6510     0.6380    -1.2380 H     1 <1>   0.0800 
 41 H        3.9400    -6.2240    -1.1670 H     1 <1>   0.0800 
 42 H        3.0550    -6.5070     0.2960 H     1 <1>   0.0800 
 43 H        4.8060    -4.9470     0.8320 H     1 <1>   0.0800 
 44 H        4.4250    -3.9550    -0.5380 H     1 <1>   0.0800 
 45 H       -7.3450     2.9420    -1.8990 H     1 <1>   0.0800 
 46 H       -6.6950     4.1140    -0.7840 H     1 <1>   0.0800 
 47 H       -8.6380     1.2120     1.5630 H     1 <1>   0.0800 
 48 H       -9.3750     0.0970     0.4440 H     1 <1>   0.0800 
 49 H       -9.2180     4.1690    -0.9040 H     1 <1>   0.0800 
 50 H       -8.6000     3.9000     0.6930 H     1 <1>   0.0800 
 51 H      -10.4430     2.3850     0.3940 H     1 <1>   0.0800 
 52 H       -9.8440     1.8600    -1.1450 H     1 <1>   0.0800 
@<TRIPOS>BOND
  1   1   2  1   
  2   2   3  ar  
  3   2   4  ar  
  4   3   5  1   
  5   3   6  ar  
  6   4   7  ar  
  7   4  30  1   
  8   5   8  am  
  9   5   9  am  
 10   6  10  ar  
 11   6  31  1   
 12   7  10  ar  
 13   7  11  1   
 14   8  12  2   
 15   8  13  1   
 16   9  14  2   
 17   9  15  1   
 18  10  32  1   
 19  11  16  am  
 20  11  17  am  
 21  13  15  1   
 22  13  18  1   
 23  13  33  1   
 24  15  19  1   
 25  15  34  1   
 26  16  20  2   
 27  16  21  1   
 28  17  22  2   
 29  17  23  1   
 30  18  24  1   
 31  18  35  1   
 32  18  36  1   
 33  19  25  1   
 34  19  37  1   
 35  19  38  1   
 36  21  23  1   
 37  21  26  1   
 38  21  39  1   
 39  23  27  1   
 40  23  40  1   
 41  24  25  1   
 42  24  41  1   
 43  24  42  1   
 44  25  43  1   
 45  25  44  1   
 46  26  28  1   
 47  26  45  1   
 48  26  46  1   
 49  27  29  1   
 50  27  47  1   
 51  27  48  1   
 52  28  29  1   
 53  28  49  1   
 54  28  50  1   
 55  29  51  1   
 56  29  52  1   
@<TRIPOS>SUBSTRUCTURE
  1 ****   2 GROUP 4 **** **** 0

# MOE 2024.06 (io_trps.svl 2023.06)
