@<TRIPOS>MOLECULE
NONAME
32 32 1 0 0 
SMALL
USER_CHARGES


@<TRIPOS>ATOM
  1 CL       1.1760    -2.1000     4.2320 Cl    1 <1>  -0.1770 
  2 C        2.0580    -2.1500     2.7240 C.ar  1 <1>   0.1770 
  3 C        2.2250    -3.3590     2.0780 C.ar  1 <1>  -0.1500 
  4 C        2.5720    -0.9760     2.2080 C.ar  1 <1>  -0.1500 
  5 C        2.9140    -3.4230     0.8750 C.ar  1 <1>   0.1990 
  6 C        3.2750    -1.0220     1.0160 C.ar  1 <1>  -0.1500 
  7 N        3.0500    -4.6740     0.2570 N.am  1 <1>  -0.6930 
  8 C        3.4470    -2.2310     0.3560 C.ar  1 <1>   0.0830 
  9 S        4.5640    -5.5120     0.2740 S.o2  1 <1>   1.3330 
 10 C        2.0090    -5.1660    -0.7220 C.3   1 <1>   0.1700 
 11 O        4.1610    -2.2370    -0.7960 O.3   1 <1>  -0.3630 
 12 O        5.3850    -4.9180     1.3040 O.2   1 <1>  -0.6500 
 13 O        4.2640    -6.9240     0.3550 O.2   1 <1>  -0.6500 
 14 C        5.3240    -5.2000    -1.3060 C.3   1 <1>  -0.1350 
 15 C        1.9150    -4.3720    -2.0520 C.2   1 <1>   0.9060 
 16 C        0.6580    -5.3120    -0.0010 C.3   1 <1>  -0.2400 
 17 C        3.5620    -1.6050    -1.9080 C.3   1 <1>   0.0400 
 18 O        1.0210    -3.5290    -2.2220 O.co2 1 <1>  -0.9000 
 19 O        2.7400    -4.6120    -2.9460 O.co2 1 <1>  -0.9000 
 20 H        1.8230    -4.2570     2.5050 H     1 <1>   0.1500 
 21 H        2.4280    -0.0490     2.7310 H     1 <1>   0.1500 
 22 H        3.6950    -0.1260     0.5970 H     1 <1>   0.1500 
 23 H        2.2940    -6.1560    -1.0240 H     1 <1>   0.0800 
 24 H        5.4140    -4.1520    -1.4900 H     1 <1>   0.0800 
 25 H        4.7410    -5.6370    -2.0910 H     1 <1>   0.0800 
 26 H        6.3010    -5.6360    -1.3320 H     1 <1>   0.0800 
 27 H        0.2740    -4.3450     0.2660 H     1 <1>   0.0800 
 28 H        0.7660    -5.9250     0.8750 H     1 <1>   0.0800 
 29 H       -0.0480    -5.7750    -0.6650 H     1 <1>   0.0800 
 30 H        3.8210    -2.1620    -2.7910 H     1 <1>   0.0800 
 31 H        3.9310    -0.5990    -1.9770 H     1 <1>   0.0800 
 32 H        2.4910    -1.6040    -1.7940 H     1 <1>   0.0800 
@<TRIPOS>BOND
  1   1   2  1   
  2   2   3  ar  
  3   2   4  ar  
  4   3   5  ar  
  5   3  20  1   
  6   4   6  ar  
  7   4  21  1   
  8   5   7  1   
  9   5   8  ar  
 10   6   8  ar  
 11   6  22  1   
 12   7   9  am  
 13   7  10  1   
 14   8  11  1   
 15   9  12  2   
 16   9  13  2   
 17   9  14  1   
 18  10  15  1   
 19  10  16  1   
 20  10  23  1   
 21  11  17  1   
 22  14  24  1   
 23  14  25  1   
 24  14  26  1   
 25  15  18  ar  
 26  15  19  ar  
 27  16  27  1   
 28  16  28  1   
 29  16  29  1   
 30  17  30  1   
 31  17  31  1   
 32  17  32  1   
@<TRIPOS>SUBSTRUCTURE
  1 ****   5 GROUP 4 **** **** 0

# MOE 2024.06 (io_trps.svl 2023.06)
