@<TRIPOS>MOLECULE
NONAME
37 38 1 0 0 
SMALL
USER_CHARGES


@<TRIPOS>ATOM
  1 BR      -0.7630     2.0160    -0.5140 Br    1 <1>  -0.1110 
  2 C        0.8200     2.7660     0.2810 C.ar  1 <1>   0.1110 
  3 C        2.0170     2.0930     0.1360 C.ar  1 <1>  -0.1500 
  4 C        0.7190     3.9550     0.9730 C.ar  1 <1>  -0.1500 
  5 C        3.1740     2.6180     0.7010 C.ar  1 <1>  -0.0090 
  6 C        1.8640     4.4840     1.5390 C.ar  1 <1>  -0.1500 
  7 S        4.7620     1.7680     0.5110 S.o2  1 <1>   1.4470 
  8 C        3.0740     3.8190     1.4010 C.ar  1 <1>  -0.1500 
  9 O        4.6370     0.3460     0.7430 O.2   1 <1>  -0.6500 
 10 O        5.8390     2.4740     1.1620 O.2   1 <1>  -0.6500 
 11 N        5.1040     1.9140    -1.1310 N.am  1 <1>  -0.9140 
 12 C        6.5100     1.7130    -1.5370 C.3   1 <1>   0.1960 
 13 C        6.9550     0.2330    -1.6750 C.3   1 <1>   0.3430 
 14 N        6.9380    -0.5490    -0.3990 N.4   1 <1>  -0.9590 
 15 C        7.8930    -0.0400     0.6480 C.3   1 <1>   0.3430 
 16 C        7.1260    -2.0200    -0.6200 C.3   1 <1>   0.3430 
 17 C        7.8270    -0.9020     1.9220 C.3   1 <1>   0.1200 
 18 C        7.1010    -2.7880     0.7160 C.3   1 <1>   0.1200 
 19 O        8.0390    -2.2490     1.6030 O.3   1 <1>  -0.5600 
 20 H        2.0410     1.1670    -0.4120 H     1 <1>   0.1500 
 21 H       -0.2320     4.4520     1.0670 H     1 <1>   0.1500 
 22 H        1.8150     5.4100     2.0870 H     1 <1>   0.1500 
 23 H        3.9550     4.2470     1.8530 H     1 <1>   0.1500 
 24 H        4.9020     2.8970    -1.3280 H     1 <1>   0.4200 
 25 H        7.1790     2.2430    -0.8800 H     1 <1>   0.0800 
 26 H        6.6270     2.1580    -2.5110 H     1 <1>   0.0800 
 27 H        7.9510     0.2120    -2.0850 H     1 <1>   0.0800 
 28 H        6.3020    -0.2410    -2.3900 H     1 <1>   0.0800 
 29 H        5.9850    -0.4440     0.0070 H     1 <1>   0.4500 
 30 H        7.6570     0.9790     0.9060 H     1 <1>   0.0800 
 31 H        8.9020    -0.0650     0.2710 H     1 <1>   0.0800 
 32 H        8.0730    -2.2020    -1.1010 H     1 <1>   0.0800 
 33 H        6.3460    -2.3990    -1.2600 H     1 <1>   0.0800 
 34 H        6.8710    -0.8030     2.4060 H     1 <1>   0.0800 
 35 H        8.5960    -0.6040     2.6140 H     1 <1>   0.0800 
 36 H        7.3590    -3.8210     0.5560 H     1 <1>   0.0800 
 37 H        6.1260    -2.7430     1.1710 H     1 <1>   0.0800 
@<TRIPOS>BOND
  1   1   2  1   
  2   2   3  ar  
  3   2   4  ar  
  4   3   5  ar  
  5   3  20  1   
  6   4   6  ar  
  7   4  21  1   
  8   5   7  1   
  9   5   8  ar  
 10   6   8  ar  
 11   6  22  1   
 12   7   9  2   
 13   7  10  2   
 14   7  11  am  
 15   8  23  1   
 16  11  12  1   
 17  11  24  1   
 18  12  13  1   
 19  12  25  1   
 20  12  26  1   
 21  13  14  1   
 22  13  27  1   
 23  13  28  1   
 24  14  15  1   
 25  14  16  1   
 26  14  29  1   
 27  15  17  1   
 28  15  30  1   
 29  15  31  1   
 30  16  18  1   
 31  16  32  1   
 32  16  33  1   
 33  17  19  1   
 34  17  34  1   
 35  17  35  1   
 36  18  19  1   
 37  18  36  1   
 38  18  37  1   
@<TRIPOS>SUBSTRUCTURE
  1 ****   7 GROUP 4 **** **** 0

# MOE 2024.06 (io_trps.svl 2023.06)
