@<TRIPOS>MOLECULE
NONAME
51 53 1 0 0 
SMALL
USER_CHARGES


@<TRIPOS>ATOM
  1 S       -0.3960    -0.9570     1.0390 S.o2  1 <1>   1.4470 
  2 O        0.2830    -1.2980     2.2700 O.2   1 <1>  -0.6500 
  3 O       -1.4320     0.0550     1.0770 O.2   1 <1>  -0.6500 
  4 N        0.7750    -0.3870    -0.0400 N.am  1 <1>  -0.8490 
  5 C       -1.0440    -2.4620     0.2390 C.ar  1 <1>  -0.0090 
  6 C        0.2250     0.2080    -1.2620 C.3   1 <1>   0.1960 
  7 C        1.7330     0.5280     0.6060 C.3   1 <1>   0.1960 
  8 C       -0.2550    -3.5740    -0.0660 C.ar  1 <1>  -0.1440 
  9 C       -2.3920    -2.5110    -0.1000 C.ar  1 <1>  -0.1500 
 10 C        1.3450     0.5710    -2.2640 C.3   1 <1>   0.1200 
 11 C        2.4870     1.4430    -0.3860 C.3   1 <1>   0.1200 
 12 C       -0.8200    -4.6740    -0.6920 C.ar  1 <1>  -0.1500 
 13 C        1.2330    -3.6230     0.2670 C.3   1 <1>  -0.0960 
 14 C       -2.9870    -3.6100    -0.7170 C.ar  1 <1>   0.0860 
 15 O        2.5770     0.8570    -1.6520 O.3   1 <1>  -0.5600 
 16 C       -2.1620    -4.6900    -1.0130 C.ar  1 <1>  -0.1500 
 17 C       -4.4010    -3.6370    -1.0430 C.2   1 <1>   0.5440 
 18 O       -4.7880    -4.2350    -2.0270 O.2   1 <1>  -0.5700 
 19 N       -5.2910    -2.9780    -0.2260 N.am  1 <1>  -0.5470 
 20 C       -6.6790    -2.7810    -0.2960 C.ar  1 <1>   0.1170 
 21 C       -7.2470    -1.6630     0.3270 C.ar  1 <1>  -0.1440 
 22 C       -7.5190    -3.6830    -0.9430 C.ar  1 <1>  -0.1500 
 23 C       -8.6210    -1.4790     0.2910 C.ar  1 <1>  -0.1500 
 24 C       -6.3950    -0.6190     1.0460 C.3   1 <1>  -0.0170 
 25 C       -8.8860    -3.4890    -0.9780 C.ar  1 <1>  -0.1500 
 26 C       -9.4400    -2.3850    -0.3580 C.ar  1 <1>  -0.1500 
 27 C       -6.0600    -1.0660     2.4730 C.3   1 <1>  -0.2400 
 28 H       -0.3270     1.1000    -1.0130 H     1 <1>   0.0800 
 29 H       -0.4590    -0.4760    -1.7350 H     1 <1>   0.0800 
 30 H        2.4500    -0.0600     1.1540 H     1 <1>   0.0800 
 31 H        1.2240     1.1540     1.3200 H     1 <1>   0.0800 
 32 H       -3.0020    -1.6520     0.1170 H     1 <1>   0.1500 
 33 H        1.0550     1.4240    -2.8510 H     1 <1>   0.0800 
 34 H        1.5130    -0.2550    -2.9320 H     1 <1>   0.0800 
 35 H        3.4850     1.6330    -0.0330 H     1 <1>   0.0800 
 36 H        1.9780     2.3860    -0.4880 H     1 <1>   0.0800 
 37 H       -0.2150    -5.5320    -0.9350 H     1 <1>   0.1500 
 38 H        1.7670    -2.8730    -0.2900 H     1 <1>   0.0800 
 39 H        1.6550    -4.5800     0.0200 H     1 <1>   0.0800 
 40 H        1.3910    -3.4560     1.3170 H     1 <1>   0.0800 
 41 H       -2.5850    -5.5510    -1.5030 H     1 <1>   0.1500 
 42 H       -4.8690    -2.5160     0.5750 H     1 <1>   0.3700 
 43 H       -7.1050    -4.5510    -1.4220 H     1 <1>   0.1500 
 44 H       -9.0670    -0.6250     0.7690 H     1 <1>   0.1500 
 45 H       -6.9300     0.3140     1.0900 H     1 <1>   0.0800 
 46 H       -5.4910    -0.4300     0.4940 H     1 <1>   0.0800 
 47 H       -9.5170    -4.1970    -1.4860 H     1 <1>   0.1500 
 48 H      -10.5050    -2.2310    -0.3820 H     1 <1>   0.1500 
 49 H       -6.9670    -1.2020     3.0360 H     1 <1>   0.0800 
 50 H       -5.4610    -0.3190     2.9630 H     1 <1>   0.0800 
 51 H       -5.5210    -1.9950     2.4690 H     1 <1>   0.0800 
@<TRIPOS>BOND
  1   1   2  2   
  2   1   3  2   
  3   1   4  am  
  4   1   5  1   
  5   4   6  1   
  6   4   7  1   
  7   5   8  ar  
  8   5   9  ar  
  9   6  10  1   
 10   6  28  1   
 11   6  29  1   
 12   7  11  1   
 13   7  30  1   
 14   7  31  1   
 15   8  12  ar  
 16   8  13  1   
 17   9  14  ar  
 18   9  32  1   
 19  10  15  1   
 20  10  33  1   
 21  10  34  1   
 22  11  15  1   
 23  11  35  1   
 24  11  36  1   
 25  12  16  ar  
 26  12  37  1   
 27  13  38  1   
 28  13  39  1   
 29  13  40  1   
 30  14  16  ar  
 31  14  17  1   
 32  16  41  1   
 33  17  18  2   
 34  17  19  am  
 35  19  20  1   
 36  19  42  1   
 37  20  21  ar  
 38  20  22  ar  
 39  21  23  ar  
 40  21  24  1   
 41  22  25  ar  
 42  22  43  1   
 43  23  26  ar  
 44  23  44  1   
 45  24  27  1   
 46  24  45  1   
 47  24  46  1   
 48  25  26  ar  
 49  25  47  1   
 50  26  48  1   
 51  27  49  1   
 52  27  50  1   
 53  27  51  1   
@<TRIPOS>SUBSTRUCTURE
  1 ****   9 GROUP 4 **** **** 0

# MOE 2024.06 (io_trps.svl 2023.06)
