@<TRIPOS>MOLECULE
NONAME
35 35 1 0 0 
SMALL
USER_CHARGES


@<TRIPOS>ATOM
  1 S       -0.1130     0.2240    -0.8290 S.3   1 <1>  -0.3320 
  2 C       -1.4810    -0.8300    -0.3120 C.ar  1 <1>   0.1020 
  3 C        1.4200    -0.7980    -0.6930 C.3   1 <1>   0.0700 
  4 C       -2.7400    -0.2580    -0.2930 C.ar  1 <1>  -0.1500 
  5 C       -1.2960    -2.1550     0.0530 C.ar  1 <1>  -0.1500 
  6 C        2.6030     0.0670    -1.1260 C.3   1 <1>  -0.0990 
  7 C       -3.8310    -1.0170     0.0970 C.ar  1 <1>  -0.1500 
  8 C       -2.3910    -2.9090     0.4420 C.ar  1 <1>  -0.1500 
  9 C        3.9020    -0.6830    -0.9410 C.2   1 <1>   0.5690 
 10 C       -3.6550    -2.3410     0.4640 C.ar  1 <1>  -0.1500 
 11 O        4.0180    -1.7650    -1.4640 O.2   1 <1>  -0.5700 
 12 N        4.8740    -0.1040    -0.1880 N.am  1 <1>  -0.7300 
 13 C        6.2060    -0.6170     0.1450 C.3   1 <1>   0.3000 
 14 C        7.0190    -0.8170    -1.1340 C.3   1 <1>  -0.2400 
 15 C        6.0750    -1.9210     0.9330 C.3   1 <1>  -0.2400 
 16 C        6.8750     0.4440     1.0170 C.3   1 <1>  -0.2400 
 17 H        1.3040    -1.6520    -1.3380 H     1 <1>   0.0800 
 18 H        1.5120    -1.1080     0.3320 H     1 <1>   0.0800 
 19 H       -2.8620     0.7710    -0.5800 H     1 <1>   0.1500 
 20 H       -0.3260    -2.6100     0.0390 H     1 <1>   0.1500 
 21 H        2.6160     0.9720    -0.5490 H     1 <1>   0.0800 
 22 H        2.5000     0.3210    -2.1650 H     1 <1>   0.0800 
 23 H       -4.8130    -0.5770     0.1150 H     1 <1>   0.1500 
 24 H       -2.2610    -3.9390     0.7270 H     1 <1>   0.1500 
 25 H       -4.5030    -2.9300     0.7670 H     1 <1>   0.1500 
 26 H        4.6940     0.8160     0.2090 H     1 <1>   0.3700 
 27 H        6.5800    -1.5840    -1.7460 H     1 <1>   0.0800 
 28 H        8.0210    -1.1200    -0.8930 H     1 <1>   0.0800 
 29 H        7.0640     0.0970    -1.6990 H     1 <1>   0.0800 
 30 H        7.0440    -2.2620     1.2470 H     1 <1>   0.0800 
 31 H        5.6360    -2.6900     0.3240 H     1 <1>   0.0800 
 32 H        5.4640    -1.7750     1.8050 H     1 <1>   0.0800 
 33 H        7.8620     0.1210     1.2960 H     1 <1>   0.0800 
 34 H        6.3100     0.6060     1.9180 H     1 <1>   0.0800 
 35 H        6.9660     1.3720     0.4820 H     1 <1>   0.0800 
@<TRIPOS>BOND
  1   1   2  1   
  2   1   3  1   
  3   2   4  ar  
  4   2   5  ar  
  5   3   6  1   
  6   3  17  1   
  7   3  18  1   
  8   4   7  ar  
  9   4  19  1   
 10   5   8  ar  
 11   5  20  1   
 12   6   9  1   
 13   6  21  1   
 14   6  22  1   
 15   7  10  ar  
 16   7  23  1   
 17   8  10  ar  
 18   8  24  1   
 19   9  11  2   
 20   9  12  am  
 21  10  25  1   
 22  12  13  1   
 23  12  26  1   
 24  13  14  1   
 25  13  15  1   
 26  13  16  1   
 27  14  27  1   
 28  14  28  1   
 29  14  29  1   
 30  15  30  1   
 31  15  31  1   
 32  15  32  1   
 33  16  33  1   
 34  16  34  1   
 35  16  35  1   
@<TRIPOS>SUBSTRUCTURE
  1 ****   3 GROUP 4 **** **** 0

# MOE 2024.06 (io_trps.svl 2023.06)
