@<TRIPOS>MOLECULE
NONAME
49 51 1 0 0 
SMALL
USER_CHARGES


@<TRIPOS>ATOM
  1 S       -0.3700     0.2410     0.3040 S.o2  1 <1>   1.5760 
  2 O       -0.7540     0.0730     1.6870 O.2   1 <1>  -0.6500 
  3 O       -0.1630    -0.9110    -0.5450 O.2   1 <1>  -0.6500 
  4 N       -1.5130     1.2420    -0.4280 N.am  1 <1>  -0.8490 
  5 N        0.9940     1.2280     0.2150 N.am  1 <1>  -0.8490 
  6 C       -1.7900     2.4340     0.3940 C.3   1 <1>   0.1960 
  7 C       -2.7560     0.5010    -0.6820 C.3   1 <1>   0.1960 
  8 C        1.4730     1.3600    -1.1640 C.3   1 <1>   0.1960 
  9 C        2.0530     0.7280     1.0930 C.3   1 <1>   0.1960 
 10 C       -2.8030     3.3680    -0.2880 C.3   1 <1>   0.1400 
 11 C       -3.8060     1.3750    -1.3920 C.3   1 <1>   0.1400 
 12 C        2.6240     2.3690    -1.2290 C.3   1 <1>  -0.1600 
 13 C        3.2330     1.7070     1.1110 C.3   1 <1>  -0.1600 
 14 N       -4.0640     2.6330    -0.6230 N.am  1 <1>  -0.6600 
 15 C        3.7740     1.9610    -0.3010 C.3   1 <1>  -0.1600 
 16 C       -5.2880     3.0790    -0.1800 C.2   1 <1>   0.5690 
 17 O       -5.3730     4.0770     0.4960 O.2   1 <1>  -0.5700 
 18 C       -6.5570     2.3040    -0.5330 C.3   1 <1>   0.0440 
 19 C       -7.8680     2.9170    -0.0450 C.ar  1 <1>  -0.1440 
 20 C       -8.7450     3.5180    -0.9360 C.ar  1 <1>  -0.1500 
 21 C       -8.2010     2.8650     1.3010 C.ar  1 <1>  -0.1500 
 22 C       -9.9400     4.0540    -0.4890 C.ar  1 <1>  -0.1500 
 23 C       -9.3960     3.4000     1.7490 C.ar  1 <1>  -0.1500 
 24 C      -10.2670     3.9940     0.8540 C.ar  1 <1>  -0.1500 
 25 H       -0.8780     2.9810     0.5590 H     1 <1>   0.0800 
 26 H       -2.1780     2.1440     1.3570 H     1 <1>   0.0800 
 27 H       -3.1630     0.1390     0.2480 H     1 <1>   0.0800 
 28 H       -2.5420    -0.3520    -1.3040 H     1 <1>   0.0800 
 29 H        0.6700     1.7030    -1.7960 H     1 <1>   0.0800 
 30 H        1.8040     0.4030    -1.5330 H     1 <1>   0.0800 
 31 H        2.3810    -0.2420     0.7550 H     1 <1>   0.0800 
 32 H        1.6750     0.6250     2.0970 H     1 <1>   0.0800 
 33 H       -2.3710     3.7580    -1.1920 H     1 <1>   0.0800 
 34 H       -3.0050     4.1990     0.3650 H     1 <1>   0.0800 
 35 H       -4.7050     0.8020    -1.5190 H     1 <1>   0.0800 
 36 H       -3.4380     1.6330    -2.3700 H     1 <1>   0.0800 
 37 H        2.2510     3.3370    -0.9460 H     1 <1>   0.0800 
 38 H        2.9810     2.4370    -2.2410 H     1 <1>   0.0800 
 39 H        4.0150     1.3100     1.7330 H     1 <1>   0.0800 
 40 H        2.9030     2.6340     1.5470 H     1 <1>   0.0800 
 41 H        4.5210     2.7360    -0.2760 H     1 <1>   0.0800 
 42 H        4.2330     1.0620    -0.6750 H     1 <1>   0.0800 
 43 H       -6.4750     1.3210    -0.1110 H     1 <1>   0.0800 
 44 H       -6.5980     2.2020    -1.6000 H     1 <1>   0.0800 
 45 H       -8.5030     3.5770    -1.9820 H     1 <1>   0.1500 
 46 H       -7.5240     2.4140     2.0060 H     1 <1>   0.1500 
 47 H      -10.6150     4.5200    -1.1850 H     1 <1>   0.1500 
 48 H       -9.6440     3.3580     2.7950 H     1 <1>   0.1500 
 49 H      -11.1950     4.4120     1.2030 H     1 <1>   0.1500 
@<TRIPOS>BOND
  1   1   2  2   
  2   1   3  2   
  3   1   4  am  
  4   1   5  am  
  5   4   6  1   
  6   4   7  1   
  7   5   8  1   
  8   5   9  1   
  9   6  10  1   
 10   6  25  1   
 11   6  26  1   
 12   7  11  1   
 13   7  27  1   
 14   7  28  1   
 15   8  12  1   
 16   8  29  1   
 17   8  30  1   
 18   9  13  1   
 19   9  31  1   
 20   9  32  1   
 21  10  14  1   
 22  10  33  1   
 23  10  34  1   
 24  11  14  1   
 25  11  35  1   
 26  11  36  1   
 27  12  15  1   
 28  12  37  1   
 29  12  38  1   
 30  13  15  1   
 31  13  39  1   
 32  13  40  1   
 33  14  16  am  
 34  15  41  1   
 35  15  42  1   
 36  16  17  2   
 37  16  18  1   
 38  18  19  1   
 39  18  43  1   
 40  18  44  1   
 41  19  20  ar  
 42  19  21  ar  
 43  20  22  ar  
 44  20  45  1   
 45  21  23  ar  
 46  21  46  1   
 47  22  24  ar  
 48  22  47  1   
 49  23  24  ar  
 50  23  48  1   
 51  24  49  1   
@<TRIPOS>SUBSTRUCTURE
  1 ****  14 GROUP 4 **** **** 0

# MOE 2024.06 (io_trps.svl 2023.06)
