@<TRIPOS>MOLECULE
NONAME
40 41 1 0 0 
SMALL
USER_CHARGES


@<TRIPOS>ATOM
  1 F       -1.7050     1.0370     1.1660 F     1 <1>  -0.1900 
  2 C       -1.0070     2.0150     0.6480 C.ar  1 <1>   0.1900 
  3 C       -1.5180     2.6790    -0.4600 C.ar  1 <1>  -0.1440 
  4 C        0.2000     2.3460     1.2400 C.ar  1 <1>  -0.1500 
  5 C       -0.7750     3.7250    -0.9940 C.ar  1 <1>  -0.1500 
  6 C       -2.8440     2.2580    -1.0640 C.3   1 <1>   0.4870 
  7 C        0.9350     3.3920     0.7050 C.ar  1 <1>  -0.1500 
  8 C        0.4310     4.0580    -0.3990 C.ar  1 <1>   0.1900 
  9 N       -3.9330     2.4910    -0.0580 N.4   1 <1>  -0.9590 
 10 F        1.1190     5.0450    -0.9040 F     1 <1>  -0.1900 
 11 C       -5.1950     1.7230    -0.3290 C.3   1 <1>   0.4230 
 12 C       -4.1250     3.9770     0.1020 C.3   1 <1>   0.2630 
 13 C       -6.2640     2.0570     0.7260 C.3   1 <1>  -0.1600 
 14 C       -4.9120     0.2110    -0.3100 C.3   1 <1>  -0.1600 
 15 C       -7.5210     1.2000     0.5680 C.3   1 <1>   0.3430 
 16 C       -6.1890    -0.6200    -0.4490 C.3   1 <1>   0.3430 
 17 N       -7.1610    -0.2430     0.6120 N.4   1 <1>  -0.9590 
 18 C       -8.3970    -1.0890     0.5070 C.3   1 <1>   0.2630 
 19 H        0.5580     1.8010     2.0970 H     1 <1>   0.1500 
 20 H       -1.0990     4.2830    -1.8560 H     1 <1>   0.1500 
 21 H       -2.7730     1.2150    -1.3190 H     1 <1>   0.0800 
 22 H       -3.0380     2.8170    -1.9650 H     1 <1>   0.0800 
 23 H        1.8790     3.6880     1.1300 H     1 <1>   0.1500 
 24 H       -3.5330     2.1410     0.8280 H     1 <1>   0.4500 
 25 H       -5.5750     1.9970    -1.3020 H     1 <1>   0.0800 
 26 H       -4.5520     4.4030    -0.7910 H     1 <1>   0.0800 
 27 H       -3.1790     4.4600     0.2920 H     1 <1>   0.0800 
 28 H       -4.7750     4.1910     0.9340 H     1 <1>   0.0800 
 29 H       -6.5740     3.0820     0.6290 H     1 <1>   0.0800 
 30 H       -5.8710     1.9160     1.7180 H     1 <1>   0.0800 
 31 H       -4.4170    -0.0680     0.6040 H     1 <1>   0.0800 
 32 H       -4.2770    -0.0630    -1.1320 H     1 <1>   0.0800 
 33 H       -8.0040     1.4270    -0.3700 H     1 <1>   0.0800 
 34 H       -8.2150     1.4290     1.3630 H     1 <1>   0.0800 
 35 H       -5.9460    -1.6690    -0.3670 H     1 <1>   0.0800 
 36 H       -6.6280    -0.4560    -1.4210 H     1 <1>   0.0800 
 37 H       -6.7400    -0.4500     1.5330 H     1 <1>   0.4500 
 38 H       -8.8910    -0.9240    -0.4360 H     1 <1>   0.0800 
 39 H       -9.0860    -0.8490     1.3020 H     1 <1>   0.0800 
 40 H       -8.1440    -2.1350     0.5830 H     1 <1>   0.0800 
@<TRIPOS>BOND
  1   1   2  1   
  2   2   3  ar  
  3   2   4  ar  
  4   3   5  ar  
  5   3   6  1   
  6   4   7  ar  
  7   4  19  1   
  8   5   8  ar  
  9   5  20  1   
 10   6   9  1   
 11   6  21  1   
 12   6  22  1   
 13   7   8  ar  
 14   7  23  1   
 15   8  10  1   
 16   9  11  1   
 17   9  12  1   
 18   9  24  1   
 19  11  13  1   
 20  11  14  1   
 21  11  25  1   
 22  12  26  1   
 23  12  27  1   
 24  12  28  1   
 25  13  15  1   
 26  13  29  1   
 27  13  30  1   
 28  14  16  1   
 29  14  31  1   
 30  14  32  1   
 31  15  17  1   
 32  15  33  1   
 33  15  34  1   
 34  16  17  1   
 35  16  35  1   
 36  16  36  1   
 37  17  18  1   
 38  17  37  1   
 39  18  38  1   
 40  18  39  1   
 41  18  40  1   
@<TRIPOS>SUBSTRUCTURE
  1 ****   9 GROUP 4 **** **** 0

# MOE 2024.06 (io_trps.svl 2023.06)
