@<TRIPOS>MOLECULE
NONAME
41 43 1 0 0 
SMALL
USER_CHARGES


@<TRIPOS>ATOM
  1 CL       0.7110    -1.7150     0.7170 Cl    1 <1>  -0.1770 
  2 C       -0.5060    -2.4330    -0.3120 C.ar  1 <1>   0.1770 
  3 C       -1.7160    -2.8560     0.2310 C.ar  1 <1>   0.0830 
  4 C       -0.2370    -2.5650    -1.6570 C.ar  1 <1>  -0.1500 
  5 O       -1.9390    -2.7120     1.5560 O.3   1 <1>  -0.1590 
  6 C       -2.6960    -3.4300    -0.5910 C.ar  1 <1>   0.0860 
  7 C       -1.2040    -3.1360    -2.4650 C.ar  1 <1>   0.1770 
  8 C       -3.0700    -3.1310     2.1250 C.2   1 <1>  -0.0730 
  9 C       -3.9460    -3.8490    -0.0050 C.2   1 <1>   0.4690 
 10 C       -2.4120    -3.5640    -1.9540 C.ar  1 <1>  -0.1500 
 11 CL      -0.8860    -3.3140    -4.1700 Cl    1 <1>  -0.1770 
 12 C       -4.0730    -3.6920     1.4140 C.2   1 <1>  -0.1240 
 13 O       -4.8480    -4.2860    -0.7050 O.2   1 <1>  -0.5700 
 14 C       -5.3420    -4.1710     2.1070 C.3   1 <1>   0.2480 
 15 N       -6.5140    -3.4890     1.5470 N.3   1 <1>  -0.8100 
 16 C       -7.7950    -4.2270     1.5220 C.3   1 <1>   0.1100 
 17 C       -6.6170    -2.0350     1.6700 C.3   1 <1>   0.1100 
 18 C       -8.2980    -4.4070     0.0720 C.3   1 <1>   0.3430 
 19 C       -6.7910    -1.4230     0.2740 C.3   1 <1>  -0.1600 
 20 N       -7.6150    -3.4640    -0.8660 N.4   1 <1>  -0.9590 
 21 C       -7.9120    -2.0360    -0.5750 C.3   1 <1>   0.3430 
 22 C       -7.7840    -3.8360    -2.2950 C.3   1 <1>   0.2630 
 23 H        0.6990    -2.2360    -2.0710 H     1 <1>   0.1500 
 24 H       -3.0930    -2.9780     3.1910 H     1 <1>   0.1500 
 25 H       -3.1370    -4.0060    -2.6150 H     1 <1>   0.1500 
 26 H       -5.2930    -3.9900     3.1680 H     1 <1>   0.0800 
 27 H       -5.4310    -5.2330     1.9500 H     1 <1>   0.0800 
 28 H       -8.5350    -3.6970     2.0960 H     1 <1>   0.0800 
 29 H       -7.6810    -5.1980     1.9720 H     1 <1>   0.0800 
 30 H       -5.7250    -1.6340     2.1230 H     1 <1>   0.0800 
 31 H       -7.4490    -1.7750     2.3040 H     1 <1>   0.0800 
 32 H       -9.3670    -4.2760     0.0330 H     1 <1>   0.0800 
 33 H       -8.0790    -5.4170    -0.2300 H     1 <1>   0.0800 
 34 H       -5.8620    -1.4950    -0.2630 H     1 <1>   0.0800 
 35 H       -6.9960    -0.3750     0.3960 H     1 <1>   0.0800 
 36 H       -6.6060    -3.5930    -0.6060 H     1 <1>   0.4500 
 37 H       -7.9820    -1.4870    -1.5000 H     1 <1>   0.0800 
 38 H       -8.8550    -1.9490    -0.0610 H     1 <1>   0.0800 
 39 H       -8.8180    -3.7500    -2.5860 H     1 <1>   0.0800 
 40 H       -7.4590    -4.8520    -2.4520 H     1 <1>   0.0800 
 41 H       -7.1890    -3.1900    -2.9180 H     1 <1>   0.0800 
@<TRIPOS>BOND
  1   1   2  1   
  2   2   3  ar  
  3   2   4  ar  
  4   3   5  1   
  5   3   6  ar  
  6   4   7  ar  
  7   4  23  1   
  8   5   8  1   
  9   6   9  1   
 10   6  10  ar  
 11   7  10  ar  
 12   7  11  1   
 13   8  12  2   
 14   8  24  1   
 15   9  12  1   
 16   9  13  2   
 17  10  25  1   
 18  12  14  1   
 19  14  15  1   
 20  14  26  1   
 21  14  27  1   
 22  15  16  1   
 23  15  17  1   
 24  16  18  1   
 25  16  28  1   
 26  16  29  1   
 27  17  19  1   
 28  17  30  1   
 29  17  31  1   
 30  18  20  1   
 31  18  32  1   
 32  18  33  1   
 33  19  21  1   
 34  19  34  1   
 35  19  35  1   
 36  20  21  1   
 37  20  22  1   
 38  20  36  1   
 39  21  37  1   
 40  21  38  1   
 41  22  39  1   
 42  22  40  1   
 43  22  41  1   
@<TRIPOS>SUBSTRUCTURE
  1 ****   9 GROUP 4 **** **** 0

# MOE 2024.06 (io_trps.svl 2023.06)
