@<TRIPOS>MOLECULE
NONAME
32 33 1 0 0 
SMALL
USER_CHARGES


@<TRIPOS>ATOM
  1 CL      -1.9080     0.6850     3.1380 Cl    1 <1>  -0.1770 
  2 C       -2.4510     1.2320     1.5740 C.ar  1 <1>   0.1770 
  3 C       -3.6040     0.6890     1.0380 C.ar  1 <1>  -0.1500 
  4 C       -1.7280     2.1960     0.9000 C.ar  1 <1>  -0.1500 
  5 C       -4.0530     1.1250    -0.2020 C.ar  1 <1>  -0.1440 
  6 C       -2.1690     2.6250    -0.3400 C.ar  1 <1>  -0.1500 
  7 C       -3.3250     2.0900    -0.8880 C.ar  1 <1>  -0.1500 
  8 C       -5.3280     0.5580    -0.7990 C.3   1 <1>   0.4870 
  9 N       -6.4910     1.1220    -0.0600 N.4   1 <1>  -0.9590 
 10 C       -7.7800     0.4520    -0.4570 C.3   1 <1>   0.3430 
 11 C       -6.5690     2.6230    -0.2180 C.3   1 <1>   0.3430 
 12 C       -9.0010     1.0340     0.2880 C.3   1 <1>   0.1400 
 13 C       -7.7640     3.2210     0.5440 C.3   1 <1>   0.1400 
 14 N       -9.0290     2.5170     0.1730 N.am  1 <1>  -0.6600 
 15 C      -10.1090     3.2000    -0.3160 C.2   1 <1>   0.5700 
 16 O      -10.0810     4.3840    -0.5420 O.2   1 <1>  -0.5700 
 17 H       -4.1220    -0.0670     1.6010 H     1 <1>   0.1500 
 18 H       -0.8330     2.6010     1.3410 H     1 <1>   0.1500 
 19 H       -1.6080     3.3720    -0.8770 H     1 <1>   0.1500 
 20 H       -3.6410     2.4380    -1.8580 H     1 <1>   0.1500 
 21 H       -5.3130    -0.5160    -0.7080 H     1 <1>   0.0800 
 22 H       -5.3900     0.8120    -1.8450 H     1 <1>   0.0800 
 23 H       -6.3220     0.9420     0.9380 H     1 <1>   0.4500 
 24 H       -7.7210    -0.6060    -0.2600 H     1 <1>   0.0800 
 25 H       -7.9400     0.5810    -1.5160 H     1 <1>   0.0800 
 26 H       -6.6730     2.8750    -1.2610 H     1 <1>   0.0800 
 27 H       -5.6620     3.0810     0.1430 H     1 <1>   0.0800 
 28 H       -8.9590     0.7590     1.3280 H     1 <1>   0.0800 
 29 H       -9.9050     0.6170    -0.1250 H     1 <1>   0.0800 
 30 H       -7.8350     4.2710     0.3160 H     1 <1>   0.0800 
 31 H       -7.6040     3.1320     1.6050 H     1 <1>   0.0800 
 32 H      -11.0160     2.6580    -0.5230 H     1 <1>   0.0600 
@<TRIPOS>BOND
  1   1   2  1   
  2   2   3  ar  
  3   2   4  ar  
  4   3   5  ar  
  5   3  17  1   
  6   4   6  ar  
  7   4  18  1   
  8   5   7  ar  
  9   5   8  1   
 10   6   7  ar  
 11   6  19  1   
 12   7  20  1   
 13   8   9  1   
 14   8  21  1   
 15   8  22  1   
 16   9  10  1   
 17   9  11  1   
 18   9  23  1   
 19  10  12  1   
 20  10  24  1   
 21  10  25  1   
 22  11  13  1   
 23  11  26  1   
 24  11  27  1   
 25  12  14  1   
 26  12  28  1   
 27  12  29  1   
 28  13  14  1   
 29  13  30  1   
 30  13  31  1   
 31  14  15  am  
 32  15  16  2   
 33  15  32  1   
@<TRIPOS>SUBSTRUCTURE
  1 ****   9 GROUP 4 **** **** 0

# MOE 2024.06 (io_trps.svl 2023.06)
