@<TRIPOS>MOLECULE
NONAME
60 62 1 0 0 
SMALL
USER_CHARGES


@<TRIPOS>ATOM
  1 S       -1.5110     0.6870     0.6190 S.o2  1 <1>   1.3330 
  2 O       -2.1680     1.5530    -0.3320 O.2   1 <1>  -0.6500 
  3 O       -0.3750     1.1620     1.3700 O.2   1 <1>  -0.6500 
  4 N       -1.0080    -0.7330    -0.2360 N.am  1 <1>  -0.6930 
  5 C       -2.7120     0.0670     1.7810 C.3   1 <1>  -0.1350 
  6 C        0.1980    -1.3650     0.0330 C.ar  1 <1>   0.1990 
  7 C       -1.7770    -1.0730    -1.4540 C.3   1 <1>   0.3390 
  8 C        1.1800    -1.4920    -0.9450 C.ar  1 <1>  -0.1500 
  9 C        0.4630    -1.8990     1.2900 C.ar  1 <1>  -0.1500 
 10 C       -3.1900    -1.5290    -1.1010 C.ar  1 <1>  -0.1430 
 11 C        2.3730    -2.1350    -0.6800 C.ar  1 <1>  -0.1500 
 12 C        1.6550    -2.5430     1.5530 C.ar  1 <1>  -0.1500 
 13 C       -3.4600    -2.7790    -0.5450 C.ar  1 <1>  -0.1430 
 14 C       -4.2410    -0.6540    -1.3470 C.ar  1 <1>  -0.1500 
 15 C        2.6460    -2.6770     0.5790 C.ar  1 <1>   0.0860 
 16 C       -4.7680    -3.1210    -0.2390 C.ar  1 <1>  -0.1500 
 17 C       -2.3620    -3.7940    -0.2550 C.3   1 <1>  -0.0970 
 18 C       -5.5420    -1.0050    -1.0400 C.ar  1 <1>  -0.1500 
 19 C        3.8950    -3.3490     0.8750 C.2   1 <1>   0.5440 
 20 C       -5.8060    -2.2410    -0.4830 C.ar  1 <1>  -0.1500 
 21 O        3.9290    -4.2750     1.6620 O.2   1 <1>  -0.5700 
 22 N        5.0600    -2.9480     0.2790 N.am  1 <1>  -0.7300 
 23 C        6.3950    -3.5520     0.5120 C.3   1 <1>   0.1400 
 24 C        6.8320    -4.3380    -0.7250 C.3   1 <1>  -0.0220 
 25 C        8.2370    -4.9020    -0.5600 C.2   1 <1>  -0.2760 
 26 C        9.2980    -4.3900    -1.1930 C.2   1 <1>  -0.2880 
 27 C        8.3380    -6.1110     0.3670 C.3   1 <1>  -0.0220 
 28 C       10.7110    -4.9410    -1.0870 C.3   1 <1>  -0.0220 
 29 C        9.7930    -6.4130     0.7550 C.3   1 <1>  -0.1600 
 30 C       10.7190    -6.3450    -0.4660 C.3   1 <1>  -0.1600 
 31 H       -3.0740     0.8700     2.3920 H     1 <1>   0.0800 
 32 H       -2.2710    -0.6730     2.4160 H     1 <1>   0.0800 
 33 H       -3.5460    -0.3710     1.2710 H     1 <1>   0.0800 
 34 H       -1.2820    -1.8580    -1.9970 H     1 <1>   0.0800 
 35 H       -1.8140    -0.2130    -2.1010 H     1 <1>   0.0800 
 36 H        1.0070    -1.0720    -1.9190 H     1 <1>   0.1500 
 37 H       -0.2720    -1.8100     2.0660 H     1 <1>   0.1500 
 38 H        3.1060    -2.2260    -1.4620 H     1 <1>   0.1500 
 39 H        1.8370    -2.9540     2.5320 H     1 <1>   0.1500 
 40 H       -4.0510     0.3160    -1.7760 H     1 <1>   0.1500 
 41 H       -4.9910    -4.0810     0.1930 H     1 <1>   0.1500 
 42 H       -1.7930    -3.4820     0.6010 H     1 <1>   0.0800 
 43 H       -1.7020    -3.8970    -1.0970 H     1 <1>   0.0800 
 44 H       -2.7800    -4.7620    -0.0460 H     1 <1>   0.0800 
 45 H       -6.3460    -0.3160    -1.2340 H     1 <1>   0.1500 
 46 H       -6.8170    -2.5190    -0.2420 H     1 <1>   0.1500 
 47 H        5.0550    -2.1070    -0.2980 H     1 <1>   0.3700 
 48 H        6.3570    -4.2030     1.3680 H     1 <1>   0.0800 
 49 H        7.1070    -2.7720     0.7180 H     1 <1>   0.0800 
 50 H        6.8150    -3.6800    -1.5750 H     1 <1>   0.0800 
 51 H        6.1390    -5.1410    -0.9070 H     1 <1>   0.0800 
 52 H        9.2380    -3.5310    -1.8400 H     1 <1>   0.1500 
 53 H        7.9150    -6.9640    -0.1340 H     1 <1>   0.0800 
 54 H        7.7740    -5.9480     1.2680 H     1 <1>   0.0800 
 55 H       11.2990    -4.2720    -0.4830 H     1 <1>   0.0800 
 56 H       11.1560    -4.9880    -2.0650 H     1 <1>   0.0800 
 57 H        9.8490    -7.3880     1.2060 H     1 <1>   0.0800 
 58 H       10.1190    -5.6900     1.4830 H     1 <1>   0.0800 
 59 H       11.7230    -6.6090    -0.1840 H     1 <1>   0.0800 
 60 H       10.3810    -7.0560    -1.2000 H     1 <1>   0.0800 
@<TRIPOS>BOND
  1   1   2  2   
  2   1   3  2   
  3   1   4  am  
  4   1   5  1   
  5   4   6  1   
  6   4   7  1   
  7   5  31  1   
  8   5  32  1   
  9   5  33  1   
 10   6   8  ar  
 11   6   9  ar  
 12   7  10  1   
 13   7  34  1   
 14   7  35  1   
 15   8  11  ar  
 16   8  36  1   
 17   9  12  ar  
 18   9  37  1   
 19  10  13  ar  
 20  10  14  ar  
 21  11  15  ar  
 22  11  38  1   
 23  12  15  ar  
 24  12  39  1   
 25  13  16  ar  
 26  13  17  1   
 27  14  18  ar  
 28  14  40  1   
 29  15  19  1   
 30  16  20  ar  
 31  16  41  1   
 32  17  42  1   
 33  17  43  1   
 34  17  44  1   
 35  18  20  ar  
 36  18  45  1   
 37  19  21  2   
 38  19  22  am  
 39  20  46  1   
 40  22  23  1   
 41  22  47  1   
 42  23  24  1   
 43  23  48  1   
 44  23  49  1   
 45  24  25  1   
 46  24  50  1   
 47  24  51  1   
 48  25  26  2   
 49  25  27  1   
 50  26  28  1   
 51  26  52  1   
 52  27  29  1   
 53  27  53  1   
 54  27  54  1   
 55  28  30  1   
 56  28  55  1   
 57  28  56  1   
 58  29  30  1   
 59  29  57  1   
 60  29  58  1   
 61  30  59  1   
 62  30  60  1   
@<TRIPOS>SUBSTRUCTURE
  1 ****  11 GROUP 4 **** **** 0

# MOE 2024.06 (io_trps.svl 2023.06)
