@<TRIPOS>MOLECULE
NONAME
44 44 1 0 0 
SMALL
USER_CHARGES


@<TRIPOS>ATOM
  1 O        0.3250    -0.5280     0.1500 O.3   1 <1>  -0.5600 
  2 C       -0.9020    -1.1160    -0.1510 C.3   1 <1>   0.1200 
  3 C        1.4170    -1.1700    -0.4250 C.3   1 <1>   0.1200 
  4 C       -2.0000    -0.3450     0.5800 C.3   1 <1>   0.1200 
  5 C        2.6760    -0.3810    -0.0570 C.3   1 <1>   0.1100 
  6 O       -3.2400    -0.8610     0.2240 O.3   1 <1>  -0.6800 
  7 N        3.8970    -0.9870    -0.6340 N.3   1 <1>  -0.8100 
  8 C        4.3200    -2.1970     0.1060 C.3   1 <1>   0.1100 
  9 C        4.9880     0.0080    -0.6920 C.3   1 <1>   0.1100 
 10 C        5.5880    -2.8230    -0.5110 C.3   1 <1>   0.3430 
 11 C        6.2640    -0.5860    -1.3230 C.3   1 <1>   0.3430 
 12 N        6.7060    -1.8270    -0.6050 N.4   1 <1>  -0.9590 
 13 C        7.9190    -2.4170    -1.1940 C.3   1 <1>   0.4810 
 14 C        9.0330    -2.1270    -0.2080 C.2   1 <1>  -0.2760 
 15 C        9.4410    -3.0650     0.6580 C.2   1 <1>  -0.2880 
 16 C        9.6080    -0.7160    -0.3320 C.3   1 <1>  -0.1020 
 17 C       10.5280    -2.9780     1.7220 C.3   1 <1>  -0.1020 
 18 H       -1.0500    -1.0640    -1.2160 H     1 <1>   0.0800 
 19 H       -0.8870    -2.1400     0.1810 H     1 <1>   0.0800 
 20 H        1.4600    -2.1720    -0.0370 H     1 <1>   0.0800 
 21 H        1.2890    -1.1830    -1.4930 H     1 <1>   0.0800 
 22 H       -1.9790     0.6980     0.3180 H     1 <1>   0.0800 
 23 H       -1.8890    -0.4580     1.6450 H     1 <1>   0.0800 
 24 H        2.7630    -0.3160     1.0150 H     1 <1>   0.0800 
 25 H        2.5520     0.6150    -0.4470 H     1 <1>   0.0800 
 26 H       -3.4550    -0.6360    -0.7010 H     1 <1>   0.4000 
 27 H        4.5040    -1.9520     1.1380 H     1 <1>   0.0800 
 28 H        3.5330    -2.9300     0.0770 H     1 <1>   0.0800 
 29 H        4.6700     0.8460    -1.2890 H     1 <1>   0.0800 
 30 H        5.2090     0.3720     0.2970 H     1 <1>   0.0800 
 31 H        5.3410    -3.1860    -1.4940 H     1 <1>   0.0800 
 32 H        5.8950    -3.6640     0.0890 H     1 <1>   0.0800 
 33 H        7.0470     0.1530    -1.3010 H     1 <1>   0.0800 
 34 H        6.0520    -0.8180    -2.3540 H     1 <1>   0.0800 
 35 H        6.9810    -1.5710     0.3510 H     1 <1>   0.4500 
 36 H        7.8030    -3.4840    -1.2920 H     1 <1>   0.0800 
 37 H        8.1380    -2.0010    -2.1640 H     1 <1>   0.0800 
 38 H        8.9970    -4.0480     0.6740 H     1 <1>   0.1500 
 39 H        9.8950    -0.5200    -1.3510 H     1 <1>   0.0800 
 40 H       10.4850    -0.5810     0.2710 H     1 <1>   0.0800 
 41 H        8.8880     0.0210    -0.0270 H     1 <1>   0.0800 
 42 H       10.1150    -3.2220     2.6840 H     1 <1>   0.0800 
 43 H       10.9710    -2.0030     1.7910 H     1 <1>   0.0800 
 44 H       11.3090    -3.6850     1.5010 H     1 <1>   0.0800 
@<TRIPOS>BOND
  1   1   2  1   
  2   1   3  1   
  3   2   4  1   
  4   2  18  1   
  5   2  19  1   
  6   3   5  1   
  7   3  20  1   
  8   3  21  1   
  9   4   6  1   
 10   4  22  1   
 11   4  23  1   
 12   5   7  1   
 13   5  24  1   
 14   5  25  1   
 15   6  26  1   
 16   7   8  1   
 17   7   9  1   
 18   8  10  1   
 19   8  27  1   
 20   8  28  1   
 21   9  11  1   
 22   9  29  1   
 23   9  30  1   
 24  10  12  1   
 25  10  31  1   
 26  10  32  1   
 27  11  12  1   
 28  11  33  1   
 29  11  34  1   
 30  12  13  1   
 31  12  35  1   
 32  13  14  1   
 33  13  36  1   
 34  13  37  1   
 35  14  15  2   
 36  14  16  1   
 37  15  17  1   
 38  15  38  1   
 39  16  39  1   
 40  16  40  1   
 41  16  41  1   
 42  17  42  1   
 43  17  43  1   
 44  17  44  1   
@<TRIPOS>SUBSTRUCTURE
  1 ****   8 GROUP 4 **** **** 0

# MOE 2024.06 (io_trps.svl 2023.06)
