@<TRIPOS>MOLECULE
NONAME
44 45 1 0 0 
SMALL
USER_CHARGES


@<TRIPOS>ATOM
  1 S       -0.3730     0.0570    -0.8400 S.o2  1 <1>   1.4970 
  2 O       -0.4330     0.0770    -2.2970 O.2   1 <1>  -0.6500 
  3 O       -0.0390    -1.1630    -0.1160 O.2   1 <1>  -0.6500 
  4 N       -1.5880     0.9410    -0.1260 N.2   1 <1>  -0.6380 
  5 C        1.0110     1.1780    -0.4400 C.ar  1 <1>  -0.0090 
  6 C       -2.7540     0.4140    -0.1700 C.2   1 <1>   0.3610 
  7 C        1.5460     2.0520    -1.3810 C.ar  1 <1>  -0.1500 
  8 C        1.5600     1.2040     0.8370 C.ar  1 <1>  -0.1500 
  9 O       -3.0000    -0.6710    -0.7230 O.3   1 <1>  -0.8610 
 10 N       -3.8250     1.0730     0.4000 N.pl3 1 <1>  -0.7880 
 11 C        2.5910     2.9040    -1.0670 C.ar  1 <1>  -0.1500 
 12 C        2.6050     2.0530     1.1610 C.ar  1 <1>  -0.1500 
 13 C       -5.0790     0.2760     0.5190 C.3   1 <1>   0.2090 
 14 C       -4.0710     2.4240    -0.1630 C.3   1 <1>   0.2090 
 15 C        3.1300     2.9080     0.2080 C.ar  1 <1>  -0.1430 
 16 C       -6.1340     1.0150     1.3560 C.3   1 <1>   0.1400 
 17 C       -5.1040     3.1920     0.6750 C.3   1 <1>   0.1400 
 18 C        4.2740     3.8410     0.5590 C.3   1 <1>  -0.0970 
 19 N       -6.3660     2.4050     0.8500 N.am  1 <1>  -0.6600 
 20 C       -7.5920     2.8290     0.4250 C.2   1 <1>   0.7800 
 21 O       -8.5940     2.1440     0.5150 O.2   1 <1>  -0.5700 
 22 O       -7.6770     4.0510    -0.1060 O.3   1 <1>  -0.4300 
 23 C       -8.9080     4.5500    -0.5740 C.3   1 <1>   0.1200 
 24 C       -8.6760     5.9580    -1.1130 C.3   1 <1>  -0.2400 
 25 H        1.1340     2.0620    -2.3760 H     1 <1>   0.1500 
 26 H        1.1530     0.5440     1.5850 H     1 <1>   0.1500 
 27 H        2.9800     3.5640    -1.8220 H     1 <1>   0.1500 
 28 H        3.0030     2.0420     2.1610 H     1 <1>   0.1500 
 29 H       -4.8470    -0.6690     0.9790 H     1 <1>   0.0800 
 30 H       -5.4630     0.0750    -0.4660 H     1 <1>   0.0800 
 31 H       -4.4200     2.3220    -1.1760 H     1 <1>   0.0800 
 32 H       -3.1490     2.9770    -0.1820 H     1 <1>   0.0800 
 33 H       -5.7890     1.0660     2.3730 H     1 <1>   0.0800 
 34 H       -7.0480     0.4500     1.3430 H     1 <1>   0.0800 
 35 H       -5.3020     4.1370     0.2040 H     1 <1>   0.0800 
 36 H       -4.6790     3.3870     1.6430 H     1 <1>   0.0800 
 37 H        3.8830     4.7690     0.9340 H     1 <1>   0.0800 
 38 H        4.8750     4.0420    -0.3100 H     1 <1>   0.0800 
 39 H        4.9020     3.3980     1.3110 H     1 <1>   0.0800 
 40 H       -9.6060     4.5590     0.2470 H     1 <1>   0.0800 
 41 H       -9.2690     3.8930    -1.3480 H     1 <1>   0.0800 
 42 H       -8.3060     6.5960    -0.3310 H     1 <1>   0.0800 
 43 H       -9.6010     6.3640    -1.4790 H     1 <1>   0.0800 
 44 H       -7.9680     5.9310    -1.9220 H     1 <1>   0.0800 
@<TRIPOS>BOND
  1   1   2  2   
  2   1   3  2   
  3   1   4  1   
  4   1   5  1   
  5   4   6  2   
  6   5   7  ar  
  7   5   8  ar  
  8   6   9  1   
  9   6  10  1   
 10   7  11  ar  
 11   7  25  1   
 12   8  12  ar  
 13   8  26  1   
 14  10  13  1   
 15  10  14  1   
 16  11  15  ar  
 17  11  27  1   
 18  12  15  ar  
 19  12  28  1   
 20  13  16  1   
 21  13  29  1   
 22  13  30  1   
 23  14  17  1   
 24  14  31  1   
 25  14  32  1   
 26  15  18  1   
 27  16  19  1   
 28  16  33  1   
 29  16  34  1   
 30  17  19  1   
 31  17  35  1   
 32  17  36  1   
 33  18  37  1   
 34  18  38  1   
 35  18  39  1   
 36  19  20  am  
 37  20  21  2   
 38  20  22  1   
 39  22  23  1   
 40  23  24  1   
 41  23  40  1   
 42  23  41  1   
 43  24  42  1   
 44  24  43  1   
 45  24  44  1   
@<TRIPOS>SUBSTRUCTURE
  1 ****   4 GROUP 4 **** **** 0

# MOE 2024.06 (io_trps.svl 2023.06)
