@<TRIPOS>MOLECULE
NONAME
46 47 1 0 0 
SMALL
USER_CHARGES


@<TRIPOS>ATOM
  1 O       -0.6410     1.1910     2.0510 O.2   1 <1>  -0.5700 
  2 C       -0.2640     1.7130     1.0290 C.2   1 <1>   0.5690 
  3 N       -0.9940     1.6660    -0.1180 N.am  1 <1>  -0.7300 
  4 C        1.0920     2.4290     1.0290 C.3   1 <1>   0.1710 
  5 C       -2.3150     1.0040    -0.2540 C.3   1 <1>   0.1400 
  6 N        2.2170     1.6360     0.4450 N.3   1 <1>  -0.8100 
  7 C       -3.4310     2.0480    -0.2070 C.3   1 <1>  -0.0170 
  8 C        3.4860     2.4000     0.4840 C.3   1 <1>   0.1100 
  9 C        2.3720     0.3420     1.1650 C.3   1 <1>   0.1100 
 10 C       -4.7830     1.3790    -0.3920 C.ar  1 <1>  -0.1440 
 11 C        4.6750     1.6030    -0.1120 C.3   1 <1>   0.3430 
 12 C        3.6140    -0.4610     0.7100 C.3   1 <1>   0.3430 
 13 C       -5.4310     0.8100     0.6930 C.ar  1 <1>  -0.1500 
 14 C       -5.3770     1.3260    -1.6430 C.ar  1 <1>  -0.1500 
 15 N        4.2820     0.1980    -0.4630 N.4   1 <1>  -0.9590 
 16 C       -6.6600     0.1940     0.5300 C.ar  1 <1>  -0.1500 
 17 C       -6.6070     0.7110    -1.8080 C.ar  1 <1>  -0.1500 
 18 C        5.3960    -0.5780    -1.0610 C.3   1 <1>   0.3430 
 19 C       -7.2490     0.1440    -0.7210 C.ar  1 <1>  -0.1500 
 20 C        4.8460    -1.8230    -1.7460 C.3   1 <1>  -0.2400 
 21 H       -0.6140     2.0810    -0.9700 H     1 <1>   0.3700 
 22 H        1.3240     2.6890     2.0470 H     1 <1>   0.0800 
 23 H        0.9810     3.3450     0.4770 H     1 <1>   0.0800 
 24 H       -2.4540     0.2960     0.5460 H     1 <1>   0.0800 
 25 H       -2.3540     0.4670    -1.1860 H     1 <1>   0.0800 
 26 H       -3.2800     2.7790    -0.9800 H     1 <1>   0.0800 
 27 H       -3.4090     2.5500     0.7440 H     1 <1>   0.0800 
 28 H        3.7190     2.6660     1.5020 H     1 <1>   0.0800 
 29 H        3.3710     3.3170    -0.0690 H     1 <1>   0.0800 
 30 H        1.4980    -0.2660     0.9970 H     1 <1>   0.0800 
 31 H        2.4360     0.5130     2.2270 H     1 <1>   0.0800 
 32 H        5.4830     1.5950     0.6000 H     1 <1>   0.0800 
 33 H        5.0240     2.1130    -0.9950 H     1 <1>   0.0800 
 34 H        3.3030    -1.4600     0.4510 H     1 <1>   0.0800 
 35 H        4.3070    -0.5370     1.5310 H     1 <1>   0.0800 
 36 H       -4.9810     0.8430     1.6710 H     1 <1>   0.1500 
 37 H       -4.8890     1.7630    -2.4970 H     1 <1>   0.1500 
 38 H        3.5230     0.3120    -1.1510 H     1 <1>   0.4500 
 39 H       -7.1580    -0.2450     1.3770 H     1 <1>   0.1500 
 40 H       -7.0640     0.6730    -2.7810 H     1 <1>   0.1500 
 41 H        6.1080    -0.8560    -0.3000 H     1 <1>   0.0800 
 42 H        5.9040     0.0280    -1.7950 H     1 <1>   0.0800 
 43 H       -8.2040    -0.3340    -0.8480 H     1 <1>   0.1500 
 44 H        4.4180    -2.5080    -1.0370 H     1 <1>   0.0800 
 45 H        5.6510    -2.3330    -2.2450 H     1 <1>   0.0800 
 46 H        4.1120    -1.5590    -2.4870 H     1 <1>   0.0800 
@<TRIPOS>BOND
  1   1   2  2   
  2   2   3  am  
  3   2   4  1   
  4   3   5  1   
  5   3  21  1   
  6   4   6  1   
  7   4  22  1   
  8   4  23  1   
  9   5   7  1   
 10   5  24  1   
 11   5  25  1   
 12   6   8  1   
 13   6   9  1   
 14   7  10  1   
 15   7  26  1   
 16   7  27  1   
 17   8  11  1   
 18   8  28  1   
 19   8  29  1   
 20   9  12  1   
 21   9  30  1   
 22   9  31  1   
 23  10  13  ar  
 24  10  14  ar  
 25  11  15  1   
 26  11  32  1   
 27  11  33  1   
 28  12  15  1   
 29  12  34  1   
 30  12  35  1   
 31  13  16  ar  
 32  13  36  1   
 33  14  17  ar  
 34  14  37  1   
 35  15  18  1   
 36  15  38  1   
 37  16  19  ar  
 38  16  39  1   
 39  17  19  ar  
 40  17  40  1   
 41  18  20  1   
 42  18  41  1   
 43  18  42  1   
 44  19  43  1   
 45  20  44  1   
 46  20  45  1   
 47  20  46  1   
@<TRIPOS>SUBSTRUCTURE
  1 ****   3 GROUP 4 **** **** 0

# MOE 2024.06 (io_trps.svl 2023.06)
