@<TRIPOS>MOLECULE
NONAME
39 40 1 0 0 
SMALL
USER_CHARGES


@<TRIPOS>ATOM
  1 O        3.3720     0.0270     1.2710 O.2   1 <1>  -0.5700 
  2 C        2.4300    -0.2700     0.5790 C.2   1 <1>   0.5690 
  3 N        1.2660    -0.6470     1.1360 N.am  1 <1>  -0.8000 
  4 C        2.5810    -0.2020    -0.9330 C.3   1 <1>  -0.0190 
  5 C        3.9470    -0.8000    -1.3110 C.3   1 <1>   0.3430 
  6 C        2.4200     1.2570    -1.4360 C.3   1 <1>  -0.1600 
  7 N        5.0150     0.1940    -1.0020 N.4   1 <1>  -0.9590 
  8 C        3.5300     1.6580    -2.4210 C.3   1 <1>  -0.1600 
  9 C        4.9410     1.4260    -1.8540 C.3   1 <1>   0.3430 
 10 C        6.3710    -0.4200    -0.9610 C.3   1 <1>   0.3430 
 11 C        7.3920     0.4890    -0.2590 C.3   1 <1>  -0.0800 
 12 C        8.7830    -0.1720    -0.3150 C.3   1 <1>  -0.0220 
 13 C        7.0050     0.8030     1.2050 C.3   1 <1>  -0.1600 
 14 C        9.7800     0.5670     0.5570 C.2   1 <1>  -0.2880 
 15 C        7.9940     1.7880     1.8510 C.3   1 <1>  -0.0220 
 16 C        9.4300     1.4390     1.5050 C.2   1 <1>  -0.2880 
 17 H        1.1820    -0.6650     2.1560 H     1 <1>   0.3700 
 18 H        0.4090    -0.8660     0.6250 H     1 <1>   0.3700 
 19 H        1.8220    -0.8180    -1.3790 H     1 <1>   0.0800 
 20 H        3.9670    -1.0400    -2.3610 H     1 <1>   0.0800 
 21 H        4.1060    -1.7060    -0.7470 H     1 <1>   0.0800 
 22 H        2.4510     1.9360    -0.5990 H     1 <1>   0.0800 
 23 H        1.4560     1.3760    -1.9020 H     1 <1>   0.0800 
 24 H        4.7920     0.4800    -0.0260 H     1 <1>   0.4500 
 25 H        3.4260     2.6970    -2.6850 H     1 <1>   0.0800 
 26 H        3.4230     1.0950    -3.3330 H     1 <1>   0.0800 
 27 H        5.6360     1.3500    -2.6750 H     1 <1>   0.0800 
 28 H        5.2290     2.2780    -1.2580 H     1 <1>   0.0800 
 29 H        6.7050    -0.6310    -1.9640 H     1 <1>   0.0800 
 30 H        6.3230    -1.3530    -0.4220 H     1 <1>   0.0800 
 31 H        7.4670     1.4180    -0.7970 H     1 <1>   0.0800 
 32 H        9.1390    -0.1720    -1.3310 H     1 <1>   0.0800 
 33 H        8.7340    -1.1930     0.0240 H     1 <1>   0.0800 
 34 H        7.0100    -0.1100     1.7760 H     1 <1>   0.0800 
 35 H        6.0190     1.2270     1.2730 H     1 <1>   0.0800 
 36 H       10.8080     0.3190     0.3430 H     1 <1>   0.1500 
 37 H        7.8650     1.7670     2.9200 H     1 <1>   0.0800 
 38 H        7.7920     2.7890     1.5130 H     1 <1>   0.0800 
 39 H       10.1520     1.9680     2.1070 H     1 <1>   0.1500 
@<TRIPOS>BOND
  1   1   2  2   
  2   2   3  am  
  3   2   4  1   
  4   3  17  1   
  5   3  18  1   
  6   4   5  1   
  7   4   6  1   
  8   4  19  1   
  9   5   7  1   
 10   5  20  1   
 11   5  21  1   
 12   6   8  1   
 13   6  22  1   
 14   6  23  1   
 15   7   9  1   
 16   7  10  1   
 17   7  24  1   
 18   8   9  1   
 19   8  25  1   
 20   8  26  1   
 21   9  27  1   
 22   9  28  1   
 23  10  11  1   
 24  10  29  1   
 25  10  30  1   
 26  11  12  1   
 27  11  13  1   
 28  11  31  1   
 29  12  14  1   
 30  12  32  1   
 31  12  33  1   
 32  13  15  1   
 33  13  34  1   
 34  13  35  1   
 35  14  16  2   
 36  14  36  1   
 37  15  16  1   
 38  15  37  1   
 39  15  38  1   
 40  16  39  1   
@<TRIPOS>SUBSTRUCTURE
  1 ****   7 GROUP 4 **** **** 0

# MOE 2024.06 (io_trps.svl 2023.06)
