@<TRIPOS>MOLECULE
NONAME
53 55 1 0 0 
SMALL
USER_CHARGES


@<TRIPOS>ATOM
  1 O       -0.6850    -0.3500     1.0780 O.2   1 <1>  -0.5700 
  2 C       -1.7170    -0.9680     0.9350 C.2   1 <1>   0.5690 
  3 N       -2.9410    -0.3530     0.9930 N.am  1 <1>  -0.6600 
  4 C       -1.5610    -2.4790     0.6680 C.3   1 <1>   0.4040 
  5 C       -4.2380    -1.0730     0.7700 C.3   1 <1>   0.3640 
  6 C       -2.9800     1.1410     1.1760 C.3   1 <1>   0.1400 
  7 N       -0.2130    -2.8390     0.0860 N.4   1 <1>  -0.9590 
  8 C       -5.3530    -0.1540     0.2800 C.ar  1 <1>  -0.1430 
  9 C       -4.6610    -1.7560     2.0700 C.3   1 <1>  -0.2400 
 10 C       -4.3410     1.6690     1.6360 C.3   1 <1>  -0.0170 
 11 C       -0.0680    -2.3350    -1.3120 C.3   1 <1>   0.3430 
 12 C        0.1120    -4.2870     0.2200 C.3   1 <1>   0.3430 
 13 C       -5.4200     1.1620     0.7010 C.ar  1 <1>  -0.1430 
 14 C       -6.3240    -0.6340    -0.5840 C.ar  1 <1>  -0.1500 
 15 C        1.3670    -2.5570    -1.7910 C.3   1 <1>  -0.1600 
 16 C        1.5510    -4.5350    -0.2390 C.3   1 <1>  -0.1600 
 17 C       -6.4440     1.9850     0.2620 C.ar  1 <1>  -0.1500 
 18 C       -7.3580     0.1710    -1.0320 C.ar  1 <1>   0.0830 
 19 C        1.7900    -4.0270    -1.6670 C.3   1 <1>  -0.1600 
 20 C       -7.4200     1.5120    -0.6130 C.ar  1 <1>   0.0830 
 21 O       -8.2330    -0.4610    -1.8680 O.3   1 <1>  -0.3630 
 22 O       -8.4120     2.3310    -1.0700 O.3   1 <1>  -0.3620 
 23 C       -9.5520    -0.0040    -2.0690 C.3   1 <1>   0.0400 
 24 C       -8.4170     3.7200    -0.8260 C.3   1 <1>   0.0400 
 25 H       -2.3380    -2.8060     0.0020 H     1 <1>   0.0800 
 26 H       -1.6880    -2.9840     1.6090 H     1 <1>   0.0800 
 27 H       -4.0960    -1.8250     0.0140 H     1 <1>   0.0800 
 28 H       -2.7360     1.6010     0.2340 H     1 <1>   0.0800 
 29 H       -2.2310     1.4380     1.8910 H     1 <1>   0.0800 
 30 H        0.4690    -2.2940     0.6410 H     1 <1>   0.4500 
 31 H       -4.8300    -1.0250     2.8390 H     1 <1>   0.0800 
 32 H       -3.9210    -2.4570     2.4050 H     1 <1>   0.0800 
 33 H       -5.5840    -2.2870     1.9120 H     1 <1>   0.0800 
 34 H       -4.3170     2.7440     1.6340 H     1 <1>   0.0800 
 35 H       -4.5400     1.3450     2.6420 H     1 <1>   0.0800 
 36 H       -0.2950    -1.2800    -1.3500 H     1 <1>   0.0800 
 37 H       -0.7500    -2.8560    -1.9640 H     1 <1>   0.0800 
 38 H       -0.5620    -4.8700    -0.3860 H     1 <1>   0.0800 
 39 H        0.0070    -4.5980     1.2470 H     1 <1>   0.0800 
 40 H       -6.3000    -1.6530    -0.9230 H     1 <1>   0.1500 
 41 H        2.0320    -1.9330    -1.2190 H     1 <1>   0.0800 
 42 H        1.4460    -2.2480    -2.8190 H     1 <1>   0.0800 
 43 H        1.7560    -5.5910    -0.1980 H     1 <1>   0.0800 
 44 H        2.2300    -4.0500     0.4400 H     1 <1>   0.0800 
 45 H       -6.4630     2.9980     0.6130 H     1 <1>   0.1500 
 46 H        2.8320    -4.1290    -1.9220 H     1 <1>   0.0800 
 47 H        1.2240    -4.6250    -2.3630 H     1 <1>   0.0800 
 48 H      -10.1110    -0.7900    -2.5410 H     1 <1>   0.0800 
 49 H       -9.5260     0.8590    -2.7100 H     1 <1>   0.0800 
 50 H       -9.9880     0.2390    -1.1160 H     1 <1>   0.0800 
 51 H       -9.2510     4.1480    -1.3540 H     1 <1>   0.0800 
 52 H       -7.4980     4.1430    -1.1920 H     1 <1>   0.0800 
 53 H       -8.5300     3.8900     0.2300 H     1 <1>   0.0800 
@<TRIPOS>BOND
  1   1   2  2   
  2   2   3  am  
  3   2   4  1   
  4   3   5  1   
  5   3   6  1   
  6   4   7  1   
  7   4  25  1   
  8   4  26  1   
  9   5   8  1   
 10   5   9  1   
 11   5  27  1   
 12   6  10  1   
 13   6  28  1   
 14   6  29  1   
 15   7  11  1   
 16   7  12  1   
 17   7  30  1   
 18   8  13  ar  
 19   8  14  ar  
 20   9  31  1   
 21   9  32  1   
 22   9  33  1   
 23  10  13  1   
 24  10  34  1   
 25  10  35  1   
 26  11  15  1   
 27  11  36  1   
 28  11  37  1   
 29  12  16  1   
 30  12  38  1   
 31  12  39  1   
 32  13  17  ar  
 33  14  18  ar  
 34  14  40  1   
 35  15  19  1   
 36  15  41  1   
 37  15  42  1   
 38  16  19  1   
 39  16  43  1   
 40  16  44  1   
 41  17  20  ar  
 42  17  45  1   
 43  18  20  ar  
 44  18  21  1   
 45  19  46  1   
 46  19  47  1   
 47  20  22  1   
 48  21  23  1   
 49  22  24  1   
 50  23  48  1   
 51  23  49  1   
 52  23  50  1   
 53  24  51  1   
 54  24  52  1   
 55  24  53  1   
@<TRIPOS>SUBSTRUCTURE
  1 ****   5 GROUP 4 **** **** 0

# MOE 2024.06 (io_trps.svl 2023.06)
