@<TRIPOS>MOLECULE
NONAME
38 38 1 0 0 
SMALL
USER_CHARGES


@<TRIPOS>ATOM
  1 CL       0.5120    -0.5900     1.1010 Cl    1 <1>  -0.1770 
  2 C        0.7680     1.0360     0.5210 C.ar  1 <1>   0.1770 
  3 C        2.0580     1.5180     0.4150 C.ar  1 <1>  -0.1500 
  4 C       -0.3270     1.8090     0.1780 C.ar  1 <1>  -0.1500 
  5 C        2.2590     2.8160    -0.0480 C.ar  1 <1>   0.0830 
  6 C       -0.1250     3.0990    -0.2820 C.ar  1 <1>  -0.1500 
  7 O        3.4810     3.3850    -0.1890 O.3   1 <1>  -0.3630 
  8 C        1.1630     3.5950    -0.3930 C.ar  1 <1>  -0.1500 
  9 C        4.6610     2.6800     0.1320 C.3   1 <1>   0.1200 
 10 C        5.8470     3.6000    -0.1390 C.3   1 <1>   0.1200 
 11 O        7.0280     2.9210     0.1740 O.3   1 <1>  -0.5600 
 12 C        8.1830     3.6630    -0.0310 C.3   1 <1>   0.1200 
 13 C        9.3700     2.7750     0.3570 C.3   1 <1>   0.3430 
 14 N       10.6750     3.4830     0.1840 N.4   1 <1>  -0.9060 
 15 C       11.8340     2.6680     0.5750 C.3   1 <1>   0.4230 
 16 C       13.0300     3.6040     0.6890 C.3   1 <1>  -0.2400 
 17 C       12.0820     1.5990    -0.4850 C.3   1 <1>  -0.2400 
 18 H        2.8700     0.8760     0.6940 H     1 <1>   0.1500 
 19 H       -1.3180     1.4040     0.2720 H     1 <1>   0.1500 
 20 H       -0.9660     3.7150    -0.5530 H     1 <1>   0.1500 
 21 H        1.3270     4.5970    -0.7500 H     1 <1>   0.1500 
 22 H        4.7130     1.8040    -0.4910 H     1 <1>   0.0800 
 23 H        4.6220     2.4120     1.1730 H     1 <1>   0.0800 
 24 H        5.7760     4.4800     0.4780 H     1 <1>   0.0800 
 25 H        5.8680     3.8720    -1.1810 H     1 <1>   0.0800 
 26 H        8.1380     4.5400     0.5920 H     1 <1>   0.0800 
 27 H        8.2300     3.9360    -1.0720 H     1 <1>   0.0800 
 28 H        9.3490     1.8910    -0.2590 H     1 <1>   0.0800 
 29 H        9.2520     2.4760     1.3860 H     1 <1>   0.0800 
 30 H       10.6830     4.3370     0.7530 H     1 <1>   0.4500 
 31 H       10.8020     3.7660    -0.7940 H     1 <1>   0.4500 
 32 H       11.6550     2.2010     1.5330 H     1 <1>   0.0800 
 33 H       13.2410     4.0870    -0.2490 H     1 <1>   0.0800 
 34 H       13.9010     3.0400     0.9730 H     1 <1>   0.0800 
 35 H       12.8640     4.3470     1.4480 H     1 <1>   0.0800 
 36 H       12.2440     2.0380    -1.4540 H     1 <1>   0.0800 
 37 H       11.2650     0.9030    -0.5370 H     1 <1>   0.0800 
 38 H       12.9630     1.0370    -0.2270 H     1 <1>   0.0800 
@<TRIPOS>BOND
  1   1   2  1   
  2   2   3  ar  
  3   2   4  ar  
  4   3   5  ar  
  5   3  18  1   
  6   4   6  ar  
  7   4  19  1   
  8   5   7  1   
  9   5   8  ar  
 10   6   8  ar  
 11   6  20  1   
 12   7   9  1   
 13   8  21  1   
 14   9  10  1   
 15   9  22  1   
 16   9  23  1   
 17  10  11  1   
 18  10  24  1   
 19  10  25  1   
 20  11  12  1   
 21  12  13  1   
 22  12  26  1   
 23  12  27  1   
 24  13  14  1   
 25  13  28  1   
 26  13  29  1   
 27  14  15  1   
 28  14  30  1   
 29  14  31  1   
 30  15  16  1   
 31  15  17  1   
 32  15  32  1   
 33  16  33  1   
 34  16  34  1   
 35  16  35  1   
 36  17  36  1   
 37  17  37  1   
 38  17  38  1   
@<TRIPOS>SUBSTRUCTURE
  1 ****   9 GROUP 4 **** **** 0

# MOE 2024.06 (io_trps.svl 2023.06)
