@<TRIPOS>MOLECULE
NONAME
36 37 1 0 0 
SMALL
USER_CHARGES


@<TRIPOS>ATOM
  1 F       -0.0170    -0.1650     0.2690 F     1 <1>  -0.3400 
  2 C       -1.2900     0.2130     0.3180 C.3   1 <1>   1.1640 
  3 F       -1.4150     1.2000    -0.5600 F     1 <1>  -0.3400 
  4 F       -1.4660     0.7540     1.5170 F     1 <1>  -0.3400 
  5 C       -2.2730    -0.9360     0.0450 C.ar  1 <1>  -0.1440 
  6 C       -3.6410    -0.7040     0.1350 C.ar  1 <1>  -0.1500 
  7 C       -1.8380    -2.2140    -0.2930 C.ar  1 <1>  -0.1500 
  8 C       -4.5710    -1.7090    -0.1040 C.ar  1 <1>   0.1170 
  9 C       -2.7470    -3.2290    -0.5340 C.ar  1 <1>  -0.1500 
 10 N       -5.9600    -1.5100    -0.0230 N.am  1 <1>  -0.5470 
 11 C       -4.1120    -2.9860    -0.4410 C.ar  1 <1>   0.0830 
 12 C       -6.7510    -0.4290     0.2500 C.2   1 <1>   0.5690 
 13 O       -5.0560    -3.9500    -0.6670 O.3   1 <1>  -0.3630 
 14 O       -6.3220     0.6720     0.4950 O.2   1 <1>  -0.5700 
 15 C       -8.2640    -0.6360     0.2390 C.3   1 <1>  -0.0190 
 16 C       -4.6910    -5.2680    -1.0140 C.3   1 <1>   0.0400 
 17 C       -8.7670    -1.6570     1.2650 C.3   1 <1>  -0.1600 
 18 C       -8.8360    -1.1050    -1.1110 C.3   1 <1>  -0.1600 
 19 C      -10.1250    -2.0890     0.7250 C.3   1 <1>  -0.1600 
 20 C       -9.9460    -2.1140    -0.7920 C.3   1 <1>  -0.1600 
 21 H       -3.9830     0.2820     0.3950 H     1 <1>   0.1500 
 22 H       -0.7860    -2.4320    -0.3730 H     1 <1>   0.1500 
 23 H       -2.3670    -4.2000    -0.7910 H     1 <1>   0.1500 
 24 H       -6.4720    -2.3710    -0.2200 H     1 <1>   0.3700 
 25 H       -8.7250     0.3090     0.4750 H     1 <1>   0.0800 
 26 H       -5.5910    -5.8420    -1.1410 H     1 <1>   0.0800 
 27 H       -4.1000    -5.6890    -0.2190 H     1 <1>   0.0800 
 28 H       -4.1390    -5.2470    -1.9370 H     1 <1>   0.0800 
 29 H       -8.8420    -1.2290     2.2500 H     1 <1>   0.0800 
 30 H       -8.1140    -2.5120     1.3030 H     1 <1>   0.0800 
 31 H       -8.0830    -1.5760    -1.7190 H     1 <1>   0.0800 
 32 H       -9.2290    -0.2620    -1.6530 H     1 <1>   0.0800 
 33 H      -10.8640    -1.3500     0.9860 H     1 <1>   0.0800 
 34 H      -10.4310    -3.0450     1.1130 H     1 <1>   0.0800 
 35 H       -9.6340    -3.0980    -1.0990 H     1 <1>   0.0800 
 36 H      -10.8640    -1.8690    -1.2990 H     1 <1>   0.0800 
@<TRIPOS>BOND
  1   1   2  1   
  2   2   3  1   
  3   2   4  1   
  4   2   5  1   
  5   5   6  ar  
  6   5   7  ar  
  7   6   8  ar  
  8   6  21  1   
  9   7   9  ar  
 10   7  22  1   
 11   8  10  1   
 12   8  11  ar  
 13   9  11  ar  
 14   9  23  1   
 15  10  12  am  
 16  10  24  1   
 17  11  13  1   
 18  12  14  2   
 19  12  15  1   
 20  13  16  1   
 21  15  17  1   
 22  15  18  1   
 23  15  25  1   
 24  16  26  1   
 25  16  27  1   
 26  16  28  1   
 27  17  19  1   
 28  17  29  1   
 29  17  30  1   
 30  18  20  1   
 31  18  31  1   
 32  18  32  1   
 33  19  20  1   
 34  19  33  1   
 35  19  34  1   
 36  20  35  1   
 37  20  36  1   
@<TRIPOS>SUBSTRUCTURE
  1 ****   8 GROUP 4 **** **** 0

# MOE 2024.06 (io_trps.svl 2023.06)
