@<TRIPOS>MOLECULE
NONAME
57 59 1 0 0 
SMALL
USER_CHARGES


@<TRIPOS>ATOM
  1 O       -0.7390    -0.3780     0.4130 O.2   1 <1>  -0.5700 
  2 C       -1.8690    -0.0500     0.1110 C.2   1 <1>   0.6340 
  3 O       -2.7500    -1.0050    -0.2090 O.3   1 <1>  -0.4300 
  4 C       -2.3140     1.3280     0.0860 C.ar  1 <1>   0.0860 
  5 C       -2.3950    -2.3730    -0.2120 C.3   1 <1>   0.0400 
  6 C       -1.4270     2.3750     0.3440 C.ar  1 <1>  -0.1500 
  7 C       -3.6370     1.6800    -0.1910 C.ar  1 <1>  -0.1500 
  8 C       -1.8140     3.7030     0.3330 C.ar  1 <1>   0.1170 
  9 C       -4.0450     2.9990    -0.2090 C.ar  1 <1>  -0.1500 
 10 N       -0.8460     4.6740     0.6520 N.am  1 <1>  -0.5470 
 11 C       -3.1540     4.0330     0.0470 C.ar  1 <1>   0.1000 
 12 C       -0.2230     5.5670    -0.1820 C.2   1 <1>   0.5440 
 13 N       -3.6120     5.3510     0.0020 N.pl3 1 <1>  -0.8380 
 14 O       -0.4280     5.5150    -1.3790 O.2   1 <1>  -0.5700 
 15 C        0.6790     6.5620     0.3700 C.ar  1 <1>   0.0860 
 16 C       -3.3350     6.1430    -1.2370 C.3   1 <1>   0.2090 
 17 C       -4.6730     5.8370     0.9300 C.3   1 <1>   0.2090 
 18 C        1.7360     7.0650    -0.3870 C.ar  1 <1>  -0.1500 
 19 C        0.5280     7.0590     1.6670 C.ar  1 <1>  -0.1500 
 20 C       -4.6260     6.6350    -1.9170 C.3   1 <1>   0.3430 
 21 C       -5.9210     6.3370     0.1690 C.3   1 <1>   0.3430 
 22 C        2.6110     8.0110     0.1160 C.ar  1 <1>   0.0830 
 23 C        1.3970     8.0030     2.1840 C.ar  1 <1>  -0.1500 
 24 N       -5.5800     7.2910    -0.9500 N.4   1 <1>  -0.9590 
 25 O        3.5990     8.4260    -0.7130 O.3   1 <1>  -0.3630 
 26 C        2.4410     8.4820     1.4140 C.ar  1 <1>  -0.1500 
 27 C       -6.8060     7.7830    -1.6460 C.3   1 <1>   0.2630 
 28 C        4.5310     9.4050    -0.3180 C.3   1 <1>   0.1200 
 29 C        5.4850     9.6460    -1.4840 C.3   1 <1>  -0.2400 
 30 H       -3.2560    -2.9490    -0.5000 H     1 <1>   0.0800 
 31 H       -2.0750    -2.6520     0.7770 H     1 <1>   0.0800 
 32 H       -1.5950    -2.5230    -0.9170 H     1 <1>   0.0800 
 33 H       -0.4000     2.1360     0.5560 H     1 <1>   0.1500 
 34 H       -4.3570     0.9050    -0.3960 H     1 <1>   0.1500 
 35 H       -5.0680     3.2290    -0.4330 H     1 <1>   0.1500 
 36 H       -0.4710     4.6170     1.5960 H     1 <1>   0.3700 
 37 H       -2.7960     5.5310    -1.9400 H     1 <1>   0.0800 
 38 H       -2.7070     6.9810    -0.9890 H     1 <1>   0.0800 
 39 H       -4.2710     6.6380     1.5260 H     1 <1>   0.0800 
 40 H       -4.9560     5.0450     1.6020 H     1 <1>   0.0800 
 41 H        1.8810     6.7120    -1.3930 H     1 <1>   0.1500 
 42 H       -0.2840     6.7140     2.2820 H     1 <1>   0.1500 
 43 H       -5.1040     5.7860    -2.3750 H     1 <1>   0.0800 
 44 H       -4.3610     7.3250    -2.7020 H     1 <1>   0.0800 
 45 H       -6.5870     6.8150     0.8690 H     1 <1>   0.0800 
 46 H       -6.4310     5.4790    -0.2360 H     1 <1>   0.0800 
 47 H        1.2620     8.3700     3.1870 H     1 <1>   0.1500 
 48 H       -5.0810     8.0910    -0.5330 H     1 <1>   0.4500 
 49 H        3.1040     9.2130     1.8360 H     1 <1>   0.1500 
 50 H       -7.3390     6.9600    -2.0950 H     1 <1>   0.0800 
 51 H       -6.5400     8.4840    -2.4210 H     1 <1>   0.0800 
 52 H       -7.4610     8.2780    -0.9480 H     1 <1>   0.0800 
 53 H        5.0670     9.0400     0.5420 H     1 <1>   0.0800 
 54 H        3.9960    10.3060    -0.0720 H     1 <1>   0.0800 
 55 H        6.0010     8.7360    -1.7320 H     1 <1>   0.0800 
 56 H        6.2110    10.3910    -1.2130 H     1 <1>   0.0800 
 57 H        4.9380     9.9940    -2.3420 H     1 <1>   0.0800 
@<TRIPOS>BOND
  1   1   2  2   
  2   2   3  1   
  3   2   4  1   
  4   3   5  1   
  5   4   6  ar  
  6   4   7  ar  
  7   5  30  1   
  8   5  31  1   
  9   5  32  1   
 10   6   8  ar  
 11   6  33  1   
 12   7   9  ar  
 13   7  34  1   
 14   8  10  1   
 15   8  11  ar  
 16   9  11  ar  
 17   9  35  1   
 18  10  12  am  
 19  10  36  1   
 20  11  13  1   
 21  12  14  2   
 22  12  15  1   
 23  13  16  1   
 24  13  17  1   
 25  15  18  ar  
 26  15  19  ar  
 27  16  20  1   
 28  16  37  1   
 29  16  38  1   
 30  17  21  1   
 31  17  39  1   
 32  17  40  1   
 33  18  22  ar  
 34  18  41  1   
 35  19  23  ar  
 36  19  42  1   
 37  20  24  1   
 38  20  43  1   
 39  20  44  1   
 40  21  24  1   
 41  21  45  1   
 42  21  46  1   
 43  22  25  1   
 44  22  26  ar  
 45  23  26  ar  
 46  23  47  1   
 47  24  27  1   
 48  24  48  1   
 49  25  28  1   
 50  26  49  1   
 51  27  50  1   
 52  27  51  1   
 53  27  52  1   
 54  28  29  1   
 55  28  53  1   
 56  28  54  1   
 57  29  55  1   
 58  29  56  1   
 59  29  57  1   
@<TRIPOS>SUBSTRUCTURE
  1 ****  10 GROUP 4 **** **** 0

# MOE 2024.06 (io_trps.svl 2023.06)
