@<TRIPOS>MOLECULE
NONAME
48 50 1 0 0 
SMALL
USER_CHARGES


@<TRIPOS>ATOM
  1 O       -0.7550     0.0130    -0.8970 O.2   1 <1>  -0.5700 
  2 C       -1.1960    -0.7660    -0.0770 C.2   1 <1>   0.6900 
  3 N       -2.2610    -0.4330     0.7100 N.am  1 <1>  -0.5470 
  4 N       -0.6780    -2.0210     0.0850 N.am  1 <1>  -0.5470 
  5 C       -3.0090     0.7440     0.8370 C.ar  1 <1>   0.1170 
  6 C        0.3950    -2.6750    -0.5390 C.ar  1 <1>   0.1170 
  7 C       -4.3470     0.6580     1.2570 C.ar  1 <1>   0.0860 
  8 C       -2.4520     1.9960     0.5870 C.ar  1 <1>  -0.1500 
  9 C        1.4360    -2.0040    -1.1760 C.ar  1 <1>  -0.1500 
 10 C        0.4330    -4.0650    -0.5050 C.ar  1 <1>  -0.1500 
 11 C       -4.9700    -0.6300     1.4920 C.2   1 <1>   0.5440 
 12 C       -5.0660     1.8410     1.4370 C.ar  1 <1>  -0.1500 
 13 C       -3.1880     3.1520     0.7550 C.ar  1 <1>  -0.1500 
 14 C        2.4750    -2.7000    -1.7660 C.ar  1 <1>  -0.1500 
 15 C        1.4720    -4.7660    -1.0930 C.ar  1 <1>  -0.1500 
 16 O       -4.4000    -1.4520     2.1930 O.2   1 <1>  -0.5700 
 17 N       -6.1780    -0.9740     0.9180 N.am  1 <1>  -0.6600 
 18 C       -4.5000     3.0750     1.1870 C.ar  1 <1>  -0.1500 
 19 C        2.4950    -4.0830    -1.7250 C.ar  1 <1>  -0.1500 
 20 C       -6.6950    -0.3460    -0.3310 C.3   1 <1>   0.1400 
 21 C       -6.9280    -2.1890     1.3390 C.3   1 <1>   0.1400 
 22 C       -6.6670    -1.3710    -1.4690 C.3   1 <1>  -0.1600 
 23 C       -6.8950    -3.2300     0.2160 C.3   1 <1>  -0.1600 
 24 C       -7.4320    -2.6530    -1.1030 C.3   1 <1>  -0.0800 
 25 C       -7.3220    -3.6870    -2.2290 C.3   1 <1>  -0.2400 
 26 H       -2.6660    -1.2080     1.2450 H     1 <1>   0.3700 
 27 H       -1.1880    -2.5940     0.7500 H     1 <1>   0.3700 
 28 H       -1.4300     2.0690     0.2620 H     1 <1>   0.1500 
 29 H        1.4420    -0.9310    -1.2120 H     1 <1>   0.1500 
 30 H       -0.3570    -4.6070    -0.0200 H     1 <1>   0.1500 
 31 H       -6.0860     1.7830     1.7780 H     1 <1>   0.1500 
 32 H       -2.7390     4.1100     0.5550 H     1 <1>   0.1500 
 33 H        3.2690    -2.1640    -2.2560 H     1 <1>   0.1500 
 34 H        1.4850    -5.8420    -1.0600 H     1 <1>   0.1500 
 35 H       -5.0730     3.9770     1.3270 H     1 <1>   0.1500 
 36 H        3.3040    -4.6250    -2.1850 H     1 <1>   0.1500 
 37 H       -6.1020     0.5050    -0.6140 H     1 <1>   0.0800 
 38 H       -7.7050    -0.0120    -0.1640 H     1 <1>   0.0800 
 39 H       -7.9470    -1.9140     1.5540 H     1 <1>   0.0800 
 40 H       -6.5040    -2.6070     2.2370 H     1 <1>   0.0800 
 41 H       -5.6410    -1.6070    -1.6920 H     1 <1>   0.0800 
 42 H       -7.0990    -0.9300    -2.3500 H     1 <1>   0.0800 
 43 H       -7.4840    -4.0800     0.5090 H     1 <1>   0.0800 
 44 H       -5.8790    -3.5610     0.0890 H     1 <1>   0.0800 
 45 H       -8.4720    -2.4050    -0.9700 H     1 <1>   0.0800 
 46 H       -6.2940    -3.9610    -2.3930 H     1 <1>   0.0800 
 47 H       -7.7210    -3.2870    -3.1440 H     1 <1>   0.0800 
 48 H       -7.8770    -4.5740    -1.9770 H     1 <1>   0.0800 
@<TRIPOS>BOND
  1   1   2  2   
  2   2   3  am  
  3   2   4  am  
  4   3   5  1   
  5   3  26  1   
  6   4   6  1   
  7   4  27  1   
  8   5   7  ar  
  9   5   8  ar  
 10   6   9  ar  
 11   6  10  ar  
 12   7  11  1   
 13   7  12  ar  
 14   8  13  ar  
 15   8  28  1   
 16   9  14  ar  
 17   9  29  1   
 18  10  15  ar  
 19  10  30  1   
 20  11  16  2   
 21  11  17  am  
 22  12  18  ar  
 23  12  31  1   
 24  13  18  ar  
 25  13  32  1   
 26  14  19  ar  
 27  14  33  1   
 28  15  19  ar  
 29  15  34  1   
 30  17  20  1   
 31  17  21  1   
 32  18  35  1   
 33  19  36  1   
 34  20  22  1   
 35  20  37  1   
 36  20  38  1   
 37  21  23  1   
 38  21  39  1   
 39  21  40  1   
 40  22  24  1   
 41  22  41  1   
 42  22  42  1   
 43  23  24  1   
 44  23  43  1   
 45  23  44  1   
 46  24  25  1   
 47  24  45  1   
 48  25  46  1   
 49  25  47  1   
 50  25  48  1   
@<TRIPOS>SUBSTRUCTURE
  1 ****   3 GROUP 4 **** **** 0

# MOE 2024.06 (io_trps.svl 2023.06)
