@<TRIPOS>MOLECULE
NONAME
45 47 1 0 0 
SMALL
USER_CHARGES


@<TRIPOS>ATOM
  1 O       -0.5800    -0.4470     1.1090 O.2   1 <1>  -0.5700 
  2 C       -0.9820    -1.5880     0.9820 C.2   1 <1>   0.6900 
  3 N       -2.2830    -1.8980     1.2780 N.am  1 <1>  -0.6600 
  4 N       -0.1540    -2.5940     0.5780 N.am  1 <1>  -0.5470 
  5 C       -3.0600    -2.9610     0.5600 C.3   1 <1>   0.1400 
  6 C       -3.1570    -0.9240     2.0080 C.3   1 <1>   0.1400 
  7 C        1.1530    -2.5850     0.0680 C.ar  1 <1>   0.1170 
  8 C       -4.1470    -2.3510    -0.3430 C.3   1 <1>   0.2090 
  9 C       -4.2260    -0.3270     1.0780 C.3   1 <1>   0.2090 
 10 C        1.9600    -3.7170     0.2040 C.ar  1 <1>  -0.1440 
 11 C        1.6670    -1.4780    -0.6000 C.ar  1 <1>  -0.1500 
 12 N       -5.0190    -1.4060     0.4190 N.pl3 1 <1>  -0.8380 
 13 C        3.2430    -3.7180    -0.3200 C.ar  1 <1>  -0.1500 
 14 C        1.4600    -4.9610     0.9280 C.3   1 <1>  -0.0970 
 15 C        2.9480    -1.4870    -1.1180 C.ar  1 <1>  -0.1500 
 16 C       -6.2330    -1.0450    -0.1350 C.ar  1 <1>   0.4100 
 17 C        3.7450    -2.6090    -0.9800 C.ar  1 <1>  -0.1440 
 18 N       -6.3290    -1.0570    -1.4600 N.ar  1 <1>  -0.6200 
 19 C       -7.2870    -0.6840     0.7010 C.ar  1 <1>  -0.1500 
 20 C        5.1530    -2.6260    -1.5470 C.3   1 <1>  -0.0970 
 21 C       -7.4990    -0.6940    -1.9580 C.ar  1 <1>   0.1600 
 22 C       -8.4990    -0.3090     0.1700 C.ar  1 <1>  -0.1500 
 23 C       -8.5970    -0.3160    -1.2070 C.ar  1 <1>  -0.1500 
 24 H       -0.5100    -3.5080     0.8220 H     1 <1>   0.3700 
 25 H       -3.5300    -3.6020     1.2840 H     1 <1>   0.0800 
 26 H       -2.4120    -3.5640    -0.0500 H     1 <1>   0.0800 
 27 H       -2.5660    -0.1290     2.4280 H     1 <1>   0.0800 
 28 H       -3.6450    -1.4320     2.8200 H     1 <1>   0.0800 
 29 H       -4.7530    -3.1390    -0.7570 H     1 <1>   0.0800 
 30 H       -3.6820    -1.8260    -1.1600 H     1 <1>   0.0800 
 31 H       -3.7440     0.2730     0.3240 H     1 <1>   0.0800 
 32 H       -4.8770     0.3130     1.6460 H     1 <1>   0.0800 
 33 H        1.0610    -0.5990    -0.7200 H     1 <1>   0.1500 
 34 H        3.8660    -4.5890    -0.2150 H     1 <1>   0.1500 
 35 H        0.6300    -5.3900     0.3950 H     1 <1>   0.0800 
 36 H        1.1500    -4.7060     1.9260 H     1 <1>   0.0800 
 37 H        2.2350    -5.7030     0.9990 H     1 <1>   0.0800 
 38 H        3.3180    -0.6160    -1.6280 H     1 <1>   0.1500 
 39 H       -7.1370    -0.7110     1.7630 H     1 <1>   0.1500 
 40 H        5.8010    -3.2120    -0.9220 H     1 <1>   0.0800 
 41 H        5.5480    -1.6280    -1.6040 H     1 <1>   0.0800 
 42 H        5.1410    -3.0520    -2.5340 H     1 <1>   0.0800 
 43 H       -7.5870    -0.6980    -3.0310 H     1 <1>   0.1500 
 44 H       -9.3290    -0.0260     0.7930 H     1 <1>   0.1500 
 45 H       -9.5150    -0.0350    -1.6910 H     1 <1>   0.1500 
@<TRIPOS>BOND
  1   1   2  2   
  2   2   3  am  
  3   2   4  am  
  4   3   5  1   
  5   3   6  1   
  6   4   7  1   
  7   4  24  1   
  8   5   8  1   
  9   5  25  1   
 10   5  26  1   
 11   6   9  1   
 12   6  27  1   
 13   6  28  1   
 14   7  10  ar  
 15   7  11  ar  
 16   8  12  1   
 17   8  29  1   
 18   8  30  1   
 19   9  12  1   
 20   9  31  1   
 21   9  32  1   
 22  10  13  ar  
 23  10  14  1   
 24  11  15  ar  
 25  11  33  1   
 26  12  16  1   
 27  13  17  ar  
 28  13  34  1   
 29  14  35  1   
 30  14  36  1   
 31  14  37  1   
 32  15  17  ar  
 33  15  38  1   
 34  16  18  ar  
 35  16  19  ar  
 36  17  20  1   
 37  18  21  ar  
 38  19  22  ar  
 39  19  39  1   
 40  20  40  1   
 41  20  41  1   
 42  20  42  1   
 43  21  23  ar  
 44  21  43  1   
 45  22  23  ar  
 46  22  44  1   
 47  23  45  1   
@<TRIPOS>SUBSTRUCTURE
  1 ****   3 GROUP 4 **** **** 0

# MOE 2024.06 (io_trps.svl 2023.06)
