@<TRIPOS>MOLECULE
NONAME
44 46 1 0 0 
SMALL
USER_CHARGES


@<TRIPOS>ATOM
  1 O       -0.5410    -0.4330    -0.8950 O.3   1 <1>  -0.3630 
  2 C       -1.6940    -1.0270    -0.4740 C.ar  1 <1>   0.0830 
  3 C        0.2250    -0.9090    -1.9790 C.3   1 <1>   0.0400 
  4 C       -2.4280    -2.0230    -1.1390 C.ar  1 <1>   0.0830 
  5 C       -2.1550    -0.5690     0.7490 C.ar  1 <1>  -0.1500 
  6 O       -2.0620    -2.5340    -2.3350 O.3   1 <1>  -0.5330 
  7 C       -3.5930    -2.5210    -0.5710 C.ar  1 <1>  -0.1500 
  8 C       -3.3160    -1.0680     1.3110 C.ar  1 <1>  -0.1500 
  9 C       -4.0470    -2.0420     0.6500 C.ar  1 <1>  -0.1430 
 10 C       -5.3330    -2.5660     1.2610 C.3   1 <1>   0.4860 
 11 N       -6.4860    -1.9490     0.5530 N.4   1 <1>  -0.9590 
 12 C       -6.5010    -0.4450     0.6950 C.3   1 <1>   0.3430 
 13 C       -7.8000    -2.5370     0.9990 C.3   1 <1>   0.3430 
 14 C       -7.6940     0.2030    -0.0360 C.3   1 <1>   0.2090 
 15 C       -9.0030    -1.9090     0.2670 C.3   1 <1>   0.2090 
 16 N       -8.9920    -0.4190     0.3640 N.pl3 1 <1>  -0.8380 
 17 C      -10.0910     0.1820    -0.2090 C.ar  1 <1>   0.4100 
 18 N      -10.2190     0.0320    -1.5210 N.ar  1 <1>  -0.6200 
 19 C      -10.9860     0.8960     0.5810 C.ar  1 <1>  -0.1500 
 20 C      -11.2780     0.6160    -2.0600 C.ar  1 <1>   0.1600 
 21 C      -12.0810     1.4970     0.0060 C.ar  1 <1>  -0.1500 
 22 C      -12.2220     1.3450    -1.3590 C.ar  1 <1>  -0.1500 
 23 H        1.1400    -0.3470    -2.0160 H     1 <1>   0.0800 
 24 H       -0.3290    -0.7620    -2.8880 H     1 <1>   0.0800 
 25 H        0.4410    -1.9510    -1.8240 H     1 <1>   0.0800 
 26 H       -1.5870     0.1890     1.2600 H     1 <1>   0.1500 
 27 H       -2.6240    -3.2610    -2.6530 H     1 <1>   0.4500 
 28 H       -4.1400    -3.2870    -1.0910 H     1 <1>   0.1500 
 29 H       -3.6300    -0.6850     2.2680 H     1 <1>   0.1500 
 30 H       -5.3660    -2.3220     2.3100 H     1 <1>   0.0800 
 31 H       -5.3640    -3.6390     1.1600 H     1 <1>   0.0800 
 32 H       -6.3730    -2.1410    -0.4500 H     1 <1>   0.4500 
 33 H       -5.5880    -0.0300     0.3010 H     1 <1>   0.0800 
 34 H       -6.5620    -0.1800     1.7370 H     1 <1>   0.0800 
 35 H       -7.9310    -2.3690     2.0560 H     1 <1>   0.0800 
 36 H       -7.8060    -3.6000     0.8290 H     1 <1>   0.0800 
 37 H       -7.5600     0.1080    -1.1010 H     1 <1>   0.0800 
 38 H       -7.7220     1.2550     0.1940 H     1 <1>   0.0800 
 39 H       -9.9170    -2.2810     0.6980 H     1 <1>   0.0800 
 40 H       -8.9900    -2.2040    -0.7690 H     1 <1>   0.0800 
 41 H      -10.8070     0.9690     1.6360 H     1 <1>   0.1500 
 42 H      -11.4030     0.5070    -3.1240 H     1 <1>   0.1500 
 43 H      -12.7930     2.0570     0.5870 H     1 <1>   0.1500 
 44 H      -13.0560     1.7890    -1.8730 H     1 <1>   0.1500 
@<TRIPOS>BOND
  1   1   2  1   
  2   1   3  1   
  3   2   4  ar  
  4   2   5  ar  
  5   3  23  1   
  6   3  24  1   
  7   3  25  1   
  8   4   6  1   
  9   4   7  ar  
 10   5   8  ar  
 11   5  26  1   
 12   6  27  1   
 13   7   9  ar  
 14   7  28  1   
 15   8   9  ar  
 16   8  29  1   
 17   9  10  1   
 18  10  11  1   
 19  10  30  1   
 20  10  31  1   
 21  11  12  1   
 22  11  13  1   
 23  11  32  1   
 24  12  14  1   
 25  12  33  1   
 26  12  34  1   
 27  13  15  1   
 28  13  35  1   
 29  13  36  1   
 30  14  16  1   
 31  14  37  1   
 32  14  38  1   
 33  15  16  1   
 34  15  39  1   
 35  15  40  1   
 36  16  17  1   
 37  17  18  ar  
 38  17  19  ar  
 39  18  20  ar  
 40  19  21  ar  
 41  19  41  1   
 42  20  22  ar  
 43  20  42  1   
 44  21  22  ar  
 45  21  43  1   
 46  22  44  1   
@<TRIPOS>SUBSTRUCTURE
  1 ****  12 GROUP 4 **** **** 0

# MOE 2024.06 (io_trps.svl 2023.06)
