@<TRIPOS>MOLECULE
NONAME
40 41 1 0 0 
SMALL
USER_CHARGES


@<TRIPOS>ATOM
  1 O        0.3120    -0.0040     0.2890 O.2   1 <1>  -0.5700 
  2 C        0.2770     1.1970     0.0920 C.2   1 <1>   0.7150 
  3 N        1.3390     1.7940    -0.5150 N.am  1 <1>  -0.7300 
  4 C       -0.8580     1.9930     0.4960 C.2   1 <1>   0.0550 
  5 C        2.6210     1.1560    -0.8080 C.3   1 <1>   0.3640 
  6 O       -0.8740     3.3110     0.3010 O.3   1 <1>  -0.2800 
  7 C       -2.0260     1.6340     1.0970 C.2   1 <1>  -0.1500 
  8 C        3.7250     2.1830    -0.5790 C.ar  1 <1>  -0.1440 
  9 C        2.6010     0.6410    -2.2440 C.3   1 <1>  -0.2400 
 10 C       -2.0070     3.7940     0.7560 C.2   1 <1>  -0.0400 
 11 C       -2.7690     2.8030     1.2640 C.2   1 <1>  -0.1500 
 12 C        4.6630     1.9700     0.4210 C.ar  1 <1>  -0.1500 
 13 C        3.8090     3.3370    -1.3450 C.ar  1 <1>  -0.1500 
 14 C       -2.2630     5.2810     0.6490 C.3   1 <1>  -0.0600 
 15 C        5.6790     2.8910     0.6590 C.ar  1 <1>   0.0830 
 16 C        4.8140     4.2610    -1.1220 C.ar  1 <1>  -0.1500 
 17 O        6.6160     2.7120     1.6350 O.3   1 <1>  -0.3630 
 18 C        5.7570     4.0480    -0.1210 C.ar  1 <1>   0.0830 
 19 C        6.5600     1.6250     2.5310 C.3   1 <1>   0.0400 
 20 O        6.7660     4.9300     0.1350 O.3   1 <1>  -0.3630 
 21 C        6.9300     6.1120    -0.6150 C.3   1 <1>   0.0400 
 22 H        1.3400     2.8130    -0.5580 H     1 <1>   0.3700 
 23 H        2.7620     0.3200    -0.1430 H     1 <1>   0.0800 
 24 H       -2.3280     0.6450     1.3900 H     1 <1>   0.1500 
 25 H        2.3870     1.4320    -2.9380 H     1 <1>   0.0800 
 26 H        1.8550    -0.1280    -2.3420 H     1 <1>   0.0800 
 27 H        3.5590     0.2170    -2.4880 H     1 <1>   0.0800 
 28 H       -3.7460     2.8660     1.7110 H     1 <1>   0.1500 
 29 H        4.5880     1.0770     1.0110 H     1 <1>   0.1500 
 30 H        3.0900     3.5260    -2.1240 H     1 <1>   0.1500 
 31 H       -2.2440     5.5790    -0.3840 H     1 <1>   0.0800 
 32 H       -1.5030     5.8200     1.1830 H     1 <1>   0.0800 
 33 H       -3.2240     5.5240     1.0650 H     1 <1>   0.0800 
 34 H        4.8440     5.1390    -1.7370 H     1 <1>   0.1500 
 35 H        7.3750     1.7260     3.2250 H     1 <1>   0.0800 
 36 H        6.6650     0.7100     1.9760 H     1 <1>   0.0800 
 37 H        5.6240     1.6560     3.0590 H     1 <1>   0.0800 
 38 H        7.7900     6.6320    -0.2310 H     1 <1>   0.0800 
 39 H        6.0530     6.7230    -0.5000 H     1 <1>   0.0800 
 40 H        7.0910     5.8520    -1.6460 H     1 <1>   0.0800 
@<TRIPOS>BOND
  1   1   2  2   
  2   2   3  am  
  3   2   4  1   
  4   3   5  1   
  5   3  22  1   
  6   4   6  1   
  7   4   7  2   
  8   5   8  1   
  9   5   9  1   
 10   5  23  1   
 11   6  10  1   
 12   7  11  1   
 13   7  24  1   
 14   8  12  ar  
 15   8  13  ar  
 16   9  25  1   
 17   9  26  1   
 18   9  27  1   
 19  10  11  2   
 20  10  14  1   
 21  11  28  1   
 22  12  15  ar  
 23  12  29  1   
 24  13  16  ar  
 25  13  30  1   
 26  14  31  1   
 27  14  32  1   
 28  14  33  1   
 29  15  17  1   
 30  15  18  ar  
 31  16  18  ar  
 32  16  34  1   
 33  17  19  1   
 34  18  20  1   
 35  19  35  1   
 36  19  36  1   
 37  19  37  1   
 38  20  21  1   
 39  21  38  1   
 40  21  39  1   
 41  21  40  1   
@<TRIPOS>SUBSTRUCTURE
  1 ****   8 GROUP 4 **** **** 0

# MOE 2024.06 (io_trps.svl 2023.06)
