@<TRIPOS>MOLECULE
NONAME
38 39 1 0 0 
SMALL
USER_CHARGES


@<TRIPOS>ATOM
  1 S       -0.3390     2.2420     0.7290 S.3   1 <1>  -0.2860 
  2 C        1.4430     2.0820     0.9260 C.2   1 <1>   0.2420 
  3 C       -0.7710     1.2430    -0.7780 C.3   1 <1>   0.1310 
  4 N        2.0930     2.6250     1.8910 N.2   1 <1>  -0.3380 
  5 N        2.2220     1.3950     0.0970 N.pl3 1 <1>   0.0330 
  6 C       -2.2590     1.2920    -1.0900 C.2   1 <1>   0.5690 
  7 N        3.3750     2.2870     1.7040 N.2   1 <1>  -0.3380 
  8 C        3.4310     1.5590     0.6390 C.2   1 <1>   0.0060 
  9 O       -2.6170     0.7420    -2.1010 O.2   1 <1>  -0.5700 
 10 N       -3.1000     1.9460    -0.2290 N.am  1 <1>  -0.5470 
 11 C        4.7050     0.9650     0.0650 C.3   1 <1>   0.0200 
 12 C       -4.4880     2.1580    -0.2360 C.ar  1 <1>   0.1170 
 13 C        4.6730    -0.5670     0.0860 C.3   1 <1>  -0.2400 
 14 C       -5.0190     3.0580     0.6790 C.ar  1 <1>  -0.1500 
 15 C       -5.3630     1.5110    -1.0990 C.ar  1 <1>  -0.1500 
 16 C       -6.3790     3.3190     0.7410 C.ar  1 <1>  -0.1430 
 17 C       -6.7210     1.7630    -1.0480 C.ar  1 <1>  -0.1500 
 18 C       -7.2410     2.6640    -0.1320 C.ar  1 <1>  -0.1430 
 19 C       -6.8980     4.3180     1.7660 C.3   1 <1>  -0.0970 
 20 C       -8.7420     2.9130    -0.1090 C.3   1 <1>  -0.0970 
 21 H       -0.4730     0.2290    -0.5890 H     1 <1>   0.0800 
 22 H       -0.2150     1.6500    -1.6030 H     1 <1>   0.0800 
 23 H        1.9700     0.8720    -0.7390 H     1 <1>   0.2700 
 24 H       -2.6200     2.3870     0.5580 H     1 <1>   0.3700 
 25 H        5.5410     1.3080     0.6520 H     1 <1>   0.0800 
 26 H        4.8450     1.3180    -0.9410 H     1 <1>   0.0800 
 27 H        4.5250    -0.9160     1.0930 H     1 <1>   0.0800 
 28 H        5.6070    -0.9580    -0.2770 H     1 <1>   0.0800 
 29 H        3.8790    -0.9430    -0.5330 H     1 <1>   0.0800 
 30 H       -4.3540     3.5650     1.3530 H     1 <1>   0.1500 
 31 H       -4.9960     0.8040    -1.8180 H     1 <1>   0.1500 
 32 H       -7.3720     1.2470    -1.7310 H     1 <1>   0.1500 
 33 H       -6.0940     4.7230     2.3530 H     1 <1>   0.0800 
 34 H       -7.5920     3.8360     2.4300 H     1 <1>   0.0800 
 35 H       -7.3940     5.1310     1.2680 H     1 <1>   0.0800 
 36 H       -8.9470     3.9490    -0.3090 H     1 <1>   0.0800 
 37 H       -9.1430     2.6530     0.8540 H     1 <1>   0.0800 
 38 H       -9.2420     2.3210    -0.8540 H     1 <1>   0.0800 
@<TRIPOS>BOND
  1   1   2  1   
  2   1   3  1   
  3   2   4  2   
  4   2   5  1   
  5   3   6  1   
  6   3  21  1   
  7   3  22  1   
  8   4   7  1   
  9   5   8  1   
 10   5  23  1   
 11   6   9  2   
 12   6  10  am  
 13   7   8  2   
 14   8  11  1   
 15  10  12  1   
 16  10  24  1   
 17  11  13  1   
 18  11  25  1   
 19  11  26  1   
 20  12  14  ar  
 21  12  15  ar  
 22  13  27  1   
 23  13  28  1   
 24  13  29  1   
 25  14  16  ar  
 26  14  30  1   
 27  15  17  ar  
 28  15  31  1   
 29  16  18  ar  
 30  16  19  1   
 31  17  18  ar  
 32  17  32  1   
 33  18  20  1   
 34  19  33  1   
 35  19  34  1   
 36  19  35  1   
 37  20  36  1   
 38  20  37  1   
 39  20  38  1   
@<TRIPOS>SUBSTRUCTURE
  1 ****  10 GROUP 4 **** **** 0

# MOE 2024.06 (io_trps.svl 2023.06)
