@<TRIPOS>MOLECULE
NONAME
53 55 1 0 0 
SMALL
USER_CHARGES


@<TRIPOS>ATOM
  1 O       -1.5200    -0.2740    -2.2930 O.2   1 <1>  -0.5700 
  2 C       -2.0600     0.4390    -1.4550 C.2   1 <1>   0.4690 
  3 C       -1.4580     1.6560    -1.0120 C.2   1 <1>   0.0290 
  4 C       -3.3200     0.0330    -0.8910 C.ar  1 <1>   0.0860 
  5 C       -0.2180     2.1320    -1.5640 C.2   1 <1>   0.6160 
  6 C       -2.1120     2.3930    -0.0640 C.2   1 <1>  -0.0500 
  7 C       -3.9250     0.8210     0.1020 C.ar  1 <1>   0.4100 
  8 C       -3.9790    -1.1300    -1.2870 C.ar  1 <1>  -0.1500 
  9 O       -0.1250     3.2880    -1.9220 O.2   1 <1>  -0.5700 
 10 N        0.9400     1.4170    -1.6710 N.am  1 <1>  -0.7300 
 11 N       -3.2960     2.0050     0.4980 N.pl3 1 <1>  -0.5690 
 12 N       -5.0810     0.4990     0.6940 N.ar  1 <1>  -0.6200 
 13 C       -5.1680    -1.4440    -0.6790 C.ar  1 <1>  -0.1500 
 14 C        1.2040     0.0100    -1.3260 C.3   1 <1>   0.1400 
 15 C       -3.9310     2.9040     1.5040 C.3   1 <1>   0.2090 
 16 C       -5.6740    -0.6030     0.3030 C.ar  1 <1>   0.1670 
 17 C        2.6310    -0.1110    -0.8000 C.3   1 <1>  -0.1600 
 18 C       -4.8700     3.8790     0.7970 C.3   1 <1>  -0.2400 
 19 C       -6.9830    -0.9370     0.9870 C.3   1 <1>  -0.0970 
 20 C        2.9300    -1.5620    -0.4260 C.3   1 <1>   0.3430 
 21 N        4.3550    -1.7170    -0.0190 N.4   1 <1>  -0.9590 
 22 C        4.7330    -3.1730     0.0550 C.3   1 <1>   0.3430 
 23 C        4.6630    -1.0380     1.2930 C.3   1 <1>   0.3430 
 24 C        6.1710    -3.3630     0.5750 C.3   1 <1>   0.1200 
 25 C        6.1040    -1.3240     1.7570 C.3   1 <1>   0.1200 
 26 O        6.3340    -2.7020     1.7950 O.3   1 <1>  -0.5600 
 27 H       -1.6920     3.3330     0.2600 H     1 <1>   0.1500 
 28 H       -3.5620    -1.7620    -2.0520 H     1 <1>   0.1500 
 29 H        1.6610     1.9070    -2.2060 H     1 <1>   0.3700 
 30 H       -5.7030    -2.3340    -0.9600 H     1 <1>   0.1500 
 31 H        1.0720    -0.5940    -2.2100 H     1 <1>   0.0800 
 32 H        0.5010    -0.3180    -0.5780 H     1 <1>   0.0800 
 33 H       -3.1660     3.4540     2.0250 H     1 <1>   0.0800 
 34 H       -4.4710     2.3290     2.2370 H     1 <1>   0.0800 
 35 H        2.7280     0.5240     0.0620 H     1 <1>   0.0800 
 36 H        3.3110     0.2120    -1.5680 H     1 <1>   0.0800 
 37 H       -4.3270     4.4680     0.0800 H     1 <1>   0.0800 
 38 H       -5.3190     4.5380     1.5170 H     1 <1>   0.0800 
 39 H       -5.6520     3.3370     0.2960 H     1 <1>   0.0800 
 40 H       -7.6850    -0.1400     0.8240 H     1 <1>   0.0800 
 41 H       -6.8180    -1.0410     2.0440 H     1 <1>   0.0800 
 42 H       -7.4000    -1.8510     0.6080 H     1 <1>   0.0800 
 43 H        2.7310    -2.1880    -1.2820 H     1 <1>   0.0800 
 44 H        2.2800    -1.8770     0.3760 H     1 <1>   0.0800 
 45 H        4.9480    -1.2840    -0.7390 H     1 <1>   0.4500 
 46 H        4.6440    -3.6290    -0.9170 H     1 <1>   0.0800 
 47 H        4.0640    -3.6900     0.7240 H     1 <1>   0.0800 
 48 H        3.9870    -1.3920     2.0550 H     1 <1>   0.0800 
 49 H        4.5290     0.0270     1.2010 H     1 <1>   0.0800 
 50 H        6.8950    -2.9830    -0.1260 H     1 <1>   0.0800 
 51 H        6.3710    -4.4070     0.7400 H     1 <1>   0.0800 
 52 H        6.2570    -0.9400     2.7500 H     1 <1>   0.0800 
 53 H        6.8250    -0.8690     1.0990 H     1 <1>   0.0800 
@<TRIPOS>BOND
  1   1   2  2   
  2   2   3  1   
  3   2   4  1   
  4   3   5  1   
  5   3   6  2   
  6   4   7  ar  
  7   4   8  ar  
  8   5   9  2   
  9   5  10  am  
 10   6  11  1   
 11   6  27  1   
 12   7  11  1   
 13   7  12  ar  
 14   8  13  ar  
 15   8  28  1   
 16  10  14  1   
 17  10  29  1   
 18  11  15  1   
 19  12  16  ar  
 20  13  16  ar  
 21  13  30  1   
 22  14  17  1   
 23  14  31  1   
 24  14  32  1   
 25  15  18  1   
 26  15  33  1   
 27  15  34  1   
 28  16  19  1   
 29  17  20  1   
 30  17  35  1   
 31  17  36  1   
 32  18  37  1   
 33  18  38  1   
 34  18  39  1   
 35  19  40  1   
 36  19  41  1   
 37  19  42  1   
 38  20  21  1   
 39  20  43  1   
 40  20  44  1   
 41  21  22  1   
 42  21  23  1   
 43  21  45  1   
 44  22  24  1   
 45  22  46  1   
 46  22  47  1   
 47  23  25  1   
 48  23  48  1   
 49  23  49  1   
 50  24  26  1   
 51  24  50  1   
 52  24  51  1   
 53  25  26  1   
 54  25  52  1   
 55  25  53  1   
@<TRIPOS>SUBSTRUCTURE
  1 ****   3 GROUP 4 **** **** 0

# MOE 2024.06 (io_trps.svl 2023.06)
