@<TRIPOS>MOLECULE
NONAME
36 37 1 0 0 
SMALL
USER_CHARGES


@<TRIPOS>ATOM
  1 O       -0.4200    -4.0900    -0.2850 O.2   1 <1>  -0.5700 
  2 C        0.1600    -4.9620     0.3430 C.2   1 <1>   0.5440 
  3 N       -0.5180    -5.5760     1.3650 N.am  1 <1>  -0.7300 
  4 C        1.5340    -5.3630     0.0240 C.ar  1 <1>   0.3960 
  5 C       -1.8580    -5.2160     1.8950 C.3   1 <1>   0.1400 
  6 N        2.0970    -6.3640     0.7280 N.ar  1 <1>  -0.6200 
  7 C        2.2350    -4.7100    -0.9930 C.ar  1 <1>  -0.1500 
  8 C       -2.9690    -5.7230     0.9580 C.3   1 <1>   0.1100 
  9 C        3.3350    -6.6970     0.4120 C.ar  1 <1>   0.1600 
 10 C        3.5260    -5.0690    -1.3120 C.ar  1 <1>  -0.1500 
 11 N       -3.9970    -4.6950     0.6660 N.3   1 <1>  -0.8100 
 12 C        4.0840    -6.0940    -0.5820 C.ar  1 <1>  -0.1500 
 13 C       -5.1790    -5.3200     0.0410 C.3   1 <1>   0.1100 
 14 C       -3.4390    -3.6210    -0.1930 C.3   1 <1>   0.1100 
 15 C       -6.2610    -4.2740    -0.2950 C.3   1 <1>   0.3430 
 16 C       -4.4960    -2.5590    -0.5450 C.3   1 <1>   0.3430 
 17 N       -5.7140    -3.1790    -1.1620 N.4   1 <1>  -0.9060 
 18 H        0.0030    -6.3010     1.8720 H     1 <1>   0.3700 
 19 H       -1.9090    -4.1480     2.0130 H     1 <1>   0.0800 
 20 H       -1.9800    -5.6590     2.8670 H     1 <1>   0.0800 
 21 H        1.7560    -3.9140    -1.5340 H     1 <1>   0.1500 
 22 H       -3.4370    -6.5670     1.4360 H     1 <1>   0.0800 
 23 H       -2.5350    -6.0670     0.0330 H     1 <1>   0.0800 
 24 H        3.7830    -7.4990     0.9760 H     1 <1>   0.1500 
 25 H        4.0730    -4.5710    -2.0940 H     1 <1>   0.1500 
 26 H        5.0880    -6.4240    -0.7790 H     1 <1>   0.1500 
 27 H       -5.5970    -6.0420     0.7220 H     1 <1>   0.0800 
 28 H       -4.8880    -5.8430    -0.8560 H     1 <1>   0.0800 
 29 H       -3.0280    -4.0430    -1.0950 H     1 <1>   0.0800 
 30 H       -2.6380    -3.1220     0.3220 H     1 <1>   0.0800 
 31 H       -6.6250    -3.8580     0.6300 H     1 <1>   0.0800 
 32 H       -7.0860    -4.7600    -0.7890 H     1 <1>   0.0800 
 33 H       -4.0620    -1.8390    -1.2210 H     1 <1>   0.0800 
 34 H       -4.7680    -2.0430     0.3610 H     1 <1>   0.0800 
 35 H       -6.4310    -2.4630    -1.3270 H     1 <1>   0.4500 
 36 H       -5.4470    -3.5780    -2.0680 H     1 <1>   0.4500 
@<TRIPOS>BOND
  1   1   2  2   
  2   2   3  am  
  3   2   4  1   
  4   3   5  1   
  5   3  18  1   
  6   4   6  ar  
  7   4   7  ar  
  8   5   8  1   
  9   5  19  1   
 10   5  20  1   
 11   6   9  ar  
 12   7  10  ar  
 13   7  21  1   
 14   8  11  1   
 15   8  22  1   
 16   8  23  1   
 17   9  12  ar  
 18   9  24  1   
 19  10  12  ar  
 20  10  25  1   
 21  11  13  1   
 22  11  14  1   
 23  12  26  1   
 24  13  15  1   
 25  13  27  1   
 26  13  28  1   
 27  14  16  1   
 28  14  29  1   
 29  14  30  1   
 30  15  17  1   
 31  15  31  1   
 32  15  32  1   
 33  16  17  1   
 34  16  33  1   
 35  16  34  1   
 36  17  35  1   
 37  17  36  1   
@<TRIPOS>SUBSTRUCTURE
  1 ****   1 GROUP 4 **** **** 0

# MOE 2024.06 (io_trps.svl 2023.06)
