@<TRIPOS>MOLECULE
NONAME
42 44 1 0 0 
SMALL
USER_CHARGES


@<TRIPOS>ATOM
  1 CL      -1.6700    -1.3920     2.6930 Cl    1 <1>  -0.1770 
  2 C       -3.0020    -1.7240     1.6050 C.ar  1 <1>   0.1770 
  3 C       -3.0550    -2.9270     0.9080 C.ar  1 <1>   0.0820 
  4 C       -3.9810    -0.7650     1.4630 C.ar  1 <1>  -0.1500 
  5 O       -2.0490    -3.8210     1.0910 O.3   1 <1>  -0.3630 
  6 C       -4.1350    -3.1530     0.0620 C.ar  1 <1>  -0.1500 
  7 C       -5.0600    -0.9690     0.6050 C.ar  1 <1>   0.0860 
  8 C       -2.0090    -5.0590     0.4160 C.3   1 <1>   0.0400 
  9 C       -5.1320    -2.1920    -0.0810 C.ar  1 <1>   0.0830 
 10 C       -6.0640     0.0550     0.4730 C.2   1 <1>   0.3030 
 11 O       -6.2190    -2.4020    -0.8660 O.3   1 <1>  -0.3630 
 12 N       -6.7190     0.5940     1.4170 N.2   1 <1>  -0.5130 
 13 C       -6.4360     0.6410    -0.8640 C.3   1 <1>  -0.0990 
 14 C       -6.6000    -3.6860    -1.3140 C.3   1 <1>   0.0400 
 15 O       -7.5800     1.4700     0.9380 O.3   1 <1>  -0.2170 
 16 C       -7.7100     1.3760    -0.4730 C.3   1 <1>   0.2610 
 17 C       -8.9520     0.5520    -0.8290 C.2   1 <1>   0.5690 
 18 O       -9.4090     0.6280    -1.9460 O.2   1 <1>  -0.5700 
 19 N       -9.4750    -0.2880     0.0990 N.am  1 <1>  -0.7300 
 20 C      -10.4000    -1.3980    -0.1680 C.3   1 <1>   0.3200 
 21 C       -9.8540    -2.6610     0.4740 C.2   1 <1>  -0.1400 
 22 S      -10.7610    -4.1390     0.1910 S.3   1 <1>  -0.0800 
 23 C       -8.7790    -2.9150     1.2480 C.2   1 <1>  -0.1500 
 24 C       -9.6340    -5.0740     1.1570 C.2   1 <1>  -0.1100 
 25 C       -8.6560    -4.2870     1.6380 C.2   1 <1>  -0.1500 
 26 H       -3.9110     0.1510     2.0220 H     1 <1>   0.1500 
 27 H       -4.1990    -4.0720    -0.4830 H     1 <1>   0.1500 
 28 H       -1.1170    -5.5760     0.7230 H     1 <1>   0.0800 
 29 H       -1.9780    -4.8800    -0.6440 H     1 <1>   0.0800 
 30 H       -2.8750    -5.6350     0.6880 H     1 <1>   0.0800 
 31 H       -6.6170    -0.0870    -1.6320 H     1 <1>   0.0800 
 32 H       -5.6840     1.3350    -1.1890 H     1 <1>   0.0800 
 33 H       -7.5770    -3.6070    -1.7580 H     1 <1>   0.0800 
 34 H       -6.6420    -4.3550    -0.4720 H     1 <1>   0.0800 
 35 H       -5.8920    -4.0280    -2.0460 H     1 <1>   0.0800 
 36 H       -7.7690     2.3640    -0.8890 H     1 <1>   0.0800 
 37 H       -9.0320    -0.2960     1.0240 H     1 <1>   0.3700 
 38 H      -10.5050    -1.5430    -1.2300 H     1 <1>   0.0800 
 39 H      -11.3660    -1.1660     0.2450 H     1 <1>   0.0800 
 40 H       -8.0500    -2.1910     1.5700 H     1 <1>   0.1500 
 41 H       -9.8290    -6.1260     1.2650 H     1 <1>   0.1500 
 42 H       -7.8400    -4.6090     2.2630 H     1 <1>   0.1500 
@<TRIPOS>BOND
  1   1   2  1   
  2   2   3  ar  
  3   2   4  ar  
  4   3   5  1   
  5   3   6  ar  
  6   4   7  ar  
  7   4  26  1   
  8   5   8  1   
  9   6   9  ar  
 10   6  27  1   
 11   7   9  ar  
 12   7  10  1   
 13   8  28  1   
 14   8  29  1   
 15   8  30  1   
 16   9  11  1   
 17  10  12  2   
 18  10  13  1   
 19  11  14  1   
 20  12  15  1   
 21  13  16  1   
 22  13  31  1   
 23  13  32  1   
 24  14  33  1   
 25  14  34  1   
 26  14  35  1   
 27  15  16  1   
 28  16  17  1   
 29  16  36  1   
 30  17  18  2   
 31  17  19  am  
 32  19  20  1   
 33  19  37  1   
 34  20  21  1   
 35  20  38  1   
 36  20  39  1   
 37  21  22  1   
 38  21  23  2   
 39  22  24  1   
 40  23  25  1   
 41  23  40  1   
 42  24  25  2   
 43  24  41  1   
 44  25  42  1   
@<TRIPOS>SUBSTRUCTURE
  1 ****  11 GROUP 4 **** **** 0

# MOE 2024.06 (io_trps.svl 2023.06)
