@<TRIPOS>MOLECULE
NONAME
43 44 1 0 0 
SMALL
USER_CHARGES


@<TRIPOS>ATOM
  1 O       -3.9620     1.3030     1.2500 O.2   1 <1>  -0.5700 
  2 C       -4.1770     0.7790     0.1820 C.2   1 <1>   0.6590 
  3 O       -3.1660     0.5300    -0.6490 O.3   1 <1>  -0.4300 
  4 C       -5.5830     0.3540    -0.2960 C.3   1 <1>   0.2040 
  5 C       -1.7910     0.6280    -0.3100 C.3   1 <1>   0.1200 
  6 C       -5.6270    -1.1840    -0.3460 C.ar  1 <1>  -0.1440 
  7 C       -6.7010     0.9350     0.5940 C.3   1 <1>  -0.1600 
  8 C       -5.9230     1.0280    -1.6400 C.3   1 <1>  -0.1600 
  9 C       -1.2900     2.0850    -0.3660 C.3   1 <1>   0.3430 
 10 C       -5.4180    -1.8860    -1.5300 C.ar  1 <1>  -0.1500 
 11 C       -5.8460    -1.9110     0.8190 C.ar  1 <1>  -0.1500 
 12 C       -6.9130     2.3810     0.1330 C.3   1 <1>  -0.1600 
 13 C       -6.3700     2.4510    -1.2970 C.3   1 <1>  -0.1600 
 14 N       -1.7840     2.9120     0.7820 N.4   1 <1>  -0.9590 
 15 C       -5.4440    -3.2690    -1.5490 C.ar  1 <1>  -0.1500 
 16 C       -5.8730    -3.2940     0.8010 C.ar  1 <1>  -0.1500 
 17 C       -1.8560     4.3620     0.4390 C.3   1 <1>   0.2630 
 18 C       -0.9950     2.6840     2.0300 C.3   1 <1>   0.2630 
 19 C       -5.6730    -3.9760    -0.3840 C.ar  1 <1>  -0.1500 
 20 H       -1.2550     0.0420    -1.0350 H     1 <1>   0.0800 
 21 H       -1.6370     0.1880     0.6600 H     1 <1>   0.0800 
 22 H       -6.4730     0.8840     1.6450 H     1 <1>   0.0800 
 23 H       -7.6080     0.3810     0.4180 H     1 <1>   0.0800 
 24 H       -6.7550     0.5120    -2.0890 H     1 <1>   0.0800 
 25 H       -5.1020     1.0240    -2.3350 H     1 <1>   0.0800 
 26 H       -1.6160     2.5140    -1.2990 H     1 <1>   0.0800 
 27 H       -0.2120     2.0870    -0.3640 H     1 <1>   0.0800 
 28 H       -5.2270    -1.3730    -2.4550 H     1 <1>   0.1500 
 29 H       -5.9970    -1.4120     1.7600 H     1 <1>   0.1500 
 30 H       -6.3670     3.0580     0.7670 H     1 <1>   0.0800 
 31 H       -7.9580     2.6410     0.1690 H     1 <1>   0.0800 
 32 H       -7.1230     2.7950    -1.9870 H     1 <1>   0.0800 
 33 H       -5.5320     3.1250    -1.3360 H     1 <1>   0.0800 
 34 H       -2.7510     2.5730     0.9890 H     1 <1>   0.4500 
 35 H       -5.2840    -3.7970    -2.4730 H     1 <1>   0.1500 
 36 H       -6.0480    -3.8410     1.7110 H     1 <1>   0.1500 
 37 H       -0.8730     4.7460     0.2230 H     1 <1>   0.0800 
 38 H       -2.2720     4.9190     1.2630 H     1 <1>   0.0800 
 39 H       -2.4850     4.5100    -0.4250 H     1 <1>   0.0800 
 40 H        0.0310     2.9820     1.8880 H     1 <1>   0.0800 
 41 H       -1.0220     1.6420     2.3030 H     1 <1>   0.0800 
 42 H       -1.4130     3.2560     2.8420 H     1 <1>   0.0800 
 43 H       -5.6940    -5.0520    -0.3990 H     1 <1>   0.1500 
@<TRIPOS>BOND
  1   1   2  2   
  2   2   3  1   
  3   2   4  1   
  4   3   5  1   
  5   4   6  1   
  6   4   7  1   
  7   4   8  1   
  8   5   9  1   
  9   5  20  1   
 10   5  21  1   
 11   6  10  ar  
 12   6  11  ar  
 13   7  12  1   
 14   7  22  1   
 15   7  23  1   
 16   8  13  1   
 17   8  24  1   
 18   8  25  1   
 19   9  14  1   
 20   9  26  1   
 21   9  27  1   
 22  10  15  ar  
 23  10  28  1   
 24  11  16  ar  
 25  11  29  1   
 26  12  13  1   
 27  12  30  1   
 28  12  31  1   
 29  13  32  1   
 30  13  33  1   
 31  14  17  1   
 32  14  18  1   
 33  14  34  1   
 34  15  19  ar  
 35  15  35  1   
 36  16  19  ar  
 37  16  36  1   
 38  17  37  1   
 39  17  38  1   
 40  17  39  1   
 41  18  40  1   
 42  18  41  1   
 43  18  42  1   
 44  19  43  1   
@<TRIPOS>SUBSTRUCTURE
  1 ****   2 GROUP 4 **** **** 0

# MOE 2024.06 (io_trps.svl 2023.06)
