@<TRIPOS>MOLECULE
NONAME
35 34 1 0 0 
SMALL
USER_CHARGES


@<TRIPOS>ATOM
  1 O        0.3160    -0.2280    -0.7370 O.2   1 <1>  -0.5700 
  2 C        1.3930    -0.7410    -0.5230 C.2   1 <1>   0.6900 
  3 N        1.4770    -2.0780    -0.2580 N.am  1 <1>  -0.3680 
  4 N        2.5080     0.0030    -0.5490 N.am  1 <1>  -0.8000 
  5 N        2.6140    -2.8340     0.0070 N.2   1 <1>  -0.5120 
  6 C        2.5740    -4.0850     0.2330 C.2   1 <1>   0.3280 
  7 C        1.3050    -4.9660     0.2780 C.3   1 <1>  -0.0190 
  8 C        3.8560    -4.8750     0.5180 C.3   1 <1>  -0.0990 
  9 C        0.6070    -5.0720    -1.0880 C.3   1 <1>  -0.2400 
 10 C        0.3130    -4.5490     1.3770 C.3   1 <1>  -0.2400 
 11 C        5.1860    -4.1840     0.1410 C.3   1 <1>  -0.0800 
 12 C        6.3660    -4.9750     0.7420 C.3   1 <1>  -0.1600 
 13 C        5.3200    -4.0610    -1.3880 C.3   1 <1>  -0.2400 
 14 C        7.7250    -4.2890     0.5540 C.3   1 <1>  -0.2400 
 15 H        0.5680    -2.5430    -0.2710 H     1 <1>   0.3700 
 16 H        2.4710     0.9980    -0.7470 H     1 <1>   0.3700 
 17 H        3.4050    -0.4470    -0.3710 H     1 <1>   0.3700 
 18 H        1.6140    -5.9650     0.5310 H     1 <1>   0.0800 
 19 H        3.8600    -5.0910     1.5710 H     1 <1>   0.0800 
 20 H        3.8130    -5.8130    -0.0060 H     1 <1>   0.0800 
 21 H        0.1900    -4.1300    -1.3950 H     1 <1>   0.0800 
 22 H       -0.1890    -5.7950    -1.0440 H     1 <1>   0.0800 
 23 H        1.3110    -5.3890    -1.8370 H     1 <1>   0.0800 
 24 H       -0.1470    -3.6020     1.1650 H     1 <1>   0.0800 
 25 H        0.8220    -4.4740     2.3220 H     1 <1>   0.0800 
 26 H       -0.4660    -5.2860     1.4710 H     1 <1>   0.0800 
 27 H        5.1930    -3.1950     0.5710 H     1 <1>   0.0800 
 28 H        6.2030    -5.0950     1.7990 H     1 <1>   0.0800 
 29 H        6.4040    -5.9600     0.3070 H     1 <1>   0.0800 
 30 H        5.4010    -5.0320    -1.8430 H     1 <1>   0.0800 
 31 H        6.1890    -3.4860    -1.6490 H     1 <1>   0.0800 
 32 H        4.4670    -3.5590    -1.8080 H     1 <1>   0.0800 
 33 H        7.6950    -3.2830     0.9340 H     1 <1>   0.0800 
 34 H        8.0050    -4.2620    -0.4840 H     1 <1>   0.0800 
 35 H        8.4850    -4.8320     1.0890 H     1 <1>   0.0800 
@<TRIPOS>BOND
  1   1   2  2   
  2   2   3  am  
  3   2   4  am  
  4   3   5  1   
  5   3  15  1   
  6   4  16  1   
  7   4  17  1   
  8   5   6  2   
  9   6   7  1   
 10   6   8  1   
 11   7   9  1   
 12   7  10  1   
 13   7  18  1   
 14   8  11  1   
 15   8  19  1   
 16   8  20  1   
 17   9  21  1   
 18   9  22  1   
 19   9  23  1   
 20  10  24  1   
 21  10  25  1   
 22  10  26  1   
 23  11  12  1   
 24  11  13  1   
 25  11  27  1   
 26  12  14  1   
 27  12  28  1   
 28  12  29  1   
 29  13  30  1   
 30  13  31  1   
 31  13  32  1   
 32  14  33  1   
 33  14  34  1   
 34  14  35  1   
@<TRIPOS>SUBSTRUCTURE
  1 ****   5 GROUP 4 **** **** 0

# MOE 2024.06 (io_trps.svl 2023.06)
