@<TRIPOS>MOLECULE
NONAME
25 25 1 0 0 
SMALL
USER_CHARGES


@<TRIPOS>ATOM
  1 F       -0.5540     0.4750    -0.6200 F     1 <1>  -0.3400 
  2 C       -1.4640     1.0450     0.1670 C.3   1 <1>   1.0810 
  3 F       -0.8140     1.4480     1.2570 F     1 <1>  -0.3400 
  4 F       -1.8290     2.1650    -0.4630 F     1 <1>  -0.3400 
  5 C       -2.6880     0.1240     0.4700 C.2   1 <1>   0.5690 
  6 O       -2.5360    -0.8920     1.1170 O.2   1 <1>  -0.5700 
  7 N       -3.9380     0.4950     0.0000 N.am  1 <1>  -0.5470 
  8 C       -5.1990    -0.1180     0.1140 C.ar  1 <1>   0.1170 
  9 C       -6.3590     0.6670     0.0970 C.ar  1 <1>  -0.1440 
 10 C       -5.3170    -1.5000     0.2110 C.ar  1 <1>  -0.1500 
 11 C       -7.6100     0.0550     0.1610 C.ar  1 <1>  -0.1440 
 12 C       -6.2330     2.1920     0.0070 C.3   1 <1>  -0.0970 
 13 C       -6.5550    -2.1010     0.2880 C.ar  1 <1>  -0.1500 
 14 C       -7.6960    -1.3250     0.2600 C.ar  1 <1>  -0.1500 
 15 C       -8.9160     0.8400     0.1250 C.3   1 <1>  -0.0970 
 16 H       -3.9760     1.3990    -0.4740 H     1 <1>   0.3700 
 17 H       -4.4400    -2.1190     0.2220 H     1 <1>   0.1500 
 18 H       -6.0080     2.4800    -1.0040 H     1 <1>   0.0800 
 19 H       -5.4540     2.5450     0.6580 H     1 <1>   0.0800 
 20 H       -7.1320     2.6940     0.3080 H     1 <1>   0.0800 
 21 H       -6.6310    -3.1720     0.3660 H     1 <1>   0.1500 
 22 H       -8.6550    -1.8100     0.3180 H     1 <1>   0.1500 
 23 H       -9.0180     1.4240     1.0220 H     1 <1>   0.0800 
 24 H       -9.7630     0.1830     0.0530 H     1 <1>   0.0800 
 25 H       -8.9320     1.4940    -0.7290 H     1 <1>   0.0800 
@<TRIPOS>BOND
  1   1   2  1   
  2   2   3  1   
  3   2   4  1   
  4   2   5  1   
  5   5   6  2   
  6   5   7  am  
  7   7   8  1   
  8   7  16  1   
  9   8   9  ar  
 10   8  10  ar  
 11   9  11  ar  
 12   9  12  1   
 13  10  13  ar  
 14  10  17  1   
 15  11  14  ar  
 16  11  15  1   
 17  12  18  1   
 18  12  19  1   
 19  12  20  1   
 20  13  14  ar  
 21  13  21  1   
 22  14  22  1   
 23  15  23  1   
 24  15  24  1   
 25  15  25  1   
@<TRIPOS>SUBSTRUCTURE
  1 ****   7 GROUP 4 **** **** 0

# MOE 2024.06 (io_trps.svl 2023.06)
