@<TRIPOS>MOLECULE
NONAME
34 34 1 0 0 
SMALL
USER_CHARGES


@<TRIPOS>ATOM
  1 CL      -1.1780     1.1560    -2.3570 Cl    1 <1>  -0.1770 
  2 C       -0.8180     2.2290    -1.0250 C.ar  1 <1>   0.1770 
  3 C       -1.5240     2.1320     0.1660 C.ar  1 <1>  -0.1440 
  4 C        0.1770     3.1740    -1.1990 C.ar  1 <1>  -0.1500 
  5 C       -1.2200     3.0170     1.1900 C.ar  1 <1>  -0.1500 
  6 C       -2.6120     1.0930     0.3640 C.3   1 <1>   0.2840 
  7 C        0.4750     4.0480    -0.1670 C.ar  1 <1>  -0.1500 
  8 C       -0.2260     3.9680     1.0250 C.ar  1 <1>  -0.1500 
  9 N       -3.8820     1.6460    -0.1380 N.am  1 <1>  -0.7300 
 10 C       -4.9960     1.8320     0.6130 C.2   1 <1>   0.5690 
 11 O       -5.0400     1.4940     1.7720 O.2   1 <1>  -0.5700 
 12 C       -6.2140     2.4950    -0.0350 C.3   1 <1>  -0.0190 
 13 C       -6.4990     3.8590     0.6410 C.3   1 <1>  -0.1600 
 14 C       -7.4140     1.5200     0.0100 C.3   1 <1>  -0.1600 
 15 C       -6.9820     4.9430    -0.3340 C.3   1 <1>  -0.2400 
 16 C       -8.6680     2.0040    -0.7280 C.3   1 <1>  -0.2400 
 17 H        0.7090     3.2250    -2.1320 H     1 <1>   0.1500 
 18 H       -1.7620     2.9690     2.1200 H     1 <1>   0.1500 
 19 H       -2.7000     0.8480     1.4100 H     1 <1>   0.0800 
 20 H       -2.3790     0.1860    -0.1660 H     1 <1>   0.0800 
 21 H        1.2470     4.7870    -0.2910 H     1 <1>   0.1500 
 22 H        0.0020     4.6490     1.8270 H     1 <1>   0.1500 
 23 H       -3.8490     1.9820    -1.1000 H     1 <1>   0.3700 
 24 H       -5.9680     2.6720    -1.0660 H     1 <1>   0.0800 
 25 H       -5.5900     4.2190     1.0950 H     1 <1>   0.0800 
 26 H       -7.2130     3.7290     1.4370 H     1 <1>   0.0800 
 27 H       -7.6680     1.3160     1.0370 H     1 <1>   0.0800 
 28 H       -7.1050     0.5860    -0.4290 H     1 <1>   0.0800 
 29 H       -6.2400     5.1210    -1.0930 H     1 <1>   0.0800 
 30 H       -7.1450     5.8630     0.2000 H     1 <1>   0.0800 
 31 H       -7.9020     4.6660    -0.8120 H     1 <1>   0.0800 
 32 H       -9.1140     2.8340    -0.2110 H     1 <1>   0.0800 
 33 H       -9.3940     1.2110    -0.7670 H     1 <1>   0.0800 
 34 H       -8.4280     2.2970    -1.7340 H     1 <1>   0.0800 
@<TRIPOS>BOND
  1   1   2  1   
  2   2   3  ar  
  3   2   4  ar  
  4   3   5  ar  
  5   3   6  1   
  6   4   7  ar  
  7   4  17  1   
  8   5   8  ar  
  9   5  18  1   
 10   6   9  1   
 11   6  19  1   
 12   6  20  1   
 13   7   8  ar  
 14   7  21  1   
 15   8  22  1   
 16   9  10  am  
 17   9  23  1   
 18  10  11  2   
 19  10  12  1   
 20  12  13  1   
 21  12  14  1   
 22  12  24  1   
 23  13  15  1   
 24  13  25  1   
 25  13  26  1   
 26  14  16  1   
 27  14  27  1   
 28  14  28  1   
 29  15  29  1   
 30  15  30  1   
 31  15  31  1   
 32  16  32  1   
 33  16  33  1   
 34  16  34  1   
@<TRIPOS>SUBSTRUCTURE
  1 ****   9 GROUP 4 **** **** 0

# MOE 2024.06 (io_trps.svl 2023.06)
