@<TRIPOS>MOLECULE
NONAME
50 51 1 0 0 
SMALL
USER_CHARGES


@<TRIPOS>ATOM
  1 O        1.1710    -2.6400     1.9870 O.2   1 <1>  -0.5700 
  2 C        0.6800    -2.1830     0.9710 C.2   1 <1>   0.5440 
  3 N        1.4920    -1.5240     0.0810 N.am  1 <1>  -0.5470 
  4 C       -0.7480    -2.3310     0.7200 C.ar  1 <1>   0.0860 
  5 C        2.8500    -1.1720     0.1350 C.ar  1 <1>   0.1170 
  6 C       -1.3500    -2.2170    -0.5500 C.ar  1 <1>   0.0830 
  7 C       -1.5920    -2.6020     1.8020 C.ar  1 <1>  -0.1500 
  8 C        3.5640    -1.0730    -1.0510 C.ar  1 <1>  -0.1500 
  9 C        3.5040    -0.8960     1.3290 C.ar  1 <1>  -0.1500 
 10 O       -0.5670    -1.9700    -1.6340 O.3   1 <1>  -0.3630 
 11 C       -2.7300    -2.3620    -0.6880 C.ar  1 <1>  -0.1500 
 12 C       -2.9570    -2.7470     1.6560 C.ar  1 <1>  -0.1500 
 13 C        4.9060    -0.7080    -1.0490 C.ar  1 <1>   0.0830 
 14 C        4.8370    -0.5290     1.3400 C.ar  1 <1>  -0.1500 
 15 C       -1.0640    -1.9550    -2.9570 C.3   1 <1>   0.0400 
 16 C       -3.5290    -2.6250     0.4060 C.ar  1 <1>  -0.1500 
 17 O        5.6480    -0.6060    -2.1950 O.3   1 <1>  -0.3630 
 18 C        5.5570    -0.4260     0.1560 C.ar  1 <1>   0.1170 
 19 C        5.1090    -0.9610    -3.4510 C.3   1 <1>   0.0400 
 20 N        6.9160    -0.0550     0.1040 N.am  1 <1>  -0.5470 
 21 C        7.8260     0.3140     1.0500 C.2   1 <1>   0.5690 
 22 O        7.5870     0.4010     2.2290 O.2   1 <1>  -0.5700 
 23 C        9.2290     0.6400     0.5730 C.3   1 <1>  -0.0990 
 24 C       10.0060    -0.6180     0.1490 C.3   1 <1>  -0.1600 
 25 C       11.4250    -0.2670    -0.3150 C.3   1 <1>  -0.1600 
 26 C       12.1920    -1.5240    -0.7350 C.3   1 <1>  -0.2400 
 27 H        1.0220    -1.3430    -0.8090 H     1 <1>   0.3700 
 28 H       -1.1640    -2.7010     2.7850 H     1 <1>   0.1500 
 29 H        3.0490    -1.2890    -1.9640 H     1 <1>   0.1500 
 30 H        2.9700    -0.9660     2.2590 H     1 <1>   0.1500 
 31 H       -3.2120    -2.2740    -1.6440 H     1 <1>   0.1500 
 32 H       -3.5730    -2.9550     2.5140 H     1 <1>   0.1500 
 33 H        5.3080    -0.3260     2.2840 H     1 <1>   0.1500 
 34 H       -0.2370    -1.7920    -3.6250 H     1 <1>   0.0800 
 35 H       -1.7750    -1.1540    -3.0560 H     1 <1>   0.0800 
 36 H       -1.5210    -2.9050    -3.1700 H     1 <1>   0.0800 
 37 H       -4.5940    -2.7370     0.2890 H     1 <1>   0.1500 
 38 H        5.8790    -0.8410    -4.1920 H     1 <1>   0.0800 
 39 H        4.2840    -0.3080    -3.6750 H     1 <1>   0.0800 
 40 H        4.7930    -1.9890    -3.4180 H     1 <1>   0.0800 
 41 H        7.2650    -0.0760    -0.8550 H     1 <1>   0.3700 
 42 H        9.7530     1.1310     1.3730 H     1 <1>   0.0800 
 43 H        9.1640     1.3290    -0.2490 H     1 <1>   0.0800 
 44 H        9.4820    -1.1170    -0.6480 H     1 <1>   0.0800 
 45 H       10.0580    -1.2950     0.9850 H     1 <1>   0.0800 
 46 H       11.9570     0.2200     0.4840 H     1 <1>   0.0800 
 47 H       11.3780     0.4130    -1.1490 H     1 <1>   0.0800 
 48 H       12.2700    -2.2100     0.0900 H     1 <1>   0.0800 
 49 H       13.1850    -1.2600    -1.0540 H     1 <1>   0.0800 
 50 H       11.6910    -2.0170    -1.5500 H     1 <1>   0.0800 
@<TRIPOS>BOND
  1   1   2  2   
  2   2   3  am  
  3   2   4  1   
  4   3   5  1   
  5   3  27  1   
  6   4   6  ar  
  7   4   7  ar  
  8   5   8  ar  
  9   5   9  ar  
 10   6  10  1   
 11   6  11  ar  
 12   7  12  ar  
 13   7  28  1   
 14   8  13  ar  
 15   8  29  1   
 16   9  14  ar  
 17   9  30  1   
 18  10  15  1   
 19  11  16  ar  
 20  11  31  1   
 21  12  16  ar  
 22  12  32  1   
 23  13  17  1   
 24  13  18  ar  
 25  14  18  ar  
 26  14  33  1   
 27  15  34  1   
 28  15  35  1   
 29  15  36  1   
 30  16  37  1   
 31  17  19  1   
 32  18  20  1   
 33  19  38  1   
 34  19  39  1   
 35  19  40  1   
 36  20  21  am  
 37  20  41  1   
 38  21  22  2   
 39  21  23  1   
 40  23  24  1   
 41  23  42  1   
 42  23  43  1   
 43  24  25  1   
 44  24  44  1   
 45  24  45  1   
 46  25  26  1   
 47  25  46  1   
 48  25  47  1   
 49  26  48  1   
 50  26  49  1   
 51  26  50  1   
@<TRIPOS>SUBSTRUCTURE
  1 ****   5 GROUP 4 **** **** 0

# MOE 2024.06 (io_trps.svl 2023.06)
