@<TRIPOS>MOLECULE
NONAME
47 48 1 0 0 
SMALL
USER_CHARGES


@<TRIPOS>ATOM
  1 CL       0.9970     3.9560    -2.3560 Cl    1 <1>  -0.1770 
  2 C       -0.1440     3.6620    -1.0630 C.ar  1 <1>   0.1770 
  3 C        0.2880     3.6090     0.2570 C.ar  1 <1>   0.0830 
  4 C       -1.4750     3.4980    -1.3930 C.ar  1 <1>  -0.1500 
  5 O        1.6080     3.7860     0.5150 O.3   1 <1>  -0.3630 
  6 C       -0.6570     3.3790     1.2530 C.ar  1 <1>  -0.1500 
  7 C       -2.4260     3.2740    -0.4040 C.ar  1 <1>  -0.0090 
  8 C        2.0720     4.0640     1.8290 C.3   1 <1>   0.1810 
  9 C       -1.9900     3.2170     0.9160 C.ar  1 <1>  -0.1500 
 10 S       -4.1780     3.0600    -0.8100 S.o2  1 <1>   1.4470 
 11 C        3.5610     4.3960     1.8450 C.2   1 <1>   0.5690 
 12 O       -4.6420     1.7930    -0.2930 O.2   1 <1>  -0.6500 
 13 O       -4.4240     3.4280    -2.1840 O.2   1 <1>  -0.6500 
 14 N       -4.9100     4.2920     0.0580 N.am  1 <1>  -0.9140 
 15 O        4.2620     3.6940     2.5400 O.2   1 <1>  -0.5700 
 16 N        4.0790     5.4580     1.1390 N.am  1 <1>  -0.6600 
 17 C       -6.2610     4.0080     0.4640 C.3   1 <1>   0.2760 
 18 C        3.2900     6.3740     0.2650 C.3   1 <1>   0.1400 
 19 C        5.5460     5.7100     1.0890 C.3   1 <1>   0.1400 
 20 C       -7.0410     5.3150     0.3810 C.3   1 <1>  -0.2400 
 21 C       -6.2410     3.4910     1.8990 C.3   1 <1>  -0.2400 
 22 C        3.7510     6.2090    -1.1860 C.3   1 <1>  -0.1600 
 23 C        6.0420     5.5530    -0.3530 C.3   1 <1>  -0.1600 
 24 C        5.2620     6.4500    -1.3260 C.3   1 <1>  -0.1600 
 25 H       -1.7690     3.5460    -2.4280 H     1 <1>   0.1500 
 26 H       -0.3780     3.3170     2.2880 H     1 <1>   0.1500 
 27 H        1.9010     3.1920     2.4340 H     1 <1>   0.0800 
 28 H        1.5180     4.8950     2.2210 H     1 <1>   0.0800 
 29 H       -2.7160     3.0400     1.6940 H     1 <1>   0.1500 
 30 H       -4.9830     5.0290    -0.6390 H     1 <1>   0.4200 
 31 H       -6.7200     3.2820    -0.1920 H     1 <1>   0.0800 
 32 H        3.4580     7.3880     0.5840 H     1 <1>   0.0800 
 33 H        2.2360     6.1770     0.3340 H     1 <1>   0.0800 
 34 H        6.0750     5.0230     1.7280 H     1 <1>   0.0800 
 35 H        5.7430     6.7080     1.4390 H     1 <1>   0.0800 
 36 H       -6.5970     6.0640     1.0140 H     1 <1>   0.0800 
 37 H       -8.0530     5.1540     0.7050 H     1 <1>   0.0800 
 38 H       -7.0700     5.6710    -0.6330 H     1 <1>   0.0800 
 39 H       -5.7780     4.2080     2.5530 H     1 <1>   0.0800 
 40 H       -5.7070     2.5600     1.9590 H     1 <1>   0.0800 
 41 H       -7.2460     3.3170     2.2390 H     1 <1>   0.0800 
 42 H        3.2140     6.8980    -1.8130 H     1 <1>   0.0800 
 43 H        3.5110     5.2120    -1.5130 H     1 <1>   0.0800 
 44 H        5.9310     4.5220    -0.6420 H     1 <1>   0.0800 
 45 H        7.0890     5.7950    -0.3970 H     1 <1>   0.0800 
 46 H        5.4800     7.4820    -1.1130 H     1 <1>   0.0800 
 47 H        5.5700     6.2440    -2.3370 H     1 <1>   0.0800 
@<TRIPOS>BOND
  1   1   2  1   
  2   2   3  ar  
  3   2   4  ar  
  4   3   5  1   
  5   3   6  ar  
  6   4   7  ar  
  7   4  25  1   
  8   5   8  1   
  9   6   9  ar  
 10   6  26  1   
 11   7   9  ar  
 12   7  10  1   
 13   8  11  1   
 14   8  27  1   
 15   8  28  1   
 16   9  29  1   
 17  10  12  2   
 18  10  13  2   
 19  10  14  am  
 20  11  15  2   
 21  11  16  am  
 22  14  17  1   
 23  14  30  1   
 24  16  18  1   
 25  16  19  1   
 26  17  20  1   
 27  17  21  1   
 28  17  31  1   
 29  18  22  1   
 30  18  32  1   
 31  18  33  1   
 32  19  23  1   
 33  19  34  1   
 34  19  35  1   
 35  20  36  1   
 36  20  37  1   
 37  20  38  1   
 38  21  39  1   
 39  21  40  1   
 40  21  41  1   
 41  22  24  1   
 42  22  42  1   
 43  22  43  1   
 44  23  24  1   
 45  23  44  1   
 46  23  45  1   
 47  24  46  1   
 48  24  47  1   
@<TRIPOS>SUBSTRUCTURE
  1 ****   3 GROUP 4 **** **** 0

# MOE 2024.06 (io_trps.svl 2023.06)
