@<TRIPOS>MOLECULE
NONAME
37 38 1 0 0 
SMALL
USER_CHARGES


@<TRIPOS>ATOM
  1 F        0.7130    -0.4010    -0.9700 F     1 <1>  -0.1900 
  2 C        0.3700    -1.4930    -0.3290 C.ar  1 <1>   0.1900 
  3 C        1.3720    -2.3740     0.0780 C.ar  1 <1>   0.1170 
  4 C       -0.9730    -1.7100    -0.0930 C.ar  1 <1>  -0.1500 
  5 N        2.7200    -2.0760    -0.2090 N.am  1 <1>  -0.5470 
  6 C        0.9580    -3.5250     0.7440 C.ar  1 <1>  -0.1500 
  7 C       -1.3530    -2.8610     0.5770 C.ar  1 <1>  -0.1500 
  8 C        3.8880    -2.5770     0.2790 C.2   1 <1>   0.6900 
  9 C       -0.3860    -3.7630     0.9920 C.ar  1 <1>  -0.1500 
 10 O        3.9280    -3.4010     1.1700 O.2   1 <1>  -0.5700 
 11 N        5.0460    -2.1270    -0.2650 N.am  1 <1>  -0.7300 
 12 C        6.3710    -2.5530     0.2050 C.3   1 <1>   0.2200 
 13 C        7.3870    -1.4370    -0.0200 C.3   1 <1>  -0.1600 
 14 C        6.7860    -3.8220    -0.5360 C.3   1 <1>  -0.1600 
 15 C        8.7790    -1.9000     0.4070 C.3   1 <1>   0.3430 
 16 C        8.1800    -4.2560    -0.0980 C.3   1 <1>   0.3430 
 17 N        9.1530    -3.1450    -0.3310 N.4   1 <1>  -0.9590 
 18 C       10.5390    -3.5760     0.0280 C.3   1 <1>   0.2630 
 19 H       -1.7040    -0.9960    -0.4270 H     1 <1>   0.1500 
 20 H        2.8290    -1.2550    -0.7980 H     1 <1>   0.3700 
 21 H        1.6800    -4.2490     1.0750 H     1 <1>   0.1500 
 22 H       -2.3930    -3.0550     0.7750 H     1 <1>   0.1500 
 23 H       -0.6790    -4.6590     1.5120 H     1 <1>   0.1500 
 24 H        5.0060    -1.5640    -1.1120 H     1 <1>   0.3700 
 25 H        6.3130    -2.7660     1.2620 H     1 <1>   0.0800 
 26 H        7.1100    -0.5810     0.5710 H     1 <1>   0.0800 
 27 H        7.4080    -1.1430    -1.0540 H     1 <1>   0.0800 
 28 H        6.7700    -3.6660    -1.6000 H     1 <1>   0.0800 
 29 H        6.0900    -4.6100    -0.3010 H     1 <1>   0.0800 
 30 H        8.7820    -2.0920     1.4690 H     1 <1>   0.0800 
 31 H        9.4950    -1.1200     0.2040 H     1 <1>   0.0800 
 32 H        8.4750    -5.1310    -0.6550 H     1 <1>   0.0800 
 33 H        8.1620    -4.5120     0.9500 H     1 <1>   0.0800 
 34 H        9.1350    -2.9270    -1.3390 H     1 <1>   0.4500 
 35 H       10.5970    -3.8160     1.0780 H     1 <1>   0.0800 
 36 H       11.2440    -2.7890    -0.1850 H     1 <1>   0.0800 
 37 H       10.8190    -4.4490    -0.5400 H     1 <1>   0.0800 
@<TRIPOS>BOND
  1   1   2  1   
  2   2   3  ar  
  3   2   4  ar  
  4   3   5  1   
  5   3   6  ar  
  6   4   7  ar  
  7   4  19  1   
  8   5   8  am  
  9   5  20  1   
 10   6   9  ar  
 11   6  21  1   
 12   7   9  ar  
 13   7  22  1   
 14   8  10  2   
 15   8  11  am  
 16   9  23  1   
 17  11  12  1   
 18  11  24  1   
 19  12  13  1   
 20  12  14  1   
 21  12  25  1   
 22  13  15  1   
 23  13  26  1   
 24  13  27  1   
 25  14  16  1   
 26  14  28  1   
 27  14  29  1   
 28  15  17  1   
 29  15  30  1   
 30  15  31  1   
 31  16  17  1   
 32  16  32  1   
 33  16  33  1   
 34  17  18  1   
 35  17  34  1   
 36  18  35  1   
 37  18  36  1   
 38  18  37  1   
@<TRIPOS>SUBSTRUCTURE
  1 ****   8 GROUP 4 **** **** 0

# MOE 2024.06 (io_trps.svl 2023.06)
