@<TRIPOS>MOLECULE
NONAME
45 47 1 0 0 
SMALL
USER_CHARGES


@<TRIPOS>ATOM
  1 S        2.4720     1.3220     0.8940 S.3   1 <1>  -0.0800 
  2 C        3.6140     0.4650    -0.1310 C.2   1 <1>  -0.1400 
  3 C        2.2530     2.5710    -0.3190 C.2   1 <1>  -0.1100 
  4 C        3.7830     1.1190    -1.2960 C.2   1 <1>  -0.1500 
  5 C        4.2140    -0.8160     0.4120 C.3   1 <1>   0.3200 
  6 C        3.0080     2.3180    -1.4030 C.2   1 <1>  -0.1500 
  7 N        3.1520    -1.8310     0.5160 N.am  1 <1>  -0.7300 
  8 C        3.1830    -2.9780     1.2370 C.2   1 <1>   0.5690 
  9 O        2.2460    -3.7360     1.1860 O.2   1 <1>  -0.5700 
 10 C        4.3820    -3.3430     2.1300 C.3   1 <1>   0.1710 
 11 N        5.7210    -3.2300     1.4850 N.3   1 <1>  -0.8100 
 12 C        5.8490    -4.1920     0.3620 C.3   1 <1>   0.1100 
 13 C        6.8030    -3.4670     2.4660 C.3   1 <1>   0.1100 
 14 C        7.2260    -4.1040    -0.3210 C.3   1 <1>   0.2090 
 15 C        8.1990    -3.3560     1.8240 C.3   1 <1>   0.2090 
 16 N        8.3340    -4.2850     0.6660 N.pl3 1 <1>  -0.8380 
 17 C        9.6080    -4.4780     0.1800 C.ar  1 <1>   0.4100 
 18 N        9.9300    -3.8740    -0.9580 N.ar  1 <1>  -0.6200 
 19 C       10.4970    -5.2750     0.8930 C.ar  1 <1>  -0.1500 
 20 C       11.1640    -4.0670    -1.3900 C.ar  1 <1>   0.1600 
 21 C       11.7780    -5.4670     0.4340 C.ar  1 <1>  -0.1500 
 22 C       12.1220    -4.8370    -0.7530 C.ar  1 <1>  -0.1430 
 23 C       13.5000    -4.9510    -1.3900 C.3   1 <1>   1.1630 
 24 F       13.4420    -5.4550    -2.6160 F     1 <1>  -0.3400 
 25 F       14.3320    -5.7280    -0.7060 F     1 <1>  -0.3400 
 26 F       14.0960    -3.7720    -1.5010 F     1 <1>  -0.3400 
 27 H        1.5730     3.3720    -0.0870 H     1 <1>   0.1500 
 28 H        4.4280     0.8100    -2.1000 H     1 <1>   0.1500 
 29 H        4.6540    -0.6360     1.3780 H     1 <1>   0.0800 
 30 H        4.9810    -1.1720    -0.2540 H     1 <1>   0.0800 
 31 H        3.0550     2.9300    -2.2870 H     1 <1>   0.1500 
 32 H        2.3100    -1.6380    -0.0270 H     1 <1>   0.3700 
 33 H        4.2400    -4.3490     2.4840 H     1 <1>   0.0800 
 34 H        4.3500    -2.6910     2.9840 H     1 <1>   0.0800 
 35 H        5.0910    -3.9920    -0.3740 H     1 <1>   0.0800 
 36 H        5.7080    -5.1970     0.7210 H     1 <1>   0.0800 
 37 H        6.6990    -4.4490     2.8950 H     1 <1>   0.0800 
 38 H        6.7290    -2.7440     3.2590 H     1 <1>   0.0800 
 39 H        7.3250    -3.1430    -0.7970 H     1 <1>   0.0800 
 40 H        7.3000    -4.8620    -1.0810 H     1 <1>   0.0800 
 41 H        8.9500    -3.5830     2.5600 H     1 <1>   0.0800 
 42 H        8.3550    -2.3460     1.4860 H     1 <1>   0.0800 
 43 H       10.1580    -5.7370     1.8000 H     1 <1>   0.1500 
 44 H       11.4210    -3.5740    -2.3140 H     1 <1>   0.1500 
 45 H       12.4730    -6.0840     0.9810 H     1 <1>   0.1500 
@<TRIPOS>BOND
  1   1   2  1   
  2   1   3  1   
  3   2   4  2   
  4   2   5  1   
  5   3   6  2   
  6   3  27  1   
  7   4   6  1   
  8   4  28  1   
  9   5   7  1   
 10   5  29  1   
 11   5  30  1   
 12   6  31  1   
 13   7   8  am  
 14   7  32  1   
 15   8   9  2   
 16   8  10  1   
 17  10  11  1   
 18  10  33  1   
 19  10  34  1   
 20  11  12  1   
 21  11  13  1   
 22  12  14  1   
 23  12  35  1   
 24  12  36  1   
 25  13  15  1   
 26  13  37  1   
 27  13  38  1   
 28  14  16  1   
 29  14  39  1   
 30  14  40  1   
 31  15  16  1   
 32  15  41  1   
 33  15  42  1   
 34  16  17  1   
 35  17  18  ar  
 36  17  19  ar  
 37  18  20  ar  
 38  19  21  ar  
 39  19  43  1   
 40  20  22  ar  
 41  20  44  1   
 42  21  22  ar  
 43  21  45  1   
 44  22  23  1   
 45  23  24  1   
 46  23  25  1   
 47  23  26  1   
@<TRIPOS>SUBSTRUCTURE
  1 ****  14 GROUP 4 **** **** 0

# MOE 2024.06 (io_trps.svl 2023.06)
