@<TRIPOS>MOLECULE
NONAME
51 53 1 0 0 
SMALL
USER_CHARGES


@<TRIPOS>ATOM
  1 S        0.0520     0.5650    -1.2300 S.o2  1 <1>   1.4470 
  2 O       -0.8480     1.6080    -1.6770 O.2   1 <1>  -0.6500 
  3 O       -0.1590    -0.7910    -1.6890 O.2   1 <1>  -0.6500 
  4 N       -0.0460     0.5230     0.4600 N.am  1 <1>  -0.8490 
  5 C        1.7750     1.0530    -1.5210 C.ar  1 <1>  -0.0090 
  6 C       -1.2900    -0.0490     0.9380 C.3   1 <1>   0.1960 
  7 C        0.0600     1.8220     1.1050 C.3   1 <1>   0.1960 
  8 C        2.8220     0.3650    -0.9170 C.ar  1 <1>  -0.1500 
  9 C        2.0920     2.1280    -2.3440 C.ar  1 <1>  -0.1500 
 10 C       -1.3590     0.3580     2.4060 C.3   1 <1>  -0.1600 
 11 C       -0.4440     1.5780     2.5210 C.3   1 <1>  -0.1600 
 12 C        4.1450     0.7310    -1.1060 C.ar  1 <1>  -0.1430 
 13 C        3.4060     2.5100    -2.5460 C.ar  1 <1>  -0.1500 
 14 C        4.4330     1.8210    -1.9190 C.ar  1 <1>   0.0830 
 15 C        5.2530    -0.0500    -0.4160 C.3   1 <1>  -0.0970 
 16 O        5.7140     2.2020    -2.1150 O.3   1 <1>  -0.3630 
 17 C        6.1070     3.4610    -1.5830 C.3   1 <1>   0.1810 
 18 C        6.4280     3.3770    -0.0920 C.2   1 <1>   0.5690 
 19 O        5.6760     3.9510     0.6640 O.2   1 <1>  -0.5700 
 20 N        7.5430     2.7110     0.3680 N.am  1 <1>  -0.6600 
 21 C        8.4770     1.9230    -0.4850 C.3   1 <1>   0.1400 
 22 C        7.9090     2.7180     1.8120 C.3   1 <1>   0.1400 
 23 C        9.8960     2.4840    -0.3460 C.3   1 <1>  -0.1600 
 24 C        9.3250     3.2800     1.9800 C.3   1 <1>  -0.1600 
 25 C       10.3460     2.5190     1.1220 C.3   1 <1>  -0.1600 
 26 H       -1.2940    -1.1200     0.8130 H     1 <1>   0.0800 
 27 H       -2.1220     0.3780     0.4000 H     1 <1>   0.0800 
 28 H       -0.5800     2.5380     0.6140 H     1 <1>   0.0800 
 29 H        1.0770     2.1800     1.0960 H     1 <1>   0.0800 
 30 H        2.5840    -0.4730    -0.2830 H     1 <1>   0.1500 
 31 H        1.3000     2.6720    -2.8310 H     1 <1>   0.1500 
 32 H       -0.9920    -0.4440     3.0220 H     1 <1>   0.0800 
 33 H       -2.3720     0.5830     2.6890 H     1 <1>   0.0800 
 34 H       -0.9620     2.4420     2.8980 H     1 <1>   0.0800 
 35 H        0.3890     1.3580     3.1650 H     1 <1>   0.0800 
 36 H        3.6330     3.3380    -3.1920 H     1 <1>   0.1500 
 37 H        4.8900    -0.9960    -0.0580 H     1 <1>   0.0800 
 38 H        5.6270     0.5140     0.4190 H     1 <1>   0.0800 
 39 H        6.0600    -0.2330    -1.1020 H     1 <1>   0.0800 
 40 H        5.3190     4.1730    -1.7440 H     1 <1>   0.0800 
 41 H        6.9770     3.7870    -2.1190 H     1 <1>   0.0800 
 42 H        8.1810     1.9440    -1.5180 H     1 <1>   0.0800 
 43 H        8.4600     0.8970    -0.1600 H     1 <1>   0.0800 
 44 H        7.8670     1.7110     2.1890 H     1 <1>   0.0800 
 45 H        7.2170     3.3150     2.3810 H     1 <1>   0.0800 
 46 H        9.9200     3.4780    -0.7570 H     1 <1>   0.0800 
 47 H       10.5760     1.8760    -0.9160 H     1 <1>   0.0800 
 48 H        9.6090     3.2230     3.0160 H     1 <1>   0.0800 
 49 H        9.3180     4.3200     1.7010 H     1 <1>   0.0800 
 50 H       11.3100     2.9920     1.1970 H     1 <1>   0.0800 
 51 H       10.4400     1.5120     1.4910 H     1 <1>   0.0800 
@<TRIPOS>BOND
  1   1   2  2   
  2   1   3  2   
  3   1   4  am  
  4   1   5  1   
  5   4   6  1   
  6   4   7  1   
  7   5   8  ar  
  8   5   9  ar  
  9   6  10  1   
 10   6  26  1   
 11   6  27  1   
 12   7  11  1   
 13   7  28  1   
 14   7  29  1   
 15   8  12  ar  
 16   8  30  1   
 17   9  13  ar  
 18   9  31  1   
 19  10  11  1   
 20  10  32  1   
 21  10  33  1   
 22  11  34  1   
 23  11  35  1   
 24  12  14  ar  
 25  12  15  1   
 26  13  14  ar  
 27  13  36  1   
 28  14  16  1   
 29  15  37  1   
 30  15  38  1   
 31  15  39  1   
 32  16  17  1   
 33  17  18  1   
 34  17  40  1   
 35  17  41  1   
 36  18  19  2   
 37  18  20  am  
 38  20  21  1   
 39  20  22  1   
 40  21  23  1   
 41  21  42  1   
 42  21  43  1   
 43  22  24  1   
 44  22  44  1   
 45  22  45  1   
 46  23  25  1   
 47  23  46  1   
 48  23  47  1   
 49  24  25  1   
 50  24  48  1   
 51  24  49  1   
 52  25  50  1   
 53  25  51  1   
@<TRIPOS>SUBSTRUCTURE
  1 ****  12 GROUP 4 **** **** 0

# MOE 2024.06 (io_trps.svl 2023.06)
