@<TRIPOS>MOLECULE
NONAME
43 43 1 0 0 
SMALL
USER_CHARGES


@<TRIPOS>ATOM
  1 O        0.7610    -0.8680     0.7590 O.3   1 <1>  -0.3630 
  2 C       -0.5240    -1.1640     0.4230 C.ar  1 <1>   0.0830 
  3 C        1.6720    -0.3660    -0.1840 C.3   1 <1>   0.1200 
  4 C       -1.3540    -1.6590     1.4250 C.ar  1 <1>  -0.1440 
  5 C       -1.0290    -0.9920    -0.8640 C.ar  1 <1>  -0.1500 
  6 C        2.9980    -0.1510     0.5430 C.3   1 <1>  -0.1600 
  7 C       -2.6710    -1.9740     1.1300 C.ar  1 <1>  -0.1500 
  8 C       -0.8320    -1.8580     2.8400 C.3   1 <1>  -0.0960 
  9 C       -2.3450    -1.3110    -1.1440 C.ar  1 <1>  -0.1500 
 10 C        4.0520     0.4050    -0.4110 C.3   1 <1>   0.3430 
 11 C       -3.1730    -1.8050    -0.1500 C.ar  1 <1>  -0.1440 
 12 N        5.3660     0.5330     0.2870 N.4   1 <1>  -0.9590 
 13 C       -4.6180    -2.1540    -0.4560 C.3   1 <1>  -0.0970 
 14 C        5.3800     1.7040     1.2090 C.3   1 <1>   0.3430 
 15 C        6.4940     0.5970    -0.6830 C.3   1 <1>   0.3430 
 16 C        6.4680     1.5120     2.2600 C.3   1 <1>  -0.2400 
 17 C        6.7680    -0.7960    -1.2400 C.3   1 <1>  -0.2400 
 18 H        1.2800     0.5610    -0.5680 H     1 <1>   0.0800 
 19 H        1.7710    -1.0910    -0.9740 H     1 <1>   0.0800 
 20 H       -0.4230    -0.6130    -1.6620 H     1 <1>   0.1500 
 21 H        3.3270    -1.0980     0.9340 H     1 <1>   0.0800 
 22 H        2.8260     0.5330     1.3550 H     1 <1>   0.0800 
 23 H       -3.3150    -2.3560     1.9020 H     1 <1>   0.1500 
 24 H       -0.0090    -2.5500     2.8300 H     1 <1>   0.0800 
 25 H       -1.5980    -2.2450     3.4870 H     1 <1>   0.0800 
 26 H       -0.4910    -0.9190     3.2370 H     1 <1>   0.0800 
 27 H       -2.7250    -1.1720    -2.1410 H     1 <1>   0.1500 
 28 H        3.7400     1.3640    -0.7930 H     1 <1>   0.0800 
 29 H        4.1470    -0.2720    -1.2450 H     1 <1>   0.0800 
 30 H        5.5000    -0.3110     0.8610 H     1 <1>   0.4500 
 31 H       -4.9320    -2.9950     0.1340 H     1 <1>   0.0800 
 32 H       -4.7340    -2.4060    -1.4950 H     1 <1>   0.0800 
 33 H       -5.2490    -1.3140    -0.2290 H     1 <1>   0.0800 
 34 H        4.4310     1.7910     1.7120 H     1 <1>   0.0800 
 35 H        5.5500     2.6150     0.6550 H     1 <1>   0.0800 
 36 H        7.3850     0.9490    -0.1900 H     1 <1>   0.0800 
 37 H        6.2620     1.2820    -1.4840 H     1 <1>   0.0800 
 38 H        6.3050     0.6070     2.8160 H     1 <1>   0.0800 
 39 H        7.4480     1.4980     1.8210 H     1 <1>   0.0800 
 40 H        6.4340     2.3350     2.9530 H     1 <1>   0.0800 
 41 H        6.9990    -1.4850    -0.4470 H     1 <1>   0.0800 
 42 H        5.9390    -1.1670    -1.8140 H     1 <1>   0.0800 
 43 H        7.6220    -0.7490    -1.8930 H     1 <1>   0.0800 
@<TRIPOS>BOND
  1   1   2  1   
  2   1   3  1   
  3   2   4  ar  
  4   2   5  ar  
  5   3   6  1   
  6   3  18  1   
  7   3  19  1   
  8   4   7  ar  
  9   4   8  1   
 10   5   9  ar  
 11   5  20  1   
 12   6  10  1   
 13   6  21  1   
 14   6  22  1   
 15   7  11  ar  
 16   7  23  1   
 17   8  24  1   
 18   8  25  1   
 19   8  26  1   
 20   9  11  ar  
 21   9  27  1   
 22  10  12  1   
 23  10  28  1   
 24  10  29  1   
 25  11  13  1   
 26  12  14  1   
 27  12  15  1   
 28  12  30  1   
 29  13  31  1   
 30  13  32  1   
 31  13  33  1   
 32  14  16  1   
 33  14  34  1   
 34  14  35  1   
 35  15  17  1   
 36  15  36  1   
 37  15  37  1   
 38  16  38  1   
 39  16  39  1   
 40  16  40  1   
 41  17  41  1   
 42  17  42  1   
 43  17  43  1   
@<TRIPOS>SUBSTRUCTURE
  1 ****   3 GROUP 4 **** **** 0

# MOE 2024.06 (io_trps.svl 2023.06)
