@<TRIPOS>MOLECULE
NONAME
48 50 1 0 0 
SMALL
USER_CHARGES


@<TRIPOS>ATOM
  1 O        0.0960    -0.6990    -1.6440 O.2   1 <1>  -0.5700 
  2 C        0.3800    -1.7350    -1.0890 C.2   1 <1>   0.5690 
  3 N        1.5660    -2.0100    -0.4610 N.am  1 <1>  -0.2370 
  4 C       -0.5540    -2.9570    -1.0790 C.3   1 <1>   0.2510 
  5 C        2.5920    -1.0760    -0.1900 C.ar  1 <1>   0.1170 
  6 C        1.6100    -3.3420    -0.1480 C.2   1 <1>   0.5690 
  7 N       -1.7210    -2.8920    -0.1490 N.3   1 <1>  -0.8100 
  8 C        0.3850    -4.0790    -0.6200 C.3   1 <1>  -0.0990 
  9 C        3.1720    -1.0040     1.0720 C.ar  1 <1>  -0.1500 
 10 C        3.0490    -0.2040    -1.1730 C.ar  1 <1>  -0.1500 
 11 O        2.5030    -3.9170     0.4180 O.2   1 <1>  -0.5700 
 12 C       -2.6860    -3.9870    -0.4290 C.3   1 <1>   0.1100 
 13 C       -2.4260    -1.5830    -0.2070 C.3   1 <1>   0.1100 
 14 C        4.1760    -0.0910     1.3430 C.ar  1 <1>  -0.1500 
 15 C        4.0510     0.7100    -0.9040 C.ar  1 <1>  -0.1500 
 16 C       -3.8650    -3.9840     0.5560 C.3   1 <1>   0.1400 
 17 C       -3.6210    -1.5160     0.7600 C.3   1 <1>   0.1400 
 18 C        4.6220     0.7720     0.3560 C.ar  1 <1>  -0.1430 
 19 N       -4.5460    -2.6620     0.5370 N.am  1 <1>  -0.6600 
 20 C        5.7210     1.7750     0.6540 C.3   1 <1>  -0.0970 
 21 C       -5.8710    -2.5270     0.2270 C.2   1 <1>   0.7800 
 22 O       -6.5850    -3.4800    -0.0250 O.2   1 <1>  -0.5700 
 23 O       -6.3790    -1.2950     0.1990 O.3   1 <1>  -0.4300 
 24 C       -7.7360    -1.0800    -0.1130 C.3   1 <1>   0.1200 
 25 C       -8.0000     0.4220    -0.0680 C.3   1 <1>  -0.2400 
 26 H       -0.8970    -3.1290    -2.0850 H     1 <1>   0.0800 
 27 H        0.6550    -4.7140    -1.4420 H     1 <1>   0.0800 
 28 H       -0.0150    -4.6650     0.1870 H     1 <1>   0.0800 
 29 H        2.8420    -1.6710     1.8490 H     1 <1>   0.1500 
 30 H        2.6170    -0.2340    -2.1580 H     1 <1>   0.1500 
 31 H       -2.1950    -4.9410    -0.3590 H     1 <1>   0.0800 
 32 H       -3.0750    -3.8870    -1.4290 H     1 <1>   0.0800 
 33 H       -2.7730    -1.3950    -1.2100 H     1 <1>   0.0800 
 34 H       -1.7510    -0.7910     0.0650 H     1 <1>   0.0800 
 35 H        4.6090    -0.0570     2.3280 H     1 <1>   0.1500 
 36 H        4.3840     1.3760    -1.6810 H     1 <1>   0.1500 
 37 H       -3.5020    -4.1810     1.5500 H     1 <1>   0.0800 
 38 H       -4.5540    -4.7680     0.2920 H     1 <1>   0.0800 
 39 H       -4.1310    -0.5790     0.6250 H     1 <1>   0.0800 
 40 H       -3.2570    -1.5510     1.7720 H     1 <1>   0.0800 
 41 H        6.3920     1.3880     1.4000 H     1 <1>   0.0800 
 42 H        5.2890     2.6910     1.0160 H     1 <1>   0.0800 
 43 H        6.2890     1.9860    -0.2340 H     1 <1>   0.0800 
 44 H       -8.3380    -1.6020     0.6120 H     1 <1>   0.0800 
 45 H       -7.9270    -1.4770    -1.0960 H     1 <1>   0.0800 
 46 H       -7.7940     0.8040     0.9160 H     1 <1>   0.0800 
 47 H       -9.0310     0.6150    -0.3020 H     1 <1>   0.0800 
 48 H       -7.3830     0.9280    -0.7890 H     1 <1>   0.0800 
@<TRIPOS>BOND
  1   1   2  2   
  2   2   3  am  
  3   2   4  1   
  4   3   5  1   
  5   3   6  am  
  6   4   7  1   
  7   4   8  1   
  8   4  26  1   
  9   5   9  ar  
 10   5  10  ar  
 11   6   8  1   
 12   6  11  2   
 13   7  12  1   
 14   7  13  1   
 15   8  27  1   
 16   8  28  1   
 17   9  14  ar  
 18   9  29  1   
 19  10  15  ar  
 20  10  30  1   
 21  12  16  1   
 22  12  31  1   
 23  12  32  1   
 24  13  17  1   
 25  13  33  1   
 26  13  34  1   
 27  14  18  ar  
 28  14  35  1   
 29  15  18  ar  
 30  15  36  1   
 31  16  19  1   
 32  16  37  1   
 33  16  38  1   
 34  17  19  1   
 35  17  39  1   
 36  17  40  1   
 37  18  20  1   
 38  19  21  am  
 39  20  41  1   
 40  20  42  1   
 41  20  43  1   
 42  21  22  2   
 43  21  23  1   
 44  23  24  1   
 45  24  25  1   
 46  24  44  1   
 47  24  45  1   
 48  25  46  1   
 49  25  47  1   
 50  25  48  1   
@<TRIPOS>SUBSTRUCTURE
  1 ****   7 GROUP 4 **** **** 0

# MOE 2024.06 (io_trps.svl 2023.06)
