@<TRIPOS>MOLECULE
NONAME
38 38 1 0 0 
SMALL
USER_CHARGES


@<TRIPOS>ATOM
  1 CL       2.2160     0.7110    -2.0500 Cl    1 <1>  -0.1770 
  2 C        1.3430     1.7270    -0.9210 C.ar  1 <1>   0.1770 
  3 C        1.9730     2.2080     0.2220 C.ar  1 <1>   0.0830 
  4 C        0.0270     2.0400    -1.2040 C.ar  1 <1>  -0.1500 
  5 O        3.2710     1.8670     0.4350 O.3   1 <1>  -0.3630 
  6 C        1.2490     3.0180     1.0930 C.ar  1 <1>  -0.1500 
  7 C       -0.6830     2.8490    -0.3320 C.ar  1 <1>  -0.1500 
  8 C        4.0890     2.6090     1.3280 C.3   1 <1>   0.1810 
  9 C       -0.0710     3.3350     0.8120 C.ar  1 <1>  -0.1500 
 10 C        5.5440     2.1540     1.2400 C.2   1 <1>   0.5690 
 11 O        6.0090     1.6770     2.2510 O.2   1 <1>  -0.5700 
 12 N        6.2860     2.2650     0.0800 N.am  1 <1>  -0.6600 
 13 C        7.3020     1.2370    -0.2930 C.3   1 <1>   0.2200 
 14 C        6.2510     3.4300    -0.8520 C.3   1 <1>   0.2200 
 15 C        6.7700    -0.1820    -0.0820 C.3   1 <1>  -0.2400 
 16 C        8.6060     1.4820     0.4650 C.3   1 <1>  -0.2400 
 17 C        6.4020     4.7510    -0.0970 C.3   1 <1>  -0.2400 
 18 C        5.0170     3.4010    -1.7520 C.3   1 <1>  -0.2400 
 19 H       -0.4330     1.6530    -2.0950 H     1 <1>   0.1500 
 20 H        1.6890     3.4040     1.9940 H     1 <1>   0.1500 
 21 H       -1.7090     3.0980    -0.5430 H     1 <1>   0.1500 
 22 H        3.7310     2.4320     2.3250 H     1 <1>   0.0800 
 23 H        3.9960     3.6490     1.0950 H     1 <1>   0.0800 
 24 H       -0.6280     3.9610     1.4890 H     1 <1>   0.1500 
 25 H        7.5080     1.3260    -1.3460 H     1 <1>   0.0800 
 26 H        7.1090     3.3630    -1.5010 H     1 <1>   0.0800 
 27 H        6.6610    -0.4080     0.9630 H     1 <1>   0.0800 
 28 H        7.4570    -0.8930    -0.5040 H     1 <1>   0.0800 
 29 H        5.8190    -0.2950    -0.5720 H     1 <1>   0.0800 
 30 H        8.4610     1.3500     1.5220 H     1 <1>   0.0800 
 31 H        8.9630     2.4780     0.2800 H     1 <1>   0.0800 
 32 H        9.3550     0.7840     0.1380 H     1 <1>   0.0800 
 33 H        5.5380     4.9820     0.4940 H     1 <1>   0.0800 
 34 H        6.5420     5.5520    -0.8010 H     1 <1>   0.0800 
 35 H        7.2670     4.7100     0.5410 H     1 <1>   0.0800 
 36 H        4.1310     3.6910    -1.2220 H     1 <1>   0.0800 
 37 H        4.8800     2.4160    -2.1620 H     1 <1>   0.0800 
 38 H        5.1490     4.0910    -2.5660 H     1 <1>   0.0800 
@<TRIPOS>BOND
  1   1   2  1   
  2   2   3  ar  
  3   2   4  ar  
  4   3   5  1   
  5   3   6  ar  
  6   4   7  ar  
  7   4  19  1   
  8   5   8  1   
  9   6   9  ar  
 10   6  20  1   
 11   7   9  ar  
 12   7  21  1   
 13   8  10  1   
 14   8  22  1   
 15   8  23  1   
 16   9  24  1   
 17  10  11  2   
 18  10  12  am  
 19  12  13  1   
 20  12  14  1   
 21  13  15  1   
 22  13  16  1   
 23  13  25  1   
 24  14  17  1   
 25  14  18  1   
 26  14  26  1   
 27  15  27  1   
 28  15  28  1   
 29  15  29  1   
 30  16  30  1   
 31  16  31  1   
 32  16  32  1   
 33  17  33  1   
 34  17  34  1   
 35  17  35  1   
 36  18  36  1   
 37  18  37  1   
 38  18  38  1   
@<TRIPOS>SUBSTRUCTURE
  1 ****   5 GROUP 4 **** **** 0

# MOE 2024.06 (io_trps.svl 2023.06)
