@<TRIPOS>MOLECULE
NONAME
50 51 1 0 0 
SMALL
USER_CHARGES


@<TRIPOS>ATOM
  1 S       -0.0080    -0.3370     0.5370 S.o2  1 <1>   1.3330 
  2 O        1.3150    -0.9050     0.4370 O.2   1 <1>  -0.6500 
  3 O       -0.3450     0.5560     1.6180 O.2   1 <1>  -0.6500 
  4 N       -1.1400    -1.6470     0.5350 N.am  1 <1>  -0.6930 
  5 C       -0.3860     0.4590    -1.0090 C.3   1 <1>  -0.1350 
  6 C       -2.5030    -1.4710     0.7190 C.ar  1 <1>   0.1990 
  7 C       -0.6000    -3.0070     0.3560 C.3   1 <1>   0.3340 
  8 C       -3.0150    -0.9020     1.8790 C.ar  1 <1>  -0.1500 
  9 C       -3.4050    -1.8730    -0.2600 C.ar  1 <1>  -0.1500 
 10 C       -0.3290    -3.2610    -1.1170 C.2   1 <1>  -0.2880 
 11 C       -4.3750    -0.7340     2.0480 C.ar  1 <1>  -0.1500 
 12 C       -4.7660    -1.7060    -0.0880 C.ar  1 <1>  -0.1500 
 13 C       -0.9700    -4.1480    -1.8860 C.2   1 <1>  -0.3000 
 14 C       -5.2910    -1.1240     1.0690 C.ar  1 <1>   0.0860 
 15 C       -6.7150    -0.9310     1.2590 C.2   1 <1>   0.5440 
 16 O       -7.1960    -0.9110     2.3750 O.2   1 <1>  -0.5700 
 17 N       -7.5420    -0.7530     0.1830 N.am  1 <1>  -0.7300 
 18 C       -9.0050    -0.5690     0.2420 C.3   1 <1>   0.2200 
 19 C       -9.6340    -1.6480    -0.6510 C.3   1 <1>  -0.1600 
 20 C       -9.3190     0.8520    -0.2470 C.3   1 <1>  -0.1600 
 21 C      -11.1550    -1.8030    -0.5090 C.3   1 <1>  -0.1600 
 22 C      -10.6310     1.4440     0.2950 C.3   1 <1>  -0.1600 
 23 C      -11.9640    -0.5180    -0.7430 C.3   1 <1>  -0.1600 
 24 C      -11.8230     0.4820     0.4130 C.3   1 <1>  -0.1600 
 25 H        0.2620     1.3000    -1.1560 H     1 <1>   0.0800 
 26 H       -1.4020     0.8030    -1.0070 H     1 <1>   0.0800 
 27 H       -0.2530    -0.2260    -1.8220 H     1 <1>   0.0800 
 28 H       -1.3150    -3.7230     0.7220 H     1 <1>   0.0800 
 29 H        0.3050    -3.1250     0.9290 H     1 <1>   0.0800 
 30 H       -2.3380    -0.5920     2.6570 H     1 <1>   0.1500 
 31 H       -3.0300    -2.3190    -1.1630 H     1 <1>   0.1500 
 32 H        0.4670    -2.6410    -1.4940 H     1 <1>   0.1500 
 33 H       -4.7470    -0.2910     2.9580 H     1 <1>   0.1500 
 34 H       -5.4350    -2.0400    -0.8610 H     1 <1>   0.1500 
 35 H       -0.7480    -4.3090    -2.9270 H     1 <1>   0.1500 
 36 H       -1.7640    -4.7900    -1.5440 H     1 <1>   0.1500 
 37 H       -7.1370    -0.6430    -0.7440 H     1 <1>   0.3700 
 38 H       -9.3380    -0.6910     1.2600 H     1 <1>   0.0800 
 39 H       -9.1920    -2.5950    -0.3970 H     1 <1>   0.0800 
 40 H       -9.3990    -1.4440    -1.6810 H     1 <1>   0.0800 
 41 H       -9.3470     0.8620    -1.3220 H     1 <1>   0.0800 
 42 H       -8.5270     1.5140     0.0590 H     1 <1>   0.0800 
 43 H      -11.3800    -2.1930     0.4700 H     1 <1>   0.0800 
 44 H      -11.4810    -2.5420    -1.2210 H     1 <1>   0.0800 
 45 H      -10.9100     2.2660    -0.3410 H     1 <1>   0.0800 
 46 H      -10.4430     1.8550     1.2730 H     1 <1>   0.0800 
 47 H      -13.0010    -0.7980    -0.8100 H     1 <1>   0.0800 
 48 H      -11.6980    -0.0610    -1.6810 H     1 <1>   0.0800 
 49 H      -12.7180     1.0770     0.4640 H     1 <1>   0.0800 
 50 H      -11.7580    -0.0540     1.3450 H     1 <1>   0.0800 
@<TRIPOS>BOND
  1   1   2  2   
  2   1   3  2   
  3   1   4  am  
  4   1   5  1   
  5   4   6  1   
  6   4   7  1   
  7   5  25  1   
  8   5  26  1   
  9   5  27  1   
 10   6   8  ar  
 11   6   9  ar  
 12   7  10  1   
 13   7  28  1   
 14   7  29  1   
 15   8  11  ar  
 16   8  30  1   
 17   9  12  ar  
 18   9  31  1   
 19  10  13  2   
 20  10  32  1   
 21  11  14  ar  
 22  11  33  1   
 23  12  14  ar  
 24  12  34  1   
 25  13  35  1   
 26  13  36  1   
 27  14  15  1   
 28  15  16  2   
 29  15  17  am  
 30  17  18  1   
 31  17  37  1   
 32  18  19  1   
 33  18  20  1   
 34  18  38  1   
 35  19  21  1   
 36  19  39  1   
 37  19  40  1   
 38  20  22  1   
 39  20  41  1   
 40  20  42  1   
 41  21  23  1   
 42  21  43  1   
 43  21  44  1   
 44  22  24  1   
 45  22  45  1   
 46  22  46  1   
 47  23  24  1   
 48  23  47  1   
 49  23  48  1   
 50  24  49  1   
 51  24  50  1   
@<TRIPOS>SUBSTRUCTURE
  1 ****  14 GROUP 4 **** **** 0

# MOE 2024.06 (io_trps.svl 2023.06)
