@<TRIPOS>MOLECULE
NONAME
39 39 1 0 0 
SMALL
USER_CHARGES


@<TRIPOS>ATOM
  1 O        1.3990     1.7610     1.5490 O.2   1 <1>  -0.5700 
  2 C        0.5890     1.7630     0.6390 C.2   1 <1>   0.5440 
  3 N        1.0360     1.3150    -0.5710 N.am  1 <1>  -0.7300 
  4 C       -0.7610     2.2780     0.8300 C.ar  1 <1>   0.0860 
  5 C        2.2360     0.4660    -0.8240 C.3   1 <1>   0.1400 
  6 C       -1.8410     1.9900    -0.0240 C.ar  1 <1>   0.0830 
  7 C       -1.0110     3.1130     1.9240 C.ar  1 <1>  -0.1500 
  8 C        3.5150     1.3090    -0.9920 C.3   1 <1>   0.3430 
  9 O       -1.6270     1.1260    -1.0580 O.3   1 <1>  -0.3630 
 10 C       -3.0980     2.5820     0.1860 C.ar  1 <1>   0.0830 
 11 C       -2.2520     3.6660     2.1550 C.ar  1 <1>  -0.1500 
 12 N        3.8110     2.0890     0.2470 N.4   1 <1>  -0.9590 
 13 C       -2.5330     0.0670    -1.3030 C.3   1 <1>   0.0400 
 14 O       -4.1020     2.3500    -0.7090 O.3   1 <1>  -0.3630 
 15 C       -3.2940     3.4080     1.2860 C.ar  1 <1>  -0.1500 
 16 C        4.4210     3.4170    -0.0410 C.3   1 <1>   0.2630 
 17 C        4.5930     1.3100     1.2490 C.3   1 <1>   0.2630 
 18 C       -5.3260     3.0530    -0.6680 C.3   1 <1>   0.0400 
 19 H        0.2920     1.2420    -1.2830 H     1 <1>   0.3700 
 20 H        2.0710    -0.1050    -1.7220 H     1 <1>   0.0800 
 21 H        2.3610    -0.2310    -0.0120 H     1 <1>   0.0800 
 22 H       -0.2120     3.3350     2.6110 H     1 <1>   0.1500 
 23 H        3.3630     1.9820    -1.8200 H     1 <1>   0.0800 
 24 H        4.3480     0.6690    -1.2310 H     1 <1>   0.0800 
 25 H       -2.4100     4.3030     3.0090 H     1 <1>   0.1500 
 26 H        2.8710     2.2430     0.6850 H     1 <1>   0.4500 
 27 H       -1.9910    -0.7460    -1.7500 H     1 <1>   0.0800 
 28 H       -3.2940     0.4090    -1.9810 H     1 <1>   0.0800 
 29 H       -2.9720    -0.2490    -0.3720 H     1 <1>   0.0800 
 30 H       -4.2440     3.8630     1.4900 H     1 <1>   0.1500 
 31 H        5.3880     3.2950    -0.5000 H     1 <1>   0.0800 
 32 H        4.5390     3.9760     0.8730 H     1 <1>   0.0800 
 33 H        3.7880     3.9810    -0.7060 H     1 <1>   0.0800 
 34 H        5.5670     1.0620     0.8600 H     1 <1>   0.0800 
 35 H        4.0710     0.4000     1.4990 H     1 <1>   0.0800 
 36 H        4.7140     1.8860     2.1520 H     1 <1>   0.0800 
 37 H       -5.9120     2.7510    -1.5170 H     1 <1>   0.0800 
 38 H       -5.1260     4.1080    -0.7210 H     1 <1>   0.0800 
 39 H       -5.8450     2.8010     0.2400 H     1 <1>   0.0800 
@<TRIPOS>BOND
  1   1   2  2   
  2   2   3  am  
  3   2   4  1   
  4   3   5  1   
  5   3  19  1   
  6   4   6  ar  
  7   4   7  ar  
  8   5   8  1   
  9   5  20  1   
 10   5  21  1   
 11   6   9  1   
 12   6  10  ar  
 13   7  11  ar  
 14   7  22  1   
 15   8  12  1   
 16   8  23  1   
 17   8  24  1   
 18   9  13  1   
 19  10  14  1   
 20  10  15  ar  
 21  11  15  ar  
 22  11  25  1   
 23  12  16  1   
 24  12  17  1   
 25  12  26  1   
 26  13  27  1   
 27  13  28  1   
 28  13  29  1   
 29  14  18  1   
 30  15  30  1   
 31  16  31  1   
 32  16  32  1   
 33  16  33  1   
 34  17  34  1   
 35  17  35  1   
 36  17  36  1   
 37  18  37  1   
 38  18  38  1   
 39  18  39  1   
@<TRIPOS>SUBSTRUCTURE
  1 ****   4 GROUP 4 **** **** 0

# MOE 2024.06 (io_trps.svl 2023.06)
