@<TRIPOS>MOLECULE
NONAME
43 44 1 0 0 
SMALL
USER_CHARGES


@<TRIPOS>ATOM
  1 S        0.5920    -0.4890     1.2280 S.o2  1 <1>   1.4470 
  2 O       -0.5360     0.3460     1.5810 O.2   1 <1>  -0.6500 
  3 O        1.1310    -1.3830     2.2320 O.2   1 <1>  -0.6500 
  4 N        0.1040    -1.4780    -0.0610 N.am  1 <1>  -0.8490 
  5 C        1.9220     0.5310     0.5070 C.ar  1 <1>  -0.0090 
  6 C       -1.1720    -2.1360     0.2310 C.3   1 <1>   0.1960 
  7 C        1.1310    -2.4630    -0.4170 C.3   1 <1>   0.1960 
  8 C        1.7080     1.4540    -0.5210 C.ar  1 <1>  -0.1440 
  9 C        3.2200     0.3830     0.9810 C.ar  1 <1>  -0.1500 
 10 C       -1.6720    -2.8970    -1.0020 C.3   1 <1>  -0.1600 
 11 C        0.7180    -3.2230    -1.6820 C.3   1 <1>  -0.1600 
 12 C        2.7690     2.1870    -1.0280 C.ar  1 <1>  -0.1500 
 13 C        0.3230     1.6940    -1.1120 C.3   1 <1>  -0.0970 
 14 C        4.3070     1.0970     0.4800 C.ar  1 <1>   0.0860 
 15 C       -0.6370    -3.9140    -1.4960 C.3   1 <1>  -0.1600 
 16 C        4.0460     2.0130    -0.5350 C.ar  1 <1>  -0.1500 
 17 C        5.6470     0.8850     1.0010 C.2   1 <1>   0.5440 
 18 O        5.8160     0.5090     2.1430 O.2   1 <1>  -0.5700 
 19 N        6.7420     1.0820     0.2060 N.am  1 <1>  -0.7300 
 20 C        8.1440     0.9170     0.6360 C.3   1 <1>   0.1400 
 21 C        8.9840     2.0030    -0.0240 C.3   1 <1>  -0.2400 
 22 H       -1.9100    -1.3990     0.5010 H     1 <1>   0.0800 
 23 H       -1.0530    -2.8120     1.0630 H     1 <1>   0.0800 
 24 H        1.2740    -3.1580     0.3960 H     1 <1>   0.0800 
 25 H        2.0680    -1.9650    -0.6010 H     1 <1>   0.0800 
 26 H        3.4080    -0.3190     1.7780 H     1 <1>   0.1500 
 27 H       -1.8850    -2.1860    -1.7820 H     1 <1>   0.0800 
 28 H       -2.5900    -3.4020    -0.7600 H     1 <1>   0.0800 
 29 H        1.4680    -3.9560    -1.9190 H     1 <1>   0.0800 
 30 H        0.6650    -2.5270    -2.5010 H     1 <1>   0.0800 
 31 H        2.6050     2.9040    -1.8140 H     1 <1>   0.1500 
 32 H       -0.3420     2.0780    -0.3590 H     1 <1>   0.0800 
 33 H       -0.0850     0.7790    -1.5030 H     1 <1>   0.0800 
 34 H        0.3600     2.4070    -1.9150 H     1 <1>   0.0800 
 35 H       -0.9610    -4.3490    -2.4260 H     1 <1>   0.0800 
 36 H       -0.5400    -4.7050    -0.7720 H     1 <1>   0.0800 
 37 H        4.8480     2.6050    -0.9390 H     1 <1>   0.1500 
 38 H        6.6100     1.2750    -0.7860 H     1 <1>   0.3700 
 39 H        8.4940    -0.0580     0.3440 H     1 <1>   0.0800 
 40 H        8.2120     0.9990     1.7090 H     1 <1>   0.0800 
 41 H        8.9470     1.9140    -1.0940 H     1 <1>   0.0800 
 42 H       10.0080     1.9040     0.2900 H     1 <1>   0.0800 
 43 H        8.6330     2.9760     0.2720 H     1 <1>   0.0800 
@<TRIPOS>BOND
  1   1   2  2   
  2   1   3  2   
  3   1   4  am  
  4   1   5  1   
  5   4   6  1   
  6   4   7  1   
  7   5   8  ar  
  8   5   9  ar  
  9   6  10  1   
 10   6  22  1   
 11   6  23  1   
 12   7  11  1   
 13   7  24  1   
 14   7  25  1   
 15   8  12  ar  
 16   8  13  1   
 17   9  14  ar  
 18   9  26  1   
 19  10  15  1   
 20  10  27  1   
 21  10  28  1   
 22  11  15  1   
 23  11  29  1   
 24  11  30  1   
 25  12  16  ar  
 26  12  31  1   
 27  13  32  1   
 28  13  33  1   
 29  13  34  1   
 30  14  16  ar  
 31  14  17  1   
 32  15  35  1   
 33  15  36  1   
 34  16  37  1   
 35  17  18  2   
 36  17  19  am  
 37  19  20  1   
 38  19  38  1   
 39  20  21  1   
 40  20  39  1   
 41  20  40  1   
 42  21  41  1   
 43  21  42  1   
 44  21  43  1   
@<TRIPOS>SUBSTRUCTURE
  1 ****   5 GROUP 4 **** **** 0

# MOE 2024.06 (io_trps.svl 2023.06)
