@<TRIPOS>MOLECULE
NONAME
43 44 1 0 0 
SMALL
USER_CHARGES


@<TRIPOS>ATOM
  1 S       -0.0010     0.3390     1.0660 S.o2  1 <1>   1.4470 
  2 O        0.5410     0.1340     2.3890 O.2   1 <1>  -0.6500 
  3 O       -0.1800     1.6740     0.5440 O.2   1 <1>  -0.6500 
  4 N        1.0300    -0.3890    -0.0390 N.am  1 <1>  -0.9140 
  5 C       -1.5420    -0.6010     0.8780 C.ar  1 <1>  -0.0090 
  6 C        2.4320    -0.3690     0.3180 C.3   1 <1>   0.2760 
  7 C       -2.7670     0.0430     0.7840 C.ar  1 <1>  -0.1500 
  8 C       -1.5380    -1.9880     0.8390 C.ar  1 <1>  -0.1500 
  9 C        3.0050     1.0540     0.2040 C.3   1 <1>  -0.1600 
 10 C        3.1600    -1.3220    -0.6350 C.3   1 <1>  -0.1600 
 11 C       -3.9740    -0.6410     0.6400 C.ar  1 <1>   0.0860 
 12 C       -2.7150    -2.6990     0.7010 C.ar  1 <1>  -0.1500 
 13 C        4.5220     1.0680     0.4430 C.3   1 <1>  -0.1600 
 14 C        4.6760    -1.3160    -0.3910 C.3   1 <1>  -0.1600 
 15 C       -3.9280    -2.0400     0.5990 C.ar  1 <1>  -0.1430 
 16 C       -5.2080     0.1190     0.5330 C.2   1 <1>   0.5440 
 17 C        5.2460     0.1030    -0.5040 C.3   1 <1>  -0.1600 
 18 C       -5.2010    -2.8640     0.4430 C.3   1 <1>  -0.0970 
 19 O       -6.1530    -0.1050     1.2630 O.2   1 <1>  -0.5700 
 20 N       -5.3100     1.1140    -0.4000 N.am  1 <1>  -0.7300 
 21 C       -6.4930     1.9880    -0.6070 C.3   1 <1>   0.0600 
 22 H        0.9360     0.1850    -0.8720 H     1 <1>   0.4200 
 23 H        2.5640    -0.7340     1.3250 H     1 <1>   0.0800 
 24 H       -2.7900     1.1190     0.8300 H     1 <1>   0.1500 
 25 H       -0.6020    -2.5160     0.9180 H     1 <1>   0.1500 
 26 H        2.5440     1.6970     0.9330 H     1 <1>   0.0800 
 27 H        2.8040     1.4490    -0.7760 H     1 <1>   0.0800 
 28 H        2.9710    -1.0310    -1.6530 H     1 <1>   0.0800 
 29 H        2.7850    -2.3200    -0.4920 H     1 <1>   0.0800 
 30 H       -2.6770    -3.7750     0.6750 H     1 <1>   0.1500 
 31 H        4.7230     0.7840     1.4630 H     1 <1>   0.0800 
 32 H        4.9000     2.0660     0.3000 H     1 <1>   0.0800 
 33 H        5.1600    -1.9570    -1.1080 H     1 <1>   0.0800 
 34 H        4.8820    -1.7070     0.5910 H     1 <1>   0.0800 
 35 H        6.2970     0.0890    -0.2700 H     1 <1>   0.0800 
 36 H        5.1410     0.4510    -1.5180 H     1 <1>   0.0800 
 37 H       -5.7840    -2.4990    -0.3830 H     1 <1>   0.0800 
 38 H       -5.7930    -2.7920     1.3380 H     1 <1>   0.0800 
 39 H       -4.9760    -3.9010     0.2660 H     1 <1>   0.0800 
 40 H       -4.5300     1.2620    -1.0430 H     1 <1>   0.3700 
 41 H       -7.2570     1.7670     0.1200 H     1 <1>   0.0800 
 42 H       -6.8950     1.8280    -1.5920 H     1 <1>   0.0800 
 43 H       -6.2060     3.0200    -0.5020 H     1 <1>   0.0800 
@<TRIPOS>BOND
  1   1   2  2   
  2   1   3  2   
  3   1   4  am  
  4   1   5  1   
  5   4   6  1   
  6   4  22  1   
  7   5   7  ar  
  8   5   8  ar  
  9   6   9  1   
 10   6  10  1   
 11   6  23  1   
 12   7  11  ar  
 13   7  24  1   
 14   8  12  ar  
 15   8  25  1   
 16   9  13  1   
 17   9  26  1   
 18   9  27  1   
 19  10  14  1   
 20  10  28  1   
 21  10  29  1   
 22  11  15  ar  
 23  11  16  1   
 24  12  15  ar  
 25  12  30  1   
 26  13  17  1   
 27  13  31  1   
 28  13  32  1   
 29  14  17  1   
 30  14  33  1   
 31  14  34  1   
 32  15  18  1   
 33  16  19  2   
 34  16  20  am  
 35  17  35  1   
 36  17  36  1   
 37  18  37  1   
 38  18  38  1   
 39  18  39  1   
 40  20  21  1   
 41  20  40  1   
 42  21  41  1   
 43  21  42  1   
 44  21  43  1   
@<TRIPOS>SUBSTRUCTURE
  1 ****   5 GROUP 4 **** **** 0

# MOE 2024.06 (io_trps.svl 2023.06)
