@<TRIPOS>MOLECULE
NONAME
52 53 1 0 0 
SMALL
USER_CHARGES


@<TRIPOS>ATOM
  1 O        0.2050    -0.4190    -0.8300 O.2   1 <1>  -0.5700 
  2 C        0.1470    -1.4570    -0.1950 C.2   1 <1>   0.6160 
  3 N        1.3250    -2.0000     0.2400 N.am  1 <1>  -0.7300 
  4 C       -1.0920    -2.1170     0.0900 C.2   1 <1>   0.0790 
  5 C        2.6740    -1.6200    -0.2050 C.3   1 <1>   0.2840 
  6 C       -2.1540    -1.2200     0.4100 C.1   1 <1>   0.4920 
  7 C       -1.2380    -3.4840     0.0800 C.2   1 <1>  -0.0380 
  8 C        3.5030    -2.8900    -0.3440 C.ar  1 <1>  -0.1440 
  9 N       -3.0340    -0.5530     0.7010 N.1   1 <1>  -0.5570 
 10 N       -0.2250    -4.3270    -0.3260 N.pl3 1 <1>  -0.8690 
 11 C       -2.5330    -4.1830     0.4870 C.3   1 <1>  -0.1020 
 12 C        4.1790    -3.4090     0.7510 C.ar  1 <1>  -0.1500 
 13 C        3.6160    -3.5260    -1.5710 C.ar  1 <1>  -0.1500 
 14 C       -0.1210    -5.7960    -0.2770 C.3   1 <1>   0.2090 
 15 C        4.9750    -4.5340     0.6160 C.ar  1 <1>  -0.1500 
 16 C        4.4090    -4.6540    -1.7070 C.ar  1 <1>  -0.1500 
 17 C        1.3210    -6.1060     0.1160 C.3   1 <1>  -0.1600 
 18 C        5.0950    -5.1560    -0.6150 C.ar  1 <1>  -0.1500 
 19 C        1.6310    -7.5930    -0.0050 C.3   1 <1>   0.3430 
 20 N        3.0810    -7.8120     0.2460 N.4   1 <1>  -0.9590 
 21 C        3.5340    -9.1300    -0.3220 C.3   1 <1>   0.3430 
 22 C        3.4280    -7.7290     1.7110 C.3   1 <1>   0.3430 
 23 C        5.0060    -9.4250     0.0260 C.3   1 <1>   0.1200 
 24 C        4.9020    -8.0970     1.9710 C.3   1 <1>   0.1200 
 25 O        5.2010    -9.3400     1.4070 O.3   1 <1>  -0.5600 
 26 H        1.2690    -2.8670     0.7790 H     1 <1>   0.3700 
 27 H        2.6220    -1.0970    -1.1460 H     1 <1>   0.0800 
 28 H        3.1170    -0.9600     0.5220 H     1 <1>   0.0800 
 29 H        0.5710    -3.8930    -0.8230 H     1 <1>   0.4000 
 30 H       -2.3700    -4.7730     1.3710 H     1 <1>   0.0800 
 31 H       -2.8640    -4.8290    -0.3070 H     1 <1>   0.0800 
 32 H       -3.3340    -3.4980     0.6980 H     1 <1>   0.0800 
 33 H        4.1030    -2.9220     1.7090 H     1 <1>   0.1500 
 34 H        3.0990    -3.1320    -2.4310 H     1 <1>   0.1500 
 35 H       -0.8090    -6.2060     0.4430 H     1 <1>   0.0800 
 36 H       -0.3500    -6.1950    -1.2520 H     1 <1>   0.0800 
 37 H        5.5210    -4.9010     1.4680 H     1 <1>   0.1500 
 38 H        4.5070    -5.1220    -2.6730 H     1 <1>   0.1500 
 39 H        1.4770    -5.7710     1.1250 H     1 <1>   0.0800 
 40 H        1.9740    -5.5660    -0.5440 H     1 <1>   0.0800 
 41 H        5.7440    -6.0070    -0.7310 H     1 <1>   0.1500 
 42 H        1.3850    -7.9180    -1.0040 H     1 <1>   0.0800 
 43 H        1.0380    -8.1620     0.6940 H     1 <1>   0.0800 
 44 H        3.6030    -7.0620    -0.2330 H     1 <1>   0.4500 
 45 H        2.9300    -9.9270     0.0800 H     1 <1>   0.0800 
 46 H        3.4160    -9.1330    -1.3930 H     1 <1>   0.0800 
 47 H        3.2430    -6.7340     2.0790 H     1 <1>   0.0800 
 48 H        2.8080    -8.4110     2.2700 H     1 <1>   0.0800 
 49 H        5.6700    -8.7330    -0.4630 H     1 <1>   0.0800 
 50 H        5.2660   -10.4230    -0.2790 H     1 <1>   0.0800 
 51 H        5.0850    -8.1670     3.0290 H     1 <1>   0.0800 
 52 H        5.5690    -7.3610     1.5570 H     1 <1>   0.0800 
@<TRIPOS>BOND
  1   1   2  2   
  2   2   3  am  
  3   2   4  1   
  4   3   5  1   
  5   3  26  1   
  6   4   6  1   
  7   4   7  2   
  8   5   8  1   
  9   5  27  1   
 10   5  28  1   
 11   6   9  3   
 12   7  10  1   
 13   7  11  1   
 14   8  12  ar  
 15   8  13  ar  
 16  10  14  1   
 17  10  29  1   
 18  11  30  1   
 19  11  31  1   
 20  11  32  1   
 21  12  15  ar  
 22  12  33  1   
 23  13  16  ar  
 24  13  34  1   
 25  14  17  1   
 26  14  35  1   
 27  14  36  1   
 28  15  18  ar  
 29  15  37  1   
 30  16  18  ar  
 31  16  38  1   
 32  17  19  1   
 33  17  39  1   
 34  17  40  1   
 35  18  41  1   
 36  19  20  1   
 37  19  42  1   
 38  19  43  1   
 39  20  21  1   
 40  20  22  1   
 41  20  44  1   
 42  21  23  1   
 43  21  45  1   
 44  21  46  1   
 45  22  24  1   
 46  22  47  1   
 47  22  48  1   
 48  23  25  1   
 49  23  49  1   
 50  23  50  1   
 51  24  25  1   
 52  24  51  1   
 53  24  52  1   
@<TRIPOS>SUBSTRUCTURE
  1 ****  17 GROUP 4 **** **** 0

# MOE 2024.06 (io_trps.svl 2023.06)
