@<TRIPOS>MOLECULE
NONAME
49 54 1 0 0 
SMALL
USER_CHARGES


@<TRIPOS>ATOM
  1 O        0.0850    -2.5100     3.4470 O.2   1 <1>  -0.5700 
  2 C       -0.2320    -2.1640     2.3220 C.2   1 <1>   0.7160 
  3 N        0.7190    -1.8050     1.4100 N.am  1 <1>  -0.4930 
  4 C       -1.6060    -2.1260     1.9320 C.2   1 <1>  -0.0860 
  5 C        2.1300    -1.7520     1.5270 C.2   1 <1>   0.0630 
  6 C       -2.1620    -1.7700     0.7300 C.2   1 <1>  -0.0260 
  7 C       -2.7050    -2.4550     2.7230 C.2   1 <1>   0.1390 
  8 C        2.9420    -2.0550     2.6180 C.2   1 <1>   0.1390 
  9 C        2.9910    -1.3800     0.5590 C.2   1 <1>  -0.3020 
 10 N       -1.5640    -1.3500    -0.4400 N.2   1 <1>  -0.5760 
 11 N       -3.5200    -1.9060     0.8790 N.pl3 1 <1>   0.6010 
 12 N       -3.8470    -2.3300     2.1140 N.2   1 <1>  -0.7070 
 13 N        4.2040    -1.8880     2.3560 N.2   1 <1>  -0.7070 
 14 N        4.2460    -1.4660     1.0700 N.pl3 1 <1>   0.3140 
 15 C       -2.3660    -1.0810    -1.4240 C.2   1 <1>   0.3760 
 16 C       -4.3520    -1.6150    -0.1780 C.2   1 <1>  -0.1810 
 17 C        5.5190    -1.1420     0.3320 C.3   1 <1>   0.2560 
 18 C       -3.7810    -1.2000    -1.3400 C.2   1 <1>  -0.1360 
 19 C        6.7670    -1.3550     1.2270 C.3   1 <1>  -0.1600 
 20 C        5.4960     0.3350    -0.1310 C.3   1 <1>  -0.1600 
 21 C        5.6510    -2.0550    -0.9110 C.3   1 <1>  -0.1600 
 22 C        8.0560    -1.0190     0.4550 C.3   1 <1>  -0.0800 
 23 C        6.7800     0.6770    -0.9120 C.3   1 <1>  -0.0800 
 24 C        6.9350    -1.7200    -1.6950 C.3   1 <1>  -0.0800 
 25 C        8.0020     0.4500    -0.0020 C.3   1 <1>  -0.1600 
 26 C        8.1550    -1.9320    -0.7810 C.3   1 <1>  -0.1600 
 27 C        6.8860    -0.2460    -2.1400 C.3   1 <1>  -0.1600 
 28 H        0.3230    -1.5350     0.5040 H     1 <1>   0.3700 
 29 H       -2.6160    -2.7830     3.7480 H     1 <1>   0.1500 
 30 H        2.5730    -2.3910     3.5720 H     1 <1>   0.1500 
 31 H        2.7870    -1.0660    -0.4450 H     1 <1>   0.1500 
 32 H       -1.9500    -0.7490    -2.3590 H     1 <1>   0.0600 
 33 H       -5.4050    -1.7390    -0.0070 H     1 <1>   0.1500 
 34 H       -4.3640    -0.9540    -2.2090 H     1 <1>   0.1500 
 35 H        6.6980    -0.7270     2.0990 H     1 <1>   0.0800 
 36 H        6.8040    -2.3770     1.5590 H     1 <1>   0.0800 
 37 H        5.4160     0.9780     0.7290 H     1 <1>   0.0800 
 38 H        4.6450     0.5130    -0.7620 H     1 <1>   0.0800 
 39 H        4.8020    -1.9250    -1.5590 H     1 <1>   0.0800 
 40 H        5.6790    -3.0850    -0.5990 H     1 <1>   0.0800 
 41 H        8.9110    -1.1720     1.0910 H     1 <1>   0.0800 
 42 H        6.7500     1.7050    -1.2300 H     1 <1>   0.0800 
 43 H        7.0120    -2.3600    -2.5580 H     1 <1>   0.0800 
 44 H        8.9030     0.6980    -0.5350 H     1 <1>   0.0800 
 45 H        7.9440     1.0970     0.8560 H     1 <1>   0.0800 
 46 H        8.2060    -2.9620    -0.4700 H     1 <1>   0.0800 
 47 H        9.0590    -1.7130    -1.3230 H     1 <1>   0.0800 
 48 H        7.7750    -0.0070    -2.6980 H     1 <1>   0.0800 
 49 H        6.0440    -0.0880    -2.7910 H     1 <1>   0.0800 
@<TRIPOS>BOND
  1   1   2  2   
  2   2   3  am  
  3   2   4  1   
  4   3   5  1   
  5   3  28  1   
  6   4   6  2   
  7   4   7  1   
  8   5   8  1   
  9   5   9  2   
 10   6  10  1   
 11   6  11  1   
 12   7  12  2   
 13   7  29  1   
 14   8  13  2   
 15   8  30  1   
 16   9  14  1   
 17   9  31  1   
 18  10  15  2   
 19  11  12  1   
 20  11  16  1   
 21  13  14  1   
 22  14  17  1   
 23  15  18  1   
 24  15  32  1   
 25  16  18  2   
 26  16  33  1   
 27  17  19  1   
 28  17  20  1   
 29  17  21  1   
 30  18  34  1   
 31  19  22  1   
 32  19  35  1   
 33  19  36  1   
 34  20  23  1   
 35  20  37  1   
 36  20  38  1   
 37  21  24  1   
 38  21  39  1   
 39  21  40  1   
 40  22  25  1   
 41  22  26  1   
 42  22  41  1   
 43  23  25  1   
 44  23  27  1   
 45  23  42  1   
 46  24  26  1   
 47  24  27  1   
 48  24  43  1   
 49  25  44  1   
 50  25  45  1   
 51  26  46  1   
 52  26  47  1   
 53  27  48  1   
 54  27  49  1   
@<TRIPOS>SUBSTRUCTURE
  1 ****   9 GROUP 4 **** **** 0

# MOE 2024.06 (io_trps.svl 2023.06)
