@<TRIPOS>MOLECULE
NONAME
41 41 1 0 0 
SMALL
USER_CHARGES


@<TRIPOS>ATOM
  1 O       -0.4290    -0.0660    -0.4640 O.2   1 <1>  -0.5700 
  2 C       -0.2390    -1.2270    -0.1840 C.2   1 <1>   0.5690 
  3 N        1.0140    -1.7370     0.0360 N.am  1 <1>  -0.5470 
  4 C       -1.4640    -2.1740    -0.0810 C.3   1 <1>   0.0610 
  5 C        2.2880    -1.1420     0.0190 C.ar  1 <1>   0.1170 
  6 C       -2.4190    -1.6710     1.0180 C.3   1 <1>  -0.2400 
  7 C       -1.0810    -3.6320     0.2600 C.3   1 <1>  -0.2400 
  8 C       -2.2250    -2.1910    -1.4200 C.3   1 <1>  -0.2400 
  9 C        3.4020    -1.9650    -0.0840 C.ar  1 <1>  -0.1500 
 10 C        2.4980     0.2290     0.1160 C.ar  1 <1>  -0.1500 
 11 C        4.6810    -1.4390    -0.0970 C.ar  1 <1>  -0.1500 
 12 C        3.7760     0.7560     0.1000 C.ar  1 <1>  -0.1500 
 13 C        4.8900    -0.0660    -0.0100 C.ar  1 <1>   0.1170 
 14 N        6.1660     0.5260    -0.0110 N.am  1 <1>  -0.5470 
 15 C        7.3850     0.0510    -0.4120 C.2   1 <1>   0.5690 
 16 O        7.5510    -1.0480    -0.8840 O.2   1 <1>  -0.5700 
 17 C        8.5930     0.9840    -0.2600 C.3   1 <1>  -0.0190 
 18 C        9.1680     1.3830    -1.6280 C.3   1 <1>  -0.2400 
 19 C        9.6930     0.3510     0.6090 C.3   1 <1>  -0.2400 
 20 H        1.0240    -2.7380     0.2080 H     1 <1>   0.3700 
 21 H       -1.9170    -1.6500     1.9690 H     1 <1>   0.0800 
 22 H       -3.2840    -2.3040     1.0980 H     1 <1>   0.0800 
 23 H       -2.7500    -0.6720     0.7930 H     1 <1>   0.0800 
 24 H       -0.5780    -3.6830     1.2100 H     1 <1>   0.0800 
 25 H       -0.4440    -4.0480    -0.5000 H     1 <1>   0.0800 
 26 H       -1.9640    -4.2460     0.3220 H     1 <1>   0.0800 
 27 H       -2.5560    -1.1990    -1.6720 H     1 <1>   0.0800 
 28 H       -3.0860    -2.8330    -1.3670 H     1 <1>   0.0800 
 29 H       -1.5830    -2.5380    -2.2100 H     1 <1>   0.0800 
 30 H        3.2760    -3.0290    -0.1600 H     1 <1>   0.1500 
 31 H        1.6610     0.8970     0.2070 H     1 <1>   0.1500 
 32 H        5.5190    -2.1070    -0.1740 H     1 <1>   0.1500 
 33 H        3.9020     1.8210     0.1710 H     1 <1>   0.1500 
 34 H        6.1720     1.4920     0.3060 H     1 <1>   0.3700 
 35 H        8.2680     1.8820     0.2340 H     1 <1>   0.0800 
 36 H        9.5220     0.5110    -2.1510 H     1 <1>   0.0800 
 37 H        9.9870     2.0700    -1.5100 H     1 <1>   0.0800 
 38 H        8.4090     1.8520    -2.2280 H     1 <1>   0.0800 
 39 H       10.0660    -0.5460     0.1430 H     1 <1>   0.0800 
 40 H        9.2980     0.0900     1.5750 H     1 <1>   0.0800 
 41 H       10.5110     1.0350     0.7440 H     1 <1>   0.0800 
@<TRIPOS>BOND
  1   1   2  2   
  2   2   3  am  
  3   2   4  1   
  4   3   5  1   
  5   3  20  1   
  6   4   6  1   
  7   4   7  1   
  8   4   8  1   
  9   5   9  ar  
 10   5  10  ar  
 11   6  21  1   
 12   6  22  1   
 13   6  23  1   
 14   7  24  1   
 15   7  25  1   
 16   7  26  1   
 17   8  27  1   
 18   8  28  1   
 19   8  29  1   
 20   9  11  ar  
 21   9  30  1   
 22  10  12  ar  
 23  10  31  1   
 24  11  13  ar  
 25  11  32  1   
 26  12  13  ar  
 27  12  33  1   
 28  13  14  1   
 29  14  15  am  
 30  14  34  1   
 31  15  16  2   
 32  15  17  1   
 33  17  18  1   
 34  17  19  1   
 35  17  35  1   
 36  18  36  1   
 37  18  37  1   
 38  18  38  1   
 39  19  39  1   
 40  19  40  1   
 41  19  41  1   
@<TRIPOS>SUBSTRUCTURE
  1 ****   5 GROUP 4 **** **** 0

# MOE 2024.06 (io_trps.svl 2023.06)
