@<TRIPOS>MOLECULE
NONAME
27 29 1 0 0 
SMALL
USER_CHARGES


@<TRIPOS>ATOM
  1 S       -0.0740    -0.5590    -0.6980 S.3   1 <1>  -0.0800 
  2 C        1.1240     0.6100    -0.1940 C.2   1 <1>   0.1240 
  3 C       -1.3510     0.6040    -0.3650 C.2   1 <1>  -0.1400 
  4 N        2.4590     0.3790    -0.1720 N.pl3 1 <1>  -0.5340 
  5 C        0.5780     1.7840     0.2110 C.2   1 <1>  -0.0860 
  6 C       -0.8600     1.7890     0.0430 C.2   1 <1>  -0.1810 
  7 C       -2.7970     0.2020    -0.5290 C.3   1 <1>   0.0200 
  8 C        3.2770     1.3650     0.2910 C.2   1 <1>   0.4400 
  9 C        1.5010     2.7310     0.7670 C.2   1 <1>   0.8670 
 10 C       -1.7840     2.9820     0.3050 C.3   1 <1>   0.1010 
 11 C       -3.6440     1.1630     0.3180 C.3   1 <1>  -0.1600 
 12 N        2.8580     2.4920     0.7420 N.2   1 <1>  -0.6610 
 13 O        1.1290     3.7560     1.3180 O.2   1 <1>  -0.5700 
 14 C       -3.2710     2.6290     0.0290 C.3   1 <1>  -0.1600 
 15 C       -1.4170     4.1760    -0.5900 C.3   1 <1>  -0.2400 
 16 H        2.8360    -0.5130    -0.4990 H     1 <1>   0.4000 
 17 H       -2.9420    -0.8080    -0.1880 H     1 <1>   0.0800 
 18 H       -3.0710     0.2620    -1.5670 H     1 <1>   0.0800 
 19 H        4.3340     1.1640     0.2700 H     1 <1>   0.0600 
 20 H       -1.6780     3.2640     1.3390 H     1 <1>   0.0800 
 21 H       -3.4740     0.9570     1.3610 H     1 <1>   0.0800 
 22 H       -4.6880     1.0010     0.1120 H     1 <1>   0.0800 
 23 H       -3.4940     2.8150    -1.0070 H     1 <1>   0.0800 
 24 H       -3.8980     3.2820     0.6120 H     1 <1>   0.0800 
 25 H       -1.4650     3.8920    -1.6260 H     1 <1>   0.0800 
 26 H       -0.4280     4.5340    -0.3900 H     1 <1>   0.0800 
 27 H       -2.1000     4.9890    -0.4210 H     1 <1>   0.0800 
@<TRIPOS>BOND
  1   1   2  1   
  2   1   3  1   
  3   2   4  1   
  4   2   5  2   
  5   3   6  2   
  6   3   7  1   
  7   4   8  1   
  8   4  16  1   
  9   5   6  1   
 10   5   9  1   
 11   6  10  1   
 12   7  11  1   
 13   7  17  1   
 14   7  18  1   
 15   8  12  2   
 16   8  19  1   
 17   9  12  1   
 18   9  13  2   
 19  10  14  1   
 20  10  15  1   
 21  10  20  1   
 22  11  14  1   
 23  11  21  1   
 24  11  22  1   
 25  14  23  1   
 26  14  24  1   
 27  15  25  1   
 28  15  26  1   
 29  15  27  1   
@<TRIPOS>SUBSTRUCTURE
  1 ****   6 GROUP 4 **** **** 0

# MOE 2024.06 (io_trps.svl 2023.06)
