@<TRIPOS>MOLECULE
NONAME
40 41 1 0 0 
SMALL
USER_CHARGES


@<TRIPOS>ATOM
  1 O       -0.6290    -0.5560     2.3550 O.2   1 <1>  -0.5700 
  2 C       -0.3240     0.4060     1.6890 C.2   1 <1>   0.5690 
  3 N       -1.1850     1.0920     0.8870 N.am  1 <1>  -0.5470 
  4 C        1.1240     0.9040     1.7190 C.3   1 <1>   0.1710 
  5 C       -2.5230     0.8990     0.4970 C.ar  1 <1>   0.1170 
  6 N        1.5010     1.7490     0.5450 N.3   1 <1>  -0.8100 
  7 C       -2.9910     1.5720    -0.6360 C.ar  1 <1>   0.0830 
  8 C       -3.3930     0.0710     1.1970 C.ar  1 <1>  -0.1500 
  9 C        2.7640     2.4700     0.7860 C.3   1 <1>   0.1100 
 10 C        1.6310     0.9420    -0.6890 C.3   1 <1>   0.1100 
 11 O       -2.1050     2.3770    -1.2980 O.3   1 <1>  -0.3630 
 12 C       -4.3090     1.4030    -1.0480 C.ar  1 <1>  -0.1500 
 13 C       -4.7030    -0.0940     0.7840 C.ar  1 <1>  -0.1500 
 14 C        3.1620     3.3070    -0.4440 C.3   1 <1>   0.1200 
 15 C        2.0560     1.8230    -1.8770 C.3   1 <1>   0.1200 
 16 C       -2.5090     3.1430    -2.4120 C.3   1 <1>   0.0400 
 17 C       -5.1660     0.5740    -0.3450 C.ar  1 <1>   0.0830 
 18 O        3.2460     2.4980    -1.5830 O.3   1 <1>  -0.5600 
 19 O       -6.4350     0.4670    -0.8200 O.3   1 <1>  -0.3630 
 20 C       -7.3800    -0.3650    -0.1830 C.3   1 <1>   0.0400 
 21 H       -0.7070     1.8270     0.3520 H     1 <1>   0.3700 
 22 H        1.7810     0.0540     1.7850 H     1 <1>   0.0800 
 23 H        1.2380     1.4800     2.6190 H     1 <1>   0.0800 
 24 H       -3.0490    -0.4480     2.0720 H     1 <1>   0.1500 
 25 H        3.5550     1.7720     1.0050 H     1 <1>   0.0800 
 26 H        2.6490     3.1250     1.6320 H     1 <1>   0.0800 
 27 H        0.6930     0.4710    -0.9260 H     1 <1>   0.0800 
 28 H        2.3670     0.1670    -0.5510 H     1 <1>   0.0800 
 29 H       -4.7020     1.9010    -1.9120 H     1 <1>   0.1500 
 30 H       -5.3400    -0.7430     1.3540 H     1 <1>   0.1500 
 31 H        4.1240     3.7620    -0.2920 H     1 <1>   0.0800 
 32 H        2.4360     4.0810    -0.6240 H     1 <1>   0.0800 
 33 H        1.2920     2.5480    -2.0990 H     1 <1>   0.0800 
 34 H        2.2270     1.2180    -2.7490 H     1 <1>   0.0800 
 35 H       -1.6630     3.7150    -2.7490 H     1 <1>   0.0800 
 36 H       -3.3010     3.8060    -2.1120 H     1 <1>   0.0800 
 37 H       -2.8350     2.4800    -3.1930 H     1 <1>   0.0800 
 38 H       -8.3040    -0.2990    -0.7290 H     1 <1>   0.0800 
 39 H       -7.5260    -0.0190     0.8250 H     1 <1>   0.0800 
 40 H       -7.0180    -1.3780    -0.1970 H     1 <1>   0.0800 
@<TRIPOS>BOND
  1   1   2  2   
  2   2   3  am  
  3   2   4  1   
  4   3   5  1   
  5   3  21  1   
  6   4   6  1   
  7   4  22  1   
  8   4  23  1   
  9   5   7  ar  
 10   5   8  ar  
 11   6   9  1   
 12   6  10  1   
 13   7  11  1   
 14   7  12  ar  
 15   8  13  ar  
 16   8  24  1   
 17   9  14  1   
 18   9  25  1   
 19   9  26  1   
 20  10  15  1   
 21  10  27  1   
 22  10  28  1   
 23  11  16  1   
 24  12  17  ar  
 25  12  29  1   
 26  13  17  ar  
 27  13  30  1   
 28  14  18  1   
 29  14  31  1   
 30  14  32  1   
 31  15  18  1   
 32  15  33  1   
 33  15  34  1   
 34  16  35  1   
 35  16  36  1   
 36  16  37  1   
 37  17  19  1   
 38  19  20  1   
 39  20  38  1   
 40  20  39  1   
 41  20  40  1   
@<TRIPOS>SUBSTRUCTURE
  1 ****   3 GROUP 4 **** **** 0

# MOE 2024.06 (io_trps.svl 2023.06)
