@<TRIPOS>MOLECULE
NONAME
35 36 1 0 0 
SMALL
USER_CHARGES


@<TRIPOS>ATOM
  1 F       -0.7320     0.0790     1.2240 F     1 <1>  -0.1900 
  2 C       -1.7900    -0.5410     0.7760 C.ar  1 <1>   0.1900 
  3 C       -2.4420    -1.4330     1.6050 C.ar  1 <1>  -0.1500 
  4 C       -2.2180    -0.2830    -0.5110 C.ar  1 <1>  -0.1500 
  5 C       -3.5650    -2.0860     1.1270 C.ar  1 <1>  -0.1500 
  6 C       -3.3430    -0.9400    -0.9810 C.ar  1 <1>  -0.1500 
  7 C       -4.0240    -1.8380    -0.1640 C.ar  1 <1>  -0.1430 
  8 C       -5.2620    -2.5460    -0.6820 C.3   1 <1>   0.4870 
  9 N       -6.4650    -1.9610    -0.0280 N.4   1 <1>  -0.9590 
 10 C       -7.6870    -2.7610    -0.3170 C.3   1 <1>   0.3430 
 11 C       -6.6420    -0.5200    -0.3710 C.3   1 <1>   0.3430 
 12 C       -8.8510    -2.2290     0.5160 C.3   1 <1>  -0.1600 
 13 C       -7.7830     0.0630     0.4590 C.3   1 <1>  -0.1600 
 14 C       -9.0970    -0.7240     0.2900 C.3   1 <1>  -0.0190 
 15 C      -10.1620    -0.2050     1.2520 C.2   1 <1>   0.5690 
 16 O       -9.9690    -0.2810     2.4360 O.2   1 <1>  -0.5700 
 17 N      -11.3030     0.3300     0.7840 N.am  1 <1>  -0.8000 
 18 H       -2.0690    -1.6080     2.5990 H     1 <1>   0.1500 
 19 H       -1.6760     0.4150    -1.1250 H     1 <1>   0.1500 
 20 H       -4.0670    -2.7870     1.7720 H     1 <1>   0.1500 
 21 H       -3.6730    -0.7430    -1.9880 H     1 <1>   0.1500 
 22 H       -5.1890    -3.5970    -0.4510 H     1 <1>   0.0800 
 23 H       -5.3290    -2.4370    -1.7520 H     1 <1>   0.0800 
 24 H       -6.2940    -1.9960     0.9860 H     1 <1>   0.4500 
 25 H       -7.5190    -3.7980    -0.0720 H     1 <1>   0.0800 
 26 H       -7.9310    -2.6930    -1.3650 H     1 <1>   0.0800 
 27 H       -6.8640    -0.4150    -1.4210 H     1 <1>   0.0800 
 28 H       -5.7360     0.0270    -0.1590 H     1 <1>   0.0800 
 29 H       -8.6480    -2.4150     1.5580 H     1 <1>   0.0800 
 30 H       -9.7430    -2.7770     0.2660 H     1 <1>   0.0800 
 31 H       -7.9420     1.0880     0.1700 H     1 <1>   0.0800 
 32 H       -7.4910     0.0710     1.4960 H     1 <1>   0.0800 
 33 H       -9.4510    -0.5840    -0.7160 H     1 <1>   0.0800 
 34 H      -11.9960     0.6700     1.4560 H     1 <1>   0.3700 
 35 H      -11.5510     0.4380    -0.1990 H     1 <1>   0.3700 
@<TRIPOS>BOND
  1   1   2  1   
  2   2   3  ar  
  3   2   4  ar  
  4   3   5  ar  
  5   3  18  1   
  6   4   6  ar  
  7   4  19  1   
  8   5   7  ar  
  9   5  20  1   
 10   6   7  ar  
 11   6  21  1   
 12   7   8  1   
 13   8   9  1   
 14   8  22  1   
 15   8  23  1   
 16   9  10  1   
 17   9  11  1   
 18   9  24  1   
 19  10  12  1   
 20  10  25  1   
 21  10  26  1   
 22  11  13  1   
 23  11  27  1   
 24  11  28  1   
 25  12  14  1   
 26  12  29  1   
 27  12  30  1   
 28  13  14  1   
 29  13  31  1   
 30  13  32  1   
 31  14  15  1   
 32  14  33  1   
 33  15  16  2   
 34  15  17  am  
 35  17  34  1   
 36  17  35  1   
@<TRIPOS>SUBSTRUCTURE
  1 ****   9 GROUP 4 **** **** 0

# MOE 2024.06 (io_trps.svl 2023.06)
