@<TRIPOS>MOLECULE
NONAME
40 40 1 0 0 
SMALL
USER_CHARGES


@<TRIPOS>ATOM
  1 O       -0.0640    -0.3580     0.9540 O.2   1 <1>  -0.5700 
  2 C       -0.1960    -1.4610     0.4620 C.2   1 <1>   0.6340 
  3 O        0.8990    -2.1330     0.0930 O.3   1 <1>  -0.4300 
  4 C       -1.4840    -2.0910     0.2530 C.ar  1 <1>   0.0860 
  5 C        2.1910    -1.5900     0.2630 C.3   1 <1>   0.1200 
  6 C       -2.6710    -1.4530     0.6220 C.ar  1 <1>  -0.1500 
  7 C       -1.6110    -3.3580    -0.3250 C.ar  1 <1>  -0.1500 
  8 C        3.2100    -2.6050    -0.2570 C.3   1 <1>  -0.1600 
  9 C       -3.9060    -2.0410     0.4280 C.ar  1 <1>  -0.1500 
 10 C       -2.8450    -3.9480    -0.5190 C.ar  1 <1>  -0.1500 
 11 C        4.6420    -2.0820    -0.1050 C.3   1 <1>  -0.2400 
 12 C       -4.0180    -3.3040    -0.1450 C.ar  1 <1>   0.1170 
 13 N       -5.2390    -3.9480    -0.3720 N.am  1 <1>  -0.5470 
 14 C       -6.4980    -3.7120     0.1100 C.2   1 <1>   0.5690 
 15 O       -6.7700    -2.8400     0.8960 O.2   1 <1>  -0.5700 
 16 C       -7.6120    -4.6190    -0.3780 C.3   1 <1>  -0.0990 
 17 C       -7.5310    -6.0250     0.2390 C.3   1 <1>  -0.1600 
 18 C       -8.6690    -6.9210    -0.2660 C.3   1 <1>  -0.1600 
 19 C       -8.5840    -8.3180     0.3530 C.3   1 <1>  -0.2400 
 20 H        2.3410    -1.3930     1.3110 H     1 <1>   0.0800 
 21 H        2.2470    -0.6680    -0.2900 H     1 <1>   0.0800 
 22 H       -2.6200    -0.4750     1.0700 H     1 <1>   0.1500 
 23 H       -0.7240    -3.8900    -0.6270 H     1 <1>   0.1500 
 24 H        3.0140    -2.8020    -1.2970 H     1 <1>   0.0800 
 25 H        3.1080    -3.5230     0.2940 H     1 <1>   0.0800 
 26 H       -4.7880    -1.5040     0.7260 H     1 <1>   0.1500 
 27 H       -2.8960    -4.9250    -0.9650 H     1 <1>   0.1500 
 28 H        4.7720    -1.1700    -0.6620 H     1 <1>   0.0800 
 29 H        5.3410    -2.8110    -0.4770 H     1 <1>   0.0800 
 30 H        4.8660    -1.8920     0.9300 H     1 <1>   0.0800 
 31 H       -5.1790    -4.7650    -0.9760 H     1 <1>   0.3700 
 32 H       -7.5650    -4.6800    -1.4500 H     1 <1>   0.0800 
 33 H       -8.5540    -4.1690    -0.1180 H     1 <1>   0.0800 
 34 H       -7.5920    -5.9400     1.3110 H     1 <1>   0.0800 
 35 H       -6.5850    -6.4770    -0.0050 H     1 <1>   0.0800 
 36 H       -8.6190    -7.0060    -1.3390 H     1 <1>   0.0800 
 37 H       -9.6180    -6.4790    -0.0100 H     1 <1>   0.0800 
 38 H       -7.6530    -8.7920     0.0930 H     1 <1>   0.0800 
 39 H       -9.3910    -8.9310    -0.0090 H     1 <1>   0.0800 
 40 H       -8.6550    -8.2600     1.4250 H     1 <1>   0.0800 
@<TRIPOS>BOND
  1   1   2  2   
  2   2   3  1   
  3   2   4  1   
  4   3   5  1   
  5   4   6  ar  
  6   4   7  ar  
  7   5   8  1   
  8   5  20  1   
  9   5  21  1   
 10   6   9  ar  
 11   6  22  1   
 12   7  10  ar  
 13   7  23  1   
 14   8  11  1   
 15   8  24  1   
 16   8  25  1   
 17   9  12  ar  
 18   9  26  1   
 19  10  12  ar  
 20  10  27  1   
 21  11  28  1   
 22  11  29  1   
 23  11  30  1   
 24  12  13  1   
 25  13  14  am  
 26  13  31  1   
 27  14  15  2   
 28  14  16  1   
 29  16  17  1   
 30  16  32  1   
 31  16  33  1   
 32  17  18  1   
 33  17  34  1   
 34  17  35  1   
 35  18  19  1   
 36  18  36  1   
 37  18  37  1   
 38  19  38  1   
 39  19  39  1   
 40  19  40  1   
@<TRIPOS>SUBSTRUCTURE
  1 ****  10 GROUP 4 **** **** 0

# MOE 2024.06 (io_trps.svl 2023.06)
