@<TRIPOS>MOLECULE
NONAME
53 55 1 0 0 
SMALL
USER_CHARGES


@<TRIPOS>ATOM
  1 O       -1.3120    -0.6060     1.6720 O.3   1 <1>  -0.6800 
  2 C       -1.2650    -0.8390     0.3190 C.3   1 <1>   0.7670 
  3 C        0.1830    -0.9990    -0.0230 C.1   1 <1>  -0.2000 
  4 C       -1.9370    -2.1860    -0.0130 C.ar  1 <1>  -0.1440 
  5 C       -1.9500     0.3750    -0.3320 C.ar  1 <1>  -0.1440 
  6 C        1.3070    -1.2980    -0.2760 C.1   1 <1>  -0.2000 
  7 C       -2.2660    -3.1260     0.9620 C.ar  1 <1>  -0.1500 
  8 C       -2.2000    -2.5020    -1.3440 C.ar  1 <1>  -0.1500 
  9 C       -1.2270     1.5050    -0.7090 C.ar  1 <1>  -0.1500 
 10 C       -3.3280     0.3800    -0.5340 C.ar  1 <1>  -0.1500 
 11 C        2.6400    -1.8910    -0.5400 C.3   1 <1>   0.5430 
 12 C       -2.8430    -4.3350     0.6170 C.ar  1 <1>  -0.1500 
 13 C       -2.7770    -3.7100    -1.6900 C.ar  1 <1>  -0.1500 
 14 C       -1.8580     2.5940    -1.2840 C.ar  1 <1>  -0.1500 
 15 C       -3.9600     1.4680    -1.1090 C.ar  1 <1>  -0.1500 
 16 N        2.6180    -3.2640     0.0410 N.4   1 <1>  -0.9590 
 17 C       -3.0990    -4.6290    -0.7100 C.ar  1 <1>  -0.1500 
 18 C       -3.2250     2.5760    -1.4870 C.ar  1 <1>  -0.1500 
 19 C        3.9550    -3.9040     0.1870 C.3   1 <1>   0.4230 
 20 C        1.6470    -4.1580    -0.6760 C.3   1 <1>   0.2630 
 21 C        4.8400    -3.1050     1.1500 C.3   1 <1>  -0.1600 
 22 C        4.6550    -4.1370    -1.1690 C.3   1 <1>  -0.1600 
 23 C        6.1330    -3.8780     1.4750 C.3   1 <1>  -0.1600 
 24 C        6.1900    -4.2160    -1.0500 C.3   1 <1>  -0.1600 
 25 C        6.6210    -4.7670     0.3150 C.3   1 <1>  -0.1600 
 26 H       -2.1480    -0.1360     1.8380 H     1 <1>   0.4000 
 27 H       -2.0760    -2.9300     2.0040 H     1 <1>   0.1500 
 28 H       -1.9590    -1.7980    -2.1240 H     1 <1>   0.1500 
 29 H       -0.1630     1.5570    -0.5540 H     1 <1>   0.1500 
 30 H       -3.9300    -0.4660    -0.2480 H     1 <1>   0.1500 
 31 H        3.3960    -1.2870    -0.0680 H     1 <1>   0.0800 
 32 H        2.8290    -1.9280    -1.6000 H     1 <1>   0.0800 
 33 H       -3.0980    -5.0480     1.3820 H     1 <1>   0.1500 
 34 H       -2.9810    -3.9340    -2.7240 H     1 <1>   0.1500 
 35 H       -1.2850     3.4580    -1.5730 H     1 <1>   0.1500 
 36 H       -5.0250     1.4540    -1.2630 H     1 <1>   0.1500 
 37 H        2.2440    -3.1280     0.9900 H     1 <1>   0.4500 
 38 H       -3.5540    -5.5680    -0.9770 H     1 <1>   0.1500 
 39 H       -3.7160     3.4230    -1.9350 H     1 <1>   0.1500 
 40 H        3.8140    -4.8730     0.6420 H     1 <1>   0.0800 
 41 H        1.9420    -4.2870    -1.7050 H     1 <1>   0.0800 
 42 H        0.6540    -3.7340    -0.6540 H     1 <1>   0.0800 
 43 H        1.6090    -5.1260    -0.2030 H     1 <1>   0.0800 
 44 H        4.3180    -2.9010     2.0690 H     1 <1>   0.0800 
 45 H        5.1190    -2.1690     0.6990 H     1 <1>   0.0800 
 46 H        4.4220    -3.3670    -1.8810 H     1 <1>   0.0800 
 47 H        4.3010    -5.0720    -1.5680 H     1 <1>   0.0800 
 48 H        5.9810    -4.5000     2.3420 H     1 <1>   0.0800 
 49 H        6.9040    -3.1680     1.7280 H     1 <1>   0.0800 
 50 H        6.6140    -3.2330    -1.1730 H     1 <1>   0.0800 
 51 H        6.5860    -4.8360    -1.8370 H     1 <1>   0.0800 
 52 H        6.2250    -5.7620     0.4320 H     1 <1>   0.0800 
 53 H        7.6950    -4.8470     0.3540 H     1 <1>   0.0800 
@<TRIPOS>BOND
  1   1   2  1   
  2   1  26  1   
  3   2   3  1   
  4   2   4  1   
  5   2   5  1   
  6   3   6  3   
  7   4   7  ar  
  8   4   8  ar  
  9   5   9  ar  
 10   5  10  ar  
 11   6  11  1   
 12   7  12  ar  
 13   7  27  1   
 14   8  13  ar  
 15   8  28  1   
 16   9  14  ar  
 17   9  29  1   
 18  10  15  ar  
 19  10  30  1   
 20  11  16  1   
 21  11  31  1   
 22  11  32  1   
 23  12  17  ar  
 24  12  33  1   
 25  13  17  ar  
 26  13  34  1   
 27  14  18  ar  
 28  14  35  1   
 29  15  18  ar  
 30  15  36  1   
 31  16  19  1   
 32  16  20  1   
 33  16  37  1   
 34  17  38  1   
 35  18  39  1   
 36  19  21  1   
 37  19  22  1   
 38  19  40  1   
 39  20  41  1   
 40  20  42  1   
 41  20  43  1   
 42  21  23  1   
 43  21  44  1   
 44  21  45  1   
 45  22  24  1   
 46  22  46  1   
 47  22  47  1   
 48  23  25  1   
 49  23  48  1   
 50  23  49  1   
 51  24  25  1   
 52  24  50  1   
 53  24  51  1   
 54  25  52  1   
 55  25  53  1   
@<TRIPOS>SUBSTRUCTURE
  1 ****   3 GROUP 4 **** **** 0

# MOE 2024.06 (io_trps.svl 2023.06)
