@<TRIPOS>MOLECULE
NONAME
47 49 1 0 0 
SMALL
USER_CHARGES


@<TRIPOS>ATOM
  1 O       -0.8070    -0.3530    -1.8070 O.3   1 <1>  -0.3630 
  2 C       -1.6910     0.1460    -0.9070 C.ar  1 <1>   0.0830 
  3 C        0.5830    -0.1110    -1.7390 C.3   1 <1>   0.1200 
  4 C       -3.0190    -0.1920    -1.1070 C.ar  1 <1>  -0.1500 
  5 C       -1.3460     0.9520     0.1730 C.ar  1 <1>  -0.1500 
  6 C        1.2180    -1.0720    -0.7330 C.3   1 <1>  -0.2400 
  7 C       -4.0040     0.2510    -0.2370 C.ar  1 <1>  -0.1430 
  8 C       -2.3270     1.4070     1.0360 C.ar  1 <1>  -0.1500 
  9 C       -3.6520     1.0590     0.8340 C.ar  1 <1>  -0.1500 
 10 C       -5.4460    -0.1600    -0.4500 C.3   1 <1>   0.4860 
 11 N       -5.5550    -1.6240    -0.1850 N.4   1 <1>  -0.9590 
 12 C       -6.8420    -2.2270    -0.6660 C.3   1 <1>   0.5660 
 13 C       -5.2300    -1.9680     1.2270 C.3   1 <1>   0.3430 
 14 C       -8.0120    -1.2640    -0.5000 C.ar  1 <1>  -0.1430 
 15 C       -7.1180    -3.5910    -0.0040 C.3   1 <1>  -0.1600 
 16 C       -4.9820    -3.4790     1.3390 C.3   1 <1>  -0.1600 
 17 C       -8.6130    -0.7550    -1.6430 C.ar  1 <1>   0.1600 
 18 C       -8.4970    -0.8620     0.7340 C.ar  1 <1>  -0.1500 
 19 C       -5.8270    -4.3300     0.3720 C.3   1 <1>  -0.1600 
 20 N       -9.6090     0.1090    -1.6520 N.ar  1 <1>  -0.6200 
 21 C       -9.5460     0.0310     0.7370 C.ar  1 <1>  -0.1500 
 22 C      -10.0590     0.4820    -0.4660 C.ar  1 <1>   0.1600 
 23 H        0.7560     0.9210    -1.4900 H     1 <1>   0.0800 
 24 H        0.9840    -0.2940    -2.7200 H     1 <1>   0.0800 
 25 H       -3.2530    -0.8030    -1.9600 H     1 <1>   0.1500 
 26 H       -0.3270     1.2350     0.3570 H     1 <1>   0.1500 
 27 H        0.8230    -0.9140     0.2540 H     1 <1>   0.0800 
 28 H        2.2800    -0.9120    -0.7030 H     1 <1>   0.0800 
 29 H        1.0350    -2.0890    -1.0320 H     1 <1>   0.0800 
 30 H       -2.0550     2.0370     1.8670 H     1 <1>   0.1500 
 31 H       -4.3960     1.4300     1.5190 H     1 <1>   0.1500 
 32 H       -5.7310     0.0590    -1.4660 H     1 <1>   0.0800 
 33 H       -6.0930     0.3920     0.2120 H     1 <1>   0.0800 
 34 H       -4.8050    -2.0580    -0.7330 H     1 <1>   0.4500 
 35 H       -6.7290    -2.4100    -1.7230 H     1 <1>   0.0800 
 36 H       -6.0510    -1.6880     1.8660 H     1 <1>   0.0800 
 37 H       -4.3490    -1.4400     1.5580 H     1 <1>   0.0800 
 38 H       -7.7010    -4.1910    -0.6820 H     1 <1>   0.0800 
 39 H       -7.7150    -3.4630     0.8820 H     1 <1>   0.0800 
 40 H       -5.1960    -3.7720     2.3520 H     1 <1>   0.0800 
 41 H       -3.9380    -3.6830     1.1730 H     1 <1>   0.0800 
 42 H       -8.2610    -1.0660    -2.6130 H     1 <1>   0.1500 
 43 H       -8.0960    -1.2210     1.6660 H     1 <1>   0.1500 
 44 H       -5.2600    -4.5330    -0.5220 H     1 <1>   0.0800 
 45 H       -6.0590    -5.2790     0.8280 H     1 <1>   0.0800 
 46 H       -9.9730     0.3790     1.6630 H     1 <1>   0.1500 
 47 H      -10.8800     1.1810    -0.4530 H     1 <1>   0.1500 
@<TRIPOS>BOND
  1   1   2  1   
  2   1   3  1   
  3   2   4  ar  
  4   2   5  ar  
  5   3   6  1   
  6   3  23  1   
  7   3  24  1   
  8   4   7  ar  
  9   4  25  1   
 10   5   8  ar  
 11   5  26  1   
 12   6  27  1   
 13   6  28  1   
 14   6  29  1   
 15   7   9  ar  
 16   7  10  1   
 17   8   9  ar  
 18   8  30  1   
 19   9  31  1   
 20  10  11  1   
 21  10  32  1   
 22  10  33  1   
 23  11  12  1   
 24  11  13  1   
 25  11  34  1   
 26  12  14  1   
 27  12  15  1   
 28  12  35  1   
 29  13  16  1   
 30  13  36  1   
 31  13  37  1   
 32  14  17  ar  
 33  14  18  ar  
 34  15  19  1   
 35  15  38  1   
 36  15  39  1   
 37  16  19  1   
 38  16  40  1   
 39  16  41  1   
 40  17  20  ar  
 41  17  42  1   
 42  18  21  ar  
 43  18  43  1   
 44  19  44  1   
 45  19  45  1   
 46  20  22  ar  
 47  21  22  ar  
 48  21  46  1   
 49  22  47  1   
@<TRIPOS>SUBSTRUCTURE
  1 ****  10 GROUP 4 **** **** 0

# MOE 2024.06 (io_trps.svl 2023.06)
