@<TRIPOS>MOLECULE
NONAME
41 43 1 0 0 
SMALL
USER_CHARGES


@<TRIPOS>ATOM
  1 S       -1.4270     0.0540    -1.1690 S.3   1 <1>  -0.0800 
  2 C       -2.6440    -0.8090    -0.2580 C.2   1 <1>   0.1660 
  3 C       -0.1880    -1.1010    -0.6940 C.2   1 <1>  -0.1400 
  4 N       -3.9270    -0.3870    -0.2160 N.2   1 <1>  -0.5760 
  5 C       -2.1200    -1.9010     0.3580 C.2   1 <1>  -0.0860 
  6 C       -0.7070    -2.0600     0.1010 C.2   1 <1>  -0.1810 
  7 C        1.1990    -0.8260    -1.2430 C.3   1 <1>  -0.0600 
  8 C       -4.7040    -1.1270     0.4950 C.2   1 <1>   0.6510 
  9 C       -3.0310    -2.6820     1.1320 C.2   1 <1>   0.7160 
 10 C        0.0650    -3.2250     0.7040 C.3   1 <1>  -0.0590 
 11 S       -6.4140    -0.6220     0.5930 S.3   1 <1>  -0.3710 
 12 N       -4.3500    -2.2650     1.1870 N.am  1 <1>  -0.4200 
 13 O       -2.6850    -3.6890     1.7370 O.2   1 <1>  -0.5700 
 14 C       -6.4900     0.9090    -0.4740 C.3   1 <1>   0.1310 
 15 C       -5.3590    -3.0360     1.9780 C.3   1 <1>   0.0600 
 16 C       -7.8900     1.5060    -0.5190 C.2   1 <1>   0.5690 
 17 O       -8.1350     2.3410    -1.3550 O.2   1 <1>  -0.5700 
 18 N       -8.8260     1.1030     0.3750 N.am  1 <1>  -0.7300 
 19 C      -10.2350     1.5520     0.3990 C.3   1 <1>   0.3200 
 20 C      -11.1650     0.3570     0.5270 C.2   1 <1>  -0.0400 
 21 O      -12.4340     0.5800     0.8130 O.3   1 <1>  -0.2800 
 22 C      -10.9410    -0.9710     0.3970 C.2   1 <1>  -0.1500 
 23 C      -13.0430    -0.5870     0.8730 C.2   1 <1>  -0.0100 
 24 C      -12.1750    -1.5910     0.6260 C.2   1 <1>  -0.1500 
 25 H        1.1710    -0.8300    -2.3180 H     1 <1>   0.0800 
 26 H        1.9020    -1.5670    -0.9150 H     1 <1>   0.0800 
 27 H        1.5360     0.1390    -0.9100 H     1 <1>   0.0800 
 28 H        1.0990    -3.2020     0.4190 H     1 <1>   0.0800 
 29 H       -0.3580    -4.1560     0.3700 H     1 <1>   0.0800 
 30 H        0.0070    -3.1870     1.7770 H     1 <1>   0.0800 
 31 H       -6.1780     0.6260    -1.4630 H     1 <1>   0.0800 
 32 H       -5.7970     1.6220    -0.0670 H     1 <1>   0.0800 
 33 H       -5.7760    -2.4070     2.7450 H     1 <1>   0.0800 
 34 H       -4.9180    -3.8960     2.4510 H     1 <1>   0.0800 
 35 H       -6.1460    -3.3760     1.3290 H     1 <1>   0.0800 
 36 H       -8.5870     0.3770     1.0540 H     1 <1>   0.3700 
 37 H      -10.4730     2.0980    -0.4980 H     1 <1>   0.0800 
 38 H      -10.3800     2.2050     1.2420 H     1 <1>   0.0800 
 39 H      -10.0240    -1.4810     0.1610 H     1 <1>   0.1500 
 40 H      -14.0950    -0.6120     1.0980 H     1 <1>   0.1500 
 41 H      -12.3590    -2.6500     0.6000 H     1 <1>   0.1500 
@<TRIPOS>BOND
  1   1   2  1   
  2   1   3  1   
  3   2   4  1   
  4   2   5  2   
  5   3   6  2   
  6   3   7  1   
  7   4   8  2   
  8   5   6  1   
  9   5   9  1   
 10   6  10  1   
 11   7  25  1   
 12   7  26  1   
 13   7  27  1   
 14   8  11  1   
 15   8  12  1   
 16   9  12  am  
 17   9  13  2   
 18  10  28  1   
 19  10  29  1   
 20  10  30  1   
 21  11  14  1   
 22  12  15  1   
 23  14  16  1   
 24  14  31  1   
 25  14  32  1   
 26  15  33  1   
 27  15  34  1   
 28  15  35  1   
 29  16  17  2   
 30  16  18  am  
 31  18  19  1   
 32  18  36  1   
 33  19  20  1   
 34  19  37  1   
 35  19  38  1   
 36  20  21  1   
 37  20  22  2   
 38  21  23  1   
 39  22  24  1   
 40  22  39  1   
 41  23  24  2   
 42  23  40  1   
 43  24  41  1   
@<TRIPOS>SUBSTRUCTURE
  1 ****  11 GROUP 4 **** **** 0

# MOE 2024.06 (io_trps.svl 2023.06)
