@<TRIPOS>MOLECULE
NONAME
40 41 1 0 0 
SMALL
USER_CHARGES


@<TRIPOS>ATOM
  1 F       -1.6840     0.2410     2.3620 F     1 <1>  -0.1900 
  2 C       -2.2010     0.9090     1.3680 C.ar  1 <1>   0.1900 
  3 C       -3.3700     0.4440     0.7970 C.ar  1 <1>  -0.1500 
  4 C       -1.5650     2.0520     0.9270 C.ar  1 <1>  -0.1500 
  5 C       -3.9330     1.1550    -0.2550 C.ar  1 <1>  -0.1440 
  6 C       -2.1240     2.7520    -0.1290 C.ar  1 <1>  -0.1500 
  7 C       -3.2980     2.3050    -0.7160 C.ar  1 <1>  -0.1500 
  8 C       -5.2250     0.6840    -0.8930 C.3   1 <1>   0.4870 
  9 N       -6.3570     0.9380     0.0610 N.4   1 <1>  -0.9590 
 10 C       -7.6340     0.2340    -0.3050 C.3   1 <1>   0.4230 
 11 C       -6.5090     2.4280     0.2280 C.3   1 <1>   0.2630 
 12 C       -8.7410     0.5630     0.7110 C.3   1 <1>  -0.1600 
 13 C       -7.4190    -1.2880    -0.3520 C.3   1 <1>  -0.1600 
 14 C      -10.0270    -0.2190     0.4360 C.3   1 <1>   0.3430 
 15 C       -8.7230    -2.0460    -0.6120 C.3   1 <1>   0.3430 
 16 N       -9.7400    -1.6800     0.4110 N.4   1 <1>  -0.9590 
 17 C      -11.0070    -2.4520     0.1820 C.3   1 <1>   0.2630 
 18 H       -3.8030    -0.4610     1.1840 H     1 <1>   0.1500 
 19 H       -0.6550     2.3810     1.3980 H     1 <1>   0.1500 
 20 H       -1.6390     3.6430    -0.4930 H     1 <1>   0.1500 
 21 H       -3.7030     2.8690    -1.5400 H     1 <1>   0.1500 
 22 H       -5.1290    -0.3670    -1.1060 H     1 <1>   0.0800 
 23 H       -5.3900     1.2060    -1.8220 H     1 <1>   0.0800 
 24 H       -6.0240     0.5800     0.9670 H     1 <1>   0.4500 
 25 H       -7.9530     0.5700    -1.2800 H     1 <1>   0.0800 
 26 H       -6.8500     2.8810    -0.6900 H     1 <1>   0.0800 
 27 H       -5.5650     2.8760     0.4990 H     1 <1>   0.0800 
 28 H       -7.2140     2.6570     1.0110 H     1 <1>   0.0800 
 29 H       -8.9980     1.6050     0.6590 H     1 <1>   0.0800 
 30 H       -8.4120     0.3470     1.7130 H     1 <1>   0.0800 
 31 H       -6.9940    -1.6380     0.5720 H     1 <1>   0.0800 
 32 H       -6.7490    -1.5480    -1.1510 H     1 <1>   0.0800 
 33 H      -10.4440     0.0850    -0.5110 H     1 <1>   0.0800 
 34 H      -10.7530    -0.0010     1.2040 H     1 <1>   0.0800 
 35 H       -8.5350    -3.1090    -0.5780 H     1 <1>   0.0800 
 36 H       -9.0950    -1.8060    -1.5960 H     1 <1>   0.0800 
 37 H       -9.3890    -1.9620     1.3420 H     1 <1>   0.4500 
 38 H      -11.4330    -2.2060    -0.7780 H     1 <1>   0.0800 
 39 H      -11.7320    -2.2220     0.9470 H     1 <1>   0.0800 
 40 H      -10.8120    -3.5120     0.2080 H     1 <1>   0.0800 
@<TRIPOS>BOND
  1   1   2  1   
  2   2   3  ar  
  3   2   4  ar  
  4   3   5  ar  
  5   3  18  1   
  6   4   6  ar  
  7   4  19  1   
  8   5   7  ar  
  9   5   8  1   
 10   6   7  ar  
 11   6  20  1   
 12   7  21  1   
 13   8   9  1   
 14   8  22  1   
 15   8  23  1   
 16   9  10  1   
 17   9  11  1   
 18   9  24  1   
 19  10  12  1   
 20  10  13  1   
 21  10  25  1   
 22  11  26  1   
 23  11  27  1   
 24  11  28  1   
 25  12  14  1   
 26  12  29  1   
 27  12  30  1   
 28  13  15  1   
 29  13  31  1   
 30  13  32  1   
 31  14  16  1   
 32  14  33  1   
 33  14  34  1   
 34  15  16  1   
 35  15  35  1   
 36  15  36  1   
 37  16  17  1   
 38  16  37  1   
 39  17  38  1   
 40  17  39  1   
 41  17  40  1   
@<TRIPOS>SUBSTRUCTURE
  1 ****   9 GROUP 4 **** **** 0

# MOE 2024.06 (io_trps.svl 2023.06)
