@<TRIPOS>MOLECULE
NONAME
49 50 1 0 0 
SMALL
USER_CHARGES


@<TRIPOS>ATOM
  1 O        1.5440    -3.0660    -1.7310 O.2   1 <1>  -0.5700 
  2 C        0.9130    -2.6990    -0.7580 C.2   1 <1>   0.5440 
  3 N        1.3680    -1.6460     0.0000 N.am  1 <1>  -0.5470 
  4 C       -0.3230    -3.3620    -0.3940 C.ar  1 <1>   0.0860 
  5 C        2.5810    -0.9180     0.0070 C.ar  1 <1>   0.1170 
  6 C       -1.1680    -3.8920    -1.3710 C.ar  1 <1>  -0.1500 
  7 C       -0.7180    -3.5040     0.9390 C.ar  1 <1>  -0.1500 
  8 C        3.8550    -1.4860    -0.1900 C.ar  1 <1>   0.1170 
  9 C        2.4940     0.4400     0.2850 C.ar  1 <1>  -0.1500 
 10 C       -2.3550    -4.5210    -1.0430 C.ar  1 <1>  -0.1500 
 11 C       -1.9030    -4.1300     1.2730 C.ar  1 <1>  -0.1500 
 12 N        3.9900    -2.8460    -0.5070 N.am  1 <1>  -0.5470 
 13 C        4.9820    -0.6810    -0.0850 C.ar  1 <1>  -0.1500 
 14 C        3.6250     1.2320     0.3800 C.ar  1 <1>  -0.1500 
 15 C       -2.7340    -4.6430     0.2910 C.ar  1 <1>   0.0830 
 16 C        4.9180    -3.7740    -0.1450 C.2   1 <1>   0.5690 
 17 C        4.8730     0.6680     0.1970 C.ar  1 <1>  -0.1500 
 18 O       -3.8730    -5.2390     0.7120 O.3   1 <1>  -0.3620 
 19 O        5.8700    -3.5310     0.5550 O.2   1 <1>  -0.5700 
 20 C        4.7170    -5.1890    -0.6520 C.3   1 <1>  -0.0990 
 21 C       -4.7850    -5.8870    -0.1470 C.3   1 <1>   0.2000 
 22 C        3.4990    -5.8730    -0.0080 C.3   1 <1>  -0.1600 
 23 C       -6.1130    -5.9840     0.6010 C.3   1 <1>  -0.2400 
 24 C       -4.2430    -7.2770    -0.4890 C.3   1 <1>  -0.2400 
 25 C        3.3220    -7.3030    -0.5270 C.3   1 <1>  -0.2400 
 26 H        0.6700    -1.2750     0.6430 H     1 <1>   0.3700 
 27 H       -0.8820    -3.8060    -2.4060 H     1 <1>   0.1500 
 28 H       -0.0880    -3.1320     1.7280 H     1 <1>   0.1500 
 29 H        1.5310     0.8930     0.4310 H     1 <1>   0.1500 
 30 H       -2.9680    -4.9090    -1.8340 H     1 <1>   0.1500 
 31 H       -2.1970    -4.2330     2.3030 H     1 <1>   0.1500 
 32 H        3.2020    -3.1970    -1.0670 H     1 <1>   0.3700 
 33 H        5.9560    -1.1140    -0.2280 H     1 <1>   0.1500 
 34 H        3.5360     2.2820     0.5950 H     1 <1>   0.1500 
 35 H        5.7600     1.2740     0.2730 H     1 <1>   0.1500 
 36 H        5.6050    -5.7570    -0.4360 H     1 <1>   0.0800 
 37 H        4.5980    -5.1570    -1.7190 H     1 <1>   0.0800 
 38 H       -4.9220    -5.2860    -1.0300 H     1 <1>   0.0800 
 39 H        2.6070    -5.3090    -0.2220 H     1 <1>   0.0800 
 40 H        3.6290    -5.8940     1.0620 H     1 <1>   0.0800 
 41 H       -5.9930    -6.5530     1.5050 H     1 <1>   0.0800 
 42 H       -6.8490    -6.4670    -0.0150 H     1 <1>   0.0800 
 43 H       -6.4670    -4.9990     0.8450 H     1 <1>   0.0800 
 44 H       -4.1020    -7.8510     0.4090 H     1 <1>   0.0800 
 45 H       -3.3060    -7.2030    -1.0100 H     1 <1>   0.0800 
 46 H       -4.9390    -7.7960    -1.1220 H     1 <1>   0.0800 
 47 H        3.1700    -7.3000    -1.5920 H     1 <1>   0.0800 
 48 H        2.4650    -7.7590    -0.0610 H     1 <1>   0.0800 
 49 H        4.1900    -7.8960    -0.3010 H     1 <1>   0.0800 
@<TRIPOS>BOND
  1   1   2  2   
  2   2   3  am  
  3   2   4  1   
  4   3   5  1   
  5   3  26  1   
  6   4   6  ar  
  7   4   7  ar  
  8   5   8  ar  
  9   5   9  ar  
 10   6  10  ar  
 11   6  27  1   
 12   7  11  ar  
 13   7  28  1   
 14   8  12  1   
 15   8  13  ar  
 16   9  14  ar  
 17   9  29  1   
 18  10  15  ar  
 19  10  30  1   
 20  11  15  ar  
 21  11  31  1   
 22  12  16  am  
 23  12  32  1   
 24  13  17  ar  
 25  13  33  1   
 26  14  17  ar  
 27  14  34  1   
 28  15  18  1   
 29  16  19  2   
 30  16  20  1   
 31  17  35  1   
 32  18  21  1   
 33  20  22  1   
 34  20  36  1   
 35  20  37  1   
 36  21  23  1   
 37  21  24  1   
 38  21  38  1   
 39  22  25  1   
 40  22  39  1   
 41  22  40  1   
 42  23  41  1   
 43  23  42  1   
 44  23  43  1   
 45  24  44  1   
 46  24  45  1   
 47  24  46  1   
 48  25  47  1   
 49  25  48  1   
 50  25  49  1   
@<TRIPOS>SUBSTRUCTURE
  1 ****   2 GROUP 4 **** **** 0

# MOE 2024.06 (io_trps.svl 2023.06)
