@<TRIPOS>MOLECULE
NONAME
48 50 1 0 0 
SMALL
USER_CHARGES


@<TRIPOS>ATOM
  1 S        0.5360     0.0380     0.2510 S.o2  1 <1>   1.4470 
  2 O        0.6870     0.4600     1.6270 O.2   1 <1>  -0.6500 
  3 O        0.5670     1.0260    -0.8030 O.2   1 <1>  -0.6500 
  4 N        1.8000    -1.0470    -0.0620 N.am  1 <1>  -0.8490 
  5 C       -0.9500    -0.9900     0.0640 C.ar  1 <1>  -0.0090 
  6 C        1.9700    -2.0370     1.0220 C.3   1 <1>   0.1960 
  7 C        3.0650    -0.3270    -0.2950 C.3   1 <1>   0.1960 
  8 C       -1.2130    -1.6430    -1.1390 C.ar  1 <1>  -0.1500 
  9 C       -1.8520    -1.1510     1.1150 C.ar  1 <1>  -0.1500 
 10 C        3.0870    -3.0470     0.7100 C.3   1 <1>   0.1400 
 11 C        4.2220    -1.2830    -0.6340 C.3   1 <1>   0.1400 
 12 C       -2.3370    -2.4360    -1.2970 C.ar  1 <1>  -0.1500 
 13 C       -2.9820    -1.9410     0.9780 C.ar  1 <1>  -0.1500 
 14 N        4.3670    -2.3360     0.4150 N.am  1 <1>  -0.6600 
 15 C       -3.2030    -2.5710    -0.2300 C.ar  1 <1>   0.1900 
 16 C        5.5480    -2.6540     1.0520 C.2   1 <1>   0.5440 
 17 F       -4.2640    -3.3180    -0.3680 F     1 <1>  -0.1900 
 18 O        5.5830    -3.6300     1.7750 O.2   1 <1>  -0.5700 
 19 C        6.7410    -1.8500     0.8850 C.ar  1 <1>   0.0860 
 20 C        7.8480    -2.3400     0.1990 C.ar  1 <1>  -0.1500 
 21 C        6.8170    -0.5570     1.4020 C.ar  1 <1>  -0.1500 
 22 C        8.9860    -1.5750     0.0170 C.ar  1 <1>   0.0830 
 23 C        7.9480     0.2200     1.2280 C.ar  1 <1>  -0.1500 
 24 O       10.0040    -2.1490    -0.6700 O.3   1 <1>  -0.3630 
 25 C        9.0340    -0.2830     0.5350 C.ar  1 <1>  -0.1500 
 26 C       11.2440    -1.4990    -0.8300 C.3   1 <1>   0.1200 
 27 C       12.1710    -2.4360    -1.5980 C.3   1 <1>  -0.2400 
 28 H        1.0510    -2.5780     1.1670 H     1 <1>   0.0800 
 29 H        2.2090    -1.5370     1.9470 H     1 <1>   0.0800 
 30 H        3.3240     0.2480     0.5790 H     1 <1>   0.0800 
 31 H        2.9430     0.3590    -1.1160 H     1 <1>   0.0800 
 32 H       -0.5250    -1.5240    -1.9610 H     1 <1>   0.1500 
 33 H       -1.6690    -0.6510     2.0530 H     1 <1>   0.1500 
 34 H        2.8070    -3.6400    -0.1420 H     1 <1>   0.0800 
 35 H        3.2060    -3.7090     1.5500 H     1 <1>   0.0800 
 36 H        5.1300    -0.7180    -0.7440 H     1 <1>   0.0800 
 37 H        4.0170    -1.7570    -1.5780 H     1 <1>   0.0800 
 38 H       -2.5420    -2.9400    -2.2250 H     1 <1>   0.1500 
 39 H       -3.6800    -2.0660     1.7870 H     1 <1>   0.1500 
 40 H        7.8210    -3.3400    -0.1960 H     1 <1>   0.1500 
 41 H        5.9770    -0.1660     1.9490 H     1 <1>   0.1500 
 42 H        7.9850     1.2160     1.6360 H     1 <1>   0.1500 
 43 H        9.9010     0.3380     0.4110 H     1 <1>   0.1500 
 44 H       11.6440    -1.2840     0.1460 H     1 <1>   0.0800 
 45 H       11.0840    -0.5880    -1.3800 H     1 <1>   0.0800 
 46 H       12.3090    -3.3500    -1.0480 H     1 <1>   0.0800 
 47 H       13.1290    -1.9690    -1.7360 H     1 <1>   0.0800 
 48 H       11.7540    -2.6580    -2.5640 H     1 <1>   0.0800 
@<TRIPOS>BOND
  1   1   2  2   
  2   1   3  2   
  3   1   4  am  
  4   1   5  1   
  5   4   6  1   
  6   4   7  1   
  7   5   8  ar  
  8   5   9  ar  
  9   6  10  1   
 10   6  28  1   
 11   6  29  1   
 12   7  11  1   
 13   7  30  1   
 14   7  31  1   
 15   8  12  ar  
 16   8  32  1   
 17   9  13  ar  
 18   9  33  1   
 19  10  14  1   
 20  10  34  1   
 21  10  35  1   
 22  11  14  1   
 23  11  36  1   
 24  11  37  1   
 25  12  15  ar  
 26  12  38  1   
 27  13  15  ar  
 28  13  39  1   
 29  14  16  am  
 30  15  17  1   
 31  16  18  2   
 32  16  19  1   
 33  19  20  ar  
 34  19  21  ar  
 35  20  22  ar  
 36  20  40  1   
 37  21  23  ar  
 38  21  41  1   
 39  22  24  1   
 40  22  25  ar  
 41  23  25  ar  
 42  23  42  1   
 43  24  26  1   
 44  25  43  1   
 45  26  27  1   
 46  26  44  1   
 47  26  45  1   
 48  27  46  1   
 49  27  47  1   
 50  27  48  1   
@<TRIPOS>SUBSTRUCTURE
  1 ****  11 GROUP 4 **** **** 0

# MOE 2024.06 (io_trps.svl 2023.06)
