@<TRIPOS>MOLECULE
NONAME
36 37 1 0 0 
SMALL
USER_CHARGES


@<TRIPOS>ATOM
  1 O       -0.2020    -0.5270     1.0240 O.2   1 <1>  -0.5700 
  2 C       -0.3640    -1.6170     0.5300 C.2   1 <1>   0.5770 
  3 N       -1.4700    -1.9070    -0.1980 N.am  1 <1>  -0.7300 
  4 C        0.6830    -2.7030     0.7420 C.3   1 <1>   0.0530 
  5 C       -2.6030    -1.0010    -0.3930 C.3   1 <1>   0.3640 
  6 C        2.1600    -2.2190     0.7030 C.3   1 <1>   0.0000 
  7 C        1.0200    -3.5580    -0.5110 C.3   1 <1>   0.0000 
  8 C       -3.8520    -1.8500    -0.6000 C.ar  1 <1>  -0.1440 
  9 C       -2.3190    -0.0970    -1.5900 C.3   1 <1>  -0.2400 
 10 C        2.4920    -3.5480    -0.0250 C.3   1 <1>   0.0000 
 11 C       -4.8830    -1.7870     0.3260 C.ar  1 <1>  -0.1500 
 12 C       -3.9840    -2.6970    -1.6930 C.ar  1 <1>  -0.1500 
 13 C       -6.0300    -2.5490     0.1730 C.ar  1 <1>   0.0830 
 14 C       -5.1260    -3.4630    -1.8560 C.ar  1 <1>  -0.1500 
 15 O       -6.9820    -2.4180     1.1300 O.3   1 <1>  -0.3630 
 16 C       -6.1490    -3.3930    -0.9280 C.ar  1 <1>  -0.1500 
 17 C       -8.1860    -3.1490     1.0710 C.3   1 <1>   0.0400 
 18 H       -1.6400    -2.8550    -0.5310 H     1 <1>   0.3700 
 19 H        0.4830    -3.3150     1.6060 H     1 <1>   0.0000 
 20 H       -2.7200    -0.3890     0.4870 H     1 <1>   0.0800 
 21 H        2.6150    -2.1280     1.6730 H     1 <1>   0.0000 
 22 H        2.3100    -1.3590     0.0730 H     1 <1>   0.0000 
 23 H        0.8920    -3.0240    -1.4380 H     1 <1>   0.0000 
 24 H        0.5660    -4.5330    -0.5080 H     1 <1>   0.0000 
 25 H       -2.1170    -0.6720    -2.4740 H     1 <1>   0.0800 
 26 H       -1.4730     0.5320    -1.3750 H     1 <1>   0.0800 
 27 H       -3.1700     0.5320    -1.7740 H     1 <1>   0.0800 
 28 H        2.7100    -4.3520     0.6570 H     1 <1>   0.0000 
 29 H        3.2120    -3.4430    -0.8160 H     1 <1>   0.0000 
 30 H       -4.8100    -1.1450     1.1850 H     1 <1>   0.1500 
 31 H       -3.2000    -2.7650    -2.4270 H     1 <1>   0.1500 
 32 H       -5.2180    -4.1140    -2.7080 H     1 <1>   0.1500 
 33 H       -7.0240    -3.9960    -1.0770 H     1 <1>   0.1500 
 34 H       -8.7790    -2.8840     1.9280 H     1 <1>   0.0800 
 35 H       -7.9590    -4.2000     1.0940 H     1 <1>   0.0800 
 36 H       -8.7100    -2.8860     0.1690 H     1 <1>   0.0800 
@<TRIPOS>BOND
  1   1   2  2   
  2   2   3  am  
  3   2   4  1   
  4   3   5  1   
  5   3  18  1   
  6   4   6  1   
  7   4   7  1   
  8   4  19  1   
  9   5   8  1   
 10   5   9  1   
 11   5  20  1   
 12   6  10  1   
 13   6  21  1   
 14   6  22  1   
 15   7  10  1   
 16   7  23  1   
 17   7  24  1   
 18   8  11  ar  
 19   8  12  ar  
 20   9  25  1   
 21   9  26  1   
 22   9  27  1   
 23  10  28  1   
 24  10  29  1   
 25  11  13  ar  
 26  11  30  1   
 27  12  14  ar  
 28  12  31  1   
 29  13  15  1   
 30  13  16  ar  
 31  14  16  ar  
 32  14  32  1   
 33  15  17  1   
 34  16  33  1   
 35  17  34  1   
 36  17  35  1   
 37  17  36  1   
@<TRIPOS>SUBSTRUCTURE
  1 ****   3 GROUP 4 **** **** 0

# MOE 2024.06 (io_trps.svl 2023.06)
