@<TRIPOS>MOLECULE
NONAME
35 35 1 0 0 
SMALL
USER_CHARGES


@<TRIPOS>ATOM
  1 S        0.1280    -0.0910     1.0950 S.o2  1 <1>   1.4470 
  2 O        0.1790    -0.0890     2.5420 O.2   1 <1>  -0.6500 
  3 O        0.3610     1.1470     0.3840 O.2   1 <1>  -0.6500 
  4 N        1.3270    -1.1750     0.5870 N.am  1 <1>  -0.8490 
  5 C       -1.4090    -0.8530     0.5060 C.ar  1 <1>  -0.0090 
  6 C        2.6660    -0.5330     0.7140 C.3   1 <1>   0.2570 
  7 C        1.2680    -2.4530     1.3050 C.3   1 <1>   0.1960 
  8 C       -1.5530    -1.2340    -0.8230 C.ar  1 <1>  -0.1500 
  9 C       -2.4810    -1.0760     1.3630 C.ar  1 <1>  -0.1500 
 10 C        3.8640    -1.3470     0.2170 C.2   1 <1>   0.6590 
 11 C        1.4290    -3.5940     0.3060 C.3   1 <1>  -0.2400 
 12 C       -2.7190    -1.8220    -1.2800 C.ar  1 <1>  -0.1500 
 13 C       -3.6500    -1.6640     0.9120 C.ar  1 <1>  -0.1500 
 14 O        4.5720    -1.9590     0.9790 O.2   1 <1>  -0.5700 
 15 O        4.0850    -1.3410    -1.0940 O.3   1 <1>  -0.4300 
 16 C       -3.7750    -2.0420    -0.4130 C.ar  1 <1>  -0.1430 
 17 C        5.1520    -2.0630    -1.6730 C.3   1 <1>   0.0400 
 18 C       -5.0560    -2.6850    -0.9110 C.3   1 <1>  -0.0970 
 19 H        2.8410    -0.2840     1.7460 H     1 <1>   0.0800 
 20 H        2.6710     0.3870     0.1560 H     1 <1>   0.0800 
 21 H        0.3120    -2.5730     1.7900 H     1 <1>   0.0800 
 22 H        2.0260    -2.5060     2.0720 H     1 <1>   0.0800 
 23 H       -0.7370    -1.0670    -1.5070 H     1 <1>   0.1500 
 24 H       -2.4000    -0.7860     2.3970 H     1 <1>   0.1500 
 25 H        0.6600    -3.5400    -0.4440 H     1 <1>   0.0800 
 26 H        1.3370    -4.5350     0.8180 H     1 <1>   0.0800 
 27 H        2.3910    -3.5650    -0.1690 H     1 <1>   0.0800 
 28 H       -2.8000    -2.1060    -2.3150 H     1 <1>   0.1500 
 29 H       -4.4640    -1.8230     1.5990 H     1 <1>   0.1500 
 30 H        5.1300    -1.9100    -2.7370 H     1 <1>   0.0800 
 31 H        5.0270    -3.1080    -1.4460 H     1 <1>   0.0800 
 32 H        6.0800    -1.7020    -1.2640 H     1 <1>   0.0800 
 33 H       -5.7400    -1.9240    -1.2410 H     1 <1>   0.0800 
 34 H       -5.5220    -3.2530    -0.1250 H     1 <1>   0.0800 
 35 H       -4.8520    -3.3480    -1.7320 H     1 <1>   0.0800 
@<TRIPOS>BOND
  1   1   2  2   
  2   1   3  2   
  3   1   4  am  
  4   1   5  1   
  5   4   6  1   
  6   4   7  1   
  7   5   8  ar  
  8   5   9  ar  
  9   6  10  1   
 10   6  19  1   
 11   6  20  1   
 12   7  11  1   
 13   7  21  1   
 14   7  22  1   
 15   8  12  ar  
 16   8  23  1   
 17   9  13  ar  
 18   9  24  1   
 19  10  14  2   
 20  10  15  1   
 21  11  25  1   
 22  11  26  1   
 23  11  27  1   
 24  12  16  ar  
 25  12  28  1   
 26  13  16  ar  
 27  13  29  1   
 28  15  17  1   
 29  16  18  1   
 30  17  30  1   
 31  17  31  1   
 32  17  32  1   
 33  18  33  1   
 34  18  34  1   
 35  18  35  1   
@<TRIPOS>SUBSTRUCTURE
  1 ****   4 GROUP 4 **** **** 0

# MOE 2024.06 (io_trps.svl 2023.06)
