@<TRIPOS>MOLECULE
NONAME
49 50 1 0 0 
SMALL
USER_CHARGES


@<TRIPOS>ATOM
  1 O        0.2280     1.0900    -1.8640 O.2   1 <1>  -0.5700 
  2 C        0.2780     2.2820    -1.6490 C.2   1 <1>   0.5440 
  3 N        1.5330     2.8170    -1.5590 N.am  1 <1>  -0.5470 
  4 C       -0.9380     3.0630    -1.5050 C.ar  1 <1>   0.0860 
  5 C        1.9820     4.0520    -1.0820 C.ar  1 <1>   0.1170 
  6 C       -2.0320     2.5380    -0.8180 C.ar  1 <1>  -0.1500 
  7 C       -1.0680     4.3440    -2.0450 C.ar  1 <1>  -0.1500 
  8 C        3.0530     4.6750    -1.7050 C.ar  1 <1>  -0.1500 
  9 C        1.3930     4.6730     0.0130 C.ar  1 <1>  -0.1500 
 10 C       -3.2040     3.2670    -0.6550 C.ar  1 <1>   0.0830 
 11 C       -2.2290     5.0790    -1.8880 C.ar  1 <1>  -0.1500 
 12 C        3.5480     5.9010    -1.2700 C.ar  1 <1>   0.0860 
 13 C        1.8540     5.8990     0.4560 C.ar  1 <1>  -0.1500 
 14 O       -4.2920     2.8070     0.0080 O.3   1 <1>  -0.3620 
 15 C       -3.2940     4.5400    -1.1910 C.ar  1 <1>  -0.1500 
 16 C        4.6730     6.5220    -1.9400 C.2   1 <1>   0.5440 
 17 C        2.9180     6.5070    -0.1850 C.ar  1 <1>  -0.1500 
 18 C       -4.3370     1.4980     0.5260 C.3   1 <1>   0.1200 
 19 O        4.6310     6.7270    -3.1340 O.2   1 <1>  -0.5700 
 20 N        5.8170     6.9100    -1.3130 N.am  1 <1>  -0.7300 
 21 C       -5.7050     1.2900     1.1670 C.3   1 <1>  -0.2400 
 22 C        6.5590     6.3110    -0.1970 C.3   1 <1>   0.3000 
 23 C        8.0370     6.5530    -0.4970 C.3   1 <1>  -0.2400 
 24 C        6.3060     4.8050    -0.0920 C.3   1 <1>  -0.2400 
 25 C        6.1790     7.0240     1.0990 C.3   1 <1>  -0.2400 
 26 H        2.2490     2.1500    -1.8490 H     1 <1>   0.3700 
 27 H       -1.9370     1.5460    -0.4170 H     1 <1>   0.1500 
 28 H       -0.2470     4.7710    -2.5950 H     1 <1>   0.1500 
 29 H        3.5160     4.2080    -2.5560 H     1 <1>   0.1500 
 30 H        0.5720     4.2010     0.5230 H     1 <1>   0.1500 
 31 H       -2.3050     6.0670    -2.3080 H     1 <1>   0.1500 
 32 H        1.3840     6.3790     1.2980 H     1 <1>   0.1500 
 33 H       -4.2030     5.1010    -1.0600 H     1 <1>   0.1500 
 34 H        3.2680     7.4670     0.1510 H     1 <1>   0.1500 
 35 H       -3.5540     1.3920     1.2580 H     1 <1>   0.0800 
 36 H       -4.1870     0.8050    -0.2840 H     1 <1>   0.0800 
 37 H        6.4300     7.4390    -1.9320 H     1 <1>   0.3700 
 38 H       -5.8510     1.9970     1.9640 H     1 <1>   0.0800 
 39 H       -5.7700     0.2970     1.5730 H     1 <1>   0.0800 
 40 H       -6.4790     1.4130     0.4310 H     1 <1>   0.0800 
 41 H        8.3170     6.0730    -1.4180 H     1 <1>   0.0800 
 42 H        8.6470     6.1490     0.2900 H     1 <1>   0.0800 
 43 H        8.2420     7.6060    -0.5710 H     1 <1>   0.0800 
 44 H        6.9740     4.3710     0.6290 H     1 <1>   0.0800 
 45 H        6.4770     4.3270    -1.0400 H     1 <1>   0.0800 
 46 H        5.3050     4.6000     0.2370 H     1 <1>   0.0800 
 47 H        6.8070     6.6860     1.9030 H     1 <1>   0.0800 
 48 H        5.1620     6.8110     1.3680 H     1 <1>   0.0800 
 49 H        6.3030     8.0870     0.9950 H     1 <1>   0.0800 
@<TRIPOS>BOND
  1   1   2  2   
  2   2   3  am  
  3   2   4  1   
  4   3   5  1   
  5   3  26  1   
  6   4   6  ar  
  7   4   7  ar  
  8   5   8  ar  
  9   5   9  ar  
 10   6  10  ar  
 11   6  27  1   
 12   7  11  ar  
 13   7  28  1   
 14   8  12  ar  
 15   8  29  1   
 16   9  13  ar  
 17   9  30  1   
 18  10  14  1   
 19  10  15  ar  
 20  11  15  ar  
 21  11  31  1   
 22  12  16  1   
 23  12  17  ar  
 24  13  17  ar  
 25  13  32  1   
 26  14  18  1   
 27  15  33  1   
 28  16  19  2   
 29  16  20  am  
 30  17  34  1   
 31  18  21  1   
 32  18  35  1   
 33  18  36  1   
 34  20  22  1   
 35  20  37  1   
 36  21  38  1   
 37  21  39  1   
 38  21  40  1   
 39  22  23  1   
 40  22  24  1   
 41  22  25  1   
 42  23  41  1   
 43  23  42  1   
 44  23  43  1   
 45  24  44  1   
 46  24  45  1   
 47  24  46  1   
 48  25  47  1   
 49  25  48  1   
 50  25  49  1   
@<TRIPOS>SUBSTRUCTURE
  1 ****   5 GROUP 4 **** **** 0

# MOE 2024.06 (io_trps.svl 2023.06)
