@<TRIPOS>MOLECULE
NONAME
43 46 1 0 0 
SMALL
USER_CHARGES


@<TRIPOS>ATOM
  1 S        0.2290     0.5770    -0.7450 S.o2  1 <1>   1.4470 
  2 O        0.3520    -0.8150    -0.3700 O.2   1 <1>  -0.6500 
  3 O        0.5230     0.9730    -2.1060 O.2   1 <1>  -0.6500 
  4 N        1.2930     1.4350     0.2530 N.am  1 <1>  -0.8490 
  5 C       -1.3910     1.2080    -0.2320 C.ar  1 <1>  -0.0090 
  6 C        2.6560     0.9350     0.1810 C.3   1 <1>   0.1960 
  7 C        1.3940     2.8590    -0.0350 C.3   1 <1>   0.1960 
  8 C       -2.1080     2.0890    -1.0360 C.ar  1 <1>  -0.1500 
  9 C       -1.9380     0.8490     0.9970 C.ar  1 <1>  -0.1500 
 10 C        3.4820     2.0050     0.8910 C.3   1 <1>   0.0640 
 11 C        2.7390     3.2990     0.5430 C.3   1 <1>  -0.1600 
 12 C       -3.3290     2.5940    -0.6270 C.ar  1 <1>   0.0830 
 13 C       -3.1650     1.3410     1.4140 C.ar  1 <1>  -0.1500 
 14 C        4.9750     2.0670     0.5550 C.ar  1 <1>  -0.1440 
 15 O       -3.9790     3.4670    -1.4370 O.3   1 <1>  -0.3630 
 16 C       -3.8670     2.2110     0.6010 C.ar  1 <1>   0.0830 
 17 C        5.6040     1.1600    -0.2910 C.ar  1 <1>  -0.1500 
 18 C        5.7380     3.0710     1.1360 C.ar  1 <1>  -0.1500 
 19 C       -5.0540     4.1930    -0.8690 C.3   1 <1>   0.1200 
 20 O       -5.0730     2.6720     1.0150 O.3   1 <1>  -0.3630 
 21 C        6.9590     1.2660    -0.5560 C.ar  1 <1>  -0.1500 
 22 C        7.0930     3.1780     0.8730 C.ar  1 <1>  -0.1500 
 23 C       -5.8940     3.2830     0.0380 C.3   1 <1>   0.1200 
 24 C        7.7050     2.2750     0.0240 C.ar  1 <1>  -0.1500 
 25 H        2.9480     0.8580    -0.8530 H     1 <1>   0.0800 
 26 H        2.7460    -0.0260     0.6600 H     1 <1>   0.0800 
 27 H        0.5730     3.3960     0.4100 H     1 <1>   0.0800 
 28 H        1.3970     3.0320    -1.1000 H     1 <1>   0.0800 
 29 H       -1.7150     2.3900    -1.9910 H     1 <1>   0.1500 
 30 H       -1.3940     0.1720     1.6340 H     1 <1>   0.1500 
 31 H        3.3840     1.8270     1.9480 H     1 <1>   0.0800 
 32 H        2.5970     3.9040     1.4200 H     1 <1>   0.0800 
 33 H        3.2720     3.8720    -0.1940 H     1 <1>   0.0800 
 34 H       -3.5800     1.0520     2.3630 H     1 <1>   0.1500 
 35 H        5.0640     0.3570    -0.7560 H     1 <1>   0.1500 
 36 H        5.2800     3.7800     1.8030 H     1 <1>   0.1500 
 37 H       -5.6500     4.5860    -1.6740 H     1 <1>   0.0800 
 38 H       -4.6440     5.0100    -0.3020 H     1 <1>   0.0800 
 39 H        7.4330     0.5590    -1.2140 H     1 <1>   0.1500 
 40 H        7.6700     3.9630     1.3290 H     1 <1>   0.1500 
 41 H       -6.3600     2.5050    -0.5410 H     1 <1>   0.0800 
 42 H       -6.6530     3.8470     0.5490 H     1 <1>   0.0800 
 43 H        8.7580     2.3560    -0.1830 H     1 <1>   0.1500 
@<TRIPOS>BOND
  1   1   2  2   
  2   1   3  2   
  3   1   4  am  
  4   1   5  1   
  5   4   6  1   
  6   4   7  1   
  7   5   8  ar  
  8   5   9  ar  
  9   6  10  1   
 10   6  25  1   
 11   6  26  1   
 12   7  11  1   
 13   7  27  1   
 14   7  28  1   
 15   8  12  ar  
 16   8  29  1   
 17   9  13  ar  
 18   9  30  1   
 19  10  11  1   
 20  10  14  1   
 21  10  31  1   
 22  11  32  1   
 23  11  33  1   
 24  12  15  1   
 25  12  16  ar  
 26  13  16  ar  
 27  13  34  1   
 28  14  17  ar  
 29  14  18  ar  
 30  15  19  1   
 31  16  20  1   
 32  17  21  ar  
 33  17  35  1   
 34  18  22  ar  
 35  18  36  1   
 36  19  23  1   
 37  19  37  1   
 38  19  38  1   
 39  20  23  1   
 40  21  24  ar  
 41  21  39  1   
 42  22  24  ar  
 43  22  40  1   
 44  23  41  1   
 45  23  42  1   
 46  24  43  1   
@<TRIPOS>SUBSTRUCTURE
  1 ****   4 GROUP 4 **** **** 0

# MOE 2024.06 (io_trps.svl 2023.06)
