@<TRIPOS>MOLECULE
NONAME
42 42 1 0 0 
SMALL
USER_CHARGES


@<TRIPOS>ATOM
  1 O        1.2450     0.6900     1.1920 O.2   1 <1>  -0.5700 
  2 C        1.2940     1.8470     0.8090 C.2   1 <1>   0.6900 
  3 N        2.4840     2.5320     0.8640 N.am  1 <1>  -0.6600 
  4 N        0.1580     2.4540     0.3310 N.am  1 <1>  -0.6600 
  5 C        3.5750     2.0850     1.7670 C.3   1 <1>   0.1400 
  6 C        2.8980     3.4660    -0.2160 C.3   1 <1>   0.1400 
  7 C       -0.2370     3.8080     0.7960 C.3   1 <1>   0.1400 
  8 C       -0.8910     1.6550    -0.3520 C.3   1 <1>   0.1400 
  9 C        4.6950     1.4400     0.9470 C.3   1 <1>  -0.1600 
 10 C        4.0230     2.8360    -1.0410 C.3   1 <1>  -0.1600 
 11 C       -0.9920     3.7030     2.1200 C.3   1 <1>  -0.2400 
 12 C       -0.9190     2.0240    -1.8330 C.3   1 <1>  -0.2400 
 13 C        5.2050     2.3840    -0.1580 C.3   1 <1>  -0.0190 
 14 C        6.3350     1.7400    -0.9600 C.2   1 <1>   0.6590 
 15 O        6.2340     1.4660    -2.1300 O.2   1 <1>  -0.5700 
 16 O        7.4530     1.5090    -0.2830 O.3   1 <1>  -0.4300 
 17 C        8.5730     0.9150    -0.8960 C.3   1 <1>   0.1200 
 18 C        9.6740     0.7870     0.1520 C.3   1 <1>  -0.2400 
 19 H        3.1970     1.3790     2.4880 H     1 <1>   0.0800 
 20 H        3.9540     2.9370     2.3050 H     1 <1>   0.0800 
 21 H        3.2320     4.3880     0.2270 H     1 <1>   0.0800 
 22 H        2.0660     3.6830    -0.8640 H     1 <1>   0.0800 
 23 H       -0.8530     4.2830     0.0530 H     1 <1>   0.0800 
 24 H        0.6390     4.4150     0.9420 H     1 <1>   0.0800 
 25 H       -1.8500     1.8430     0.0980 H     1 <1>   0.0800 
 26 H       -0.6800     0.6030    -0.2540 H     1 <1>   0.0800 
 27 H        4.3190     0.5310     0.5080 H     1 <1>   0.0800 
 28 H        5.5020     1.1760     1.6070 H     1 <1>   0.0800 
 29 H        4.3660     3.5460    -1.7720 H     1 <1>   0.0800 
 30 H        3.6240     1.9890    -1.5740 H     1 <1>   0.0800 
 31 H       -1.9000     3.1420     2.0000 H     1 <1>   0.0800 
 32 H       -1.2430     4.6870     2.4730 H     1 <1>   0.0800 
 33 H       -0.3740     3.2230     2.8590 H     1 <1>   0.0800 
 34 H       -1.1690     3.0610    -1.9620 H     1 <1>   0.0800 
 35 H       -1.6570     1.4280    -2.3380 H     1 <1>   0.0800 
 36 H        0.0400     1.8270    -2.2770 H     1 <1>   0.0800 
 37 H        5.6200     3.2580     0.3120 H     1 <1>   0.0800 
 38 H        8.8870     1.5420    -1.7140 H     1 <1>   0.0800 
 39 H        8.2820    -0.0510    -1.2730 H     1 <1>   0.0800 
 40 H        9.9460     1.7580     0.5260 H     1 <1>   0.0800 
 41 H       10.5430     0.3340    -0.2900 H     1 <1>   0.0800 
 42 H        9.3410     0.1670     0.9650 H     1 <1>   0.0800 
@<TRIPOS>BOND
  1   1   2  2   
  2   2   3  am  
  3   2   4  am  
  4   3   5  1   
  5   3   6  1   
  6   4   7  1   
  7   4   8  1   
  8   5   9  1   
  9   5  19  1   
 10   5  20  1   
 11   6  10  1   
 12   6  21  1   
 13   6  22  1   
 14   7  11  1   
 15   7  23  1   
 16   7  24  1   
 17   8  12  1   
 18   8  25  1   
 19   8  26  1   
 20   9  13  1   
 21   9  27  1   
 22   9  28  1   
 23  10  13  1   
 24  10  29  1   
 25  10  30  1   
 26  11  31  1   
 27  11  32  1   
 28  11  33  1   
 29  12  34  1   
 30  12  35  1   
 31  12  36  1   
 32  13  14  1   
 33  13  37  1   
 34  14  15  2   
 35  14  16  1   
 36  16  17  1   
 37  17  18  1   
 38  17  38  1   
 39  17  39  1   
 40  18  40  1   
 41  18  41  1   
 42  18  42  1   
@<TRIPOS>SUBSTRUCTURE
  1 ****   3 GROUP 4 **** **** 0

# MOE 2024.06 (io_trps.svl 2023.06)
