@<TRIPOS>MOLECULE
NONAME
40 41 1 0 0 
SMALL
USER_CHARGES


@<TRIPOS>ATOM
  1 O       -0.5900     0.5170    -0.3160 O.2   1 <1>  -0.5700 
  2 C       -0.9080     1.6440    -0.0480 C.2   1 <1>   0.6590 
  3 O       -2.0980     1.8520     0.4930 O.3   1 <1>  -0.4300 
  4 C       -0.0020     2.8600    -0.3140 C.3   1 <1>   0.1220 
  5 C       -2.7410     3.1030     0.5130 C.3   1 <1>   0.3380 
  6 C       -0.8840     3.9820    -0.8850 C.2   1 <1>   0.4480 
  7 C        0.6370     3.3560     1.0120 C.3   1 <1>  -0.1600 
  8 C        1.1400     2.5350    -1.3270 C.3   1 <1>  -0.1600 
  9 C       -4.2340     2.8690     0.7440 C.2   1 <1>  -0.2880 
 10 C       -2.4170     3.8760    -0.7890 C.3   1 <1>   0.0610 
 11 O       -0.3800     4.9520    -1.3770 O.2   1 <1>  -0.5700 
 12 C        1.6870     2.3840     1.5710 C.3   1 <1>  -0.1600 
 13 C        2.2500     1.6230    -0.7720 C.3   1 <1>  -0.1600 
 14 C       -4.8850     1.7010     0.6810 C.2   1 <1>  -0.2880 
 15 C       -3.0570     5.2860    -0.7360 C.3   1 <1>  -0.2400 
 16 C       -2.9720     3.1650    -2.0460 C.3   1 <1>  -0.2400 
 17 C        2.8070     2.1550     0.5520 C.3   1 <1>  -0.1600 
 18 C       -6.3720     1.5280     0.9220 C.3   1 <1>  -0.1020 
 19 H       -2.3530     3.6410     1.3600 H     1 <1>   0.0800 
 20 H        1.1150     4.3050     0.8350 H     1 <1>   0.0800 
 21 H       -0.1200     3.5150     1.7590 H     1 <1>   0.0800 
 22 H        0.7200     2.0860    -2.2100 H     1 <1>   0.0800 
 23 H        1.6110     3.4540    -1.6330 H     1 <1>   0.0800 
 24 H       -4.7490     3.7830     0.9800 H     1 <1>   0.1500 
 25 H        2.1070     2.7900     2.4750 H     1 <1>   0.0800 
 26 H        1.2260     1.4420     1.8180 H     1 <1>   0.0800 
 27 H        1.8750     0.6260    -0.6230 H     1 <1>   0.0800 
 28 H        3.0480     1.5560    -1.4920 H     1 <1>   0.0800 
 29 H       -4.3940     0.7690     0.4490 H     1 <1>   0.1500 
 30 H       -4.1300     5.2300    -0.7020 H     1 <1>   0.0800 
 31 H       -2.7900     5.8520    -1.6110 H     1 <1>   0.0800 
 32 H       -2.7110     5.8280     0.1270 H     1 <1>   0.0800 
 33 H       -2.6990     3.7120    -2.9320 H     1 <1>   0.0800 
 34 H       -2.5860     2.1660    -2.1400 H     1 <1>   0.0800 
 35 H       -4.0450     3.1030    -2.0070 H     1 <1>   0.0800 
 36 H        3.5180     1.4510     0.9500 H     1 <1>   0.0800 
 37 H        3.3260     3.0820     0.3750 H     1 <1>   0.0800 
 38 H       -6.5340     0.8570     1.7470 H     1 <1>   0.0800 
 39 H       -6.8410     1.1180     0.0450 H     1 <1>   0.0800 
 40 H       -6.8350     2.4710     1.1510 H     1 <1>   0.0800 
@<TRIPOS>BOND
  1   1   2  2   
  2   2   3  1   
  3   2   4  1   
  4   3   5  1   
  5   4   6  1   
  6   4   7  1   
  7   4   8  1   
  8   5   9  1   
  9   5  10  1   
 10   5  19  1   
 11   6  10  1   
 12   6  11  2   
 13   7  12  1   
 14   7  20  1   
 15   7  21  1   
 16   8  13  1   
 17   8  22  1   
 18   8  23  1   
 19   9  14  2   
 20   9  24  1   
 21  10  15  1   
 22  10  16  1   
 23  12  17  1   
 24  12  25  1   
 25  12  26  1   
 26  13  17  1   
 27  13  27  1   
 28  13  28  1   
 29  14  18  1   
 30  14  29  1   
 31  15  30  1   
 32  15  31  1   
 33  15  32  1   
 34  16  33  1   
 35  16  34  1   
 36  16  35  1   
 37  17  36  1   
 38  17  37  1   
 39  18  38  1   
 40  18  39  1   
 41  18  40  1   
@<TRIPOS>SUBSTRUCTURE
  1 ****   2 GROUP 4 **** **** 0

# MOE 2024.06 (io_trps.svl 2023.06)
