@<TRIPOS>MOLECULE
NONAME
50 51 1 0 0 
SMALL
USER_CHARGES


@<TRIPOS>ATOM
  1 O        0.8080    -0.9790     0.4260 O.3   1 <1>  -0.5600 
  2 C       -0.1610    -1.8470     0.9250 C.3   1 <1>   0.1200 
  3 C        2.0360    -1.5830     0.1750 C.3   1 <1>   0.1200 
  4 C       -1.4280    -1.0420     1.2130 C.3   1 <1>   0.1200 
  5 C        3.0060    -0.4970    -0.3000 C.3   1 <1>   0.1100 
  6 O       -2.4380    -1.9030     1.6230 O.3   1 <1>  -0.6800 
  7 N        4.3500    -1.0440    -0.5910 N.3   1 <1>  -0.8100 
  8 C        4.3930    -1.7730    -1.8840 C.3   1 <1>   0.1100 
  9 C        5.3590     0.0470    -0.5890 C.3   1 <1>   0.1100 
 10 C        5.7980    -2.3520    -2.1880 C.3   1 <1>   0.3430 
 11 C        6.7810    -0.4460    -0.9550 C.3   1 <1>   0.3430 
 12 N        6.7940    -1.9330    -1.1520 N.4   1 <1>  -0.9590 
 13 C        8.1500    -2.5140    -1.3250 C.3   1 <1>   0.4860 
 14 C        9.0080    -2.1090    -0.1410 C.ar  1 <1>  -0.1430 
 15 C        8.8390    -2.6710     1.1210 C.ar  1 <1>  -0.1430 
 16 C        9.9780    -1.1340    -0.3380 C.ar  1 <1>  -0.1500 
 17 C        9.6330    -2.2290     2.1670 C.ar  1 <1>  -0.1500 
 18 C        7.8140    -3.7610     1.4110 C.3   1 <1>  -0.0970 
 19 C       10.7700    -0.7000     0.7100 C.ar  1 <1>  -0.1430 
 20 C       10.5890    -1.2500     1.9650 C.ar  1 <1>  -0.1500 
 21 C       11.8280     0.3670     0.4940 C.3   1 <1>  -0.0970 
 22 H        0.2050    -2.2910     1.8350 H     1 <1>   0.0800 
 23 H       -0.3550    -2.6030     0.1850 H     1 <1>   0.0800 
 24 H        1.8940    -2.3350    -0.5800 H     1 <1>   0.0800 
 25 H        2.3970    -2.0270     1.0870 H     1 <1>   0.0800 
 26 H       -1.7630    -0.5210     0.3330 H     1 <1>   0.0800 
 27 H       -1.2490    -0.3390     2.0080 H     1 <1>   0.0800 
 28 H        3.0810     0.2300     0.4910 H     1 <1>   0.0800 
 29 H        2.6040    -0.0100    -1.1720 H     1 <1>   0.0800 
 30 H       -2.7570    -2.4440     0.8760 H     1 <1>   0.4000 
 31 H        4.1050    -1.1120    -2.6840 H     1 <1>   0.0800 
 32 H        3.6870    -2.5850    -1.8700 H     1 <1>   0.0800 
 33 H        5.3950     0.4920     0.3910 H     1 <1>   0.0800 
 34 H        5.0680     0.8190    -1.2810 H     1 <1>   0.0800 
 35 H        6.1140    -2.0180    -3.1630 H     1 <1>   0.0800 
 36 H        5.7310    -3.4270    -2.2150 H     1 <1>   0.0800 
 37 H        7.4560    -0.1720    -0.1590 H     1 <1>   0.0800 
 38 H        7.1120     0.0500    -1.8510 H     1 <1>   0.0800 
 39 H        6.4130    -2.2780    -0.2600 H     1 <1>   0.4500 
 40 H        8.5940    -2.1530    -2.2370 H     1 <1>   0.0800 
 41 H        8.0920    -3.5880    -1.3750 H     1 <1>   0.0800 
 42 H       10.1280    -0.7010    -1.3120 H     1 <1>   0.1500 
 43 H        9.5180    -2.6440     3.1540 H     1 <1>   0.1500 
 44 H        7.7990    -4.4970     0.6280 H     1 <1>   0.0800 
 45 H        6.8340    -3.3330     1.5230 H     1 <1>   0.0800 
 46 H        8.0590    -4.2720     2.3260 H     1 <1>   0.0800 
 47 H       11.1940    -0.9220     2.7930 H     1 <1>   0.1500 
 48 H       11.4290     1.3340     0.7410 H     1 <1>   0.0800 
 49 H       12.1580     0.3770    -0.5290 H     1 <1>   0.0800 
 50 H       12.6820     0.1770     1.1200 H     1 <1>   0.0800 
@<TRIPOS>BOND
  1   1   2  1   
  2   1   3  1   
  3   2   4  1   
  4   2  22  1   
  5   2  23  1   
  6   3   5  1   
  7   3  24  1   
  8   3  25  1   
  9   4   6  1   
 10   4  26  1   
 11   4  27  1   
 12   5   7  1   
 13   5  28  1   
 14   5  29  1   
 15   6  30  1   
 16   7   8  1   
 17   7   9  1   
 18   8  10  1   
 19   8  31  1   
 20   8  32  1   
 21   9  11  1   
 22   9  33  1   
 23   9  34  1   
 24  10  12  1   
 25  10  35  1   
 26  10  36  1   
 27  11  12  1   
 28  11  37  1   
 29  11  38  1   
 30  12  13  1   
 31  12  39  1   
 32  13  14  1   
 33  13  40  1   
 34  13  41  1   
 35  14  15  ar  
 36  14  16  ar  
 37  15  17  ar  
 38  15  18  1   
 39  16  19  ar  
 40  16  42  1   
 41  17  20  ar  
 42  17  43  1   
 43  18  44  1   
 44  18  45  1   
 45  18  46  1   
 46  19  20  ar  
 47  19  21  1   
 48  20  47  1   
 49  21  48  1   
 50  21  49  1   
 51  21  50  1   
@<TRIPOS>SUBSTRUCTURE
  1 ****  12 GROUP 4 **** **** 0

# MOE 2024.06 (io_trps.svl 2023.06)
