@<TRIPOS>MOLECULE
NONAME
41 42 1 0 0 
SMALL
USER_CHARGES


@<TRIPOS>ATOM
  1 O       -1.2370    -3.8020    -0.7800 O.2   1 <1>  -0.5700 
  2 C       -0.2820    -3.0650    -0.8360 C.2   1 <1>   0.5690 
  3 N       -0.4380    -1.7370    -1.0970 N.am  1 <1>  -0.7300 
  4 C        1.1130    -3.6250    -0.5850 C.3   1 <1>   0.1810 
  5 C       -1.6790    -1.0900    -1.6150 C.3   1 <1>   0.1400 
  6 O        1.9650    -2.6110    -0.0710 O.3   1 <1>  -0.3620 
  7 C       -2.9710    -1.4360    -0.8350 C.3   1 <1>   0.3430 
  8 C        3.2640    -2.8550     0.2430 C.ar  1 <1>   0.0820 
  9 N       -2.9720    -0.9840     0.6030 N.4   1 <1>  -0.9590 
 10 C        4.0100    -1.7700     0.7730 C.ar  1 <1>   0.0000 
 11 C        3.8530    -4.0880     0.0650 C.ar  1 <1>  -0.1500 
 12 C       -2.2150    -1.9370     1.4750 C.3   1 <1>   0.2630 
 13 C       -4.3730    -0.8520     1.1040 C.3   1 <1>   0.2630 
 14 C        5.3670    -1.9810     1.1090 C.ar  1 <1>   0.0000 
 15 C        3.4700    -0.4810     0.9850 C.ar  1 <1>  -0.1500 
 16 C        5.1930    -4.2870     0.4020 C.ar  1 <1>  -0.1500 
 17 C        5.9300    -3.2550     0.9120 C.ar  1 <1>  -0.1500 
 18 C        6.1190    -0.9100     1.6330 C.ar  1 <1>  -0.1500 
 19 C        4.2230     0.5410     1.4950 C.ar  1 <1>  -0.1500 
 20 C        5.5640     0.3250     1.8230 C.ar  1 <1>  -0.1500 
 21 H        0.4270    -1.1840    -1.1600 H     1 <1>   0.3700 
 22 H        1.5270    -3.9850    -1.5090 H     1 <1>   0.0800 
 23 H        1.0590    -4.4220     0.1340 H     1 <1>   0.0800 
 24 H       -1.8120    -1.4010    -2.6370 H     1 <1>   0.0800 
 25 H       -1.5450    -0.0220    -1.6210 H     1 <1>   0.0800 
 26 H       -3.1410    -2.4990    -0.8850 H     1 <1>   0.0800 
 27 H       -3.7910    -0.9600    -1.3480 H     1 <1>   0.0800 
 28 H       -2.5070    -0.0660     0.6570 H     1 <1>   0.4500 
 29 H        3.3200    -4.9310    -0.3320 H     1 <1>   0.1500 
 30 H       -2.5730    -2.9440     1.3290 H     1 <1>   0.0800 
 31 H       -2.3300    -1.6730     2.5130 H     1 <1>   0.0800 
 32 H       -1.1650    -1.9120     1.2350 H     1 <1>   0.0800 
 33 H       -4.8770    -1.8040     1.0610 H     1 <1>   0.0800 
 34 H       -4.9220    -0.1430     0.5040 H     1 <1>   0.0800 
 35 H       -4.3740    -0.5080     2.1260 H     1 <1>   0.0800 
 36 H        2.4410    -0.3070     0.7360 H     1 <1>   0.1500 
 37 H        5.6350    -5.2580     0.2550 H     1 <1>   0.1500 
 38 H        6.9630    -3.4050     1.1720 H     1 <1>   0.1500 
 39 H        7.1500    -1.0830     1.8840 H     1 <1>   0.1500 
 40 H        3.8000     1.5190     1.6510 H     1 <1>   0.1500 
 41 H        6.1450     1.1380     2.2240 H     1 <1>   0.1500 
@<TRIPOS>BOND
  1   1   2  2   
  2   2   3  am  
  3   2   4  1   
  4   3   5  1   
  5   3  21  1   
  6   4   6  1   
  7   4  22  1   
  8   4  23  1   
  9   5   7  1   
 10   5  24  1   
 11   5  25  1   
 12   6   8  1   
 13   7   9  1   
 14   7  26  1   
 15   7  27  1   
 16   8  10  ar  
 17   8  11  ar  
 18   9  12  1   
 19   9  13  1   
 20   9  28  1   
 21  10  14  ar  
 22  10  15  ar  
 23  11  16  ar  
 24  11  29  1   
 25  12  30  1   
 26  12  31  1   
 27  12  32  1   
 28  13  33  1   
 29  13  34  1   
 30  13  35  1   
 31  14  17  ar  
 32  14  18  ar  
 33  15  19  ar  
 34  15  36  1   
 35  16  17  ar  
 36  16  37  1   
 37  17  38  1   
 38  18  20  ar  
 39  18  39  1   
 40  19  20  ar  
 41  19  40  1   
 42  20  41  1   
@<TRIPOS>SUBSTRUCTURE
  1 ****   6 GROUP 4 **** **** 0

# MOE 2024.06 (io_trps.svl 2023.06)
