@<TRIPOS>MOLECULE
NONAME
47 48 1 0 0 
SMALL
USER_CHARGES


@<TRIPOS>ATOM
  1 O        0.5590    -2.5380    -2.1260 O.2   1 <1>  -0.5700 
  2 C        0.4780    -2.2500    -0.9600 C.2   1 <1>   0.6590 
  3 O       -0.5200    -1.5340    -0.4660 O.3   1 <1>  -0.4300 
  4 C        1.5430    -2.6920     0.0400 C.3   1 <1>  -0.0190 
  5 C       -1.5630    -1.0630    -1.2890 C.3   1 <1>   0.1200 
  6 C        2.8660    -1.9420    -0.2040 C.3   1 <1>  -0.1600 
  7 C        1.7730    -4.2140    -0.0240 C.3   1 <1>  -0.1600 
  8 C       -2.5380    -0.2800    -0.4150 C.3   1 <1>  -0.2400 
  9 C        3.9850    -2.4350     0.7120 C.3   1 <1>   0.3430 
 10 C        2.9100    -4.6620     0.8910 C.3   1 <1>   0.3430 
 11 N        4.1480    -3.9100     0.5500 N.4   1 <1>  -0.9590 
 12 C        5.3250    -4.4200     1.3080 C.3   1 <1>   0.4860 
 13 C        6.5760    -3.7730     0.7500 C.ar  1 <1>  -0.1440 
 14 C        7.0430    -4.1250    -0.5080 C.ar  1 <1>  -0.1500 
 15 C        7.2600    -2.8190     1.4880 C.ar  1 <1>  -0.1500 
 16 C        8.1720    -3.5210    -1.0380 C.ar  1 <1>  -0.1440 
 17 C        8.3890    -2.2130     0.9690 C.ar  1 <1>  -0.1500 
 18 C        8.8500    -2.5570    -0.2990 C.ar  1 <1>   0.0820 
 19 C        8.6680    -3.9190    -2.4220 C.3   1 <1>  -0.0970 
 20 O        9.9500    -1.9910    -0.8620 O.3   1 <1>  -0.3620 
 21 C       10.7510    -1.0610    -0.1670 C.3   1 <1>   0.0400 
 22 H        1.1870    -2.4430     1.0250 H     1 <1>   0.0800 
 23 H       -2.0480    -1.9090    -1.7460 H     1 <1>   0.0800 
 24 H       -1.1390    -0.4340    -2.0540 H     1 <1>   0.0800 
 25 H        2.7160    -0.8890    -0.0380 H     1 <1>   0.0800 
 26 H        3.1730    -2.0610    -1.2300 H     1 <1>   0.0800 
 27 H        1.9980    -4.5110    -1.0350 H     1 <1>   0.0800 
 28 H        0.8690    -4.7230     0.2630 H     1 <1>   0.0800 
 29 H       -2.9470    -0.9170     0.3480 H     1 <1>   0.0800 
 30 H       -3.3460     0.0920    -1.0190 H     1 <1>   0.0800 
 31 H       -2.0400     0.5570     0.0410 H     1 <1>   0.0800 
 32 H        3.7450    -2.2020     1.7370 H     1 <1>   0.0800 
 33 H        4.9020    -1.9290     0.4540 H     1 <1>   0.0800 
 34 H        3.0730    -5.7210     0.7670 H     1 <1>   0.0800 
 35 H        2.6410    -4.4770     1.9190 H     1 <1>   0.0800 
 36 H        4.3600    -4.0670    -0.4440 H     1 <1>   0.4500 
 37 H        5.4030    -5.4890     1.1990 H     1 <1>   0.0800 
 38 H        5.2250    -4.1880     2.3560 H     1 <1>   0.0800 
 39 H        6.5360    -4.8760    -1.0890 H     1 <1>   0.1500 
 40 H        6.9280    -2.5360     2.4730 H     1 <1>   0.1500 
 41 H        8.8990    -1.4780     1.5620 H     1 <1>   0.1500 
 42 H        8.0420    -4.6700    -2.8670 H     1 <1>   0.0800 
 43 H        9.6690    -4.3060    -2.3500 H     1 <1>   0.0800 
 44 H        8.6820    -3.0570    -3.0650 H     1 <1>   0.0800 
 45 H       11.5700    -0.7850    -0.8060 H     1 <1>   0.0800 
 46 H       11.1280    -1.5240     0.7280 H     1 <1>   0.0800 
 47 H       10.1610    -0.1930     0.0630 H     1 <1>   0.0800 
@<TRIPOS>BOND
  1   1   2  2   
  2   2   3  1   
  3   2   4  1   
  4   3   5  1   
  5   4   6  1   
  6   4   7  1   
  7   4  22  1   
  8   5   8  1   
  9   5  23  1   
 10   5  24  1   
 11   6   9  1   
 12   6  25  1   
 13   6  26  1   
 14   7  10  1   
 15   7  27  1   
 16   7  28  1   
 17   8  29  1   
 18   8  30  1   
 19   8  31  1   
 20   9  11  1   
 21   9  32  1   
 22   9  33  1   
 23  10  11  1   
 24  10  34  1   
 25  10  35  1   
 26  11  12  1   
 27  11  36  1   
 28  12  13  1   
 29  12  37  1   
 30  12  38  1   
 31  13  14  ar  
 32  13  15  ar  
 33  14  16  ar  
 34  14  39  1   
 35  15  17  ar  
 36  15  40  1   
 37  16  18  ar  
 38  16  19  1   
 39  17  18  ar  
 40  17  41  1   
 41  18  20  1   
 42  19  42  1   
 43  19  43  1   
 44  19  44  1   
 45  20  21  1   
 46  21  45  1   
 47  21  46  1   
 48  21  47  1   
@<TRIPOS>SUBSTRUCTURE
  1 ****   9 GROUP 4 **** **** 0

# MOE 2024.06 (io_trps.svl 2023.06)
