@<TRIPOS>MOLECULE
NONAME
32 32 1 0 0 
SMALL
USER_CHARGES


@<TRIPOS>ATOM
  1 O       -0.2670     0.4300    -1.2060 O.2   1 <1>  -0.5700 
  2 C       -0.8700     1.3410    -0.6770 C.2   1 <1>   0.7060 
  3 O       -0.1980     2.4510    -0.3530 O.3   1 <1>  -0.4300 
  4 C       -2.2740     1.3540    -0.4310 C.2   1 <1>   0.0290 
  5 C        1.1940     2.5550    -0.5620 C.3   1 <1>   0.1200 
  6 C       -2.9030     0.2080     0.1360 C.2   1 <1>   0.7670 
  7 C       -3.0630     2.4340    -0.7050 C.2   1 <1>  -0.0500 
  8 C        1.6420     3.9320    -0.0830 C.3   1 <1>  -0.2400 
  9 O       -2.2720    -0.7610     0.5240 O.2   1 <1>  -0.5700 
 10 N       -4.2640     0.1720     0.3210 N.2   1 <1>  -0.6610 
 11 N       -4.3990     2.3480    -0.4660 N.pl3 1 <1>  -0.5500 
 12 C       -4.9690     1.2040     0.0310 C.2   1 <1>   0.4390 
 13 C       -6.5070     1.2210     0.2260 C.3   1 <1>   0.0610 
 14 C       -6.9060     2.3330     1.2150 C.3   1 <1>  -0.2400 
 15 C       -7.2130     1.4750    -1.1190 C.3   1 <1>  -0.2400 
 16 C       -7.0370    -0.1150     0.7870 C.3   1 <1>  -0.2400 
 17 H        1.3930     2.4260    -1.6130 H     1 <1>   0.0800 
 18 H        1.6820     1.7730    -0.0030 H     1 <1>   0.0800 
 19 H       -2.6630     3.3510    -1.1100 H     1 <1>   0.1500 
 20 H        1.1410     4.7020    -0.6420 H     1 <1>   0.0800 
 21 H        2.7020     4.0380    -0.2280 H     1 <1>   0.0800 
 22 H        1.4270     4.0480     0.9640 H     1 <1>   0.0800 
 23 H       -5.0290     3.1310    -0.6600 H     1 <1>   0.4000 
 24 H       -6.4120     2.1810     2.1590 H     1 <1>   0.0800 
 25 H       -7.9680     2.3260     1.3850 H     1 <1>   0.0800 
 26 H       -6.6340     3.3050     0.8440 H     1 <1>   0.0800 
 27 H       -6.9450     2.4320    -1.5280 H     1 <1>   0.0800 
 28 H       -8.2810     1.4510    -0.9970 H     1 <1>   0.0800 
 29 H       -6.9370     0.7140    -1.8280 H     1 <1>   0.0800 
 30 H       -8.1040    -0.0860     0.9170 H     1 <1>   0.0800 
 31 H       -6.7970    -0.9240     0.1190 H     1 <1>   0.0800 
 32 H       -6.5850    -0.3270     1.7410 H     1 <1>   0.0800 
@<TRIPOS>BOND
  1   1   2  2   
  2   2   3  1   
  3   2   4  1   
  4   3   5  1   
  5   4   6  1   
  6   4   7  2   
  7   5   8  1   
  8   5  17  1   
  9   5  18  1   
 10   6   9  2   
 11   6  10  1   
 12   7  11  1   
 13   7  19  1   
 14   8  20  1   
 15   8  21  1   
 16   8  22  1   
 17  10  12  2   
 18  11  12  1   
 19  11  23  1   
 20  12  13  1   
 21  13  14  1   
 22  13  15  1   
 23  13  16  1   
 24  14  24  1   
 25  14  25  1   
 26  14  26  1   
 27  15  27  1   
 28  15  28  1   
 29  15  29  1   
 30  16  30  1   
 31  16  31  1   
 32  16  32  1   
@<TRIPOS>SUBSTRUCTURE
  1 ****   4 GROUP 4 **** **** 0

# MOE 2024.06 (io_trps.svl 2023.06)
