@<TRIPOS>MOLECULE
NONAME
51 53 1 0 0 
SMALL
USER_CHARGES


@<TRIPOS>ATOM
  1 O       -0.2240    -1.5410     2.9320 O.2   1 <1>  -0.5700 
  2 C        0.4270    -1.0710     2.0310 C.2   1 <1>   0.5690 
  3 N       -0.0620    -0.8760     0.7670 N.am  1 <1>  -0.5470 
  4 C        1.8630    -0.6640     2.3180 C.3   1 <1>   0.0450 
  5 C       -1.3150    -1.1470     0.2030 C.ar  1 <1>   0.1170 
  6 C        2.4970     0.0940     1.1550 C.ar  1 <1>  -0.1430 
  7 C       -2.1830    -2.1040     0.7160 C.ar  1 <1>  -0.1500 
  8 C       -1.7080    -0.4410    -0.9270 C.ar  1 <1>  -0.1500 
  9 C        3.1710    -0.5940     0.1570 C.ar  1 <1>  -0.1500 
 10 C        2.3750     1.4720     1.0710 C.ar  1 <1>  -0.1500 
 11 C       -3.4120    -2.3380     0.1300 C.ar  1 <1>  -0.1500 
 12 C       -2.9380    -0.6690    -1.5180 C.ar  1 <1>  -0.1500 
 13 C        3.7150     0.0830    -0.9220 C.ar  1 <1>  -0.1430 
 14 C        2.9190     2.1530    -0.0030 C.ar  1 <1>  -0.1500 
 15 C       -3.8040    -1.6140    -0.9870 C.ar  1 <1>  -0.1430 
 16 C        3.5860     1.4600    -0.9970 C.ar  1 <1>  -0.1500 
 17 C        4.4520    -0.6730    -2.0120 C.3   1 <1>  -0.0970 
 18 C       -5.1650    -1.8490    -1.6130 C.3   1 <1>   0.4860 
 19 N       -6.2080    -1.2950    -0.7080 N.4   1 <1>  -0.9590 
 20 C       -7.5770    -1.6920    -1.1420 C.3   1 <1>   0.3430 
 21 C       -6.0700     0.1840    -0.5450 C.3   1 <1>   0.3430 
 22 C       -8.6020    -1.2260    -0.1070 C.3   1 <1>  -0.1600 
 23 C       -7.0710     0.6830     0.4980 C.3   1 <1>  -0.1600 
 24 C       -8.5100     0.2850     0.1450 C.3   1 <1>  -0.1600 
 25 H        0.6050    -0.4010     0.1510 H     1 <1>   0.3700 
 26 H        2.4310    -1.5500     2.5320 H     1 <1>   0.0800 
 27 H        1.8740    -0.0520     3.2010 H     1 <1>   0.0800 
 28 H       -1.8930    -2.6770     1.5800 H     1 <1>   0.1500 
 29 H       -1.0440     0.2950    -1.3440 H     1 <1>   0.1500 
 30 H        3.2750    -1.6640     0.2180 H     1 <1>   0.1500 
 31 H        1.8570     2.0230     1.8380 H     1 <1>   0.1500 
 32 H       -4.0500    -3.0920     0.5590 H     1 <1>   0.1500 
 33 H       -3.2050    -0.1000    -2.3930 H     1 <1>   0.1500 
 34 H        2.8240     3.2230    -0.0660 H     1 <1>   0.1500 
 35 H        4.0070     1.9980    -1.8290 H     1 <1>   0.1500 
 36 H        4.1050    -1.6900    -2.0700 H     1 <1>   0.0800 
 37 H        5.5060    -0.6780    -1.8020 H     1 <1>   0.0800 
 38 H        4.2900    -0.2060    -2.9670 H     1 <1>   0.0800 
 39 H       -5.3130    -2.9080    -1.7460 H     1 <1>   0.0800 
 40 H       -5.2150    -1.3720    -2.5780 H     1 <1>   0.0800 
 41 H       -6.0350    -1.7010     0.2200 H     1 <1>   0.4500 
 42 H       -7.6380    -2.7630    -1.2490 H     1 <1>   0.0800 
 43 H       -7.8020    -1.2410    -2.0960 H     1 <1>   0.0800 
 44 H       -6.2550     0.6750    -1.4860 H     1 <1>   0.0800 
 45 H       -5.0700     0.4310    -0.2230 H     1 <1>   0.0800 
 46 H       -8.4480    -1.7610     0.8140 H     1 <1>   0.0800 
 47 H       -9.5910    -1.4680    -0.4570 H     1 <1>   0.0800 
 48 H       -7.0040     1.7550     0.5630 H     1 <1>   0.0800 
 49 H       -6.8060     0.2870     1.4630 H     1 <1>   0.0800 
 50 H       -9.1740     0.5630     0.9470 H     1 <1>   0.0800 
 51 H       -8.8240     0.8170    -0.7380 H     1 <1>   0.0800 
@<TRIPOS>BOND
  1   1   2  2   
  2   2   3  am  
  3   2   4  1   
  4   3   5  1   
  5   3  25  1   
  6   4   6  1   
  7   4  26  1   
  8   4  27  1   
  9   5   7  ar  
 10   5   8  ar  
 11   6   9  ar  
 12   6  10  ar  
 13   7  11  ar  
 14   7  28  1   
 15   8  12  ar  
 16   8  29  1   
 17   9  13  ar  
 18   9  30  1   
 19  10  14  ar  
 20  10  31  1   
 21  11  15  ar  
 22  11  32  1   
 23  12  15  ar  
 24  12  33  1   
 25  13  16  ar  
 26  13  17  1   
 27  14  16  ar  
 28  14  34  1   
 29  15  18  1   
 30  16  35  1   
 31  17  36  1   
 32  17  37  1   
 33  17  38  1   
 34  18  19  1   
 35  18  39  1   
 36  18  40  1   
 37  19  20  1   
 38  19  21  1   
 39  19  41  1   
 40  20  22  1   
 41  20  42  1   
 42  20  43  1   
 43  21  23  1   
 44  21  44  1   
 45  21  45  1   
 46  22  24  1   
 47  22  46  1   
 48  22  47  1   
 49  23  24  1   
 50  23  48  1   
 51  23  49  1   
 52  24  50  1   
 53  24  51  1   
@<TRIPOS>SUBSTRUCTURE
  1 ****   5 GROUP 4 **** **** 0

# MOE 2024.06 (io_trps.svl 2023.06)
