@<TRIPOS>MOLECULE
NONAME
49 50 1 0 0 
SMALL
USER_CHARGES


@<TRIPOS>ATOM
  1 S       -0.2510     0.4640    -0.4830 S.3   1 <1>  -0.0800 
  2 C        0.3880    -1.1590    -0.3180 C.2   1 <1>   0.1040 
  3 C        1.3280     1.1810    -0.2470 C.2   1 <1>  -0.1400 
  4 N       -0.4630    -2.2530    -0.4080 N.am  1 <1>  -0.4940 
  5 C        1.7410    -1.1340    -0.0940 C.2   1 <1>  -0.0860 
  6 C        2.2590     0.2250    -0.0560 C.2   1 <1>  -0.1810 
  7 C        1.3450     2.6980    -0.3020 C.3   1 <1>  -0.0600 
  8 C       -1.7990    -2.3880    -0.6980 C.2   1 <1>   0.5690 
  9 C        2.4990    -2.3540     0.0760 C.2   1 <1>   0.8060 
 10 C        3.7310     0.5380     0.1850 C.3   1 <1>  -0.0590 
 11 O       -2.5100    -1.4660    -1.0190 O.2   1 <1>  -0.5700 
 12 C       -2.3940    -3.8060    -0.5970 C.3   1 <1>   0.1710 
 13 O        1.9680    -3.4530     0.1290 O.2   1 <1>  -0.5700 
 14 O        3.8340    -2.3080     0.1760 O.3   1 <1>  -0.4300 
 15 N       -3.8600    -3.8880    -0.3190 N.3   1 <1>  -0.8100 
 16 C        4.6200    -3.4730     0.3380 C.3   1 <1>   0.0400 
 17 C       -4.3970    -5.2640    -0.3760 C.3   1 <1>   0.1100 
 18 C       -4.2580    -3.2120     0.9420 C.3   1 <1>   0.1100 
 19 C       -5.9330    -5.2930    -0.1560 C.3   1 <1>   0.3430 
 20 C       -5.7950    -3.1890     1.1250 C.3   1 <1>   0.3430 
 21 N       -6.4860    -3.9070    -0.0020 N.4   1 <1>  -0.9590 
 22 C       -7.9670    -3.8640     0.0420 C.3   1 <1>   0.3430 
 23 C       -8.4490    -2.4390    -0.1980 C.3   1 <1>  -0.2400 
 24 H        0.0330    -3.1340    -0.2340 H     1 <1>   0.3700 
 25 H        0.7100     3.0940     0.4710 H     1 <1>   0.0800 
 26 H        0.9720     3.0280    -1.2550 H     1 <1>   0.0800 
 27 H        2.3340     3.0900    -0.1670 H     1 <1>   0.0800 
 28 H        3.9130     1.5950     0.2170 H     1 <1>   0.0800 
 29 H        4.3310     0.1230    -0.6050 H     1 <1>   0.0800 
 30 H        4.0480     0.1230     1.1250 H     1 <1>   0.0800 
 31 H       -1.8640    -4.3440     0.1680 H     1 <1>   0.0800 
 32 H       -2.1980    -4.2930    -1.5360 H     1 <1>   0.0800 
 33 H        5.6540    -3.1820     0.3940 H     1 <1>   0.0800 
 34 H        4.4650    -4.1200    -0.5090 H     1 <1>   0.0800 
 35 H        4.3270    -3.9710     1.2460 H     1 <1>   0.0800 
 36 H       -3.9190    -5.8770     0.3690 H     1 <1>   0.0800 
 37 H       -4.1770    -5.6910    -1.3400 H     1 <1>   0.0800 
 38 H       -3.9080    -2.1940     0.9410 H     1 <1>   0.0800 
 39 H       -3.8040    -3.7070     1.7840 H     1 <1>   0.0800 
 40 H       -6.1540    -5.8770     0.7210 H     1 <1>   0.0800 
 41 H       -6.3940    -5.7800    -1.0000 H     1 <1>   0.0800 
 42 H       -6.1170    -2.1620     1.1570 H     1 <1>   0.0800 
 43 H       -6.0490    -3.6440     2.0670 H     1 <1>   0.0800 
 44 H       -6.1430    -3.4100    -0.8410 H     1 <1>   0.4500 
 45 H       -8.3230    -4.2220     0.9960 H     1 <1>   0.0800 
 46 H       -8.3690    -4.5020    -0.7300 H     1 <1>   0.0800 
 47 H       -8.1600    -1.7850     0.6040 H     1 <1>   0.0800 
 48 H       -9.5230    -2.4350    -0.2520 H     1 <1>   0.0800 
 49 H       -8.0690    -2.0590    -1.1300 H     1 <1>   0.0800 
@<TRIPOS>BOND
  1   1   2  1   
  2   1   3  1   
  3   2   4  1   
  4   2   5  2   
  5   3   6  2   
  6   3   7  1   
  7   4   8  am  
  8   4  24  1   
  9   5   6  1   
 10   5   9  1   
 11   6  10  1   
 12   7  25  1   
 13   7  26  1   
 14   7  27  1   
 15   8  11  2   
 16   8  12  1   
 17   9  13  2   
 18   9  14  1   
 19  10  28  1   
 20  10  29  1   
 21  10  30  1   
 22  12  15  1   
 23  12  31  1   
 24  12  32  1   
 25  14  16  1   
 26  15  17  1   
 27  15  18  1   
 28  16  33  1   
 29  16  34  1   
 30  16  35  1   
 31  17  19  1   
 32  17  36  1   
 33  17  37  1   
 34  18  20  1   
 35  18  38  1   
 36  18  39  1   
 37  19  21  1   
 38  19  40  1   
 39  19  41  1   
 40  20  21  1   
 41  20  42  1   
 42  20  43  1   
 43  21  22  1   
 44  21  44  1   
 45  22  23  1   
 46  22  45  1   
 47  22  46  1   
 48  23  47  1   
 49  23  48  1   
 50  23  49  1   
@<TRIPOS>SUBSTRUCTURE
  1 ****   8 GROUP 4 **** **** 0

# MOE 2024.06 (io_trps.svl 2023.06)
