@<TRIPOS>MOLECULE
NONAME
59 62 1 0 0 
SMALL
USER_CHARGES


@<TRIPOS>ATOM
  1 S       -0.0880    -0.0830    -1.2460 S.3   1 <1>  -0.0800 
  2 C        0.8980     1.0380    -0.3150 C.2   1 <1>   0.1040 
  3 C       -1.4990     0.9300    -1.0500 C.2   1 <1>  -0.1400 
  4 N        2.2420     0.7750    -0.1020 N.am  1 <1>  -0.4940 
  5 C        0.1600     2.1160     0.1060 C.2   1 <1>  -0.0860 
  6 C       -1.2200     2.0140    -0.3200 C.2   1 <1>  -0.1810 
  7 C       -2.8310     0.5460    -1.6560 C.3   1 <1>   0.3000 
  8 C        3.0890    -0.2400    -0.4810 C.2   1 <1>   0.5690 
  9 C        0.7240     3.2000     0.8680 C.2   1 <1>   0.8060 
 10 C       -2.3600     2.9840    -0.0410 C.3   1 <1>   0.0210 
 11 O       -3.7270     1.6250    -1.5330 O.3   1 <1>  -0.5600 
 12 O        2.7410    -1.1720    -1.1660 O.2   1 <1>  -0.5700 
 13 C        4.5440    -0.1520     0.0310 C.3   1 <1>   0.2050 
 14 O        1.8390     3.1550     1.3590 O.2   1 <1>  -0.5700 
 15 O        0.0050     4.3150     1.0420 O.3   1 <1>  -0.4300 
 16 C       -3.7470     2.3420    -0.3250 C.3   1 <1>   0.2800 
 17 C        5.0450     1.3070    -0.1220 C.ar  1 <1>  -0.1430 
 18 C        5.5380    -1.0870    -0.6860 C.3   1 <1>  -0.1600 
 19 C        4.6190    -0.7030     1.4690 C.3   1 <1>  -0.1600 
 20 C        0.5100     5.4210     1.7550 C.3   1 <1>   0.1200 
 21 C       -4.8050     3.4300    -0.5140 C.3   1 <1>  -0.2400 
 22 C       -4.1920     1.4030     0.8080 C.3   1 <1>  -0.2400 
 23 C        4.9860     1.8890    -1.3850 C.ar  1 <1>  -0.1500 
 24 C        5.5380     2.0790     0.9270 C.ar  1 <1>  -0.1500 
 25 C        6.6920    -1.2800     0.3000 C.3   1 <1>  -0.1600 
 26 C        6.0670    -1.1620     1.6930 C.3   1 <1>  -0.1600 
 27 C       -0.5640     6.5040     1.7650 C.3   1 <1>  -0.2400 
 28 C        5.3980     3.1930    -1.5960 C.ar  1 <1>  -0.1500 
 29 C        5.9500     3.3840     0.7190 C.ar  1 <1>  -0.1500 
 30 C        5.8810     3.9440    -0.5420 C.ar  1 <1>  -0.1500 
 31 H        2.7230     1.5170     0.4240 H     1 <1>   0.3700 
 32 H       -3.2480    -0.3110    -1.1580 H     1 <1>   0.0800 
 33 H       -2.7220     0.3290    -2.7030 H     1 <1>   0.0800 
 34 H       -2.2280     3.8540    -0.6600 H     1 <1>   0.0800 
 35 H       -2.3360     3.3030     0.9840 H     1 <1>   0.0800 
 36 H        5.8750    -0.6970    -1.6290 H     1 <1>   0.0800 
 37 H        5.0770    -2.0440    -0.8600 H     1 <1>   0.0800 
 38 H        3.9850    -1.5720     1.5290 H     1 <1>   0.0800 
 39 H        4.2760    -0.0050     2.2110 H     1 <1>   0.0800 
 40 H        1.4040     5.7670     1.2610 H     1 <1>   0.0800 
 41 H        0.7490     5.1040     2.7570 H     1 <1>   0.0800 
 42 H       -4.5430     4.0640    -1.3410 H     1 <1>   0.0800 
 43 H       -4.8830     4.0360     0.3710 H     1 <1>   0.0800 
 44 H       -5.7640     2.9850    -0.7090 H     1 <1>   0.0800 
 45 H       -3.4390     0.6680     1.0260 H     1 <1>   0.0800 
 46 H       -5.1080     0.9060     0.5400 H     1 <1>   0.0800 
 47 H       -4.3650     1.9670     1.7060 H     1 <1>   0.0800 
 48 H        4.6110     1.3270    -2.2240 H     1 <1>   0.1500 
 49 H        5.6150     1.6910     1.9250 H     1 <1>   0.1500 
 50 H        7.4140    -0.4920     0.1630 H     1 <1>   0.0800 
 51 H        7.1790    -2.2290     0.1560 H     1 <1>   0.0800 
 52 H        6.0840    -2.1090     2.2040 H     1 <1>   0.0800 
 53 H        6.6130    -0.4430     2.2800 H     1 <1>   0.0800 
 54 H       -0.8000     6.8020     0.7590 H     1 <1>   0.0800 
 55 H       -0.2050     7.3650     2.3000 H     1 <1>   0.0800 
 56 H       -1.4510     6.1430     2.2530 H     1 <1>   0.0800 
 57 H        5.3410     3.6210    -2.5810 H     1 <1>   0.1500 
 58 H        6.3260     3.9650     1.5430 H     1 <1>   0.1500 
 59 H        6.2020     4.9580    -0.7030 H     1 <1>   0.1500 
@<TRIPOS>BOND
  1   1   2  1   
  2   1   3  1   
  3   2   4  1   
  4   2   5  2   
  5   3   6  2   
  6   3   7  1   
  7   4   8  am  
  8   4  31  1   
  9   5   6  1   
 10   5   9  1   
 11   6  10  1   
 12   7  11  1   
 13   7  32  1   
 14   7  33  1   
 15   8  12  2   
 16   8  13  1   
 17   9  14  2   
 18   9  15  1   
 19  10  16  1   
 20  10  34  1   
 21  10  35  1   
 22  11  16  1   
 23  13  17  1   
 24  13  18  1   
 25  13  19  1   
 26  15  20  1   
 27  16  21  1   
 28  16  22  1   
 29  17  23  ar  
 30  17  24  ar  
 31  18  25  1   
 32  18  36  1   
 33  18  37  1   
 34  19  26  1   
 35  19  38  1   
 36  19  39  1   
 37  20  27  1   
 38  20  40  1   
 39  20  41  1   
 40  21  42  1   
 41  21  43  1   
 42  21  44  1   
 43  22  45  1   
 44  22  46  1   
 45  22  47  1   
 46  23  28  ar  
 47  23  48  1   
 48  24  29  ar  
 49  24  49  1   
 50  25  26  1   
 51  25  50  1   
 52  25  51  1   
 53  26  52  1   
 54  26  53  1   
 55  27  54  1   
 56  27  55  1   
 57  27  56  1   
 58  28  30  ar  
 59  28  57  1   
 60  29  30  ar  
 61  29  58  1   
 62  30  59  1   
@<TRIPOS>SUBSTRUCTURE
  1 ****   2 GROUP 4 **** **** 0

# MOE 2024.06 (io_trps.svl 2023.06)
