@<TRIPOS>MOLECULE
NONAME
43 45 1 0 0 
SMALL
USER_CHARGES


@<TRIPOS>ATOM
  1 CL      -2.5940    -1.8330    -1.7740 Cl    1 <1>  -0.1770 
  2 C       -3.1970    -0.4700    -0.8560 C.ar  1 <1>   0.1770 
  3 C       -4.5610    -0.2500    -0.7000 C.ar  1 <1>  -0.1440 
  4 C       -2.2520     0.3670    -0.2920 C.ar  1 <1>  -0.1500 
  5 C       -4.9800     0.8450     0.0630 C.ar  1 <1>   0.1170 
  6 C       -5.5870    -1.1810    -1.3490 C.3   1 <1>  -0.0970 
  7 C       -2.6680     1.4520     0.4540 C.ar  1 <1>  -0.1500 
  8 N       -6.3490     1.0830     0.2810 N.am  1 <1>  -0.5470 
  9 C       -4.0190     1.6810     0.6280 C.ar  1 <1>  -0.1500 
 10 C       -7.0160     2.2620     0.4620 C.2   1 <1>   0.5690 
 11 O       -6.5000     3.3470     0.3690 O.2   1 <1>  -0.5700 
 12 C       -8.4960     2.2110     0.7710 C.3   1 <1>  -0.0990 
 13 C       -9.3090     1.9250    -0.4980 C.3   1 <1>   0.1400 
 14 N      -10.1230     0.6930    -0.3500 N.am  1 <1>  -0.4200 
 15 C       -9.6170    -0.5680    -0.2140 C.2   1 <1>   0.5690 
 16 C      -11.4890     0.6650    -0.3830 C.2   1 <1>   0.5690 
 17 O       -8.4620    -0.8490    -0.0190 O.2   1 <1>  -0.5700 
 18 C      -10.7350    -1.5710    -0.3760 C.3   1 <1>  -0.0190 
 19 O      -12.2160     1.5930    -0.6220 O.2   1 <1>  -0.5700 
 20 C      -11.9620    -0.7250    -0.0270 C.3   1 <1>  -0.0190 
 21 C      -10.7750    -2.8860     0.4080 C.3   1 <1>  -0.0220 
 22 C      -13.2120    -1.3490    -0.6550 C.3   1 <1>  -0.0220 
 23 C      -12.1620    -3.5020     0.2010 C.2   1 <1>  -0.2880 
 24 C      -13.2220    -2.8340    -0.2820 C.2   1 <1>  -0.2880 
 25 H       -1.2060     0.1670    -0.4370 H     1 <1>   0.1500 
 26 H       -5.1600    -1.7630    -2.1430 H     1 <1>   0.0800 
 27 H       -6.3920    -0.6130    -1.7760 H     1 <1>   0.0800 
 28 H       -5.9850    -1.8540    -0.6110 H     1 <1>   0.0800 
 29 H       -1.9460     2.1160     0.8990 H     1 <1>   0.1500 
 30 H       -6.9430     0.2430     0.2410 H     1 <1>   0.3700 
 31 H       -4.3300     2.5250     1.2180 H     1 <1>   0.1500 
 32 H       -8.7890     3.1680     1.1630 H     1 <1>   0.0800 
 33 H       -8.6720     1.4770     1.5360 H     1 <1>   0.0800 
 34 H       -8.6560     1.8080    -1.3470 H     1 <1>   0.0800 
 35 H       -9.9580     2.7610    -0.7010 H     1 <1>   0.0800 
 36 H      -10.7650    -1.8140    -1.4240 H     1 <1>   0.0800 
 37 H      -12.0980    -0.7270     1.0410 H     1 <1>   0.0800 
 38 H      -10.5990    -2.7180     1.4560 H     1 <1>   0.0800 
 39 H      -10.0140    -3.5480     0.0340 H     1 <1>   0.0800 
 40 H      -13.2050    -1.2350    -1.7250 H     1 <1>   0.0800 
 41 H      -14.0880    -0.8600    -0.2650 H     1 <1>   0.0800 
 42 H      -12.2080    -4.5420     0.4810 H     1 <1>   0.1500 
 43 H      -14.1810    -3.3020    -0.4430 H     1 <1>   0.1500 
@<TRIPOS>BOND
  1   1   2  1   
  2   2   3  ar  
  3   2   4  ar  
  4   3   5  ar  
  5   3   6  1   
  6   4   7  ar  
  7   4  25  1   
  8   5   8  1   
  9   5   9  ar  
 10   6  26  1   
 11   6  27  1   
 12   6  28  1   
 13   7   9  ar  
 14   7  29  1   
 15   8  10  am  
 16   8  30  1   
 17   9  31  1   
 18  10  11  2   
 19  10  12  1   
 20  12  13  1   
 21  12  32  1   
 22  12  33  1   
 23  13  14  1   
 24  13  34  1   
 25  13  35  1   
 26  14  15  am  
 27  14  16  am  
 28  15  17  2   
 29  15  18  1   
 30  16  19  2   
 31  16  20  1   
 32  18  20  1   
 33  18  21  1   
 34  18  36  1   
 35  20  22  1   
 36  20  37  1   
 37  21  23  1   
 38  21  38  1   
 39  21  39  1   
 40  22  24  1   
 41  22  40  1   
 42  22  41  1   
 43  23  24  2   
 44  23  42  1   
 45  24  43  1   
@<TRIPOS>SUBSTRUCTURE
  1 ****  17 GROUP 4 **** **** 0

# MOE 2024.06 (io_trps.svl 2023.06)
