@<TRIPOS>MOLECULE
NONAME
44 44 1 0 0 
SMALL
USER_CHARGES


@<TRIPOS>ATOM
  1 O       -6.1130    -2.0380     0.4070 O.3   1 <1>  -0.3620 
  2 C       -7.4590    -1.9690     0.2540 C.ar  1 <1>   0.0830 
  3 C       -5.4580    -3.2770     0.5730 C.3   1 <1>   0.1200 
  4 C       -8.0090    -0.7050     0.1260 C.ar  1 <1>  -0.1500 
  5 C       -8.2940    -3.0810     0.2210 C.ar  1 <1>  -0.1500 
  6 C       -3.9540    -3.0110     0.7110 C.3   1 <1>   0.2000 
  7 C       -9.3740    -0.5310    -0.0350 C.ar  1 <1>  -0.1430 
  8 C       -9.6570    -2.9120     0.0600 C.ar  1 <1>  -0.1500 
  9 O       -3.5370    -2.1980    -0.3460 O.3   1 <1>  -0.6800 
 10 C       -3.1170    -4.3050     0.6950 C.3   1 <1>   0.3430 
 11 C      -10.2060    -1.6450    -0.0690 C.ar  1 <1>  -0.1440 
 12 C       -9.9280     0.8800    -0.1720 C.3   1 <1>  -0.0970 
 13 N       -1.7230    -3.9930     0.2550 N.4   1 <1>  -0.9060 
 14 C      -11.7120    -1.5070    -0.2440 C.3   1 <1>  -0.0970 
 15 C       -0.9110    -5.0650    -0.3120 C.3   1 <1>   0.5030 
 16 C       -1.5650    -5.5810    -1.5930 C.3   1 <1>  -0.2400 
 17 C        0.4480    -4.4520    -0.6330 C.3   1 <1>  -0.2400 
 18 C       -0.7530    -6.1840     0.7160 C.3   1 <1>  -0.2400 
 19 H       -5.6620    -3.8860    -0.2910 H     1 <1>   0.0800 
 20 H       -5.8470    -3.7500     1.4590 H     1 <1>   0.0800 
 21 H       -7.3540     0.1460     0.1540 H     1 <1>   0.1500 
 22 H       -7.9140    -4.0790     0.3160 H     1 <1>   0.1500 
 23 H       -3.7760    -2.4740     1.6270 H     1 <1>   0.0800 
 24 H      -10.2930    -3.7790     0.0360 H     1 <1>   0.1500 
 25 H       -4.2210    -1.4990    -0.4840 H     1 <1>   0.4000 
 26 H       -3.5720    -4.9880    -0.0010 H     1 <1>   0.0800 
 27 H       -3.1190    -4.7680     1.6680 H     1 <1>   0.0800 
 28 H       -9.1420     1.6120    -0.1200 H     1 <1>   0.0800 
 29 H      -10.6260     1.0800     0.6210 H     1 <1>   0.0800 
 30 H      -10.4280     0.9900    -1.1170 H     1 <1>   0.0800 
 31 H       -1.2030    -3.5390     1.0090 H     1 <1>   0.4500 
 32 H       -1.8500    -3.2570    -0.4620 H     1 <1>   0.4500 
 33 H      -11.9300    -1.0180    -1.1760 H     1 <1>   0.0800 
 34 H      -12.1250    -0.9280     0.5620 H     1 <1>   0.0800 
 35 H      -12.1910    -2.4690    -0.2480 H     1 <1>   0.0800 
 36 H       -1.7360    -4.7780    -2.2880 H     1 <1>   0.0800 
 37 H       -2.4940    -6.0820    -1.3930 H     1 <1>   0.0800 
 38 H       -0.9150    -6.2940    -2.0700 H     1 <1>   0.0800 
 39 H        0.3530    -3.6540    -1.3470 H     1 <1>   0.0800 
 40 H        1.0940    -5.1980    -1.0610 H     1 <1>   0.0800 
 41 H        0.9260    -4.0780     0.2550 H     1 <1>   0.0800 
 42 H       -1.6920    -6.6620     0.9290 H     1 <1>   0.0800 
 43 H       -0.3270    -5.8110     1.6310 H     1 <1>   0.0800 
 44 H       -0.0900    -6.9390     0.3300 H     1 <1>   0.0800 
@<TRIPOS>BOND
  1   1   2  1   
  2   1   3  1   
  3   2   4  ar  
  4   2   5  ar  
  5   3   6  1   
  6   3  19  1   
  7   3  20  1   
  8   4   7  ar  
  9   4  21  1   
 10   5   8  ar  
 11   5  22  1   
 12   6   9  1   
 13   6  10  1   
 14   6  23  1   
 15   7  11  ar  
 16   7  12  1   
 17   8  11  ar  
 18   8  24  1   
 19   9  25  1   
 20  10  13  1   
 21  10  26  1   
 22  10  27  1   
 23  11  14  1   
 24  12  28  1   
 25  12  29  1   
 26  12  30  1   
 27  13  15  1   
 28  13  31  1   
 29  13  32  1   
 30  14  33  1   
 31  14  34  1   
 32  14  35  1   
 33  15  16  1   
 34  15  17  1   
 35  15  18  1   
 36  16  36  1   
 37  16  37  1   
 38  16  38  1   
 39  17  39  1   
 40  17  40  1   
 41  17  41  1   
 42  18  42  1   
 43  18  43  1   
 44  18  44  1   
@<TRIPOS>SUBSTRUCTURE
  1 ****   3 GROUP 4 **** **** 0

# MOE 2024.06 (io_trps.svl 2023.06)
