@<TRIPOS>MOLECULE
NONAME
41 43 1 0 0 
SMALL
USER_CHARGES


@<TRIPOS>ATOM
  1 O        0.7100     0.8870     3.3410 O.2   1 <1>  -0.5700 
  2 C        0.7790     1.6940     2.4430 C.2   1 <1>   0.5690 
  3 N        1.7630     1.6160     1.4830 N.am  1 <1>  -0.6600 
  4 C       -0.2690     2.8030     2.4340 C.3   1 <1>   0.0440 
  5 C        2.7160     0.4760     1.4620 C.3   1 <1>   0.1400 
  6 C        1.8810     2.5310     0.3170 C.3   1 <1>   0.1400 
  7 C       -1.1520     2.8120     1.1880 C.ar  1 <1>  -0.1440 
  8 C        4.1140     0.9850     1.1120 C.3   1 <1>  -0.1600 
  9 C        3.3540     2.8550     0.0560 C.3   1 <1>  -0.1600 
 10 C       -1.6840     1.6320     0.6930 C.ar  1 <1>  -0.1500 
 11 C       -1.4300     4.0030     0.5340 C.ar  1 <1>  -0.1500 
 12 C        4.1380     1.5490    -0.3630 C.3   1 <1>   0.5600 
 13 C       -2.4720     1.6400    -0.4440 C.ar  1 <1>  -0.1500 
 14 C       -2.2190     4.0110    -0.6030 C.ar  1 <1>  -0.1500 
 15 O        4.7520     0.3540    -0.7810 O.3   1 <1>  -0.5600 
 16 O        4.2360     2.0510    -1.6740 O.3   1 <1>  -0.5600 
 17 C       -2.7420     2.8290    -1.1000 C.ar  1 <1>  -0.1440 
 18 C        5.8990     0.6160    -1.4970 C.3   1 <1>   0.1200 
 19 C        5.5130     1.8920    -2.1640 C.3   1 <1>   0.1200 
 20 C       -3.6070     2.8330    -2.3470 C.3   1 <1>  -0.0970 
 21 H        0.2380     3.7420     2.5440 H     1 <1>   0.0800 
 22 H       -0.9020     2.6800     3.2930 H     1 <1>   0.0800 
 23 H        2.3930    -0.2450     0.7300 H     1 <1>   0.0800 
 24 H        2.7430    -0.0090     2.4240 H     1 <1>   0.0800 
 25 H        1.3530     3.4490     0.4970 H     1 <1>   0.0800 
 26 H        1.4500     2.0580    -0.5500 H     1 <1>   0.0800 
 27 H        4.7870     0.1620     1.3010 H     1 <1>   0.0800 
 28 H        4.4220     1.6930     1.8590 H     1 <1>   0.0800 
 29 H        3.7650     3.3540     0.9140 H     1 <1>   0.0800 
 30 H        3.3410     3.6480    -0.6780 H     1 <1>   0.0800 
 31 H       -1.4850     0.6970     1.1910 H     1 <1>   0.1500 
 32 H       -1.0360     4.9330     0.9050 H     1 <1>   0.1500 
 33 H       -2.8750     0.7140    -0.8140 H     1 <1>   0.1500 
 34 H       -2.4250     4.9430    -1.0990 H     1 <1>   0.1500 
 35 H        6.0760    -0.1840    -2.1940 H     1 <1>   0.0800 
 36 H        6.7280     0.7400    -0.8220 H     1 <1>   0.0800 
 37 H        6.1260     2.7190    -1.8520 H     1 <1>   0.0800 
 38 H        5.4770     1.8110    -3.2360 H     1 <1>   0.0800 
 39 H       -3.4220     1.9490    -2.9310 H     1 <1>   0.0800 
 40 H       -3.3900     3.6920    -2.9560 H     1 <1>   0.0800 
 41 H       -4.6450     2.8560    -2.0690 H     1 <1>   0.0800 
@<TRIPOS>BOND
  1   1   2  2   
  2   2   3  am  
  3   2   4  1   
  4   3   5  1   
  5   3   6  1   
  6   4   7  1   
  7   4  21  1   
  8   4  22  1   
  9   5   8  1   
 10   5  23  1   
 11   5  24  1   
 12   6   9  1   
 13   6  25  1   
 14   6  26  1   
 15   7  10  ar  
 16   7  11  ar  
 17   8  12  1   
 18   8  27  1   
 19   8  28  1   
 20   9  12  1   
 21   9  29  1   
 22   9  30  1   
 23  10  13  ar  
 24  10  31  1   
 25  11  14  ar  
 26  11  32  1   
 27  12  15  1   
 28  12  16  1   
 29  13  17  ar  
 30  13  33  1   
 31  14  17  ar  
 32  14  34  1   
 33  15  18  1   
 34  16  19  1   
 35  17  20  1   
 36  18  19  1   
 37  18  35  1   
 38  18  36  1   
 39  19  37  1   
 40  19  38  1   
 41  20  39  1   
 42  20  40  1   
 43  20  41  1   
@<TRIPOS>SUBSTRUCTURE
  1 ****   6 GROUP 4 **** **** 0

# MOE 2024.06 (io_trps.svl 2023.06)
