@<TRIPOS>MOLECULE
NONAME
50 52 1 0 0 
SMALL
USER_CHARGES


@<TRIPOS>ATOM
  1 CL      -1.0910     1.0950    -0.5990 Cl    1 <1>  -0.1770 
  2 C       -2.6260     1.7960    -0.1550 C.ar  1 <1>   0.1770 
  3 C       -3.7760     1.0420    -0.2700 C.ar  1 <1>  -0.1500 
  4 C       -2.6620     3.0960     0.3060 C.ar  1 <1>  -0.1500 
  5 C       -5.0050     1.5910     0.0810 C.ar  1 <1>   0.1170 
  6 C       -3.8800     3.6500     0.6590 C.ar  1 <1>  -0.1500 
  7 N       -6.1980     0.8620    -0.0150 N.am  1 <1>  -0.5470 
  8 C       -5.0480     2.9090     0.5510 C.ar  1 <1>  -0.1430 
  9 C       -6.5520    -0.3220    -0.5960 C.2   1 <1>   0.5690 
 10 C       -6.3700     3.5570     0.9480 C.3   1 <1>  -0.0960 
 11 O       -5.7960    -1.0530    -1.1870 O.2   1 <1>  -0.5700 
 12 C       -8.0290    -0.7030    -0.4700 C.3   1 <1>   0.1710 
 13 N       -8.9110     0.4690    -0.1840 N.3   1 <1>  -0.8100 
 14 C      -10.2180     0.0430     0.3670 C.3   1 <1>   0.1100 
 15 C       -9.1410     1.2760    -1.4120 C.3   1 <1>   0.1100 
 16 C      -11.1300     1.2460     0.6770 C.3   1 <1>   0.2090 
 17 C      -10.0350     2.5010    -1.1410 C.3   1 <1>   0.2090 
 18 N      -11.3340     2.0920    -0.5350 N.pl3 1 <1>  -0.8380 
 19 C      -12.2770     3.1200    -0.3940 C.ar  1 <1>   0.1000 
 20 C      -12.1230     4.2340     0.4540 C.ar  1 <1>   0.0830 
 21 C      -13.4340     3.0160    -1.1520 C.ar  1 <1>  -0.1500 
 22 O      -10.9800     4.3340     1.2050 O.3   1 <1>  -0.3620 
 23 C      -13.1260     5.1980     0.5100 C.ar  1 <1>  -0.1500 
 24 C      -14.4260     3.9770    -1.0890 C.ar  1 <1>  -0.1500 
 25 C      -10.8230     5.3470     2.1730 C.3   1 <1>   0.0400 
 26 C      -14.2720     5.0690    -0.2570 C.ar  1 <1>  -0.1500 
 27 H       -3.7020     0.0340    -0.6300 H     1 <1>   0.1500 
 28 H       -1.7510     3.6610     0.3860 H     1 <1>   0.1500 
 29 H       -3.9080     4.6640     1.0190 H     1 <1>   0.1500 
 30 H       -7.0300     1.3280     0.3630 H     1 <1>   0.3700 
 31 H       -6.8300     3.0040     1.7480 H     1 <1>   0.0800 
 32 H       -7.0390     3.5780     0.1060 H     1 <1>   0.0800 
 33 H       -6.2210     4.5680     1.2820 H     1 <1>   0.0800 
 34 H       -8.1020    -1.4090     0.3370 H     1 <1>   0.0800 
 35 H       -8.3450    -1.1960    -1.3720 H     1 <1>   0.0800 
 36 H      -10.0600    -0.5110     1.2750 H     1 <1>   0.0800 
 37 H      -10.7220    -0.5990    -0.3360 H     1 <1>   0.0800 
 38 H       -9.6160     0.6690    -2.1640 H     1 <1>   0.0800 
 39 H       -8.2010     1.6180    -1.8070 H     1 <1>   0.0800 
 40 H      -10.6850     1.8320     1.4610 H     1 <1>   0.0800 
 41 H      -12.0860     0.8930     1.0240 H     1 <1>   0.0800 
 42 H      -10.2260     3.0180    -2.0650 H     1 <1>   0.0800 
 43 H       -9.5200     3.1740    -0.4810 H     1 <1>   0.0800 
 44 H      -13.5470     2.1650    -1.7970 H     1 <1>   0.1500 
 45 H      -13.0410     6.0600     1.1420 H     1 <1>   0.1500 
 46 H      -15.3150     3.8730    -1.6870 H     1 <1>   0.1500 
 47 H       -9.8850     5.1880     2.6730 H     1 <1>   0.0800 
 48 H      -11.6300     5.2820     2.8810 H     1 <1>   0.0800 
 49 H      -10.8170     6.3030     1.6800 H     1 <1>   0.0800 
 50 H      -15.0420     5.8190    -0.2060 H     1 <1>   0.1500 
@<TRIPOS>BOND
  1   1   2  1   
  2   2   3  ar  
  3   2   4  ar  
  4   3   5  ar  
  5   3  27  1   
  6   4   6  ar  
  7   4  28  1   
  8   5   7  1   
  9   5   8  ar  
 10   6   8  ar  
 11   6  29  1   
 12   7   9  am  
 13   7  30  1   
 14   8  10  1   
 15   9  11  2   
 16   9  12  1   
 17  10  31  1   
 18  10  32  1   
 19  10  33  1   
 20  12  13  1   
 21  12  34  1   
 22  12  35  1   
 23  13  14  1   
 24  13  15  1   
 25  14  16  1   
 26  14  36  1   
 27  14  37  1   
 28  15  17  1   
 29  15  38  1   
 30  15  39  1   
 31  16  18  1   
 32  16  40  1   
 33  16  41  1   
 34  17  18  1   
 35  17  42  1   
 36  17  43  1   
 37  18  19  1   
 38  19  20  ar  
 39  19  21  ar  
 40  20  22  1   
 41  20  23  ar  
 42  21  24  ar  
 43  21  44  1   
 44  22  25  1   
 45  23  26  ar  
 46  23  45  1   
 47  24  26  ar  
 48  24  46  1   
 49  25  47  1   
 50  25  48  1   
 51  25  49  1   
 52  26  50  1   
@<TRIPOS>SUBSTRUCTURE
  1 ****  15 GROUP 4 **** **** 0

# MOE 2024.06 (io_trps.svl 2023.06)
