@<TRIPOS>MOLECULE
NONAME
42 45 1 0 0 
SMALL
USER_CHARGES


@<TRIPOS>ATOM
  1 N       -0.2990    -0.4380     0.2410 N.4   1 <1>  -0.9590 
  2 C       -1.1510    -1.2310    -0.6800 C.3   1 <1>   0.6030 
  3 C       -0.5320     1.0360     0.0010 C.3   1 <1>   0.3430 
  4 C        1.1400    -0.8090     0.1700 C.3   1 <1>   0.3430 
  5 C       -2.5640    -0.8260    -0.3700 C.2   1 <1>  -0.3320 
  6 C       -1.0240    -2.7540    -0.4680 C.3   1 <1>  -0.1600 
  7 C       -1.9700     1.4930     0.3120 C.3   1 <1>   0.0960 
  8 C        1.8800    -0.2460     1.3780 C.3   1 <1>  -0.2400 
  9 N       -2.9340     0.4470    -0.0580 N.pl3 1 <1>   0.0480 
 10 C       -3.6340    -1.6460    -0.3260 C.2   1 <1>  -0.1810 
 11 C       -2.1860    -3.5290    -1.1380 C.3   1 <1>  -0.1600 
 12 C       -4.2840     0.4350     0.1950 C.ar  1 <1>  -0.1520 
 13 C       -4.7540    -0.8660     0.0280 C.ar  1 <1>   0.0000 
 14 C       -3.5700    -3.1400    -0.5760 C.3   1 <1>   0.0210 
 15 C       -5.1560     1.4600     0.5720 C.ar  1 <1>  -0.1500 
 16 C       -6.1080    -1.1480     0.2320 C.ar  1 <1>  -0.1500 
 17 C       -6.4850     1.1660     0.7710 C.ar  1 <1>  -0.1500 
 18 C       -6.9680    -0.1390     0.6020 C.ar  1 <1>  -0.1430 
 19 C       -8.4430    -0.4120     0.8310 C.3   1 <1>  -0.0970 
 20 H       -0.6640    -0.6760     1.1720 H     1 <1>   0.4500 
 21 H       -0.9270    -0.9840    -1.7060 H     1 <1>   0.0800 
 22 H       -0.3200     1.2610    -1.0320 H     1 <1>   0.0800 
 23 H        0.1440     1.6220     0.6000 H     1 <1>   0.0800 
 24 H        1.5790    -0.4380    -0.7430 H     1 <1>   0.0800 
 25 H        1.2450    -1.8820     0.1820 H     1 <1>   0.0800 
 26 H       -1.0370    -2.9740     0.5850 H     1 <1>   0.0800 
 27 H       -0.0990    -3.1050    -0.8880 H     1 <1>   0.0800 
 28 H       -2.2010     2.3950    -0.2240 H     1 <1>   0.0800 
 29 H       -2.0720     1.6870     1.3650 H     1 <1>   0.0800 
 30 H        1.9120     0.8280     1.3610 H     1 <1>   0.0800 
 31 H        2.8960    -0.5990     1.3610 H     1 <1>   0.0800 
 32 H        1.4290    -0.5830     2.2950 H     1 <1>   0.0800 
 33 H       -2.0420    -4.5890    -1.0140 H     1 <1>   0.0800 
 34 H       -2.1790    -3.3240    -2.1960 H     1 <1>   0.0800 
 35 H       -4.3430    -3.4300    -1.2660 H     1 <1>   0.0800 
 36 H       -3.7430    -3.6490     0.3560 H     1 <1>   0.0800 
 37 H       -4.7950     2.4630     0.7020 H     1 <1>   0.1500 
 38 H       -6.4520    -2.1560     0.0970 H     1 <1>   0.1500 
 39 H       -7.1700     1.9430     1.0600 H     1 <1>   0.1500 
 40 H       -8.6720    -1.4490     0.6660 H     1 <1>   0.0800 
 41 H       -9.0340     0.1810     0.1570 H     1 <1>   0.0800 
 42 H       -8.7080    -0.1600     1.8420 H     1 <1>   0.0800 
@<TRIPOS>BOND
  1   1   2  1   
  2   1   3  1   
  3   1   4  1   
  4   1  20  1   
  5   2   5  1   
  6   2   6  1   
  7   2  21  1   
  8   3   7  1   
  9   3  22  1   
 10   3  23  1   
 11   4   8  1   
 12   4  24  1   
 13   4  25  1   
 14   5   9  1   
 15   5  10  2   
 16   6  11  1   
 17   6  26  1   
 18   6  27  1   
 19   7   9  1   
 20   7  28  1   
 21   7  29  1   
 22   8  30  1   
 23   8  31  1   
 24   8  32  1   
 25   9  12  1   
 26  10  13  1   
 27  10  14  1   
 28  11  14  1   
 29  11  33  1   
 30  11  34  1   
 31  12  13  ar  
 32  12  15  ar  
 33  13  16  ar  
 34  14  35  1   
 35  14  36  1   
 36  15  17  ar  
 37  15  37  1   
 38  16  18  ar  
 39  16  38  1   
 40  17  18  ar  
 41  17  39  1   
 42  18  19  1   
 43  19  40  1   
 44  19  41  1   
 45  19  42  1   
@<TRIPOS>SUBSTRUCTURE
  1 ****   5 GROUP 4 **** **** 0

# MOE 2024.06 (io_trps.svl 2023.06)
