@<TRIPOS>MOLECULE
NONAME
43 44 1 0 0 
SMALL
USER_CHARGES


@<TRIPOS>ATOM
  1 S       -0.0320    -0.2980    -1.3040 S.o2  1 <1>   1.4470 
  2 O        0.4110    -0.7790    -2.5970 O.2   1 <1>  -0.6500 
  3 O       -0.1530     1.1270    -1.0890 O.2   1 <1>  -0.6500 
  4 N        1.0700    -0.9000    -0.1620 N.am  1 <1>  -0.8490 
  5 C       -1.5940    -1.0990    -0.8440 C.ar  1 <1>  -0.0090 
  6 C        1.3460    -2.3250    -0.3870 C.3   1 <1>   0.1960 
  7 C        2.2820    -0.0760    -0.1300 C.3   1 <1>   0.1960 
  8 C       -2.0080    -1.1500     0.4810 C.ar  1 <1>  -0.1500 
  9 C       -2.4180    -1.6770    -1.8030 C.ar  1 <1>  -0.1500 
 10 C        1.7510    -3.0040     0.9240 C.3   1 <1>  -0.1600 
 11 C        3.2330    -0.4240     1.0230 C.3   1 <1>  -0.1600 
 12 C       -3.1940    -1.7620     0.8530 C.ar  1 <1>  -0.1430 
 13 C       -3.6070    -2.2910    -1.4520 C.ar  1 <1>  -0.1500 
 14 C        3.2590    -2.9920     1.2250 C.3   1 <1>  -0.1600 
 15 C        4.0150    -1.7260     0.8000 C.3   1 <1>  -0.1600 
 16 C       -4.0040    -2.3400    -0.1190 C.ar  1 <1>   0.0830 
 17 C       -3.6010    -1.7940     2.3190 C.3   1 <1>  -0.0970 
 18 O       -5.1570    -2.9310     0.2880 O.3   1 <1>  -0.3630 
 19 C       -6.0560    -3.5180    -0.6220 C.3   1 <1>   0.1200 
 20 C       -7.2390    -4.0670     0.1710 C.3   1 <1>  -0.2400 
 21 H        2.0930    -2.4600    -1.1530 H     1 <1>   0.0800 
 22 H        0.4470    -2.8110    -0.7280 H     1 <1>   0.0800 
 23 H        1.9960     0.9550     0.0020 H     1 <1>   0.0800 
 24 H        2.7990    -0.1460    -1.0740 H     1 <1>   0.0800 
 25 H       -1.3800    -0.6990     1.2310 H     1 <1>   0.1500 
 26 H       -2.1220    -1.6450    -2.8380 H     1 <1>   0.1500 
 27 H        1.4340    -4.0310     0.8860 H     1 <1>   0.0800 
 28 H        1.2120    -2.5420     1.7340 H     1 <1>   0.0800 
 29 H        2.6960    -0.4450     1.9550 H     1 <1>   0.0800 
 30 H        3.9490     0.3760     1.0900 H     1 <1>   0.0800 
 31 H       -4.2070    -2.7240    -2.2290 H     1 <1>   0.1500 
 32 H        3.7200    -3.8340     0.7370 H     1 <1>   0.0800 
 33 H        3.3860    -3.1350     2.2840 H     1 <1>   0.0800 
 34 H        4.9310    -1.6830     1.3650 H     1 <1>   0.0800 
 35 H        4.2920    -1.8010    -0.2380 H     1 <1>   0.0800 
 36 H       -2.8680    -1.3120     2.9390 H     1 <1>   0.0800 
 37 H       -3.7100    -2.8130     2.6440 H     1 <1>   0.0800 
 38 H       -4.5430    -1.2910     2.4450 H     1 <1>   0.0800 
 39 H       -5.5460    -4.3100    -1.1420 H     1 <1>   0.0800 
 40 H       -6.3820    -2.7610    -1.3150 H     1 <1>   0.0800 
 41 H       -6.9010    -4.8090     0.8720 H     1 <1>   0.0800 
 42 H       -7.9460    -4.5240    -0.4980 H     1 <1>   0.0800 
 43 H       -7.7310    -3.2710     0.7000 H     1 <1>   0.0800 
@<TRIPOS>BOND
  1   1   2  2   
  2   1   3  2   
  3   1   4  am  
  4   1   5  1   
  5   4   6  1   
  6   4   7  1   
  7   5   8  ar  
  8   5   9  ar  
  9   6  10  1   
 10   6  21  1   
 11   6  22  1   
 12   7  11  1   
 13   7  23  1   
 14   7  24  1   
 15   8  12  ar  
 16   8  25  1   
 17   9  13  ar  
 18   9  26  1   
 19  10  14  1   
 20  10  27  1   
 21  10  28  1   
 22  11  15  1   
 23  11  29  1   
 24  11  30  1   
 25  12  16  ar  
 26  12  17  1   
 27  13  16  ar  
 28  13  31  1   
 29  14  15  1   
 30  14  32  1   
 31  14  33  1   
 32  15  34  1   
 33  15  35  1   
 34  16  18  1   
 35  17  36  1   
 36  17  37  1   
 37  17  38  1   
 38  18  19  1   
 39  19  20  1   
 40  19  39  1   
 41  19  40  1   
 42  20  41  1   
 43  20  42  1   
 44  20  43  1   
@<TRIPOS>SUBSTRUCTURE
  1 ****   5 GROUP 4 **** **** 0

# MOE 2024.06 (io_trps.svl 2023.06)
