@<TRIPOS>MOLECULE
NONAME
45 45 1 0 0 
SMALL
USER_CHARGES


@<TRIPOS>ATOM
  1 F       -2.1650     1.2610     2.6550 F     1 <1>  -0.1900 
  2 C       -2.5370     1.4600     1.4210 C.ar  1 <1>   0.1900 
  3 C       -3.6490     0.7860     0.9510 C.ar  1 <1>  -0.1500 
  4 C       -1.8130     2.3330     0.6350 C.ar  1 <1>  -0.1500 
  5 C       -4.0610     1.0000    -0.3580 C.ar  1 <1>  -0.1440 
  6 C       -2.2190     2.5340    -0.6730 C.ar  1 <1>  -0.1500 
  7 C       -3.3340     1.8700    -1.1650 C.ar  1 <1>  -0.1500 
  8 C       -5.2880     0.2930    -0.9020 C.3   1 <1>   0.4870 
  9 N       -6.5050     0.8990    -0.2710 N.4   1 <1>  -0.9590 
 10 C       -7.7110     0.0130    -0.4770 C.3   1 <1>   0.3430 
 11 C       -6.6790     2.3030    -0.7550 C.3   1 <1>   0.3430 
 12 C       -8.9950     0.4540     0.2880 C.3   1 <1>   0.3430 
 13 C       -6.9570     3.2020     0.4420 C.3   1 <1>  -0.2400 
 14 N      -10.2010    -0.4310     0.0640 N.4   1 <1>  -0.9590 
 15 C      -11.4420     0.2080     0.6060 C.3   1 <1>   0.3430 
 16 C      -10.0410    -1.7920     0.6610 C.3   1 <1>   0.3430 
 17 C      -11.8770     1.3460    -0.3090 C.3   1 <1>  -0.2400 
 18 C      -10.9610    -2.7690    -0.0600 C.3   1 <1>  -0.2400 
 19 H       -4.1550     0.1110     1.6170 H     1 <1>   0.1500 
 20 H       -0.9510     2.8370     1.0370 H     1 <1>   0.1500 
 21 H       -1.6630     3.2050    -1.3070 H     1 <1>   0.1500 
 22 H       -3.6170     2.0440    -2.1910 H     1 <1>   0.1500 
 23 H       -5.2190    -0.7550    -0.6580 H     1 <1>   0.0800 
 24 H       -5.3270     0.3910    -1.9750 H     1 <1>   0.0800 
 25 H       -6.2540     0.9710     0.7270 H     1 <1>   0.4500 
 26 H       -7.4590    -0.9860    -0.1600 H     1 <1>   0.0800 
 27 H       -7.9370    -0.0210    -1.5300 H     1 <1>   0.0800 
 28 H       -7.4810     2.3670    -1.4730 H     1 <1>   0.0800 
 29 H       -5.7770     2.6510    -1.2350 H     1 <1>   0.0800 
 30 H       -9.2390     1.4540    -0.0300 H     1 <1>   0.0800 
 31 H       -8.7790     0.4870     1.3440 H     1 <1>   0.0800 
 32 H       -7.8610     2.9350     0.9550 H     1 <1>   0.0800 
 33 H       -7.0630     4.2170     0.0990 H     1 <1>   0.0800 
 34 H       -6.1280     3.1830     1.1300 H     1 <1>   0.0800 
 35 H      -10.3780    -0.5600    -0.9440 H     1 <1>   0.4500 
 36 H      -11.2740     0.5750     1.6070 H     1 <1>   0.0800 
 37 H      -12.2400    -0.5160     0.6500 H     1 <1>   0.0800 
 38 H      -10.2750    -1.7710     1.7150 H     1 <1>   0.0800 
 39 H       -9.0260    -2.1350     0.5500 H     1 <1>   0.0800 
 40 H      -11.1720     2.1560    -0.3120 H     1 <1>   0.0800 
 41 H      -12.8130     1.7390     0.0500 H     1 <1>   0.0800 
 42 H      -12.0380     0.9950    -1.3130 H     1 <1>   0.0800 
 43 H      -11.9970    -2.5180     0.0770 H     1 <1>   0.0800 
 44 H      -10.8130    -3.7550     0.3450 H     1 <1>   0.0800 
 45 H      -10.7360    -2.8110    -1.1110 H     1 <1>   0.0800 
@<TRIPOS>BOND
  1   1   2  1   
  2   2   3  ar  
  3   2   4  ar  
  4   3   5  ar  
  5   3  19  1   
  6   4   6  ar  
  7   4  20  1   
  8   5   7  ar  
  9   5   8  1   
 10   6   7  ar  
 11   6  21  1   
 12   7  22  1   
 13   8   9  1   
 14   8  23  1   
 15   8  24  1   
 16   9  10  1   
 17   9  11  1   
 18   9  25  1   
 19  10  12  1   
 20  10  26  1   
 21  10  27  1   
 22  11  13  1   
 23  11  28  1   
 24  11  29  1   
 25  12  14  1   
 26  12  30  1   
 27  12  31  1   
 28  13  32  1   
 29  13  33  1   
 30  13  34  1   
 31  14  15  1   
 32  14  16  1   
 33  14  35  1   
 34  15  17  1   
 35  15  36  1   
 36  15  37  1   
 37  16  18  1   
 38  16  38  1   
 39  16  39  1   
 40  17  40  1   
 41  17  41  1   
 42  17  42  1   
 43  18  43  1   
 44  18  44  1   
 45  18  45  1   
@<TRIPOS>SUBSTRUCTURE
  1 ****   9 GROUP 4 **** **** 0

# MOE 2024.06 (io_trps.svl 2023.06)
