@<TRIPOS>MOLECULE
Structure2440
29 30 1 0 0 
SMALL
USER_CHARGES


@<TRIPOS>ATOM
  1 BR      -1.6780    -0.1870    -0.7310 Br    1 <1>  -0.1110 
  2 C       -0.7490    -1.8420    -0.3690 C.ar  1 <1>   0.1110 
  3 C       -1.3300    -2.8090     0.4460 C.ar  1 <1>   0.0830 
  4 C        0.4980    -2.0190    -0.9370 C.ar  1 <1>  -0.1500 
  5 O       -2.5530    -2.6490     1.0030 O.3   1 <1>  -0.3630 
  6 C       -0.6200    -3.9700     0.7100 C.ar  1 <1>  -0.1500 
  7 C        1.1890    -3.1910    -0.6760 C.ar  1 <1>  -0.1500 
  8 C       -3.6690    -2.7250     0.1490 C.3   1 <1>   0.2000 
  9 C        0.6320    -4.1600     0.1470 C.ar  1 <1>  -0.1500 
 10 C       -4.6680    -1.6480     0.6020 C.3   1 <1>   0.3430 
 11 C       -4.2650    -4.1340     0.2550 C.3   1 <1>  -0.1600 
 12 N       -5.9910    -1.7810    -0.0970 N.4   1 <1>  -0.9060 
 13 C       -5.6360    -4.2040    -0.4390 C.3   1 <1>  -0.1600 
 14 C       -6.6000    -3.1300     0.0770 C.3   1 <1>   0.3430 
 15 H        0.9240    -1.2570    -1.5660 H     1 <1>   0.1500 
 16 H       -1.0440    -4.7200     1.3540 H     1 <1>   0.1500 
 17 H        2.1630    -3.3490    -1.1080 H     1 <1>   0.1500 
 18 H       -3.3530    -2.5270    -0.8620 H     1 <1>   0.0800 
 19 H        1.1800    -5.0650     0.3520 H     1 <1>   0.1500 
 20 H       -4.2450    -0.6750     0.4090 H     1 <1>   0.0800 
 21 H       -4.8150    -1.7500     1.6650 H     1 <1>   0.0800 
 22 H       -4.3800    -4.3960     1.2940 H     1 <1>   0.0800 
 23 H       -3.5940    -4.8440    -0.1990 H     1 <1>   0.0800 
 24 H       -5.8630    -1.5970    -1.1000 H     1 <1>   0.4500 
 25 H       -6.6360    -1.0620     0.2560 H     1 <1>   0.4500 
 26 H       -6.0700    -5.1740    -0.2630 H     1 <1>   0.0800 
 27 H       -5.5160    -4.0990    -1.5040 H     1 <1>   0.0800 
 28 H       -7.5330    -3.1890    -0.4620 H     1 <1>   0.0800 
 29 H       -6.8030    -3.3060     1.1220 H     1 <1>   0.0800 
@<TRIPOS>BOND
  1   1   2  1   
  2   2   3  ar  
  3   2   4  ar  
  4   3   5  1   
  5   3   6  ar  
  6   4   7  ar  
  7   4  15  1   
  8   5   8  1   
  9   6   9  ar  
 10   6  16  1   
 11   7   9  ar  
 12   7  17  1   
 13   8  10  1   
 14   8  11  1   
 15   8  18  1   
 16   9  19  1   
 17  10  12  1   
 18  10  20  1   
 19  10  21  1   
 20  11  13  1   
 21  11  22  1   
 22  11  23  1   
 23  12  14  1   
 24  12  24  1   
 25  12  25  1   
 26  13  14  1   
 27  13  26  1   
 28  13  27  1   
 29  14  28  1   
 30  14  29  1   
@<TRIPOS>SUBSTRUCTURE
  1 ****   5 GROUP 4 **** **** 0

# MOE 2024.06 (io_trps.svl 2023.06)
