@<TRIPOS>MOLECULE
NONAME
26 27 1 0 0 
SMALL
USER_CHARGES


@<TRIPOS>ATOM
  1 P        0.3810    -0.3530    -0.0390 P.3   1 <1>   1.5100 
  2 O       -0.0040     0.9620    -0.5410 O.2   1 <1>  -0.7000 
  3 O        0.6840    -1.4360    -1.1850 O.3   1 <1>  -0.5510 
  4 O        1.6700    -0.4030     0.9540 O.3   1 <1>  -0.3540 
  5 N       -0.8520    -1.0790     0.8240 N.3   1 <1>  -0.8980 
  6 C        0.4940    -2.7770    -0.9010 C.3   1 <1>   0.1200 
  7 C        2.9430    -0.0770     0.6270 C.ar  1 <1>   0.0830 
  8 C       -1.7520    -1.8450    -0.0200 C.3   1 <1>   0.1100 
  9 C       -0.9990    -3.0390    -0.6270 C.3   1 <1>  -0.1600 
 10 C        3.2970     0.5100    -0.5850 C.ar  1 <1>  -0.1500 
 11 C        3.9230    -0.3550     1.5660 C.ar  1 <1>  -0.1500 
 12 C        4.6240     0.8050    -0.8460 C.ar  1 <1>  -0.1500 
 13 C        5.2490    -0.0590     1.3020 C.ar  1 <1>  -0.1500 
 14 C        5.5990     0.5210     0.0950 C.ar  1 <1>  -0.1500 
 15 H       -1.3740    -0.3020     1.2260 H     1 <1>   0.3600 
 16 H        1.0890    -3.0210    -0.0360 H     1 <1>   0.0800 
 17 H        0.8400    -3.3550    -1.7400 H     1 <1>   0.0800 
 18 H       -2.1270    -1.2110    -0.8090 H     1 <1>   0.0800 
 19 H       -2.5900    -2.1950     0.5600 H     1 <1>   0.0800 
 20 H       -1.0800    -3.8820     0.0350 H     1 <1>   0.0800 
 21 H       -1.4820    -3.3200    -1.5460 H     1 <1>   0.0800 
 22 H        2.5630     0.7490    -1.3340 H     1 <1>   0.1500 
 23 H        3.6440    -0.8050     2.5020 H     1 <1>   0.1500 
 24 H        4.8970     1.2580    -1.7830 H     1 <1>   0.1500 
 25 H        6.0060    -0.2780     2.0350 H     1 <1>   0.1500 
 26 H        6.6300     0.7520    -0.1120 H     1 <1>   0.1500 
@<TRIPOS>BOND
  1   1   2  2   
  2   1   3  1   
  3   1   4  1   
  4   1   5  1   
  5   3   6  1   
  6   4   7  1   
  7   5   8  1   
  8   5  15  1   
  9   6   9  1   
 10   6  16  1   
 11   6  17  1   
 12   7  10  ar  
 13   7  11  ar  
 14   8   9  1   
 15   8  18  1   
 16   8  19  1   
 17   9  20  1   
 18   9  21  1   
 19  10  12  ar  
 20  10  22  1   
 21  11  13  ar  
 22  11  23  1   
 23  12  14  ar  
 24  12  24  1   
 25  13  14  ar  
 26  13  25  1   
 27  14  26  1   
@<TRIPOS>SUBSTRUCTURE
  1 ****   4 GROUP 4 **** **** 0

# MOE 2024.06 (io_trps.svl 2023.06)
