@<TRIPOS>MOLECULE
NONAME
33 33 1 0 0 
SMALL
USER_CHARGES


@<TRIPOS>ATOM
  1 O       -0.0510    -0.6950    -1.5650 O.2   1 <1>  -0.5700 
  2 C       -0.2110    -1.5760    -0.7420 C.2   1 <1>   0.5440 
  3 N        0.8540    -1.9600     0.0250 N.am  1 <1>  -0.7300 
  4 C       -1.5130    -2.1950    -0.5640 C.ar  1 <1>   0.0860 
  5 C        2.2170    -1.4240    -0.0670 C.3   1 <1>   0.2200 
  6 C       -2.6840    -1.5000    -0.8740 C.ar  1 <1>  -0.1500 
  7 C       -1.6560    -3.4990    -0.0830 C.ar  1 <1>  -0.1500 
  8 C        3.1720    -2.5910    -0.2900 C.3   1 <1>  -0.2400 
  9 C        2.5290    -0.6910     1.2330 C.3   1 <1>  -0.2400 
 10 C       -3.9350    -2.0630    -0.7020 C.ar  1 <1>  -0.1500 
 11 C       -2.9020    -4.0690     0.0940 C.ar  1 <1>  -0.1500 
 12 C       -4.0520    -3.3600    -0.2110 C.ar  1 <1>   0.0830 
 13 O       -5.2310    -3.9900    -0.0090 O.3   1 <1>  -0.3630 
 14 C       -6.4620    -3.3650    -0.2880 C.3   1 <1>   0.2580 
 15 C       -7.5720    -4.3420     0.0490 C.2   1 <1>  -0.2880 
 16 C       -8.5700    -4.1180     0.9100 C.2   1 <1>  -0.3000 
 17 H        0.7030    -2.6120     0.7920 H     1 <1>   0.3700 
 18 H        2.2890    -0.7370    -0.8960 H     1 <1>   0.0800 
 19 H       -2.6010    -0.4970    -1.2570 H     1 <1>   0.1500 
 20 H       -0.7810    -4.0790     0.1490 H     1 <1>   0.1500 
 21 H        3.1240    -3.2890     0.5260 H     1 <1>   0.0800 
 22 H        4.1800    -2.2260    -0.3700 H     1 <1>   0.0800 
 23 H        2.9240    -3.0940    -1.2070 H     1 <1>   0.0800 
 24 H        2.4680    -1.3560     2.0740 H     1 <1>   0.0800 
 25 H        1.8370     0.1210     1.3670 H     1 <1>   0.0800 
 26 H        3.5220    -0.2810     1.1900 H     1 <1>   0.0800 
 27 H       -4.8000    -1.4800    -0.9560 H     1 <1>   0.1500 
 28 H       -2.9960    -5.0740     0.4670 H     1 <1>   0.1500 
 29 H       -6.4870    -3.1130    -1.3330 H     1 <1>   0.0800 
 30 H       -6.5380    -2.4760     0.3140 H     1 <1>   0.0800 
 31 H       -7.4690    -5.2670    -0.4920 H     1 <1>   0.1500 
 32 H       -9.3420    -4.8350     1.1290 H     1 <1>   0.1500 
 33 H       -8.7000    -3.2070     1.4690 H     1 <1>   0.1500 
@<TRIPOS>BOND
  1   1   2  2   
  2   2   3  am  
  3   2   4  1   
  4   3   5  1   
  5   3  17  1   
  6   4   6  ar  
  7   4   7  ar  
  8   5   8  1   
  9   5   9  1   
 10   5  18  1   
 11   6  10  ar  
 12   6  19  1   
 13   7  11  ar  
 14   7  20  1   
 15   8  21  1   
 16   8  22  1   
 17   8  23  1   
 18   9  24  1   
 19   9  25  1   
 20   9  26  1   
 21  10  12  ar  
 22  10  27  1   
 23  11  12  ar  
 24  11  28  1   
 25  12  13  1   
 26  13  14  1   
 27  14  15  1   
 28  14  29  1   
 29  14  30  1   
 30  15  16  2   
 31  15  31  1   
 32  16  32  1   
 33  16  33  1   
@<TRIPOS>SUBSTRUCTURE
  1 ****   4 GROUP 4 **** **** 0

# MOE 2024.06 (io_trps.svl 2023.06)
