@<TRIPOS>MOLECULE
NONAME
38 39 1 0 0 
SMALL
USER_CHARGES


@<TRIPOS>ATOM
  1 S       -0.2280    -1.9420     1.0120 S.3   1 <1>  -0.2860 
  2 C       -1.8040    -1.2260     0.5480 C.2   1 <1>   0.2420 
  3 C        0.4970    -0.7440     2.2370 C.3   1 <1>   0.1310 
  4 N       -2.2280    -0.1060     1.0150 N.2   1 <1>  -0.5650 
  5 N       -2.6200    -1.8530    -0.3390 N.pl3 1 <1>   0.0480 
  6 C        1.7690    -0.1070     1.6930 C.2   1 <1>   0.6590 
  7 C       -3.4350     0.0430     0.4000 C.ar  1 <1>   0.2270 
  8 C       -3.6970    -1.0260    -0.4420 C.ar  1 <1>  -0.1520 
  9 C       -2.4200    -3.1420    -1.0290 C.3   1 <1>   0.0160 
 10 O        2.8400    -0.4740     2.0980 O.2   1 <1>  -0.5700 
 11 O        1.7070     0.8780     0.7990 O.3   1 <1>  -0.4300 
 12 C       -4.3530     1.0820     0.5270 C.ar  1 <1>  -0.1500 
 13 C       -4.8830    -1.0870    -1.1780 C.ar  1 <1>  -0.1500 
 14 C        0.5320     1.3750     0.2020 C.3   1 <1>   0.1200 
 15 C       -5.5300     1.0300    -0.2010 C.ar  1 <1>   0.0830 
 16 C       -5.7850    -0.0550    -1.0490 C.ar  1 <1>  -0.1500 
 17 C        0.9190     2.5580    -0.6790 C.3   1 <1>  -0.2400 
 18 O       -6.4950     1.9870    -0.1540 O.3   1 <1>  -0.3630 
 19 C       -6.3640     3.0980     0.7030 C.3   1 <1>   0.1200 
 20 C       -7.6090     3.9650     0.5430 C.3   1 <1>  -0.2400 
 21 H        0.7320    -1.3180     3.1140 H     1 <1>   0.0800 
 22 H       -0.2360    -0.0050     2.4900 H     1 <1>   0.0800 
 23 H       -1.3710    -3.3060    -1.1970 H     1 <1>   0.0800 
 24 H       -2.9300    -3.1270    -1.9740 H     1 <1>   0.0800 
 25 H       -2.8140    -3.9340    -0.4190 H     1 <1>   0.0800 
 26 H       -4.1070     1.8860     1.1900 H     1 <1>   0.1500 
 27 H       -5.0840    -1.9190    -1.8290 H     1 <1>   0.1500 
 28 H       -0.1510     1.6880     0.9740 H     1 <1>   0.0800 
 29 H        0.0900     0.5940    -0.3920 H     1 <1>   0.0800 
 30 H       -6.7100    -0.0630    -1.5990 H     1 <1>   0.1500 
 31 H        1.3710     3.3310    -0.0840 H     1 <1>   0.0800 
 32 H        0.0420     2.9570    -1.1540 H     1 <1>   0.0800 
 33 H        1.6090     2.2410    -1.4410 H     1 <1>   0.0800 
 34 H       -5.4810     3.6450     0.4210 H     1 <1>   0.0800 
 35 H       -6.2770     2.7400     1.7140 H     1 <1>   0.0800 
 36 H       -7.6960     4.3030    -0.4740 H     1 <1>   0.0800 
 37 H       -7.5400     4.8240     1.1860 H     1 <1>   0.0800 
 38 H       -8.4860     3.4040     0.8110 H     1 <1>   0.0800 
@<TRIPOS>BOND
  1   1   2  1   
  2   1   3  1   
  3   2   4  2   
  4   2   5  1   
  5   3   6  1   
  6   3  21  1   
  7   3  22  1   
  8   4   7  1   
  9   5   8  1   
 10   5   9  1   
 11   6  10  2   
 12   6  11  1   
 13   7   8  ar  
 14   7  12  ar  
 15   8  13  ar  
 16   9  23  1   
 17   9  24  1   
 18   9  25  1   
 19  11  14  1   
 20  12  15  ar  
 21  12  26  1   
 22  13  16  ar  
 23  13  27  1   
 24  14  17  1   
 25  14  28  1   
 26  14  29  1   
 27  15  16  ar  
 28  15  18  1   
 29  16  30  1   
 30  17  31  1   
 31  17  32  1   
 32  17  33  1   
 33  18  19  1   
 34  19  20  1   
 35  19  34  1   
 36  19  35  1   
 37  20  36  1   
 38  20  37  1   
 39  20  38  1   
@<TRIPOS>SUBSTRUCTURE
  1 ****   4 GROUP 4 **** **** 0

# MOE 2024.06 (io_trps.svl 2023.06)
