@<TRIPOS>MOLECULE
NONAME
35 36 1 0 0 
SMALL
USER_CHARGES


@<TRIPOS>ATOM
  1 CL      -1.4900     0.9090     1.6380 Cl    1 <1>  -0.1770 
  2 C       -0.6810     2.1780     0.7490 C.ar  1 <1>   0.1770 
  3 C       -1.1940     2.5990    -0.4690 C.ar  1 <1>  -0.1440 
  4 C        0.4550     2.7470     1.2920 C.ar  1 <1>  -0.1500 
  5 C       -0.5400     3.6160    -1.1510 C.ar  1 <1>  -0.1500 
  6 C       -2.4430     1.9600    -1.0420 C.3   1 <1>   0.4870 
  7 C        1.0970     3.7620     0.6050 C.ar  1 <1>  -0.1500 
  8 C        0.5990     4.1940    -0.6140 C.ar  1 <1>  -0.1500 
  9 N       -3.6150     2.3120    -0.1940 N.4   1 <1>  -0.9590 
 10 C       -4.8280     1.5460    -0.6220 C.3   1 <1>   0.3430 
 11 C       -3.8580     3.7850    -0.1580 C.3   1 <1>   0.3430 
 12 C       -6.0240     1.8220     0.2990 C.3   1 <1>  -0.0190 
 13 C       -5.0090     4.0910     0.8020 C.3   1 <1>  -0.1600 
 14 C       -7.2350     1.0890    -0.2550 C.2   1 <1>   0.5690 
 15 C       -6.2900     3.3350     0.4200 C.3   1 <1>  -0.1600 
 16 O       -7.2380     0.7460    -1.4080 O.2   1 <1>  -0.5700 
 17 N       -8.2900     0.8260     0.5350 N.am  1 <1>  -0.8000 
 18 H        0.8350     2.4020     2.2380 H     1 <1>   0.1500 
 19 H       -0.9000     3.9680    -2.1040 H     1 <1>   0.1500 
 20 H       -2.3120     0.8890    -1.0610 H     1 <1>   0.0800 
 21 H       -2.6000     2.3000    -2.0530 H     1 <1>   0.0800 
 22 H        1.9850     4.2150     1.0150 H     1 <1>   0.1500 
 23 H        1.1070     4.9820    -1.1450 H     1 <1>   0.1500 
 24 H       -3.3670     2.0170     0.7620 H     1 <1>   0.4500 
 25 H       -4.6210     0.4880    -0.6210 H     1 <1>   0.0800 
 26 H       -5.0970     1.8270    -1.6280 H     1 <1>   0.0800 
 27 H       -4.1100     4.1380    -1.1450 H     1 <1>   0.0800 
 28 H       -2.9700     4.3020     0.1710 H     1 <1>   0.0800 
 29 H       -5.8080     1.4140     1.2700 H     1 <1>   0.0800 
 30 H       -5.2040     5.1500     0.7850 H     1 <1>   0.0800 
 31 H       -4.7140     3.8380     1.8060 H     1 <1>   0.0800 
 32 H       -7.0540     3.5170     1.1580 H     1 <1>   0.0800 
 33 H       -6.6550     3.7080    -0.5240 H     1 <1>   0.0800 
 34 H       -9.0980     0.3400     0.1370 H     1 <1>   0.3700 
 35 H       -8.3790     1.0980     1.5140 H     1 <1>   0.3700 
@<TRIPOS>BOND
  1   1   2  1   
  2   2   3  ar  
  3   2   4  ar  
  4   3   5  ar  
  5   3   6  1   
  6   4   7  ar  
  7   4  18  1   
  8   5   8  ar  
  9   5  19  1   
 10   6   9  1   
 11   6  20  1   
 12   6  21  1   
 13   7   8  ar  
 14   7  22  1   
 15   8  23  1   
 16   9  10  1   
 17   9  11  1   
 18   9  24  1   
 19  10  12  1   
 20  10  25  1   
 21  10  26  1   
 22  11  13  1   
 23  11  27  1   
 24  11  28  1   
 25  12  14  1   
 26  12  15  1   
 27  12  29  1   
 28  13  15  1   
 29  13  30  1   
 30  13  31  1   
 31  14  16  2   
 32  14  17  am  
 33  15  32  1   
 34  15  33  1   
 35  17  34  1   
 36  17  35  1   
@<TRIPOS>SUBSTRUCTURE
  1 ****   9 GROUP 4 **** **** 0

# MOE 2024.06 (io_trps.svl 2023.06)
