@<TRIPOS>MOLECULE
NONAME
51 53 1 0 0 
SMALL
USER_CHARGES


@<TRIPOS>ATOM
  1 CL       0.2730    -0.2370    -0.0990 Cl    1 <1>  -0.1840 
  2 C       -0.0620    -1.9420     0.0760 C.ar  1 <1>   0.1700 
  3 C       -0.2230    -2.4750     1.3410 C.ar  1 <1>  -0.1570 
  4 C       -0.1630    -2.7320    -1.0550 C.ar  1 <1>  -0.1570 
  5 C       -0.4890    -3.8280     1.4730 C.ar  1 <1>  -0.1570 
  6 C       -0.4290    -4.0840    -0.9200 C.ar  1 <1>  -0.1570 
  7 C       -0.5950    -4.6370     0.3500 C.ar  1 <1>   0.0750 
  8 O       -0.8610    -5.9490     0.5710 O.3   1 <1>  -0.3680 
  9 C       -1.0820    -6.8430    -0.5010 C.3   1 <1>   0.1130 
 10 C       -1.4130    -8.2270     0.0740 C.3   1 <1>   0.1930 
 11 O       -0.4370    -8.5470     1.0190 O.3   1 <1>  -0.6840 
 12 C       -1.4820    -9.3110    -1.0240 C.3   1 <1>   0.3480 
 13 N       -2.0160   -10.6210    -0.5410 N.pl3 1 <1>  -0.7670 
 14 C       -1.4110   -11.5160     0.2420 C.cat 1 <1>   1.0690 
 15 C       -3.1870   -11.2120    -1.0020 C.ar  1 <1>   0.3030 
 16 N       -0.2790   -11.3050     0.8630 N.pl3 1 <1>  -0.8390 
 17 N       -2.1020   -12.6500     0.3120 N.pl3 1 <1>  -0.7670 
 18 C       -3.2360   -12.4890    -0.4710 C.ar  1 <1>   0.3030 
 19 C       -4.2060   -10.7550    -1.8340 C.ar  1 <1>  -0.1160 
 20 C       -1.7840   -13.8780     1.0700 C.3   1 <1>   0.3480 
 21 C       -4.2940   -13.3440    -0.7630 C.ar  1 <1>  -0.1160 
 22 C       -5.2600   -11.6010    -2.1220 C.ar  1 <1>  -0.1570 
 23 C       -1.0280   -14.8520     0.1650 C.3   1 <1>  -0.1670 
 24 C       -5.3040   -12.8900    -1.5900 C.ar  1 <1>  -0.1570 
 25 C       -0.6670   -16.1430     0.9120 C.3   1 <1>  -0.1670 
 26 C        0.0870   -17.1100    -0.0040 C.3   1 <1>  -0.2460 
 27 H       -0.1400    -1.8400     2.2040 H     1 <1>   0.1430 
 28 H       -0.0320    -2.2880    -2.0250 H     1 <1>   0.1430 
 29 H       -0.6180    -4.2590     2.4500 H     1 <1>   0.1430 
 30 H       -0.5010    -4.6800    -1.8090 H     1 <1>   0.1430 
 31 H       -0.1880    -6.8820    -1.1000 H     1 <1>   0.0720 
 32 H       -1.9030    -6.4710    -1.0900 H     1 <1>   0.0720 
 33 H       -2.3620    -8.1690     0.5810 H     1 <1>   0.0720 
 34 H       -0.2620    -7.7300     1.5460 H     1 <1>   0.3950 
 35 H       -0.5000    -9.4560    -1.4410 H     1 <1>   0.0720 
 36 H       -2.1110    -8.9500    -1.8180 H     1 <1>   0.0720 
 37 H        0.1820   -11.9870     1.4530 H     1 <1>   0.4450 
 38 H        0.0500   -10.3340     0.9500 H     1 <1>   0.4450 
 39 H       -4.1800    -9.7630    -2.2450 H     1 <1>   0.1430 
 40 H       -2.6960   -14.3330     1.4200 H     1 <1>   0.0720 
 41 H       -1.1860   -13.6370     1.9320 H     1 <1>   0.0720 
 42 H       -4.3250   -14.3370    -0.3530 H     1 <1>   0.1430 
 43 H       -6.0610   -11.2700    -2.7640 H     1 <1>   0.1430 
 44 H       -0.1250   -14.3870    -0.1890 H     1 <1>   0.0720 
 45 H       -1.6420   -15.0990    -0.6840 H     1 <1>   0.0720 
 46 H       -6.1360   -13.5330    -1.8310 H     1 <1>   0.1430 
 47 H       -1.5620   -16.6260     1.2660 H     1 <1>   0.0720 
 48 H       -0.0490   -15.9170     1.7650 H     1 <1>   0.0720 
 49 H       -0.5170   -17.3760    -0.8530 H     1 <1>   0.0720 
 50 H        0.3320   -18.0100     0.5330 H     1 <1>   0.0720 
 51 H        1.0020   -16.6650    -0.3550 H     1 <1>   0.0720 
@<TRIPOS>BOND
  1   1   2  1   
  2   2   3  ar  
  3   2   4  ar  
  4   3   5  ar  
  5   3  27  1   
  6   4   6  ar  
  7   4  28  1   
  8   5   7  ar  
  9   5  29  1   
 10   6   7  ar  
 11   6  30  1   
 12   7   8  1   
 13   8   9  1   
 14   9  10  1   
 15   9  31  1   
 16   9  32  1   
 17  10  11  1   
 18  10  12  1   
 19  10  33  1   
 20  11  34  1   
 21  12  13  1   
 22  12  35  1   
 23  12  36  1   
 24  13  14  ar  
 25  13  15  1   
 26  14  16  ar  
 27  14  17  ar  
 28  15  18  ar  
 29  15  19  ar  
 30  16  37  1   
 31  16  38  1   
 32  17  18  1   
 33  17  20  1   
 34  18  21  ar  
 35  19  22  ar  
 36  19  39  1   
 37  20  23  1   
 38  20  40  1   
 39  20  41  1   
 40  21  24  ar  
 41  21  42  1   
 42  22  24  ar  
 43  22  43  1   
 44  23  25  1   
 45  23  44  1   
 46  23  45  1   
 47  24  46  1   
 48  25  26  1   
 49  25  47  1   
 50  25  48  1   
 51  26  49  1   
 52  26  50  1   
 53  26  51  1   
@<TRIPOS>SUBSTRUCTURE
  1 ****  12 GROUP 4 **** **** 0

# MOE 2024.06 (io_trps.svl 2023.06)
