@<TRIPOS>MOLECULE
NONAME
53 56 1 0 0 
SMALL
USER_CHARGES


@<TRIPOS>ATOM
  1 S       -0.3810    -0.6210     0.9250 S.o2  1 <1>   1.4470 
  2 O       -1.0310     0.2750    -0.0060 O.2   1 <1>  -0.6500 
  3 O       -0.2580    -0.2400     2.3160 O.2   1 <1>  -0.6500 
  4 N       -1.2420    -2.0810     0.8930 N.am  1 <1>  -0.8490 
  5 C        1.2430    -1.0860     0.2610 C.ar  1 <1>  -0.0090 
  6 C       -2.6800    -1.8500     1.1030 C.3   1 <1>   0.1960 
  7 C       -0.7310    -3.0440     1.8760 C.3   1 <1>   0.1960 
  8 C        2.3980    -0.9400     0.9890 C.ar  1 <1>  -0.1500 
  9 C        1.3450    -1.6250    -1.0330 C.ar  1 <1>  -0.1500 
 10 C       -3.4680    -3.1480     0.8950 C.3   1 <1>  -0.0190 
 11 C       -1.4310    -4.3960     1.7000 C.3   1 <1>  -0.1600 
 12 C        3.6600    -1.3130     0.4890 C.ar  1 <1>   0.0000 
 13 C        2.5540    -1.9980    -1.5520 C.ar  1 <1>  -0.1500 
 14 C       -4.9500    -2.8800     1.0980 C.2   1 <1>   0.5690 
 15 C       -2.9530    -4.2570     1.8320 C.3   1 <1>  -0.1600 
 16 C        3.7410    -1.8550    -0.8100 C.ar  1 <1>   0.0000 
 17 C        4.8460    -1.1670     1.2370 C.ar  1 <1>  -0.1500 
 18 O       -5.3290    -2.4250     2.1510 O.2   1 <1>  -0.5700 
 19 N       -5.8040    -3.1550     0.0820 N.am  1 <1>  -0.7300 
 20 C        5.0040    -2.2320    -1.3110 C.ar  1 <1>  -0.1500 
 21 C        6.0580    -1.5400     0.7270 C.ar  1 <1>  -0.1500 
 22 C       -7.2590    -2.9330     0.1080 C.3   1 <1>   0.2200 
 23 C        6.1380    -2.0790    -0.5630 C.ar  1 <1>  -0.1500 
 24 C       -7.9560    -4.2220    -0.3060 C.3   1 <1>  -0.1600 
 25 C       -7.6230    -1.9630    -1.0080 C.3   1 <1>  -0.1600 
 26 C       -7.9060    -4.2530    -1.8380 C.3   1 <1>  -0.1600 
 27 C       -7.6690    -2.8050    -2.2890 C.3   1 <1>  -0.1600 
 28 H       -3.0390    -1.1160     0.4000 H     1 <1>   0.0800 
 29 H       -2.8500    -1.4670     2.0980 H     1 <1>   0.0800 
 30 H       -0.8960    -2.6740     2.8760 H     1 <1>   0.0800 
 31 H        0.3290    -3.1810     1.7380 H     1 <1>   0.0800 
 32 H        2.3530    -0.5270     1.9820 H     1 <1>   0.1500 
 33 H        0.4420    -1.7380    -1.6090 H     1 <1>   0.1500 
 34 H       -3.3160    -3.4590    -0.1220 H     1 <1>   0.0800 
 35 H       -1.0660    -5.0850     2.4410 H     1 <1>   0.0800 
 36 H       -1.1810    -4.7920     0.7310 H     1 <1>   0.0800 
 37 H        2.6170    -2.4080    -2.5450 H     1 <1>   0.1500 
 38 H       -3.4340    -5.1910     1.5970 H     1 <1>   0.0800 
 39 H       -3.2000    -4.0040     2.8500 H     1 <1>   0.0800 
 40 H        4.7800    -0.7510     2.2270 H     1 <1>   0.1500 
 41 H       -5.4600    -3.5280    -0.8010 H     1 <1>   0.3700 
 42 H        5.0600    -2.6440    -2.3020 H     1 <1>   0.1500 
 43 H        6.9600    -1.4260     1.3020 H     1 <1>   0.1500 
 44 H       -7.5780    -2.5840     1.0780 H     1 <1>   0.0800 
 45 H        7.1000    -2.3680    -0.9500 H     1 <1>   0.1500 
 46 H       -8.9840    -4.1660     0.0080 H     1 <1>   0.0800 
 47 H       -7.5090    -5.0910     0.1450 H     1 <1>   0.0800 
 48 H       -6.9350    -1.1390    -1.0730 H     1 <1>   0.0800 
 49 H       -8.6070    -1.5730    -0.8110 H     1 <1>   0.0800 
 50 H       -8.8250    -4.6430    -2.2410 H     1 <1>   0.0800 
 51 H       -7.0920    -4.8750    -2.1690 H     1 <1>   0.0800 
 52 H       -6.7270    -2.7350    -2.8060 H     1 <1>   0.0800 
 53 H       -8.4510    -2.4620    -2.9460 H     1 <1>   0.0800 
@<TRIPOS>BOND
  1   1   2  2   
  2   1   3  2   
  3   1   4  am  
  4   1   5  1   
  5   4   6  1   
  6   4   7  1   
  7   5   8  ar  
  8   5   9  ar  
  9   6  10  1   
 10   6  28  1   
 11   6  29  1   
 12   7  11  1   
 13   7  30  1   
 14   7  31  1   
 15   8  12  ar  
 16   8  32  1   
 17   9  13  ar  
 18   9  33  1   
 19  10  14  1   
 20  10  15  1   
 21  10  34  1   
 22  11  15  1   
 23  11  35  1   
 24  11  36  1   
 25  12  16  ar  
 26  12  17  ar  
 27  13  16  ar  
 28  13  37  1   
 29  14  18  2   
 30  14  19  am  
 31  15  38  1   
 32  15  39  1   
 33  16  20  ar  
 34  17  21  ar  
 35  17  40  1   
 36  19  22  1   
 37  19  41  1   
 38  20  23  ar  
 39  20  42  1   
 40  21  23  ar  
 41  21  43  1   
 42  22  24  1   
 43  22  25  1   
 44  22  44  1   
 45  23  45  1   
 46  24  26  1   
 47  24  46  1   
 48  24  47  1   
 49  25  27  1   
 50  25  48  1   
 51  25  49  1   
 52  26  27  1   
 53  26  50  1   
 54  26  51  1   
 55  27  52  1   
 56  27  53  1   
@<TRIPOS>SUBSTRUCTURE
  1 ****   4 GROUP 4 **** **** 0

# MOE 2024.06 (io_trps.svl 2023.06)
