@<TRIPOS>MOLECULE
NONAME
46 46 1 0 0 
SMALL
USER_CHARGES


@<TRIPOS>ATOM
  1 S       -0.0680    -0.1370    -0.1630 S.o2  1 <1>   1.3330 
  2 O        0.9120     0.8500     0.2170 O.2   1 <1>  -0.6500 
  3 O       -1.2570     0.2350    -0.8930 O.2   1 <1>  -0.6500 
  4 N        0.7230    -1.3810    -1.0820 N.am  1 <1>  -0.6930 
  5 C       -0.5720    -1.0380     1.2860 C.3   1 <1>  -0.1350 
  6 C        1.9460    -1.9200    -0.7170 C.ar  1 <1>   0.1990 
  7 C       -0.0030    -1.9220    -2.2570 C.3   1 <1>   0.1160 
  8 C        3.0820    -1.1270    -0.5980 C.ar  1 <1>  -0.1500 
  9 C        2.0740    -3.2810    -0.4610 C.ar  1 <1>  -0.1500 
 10 C        4.2950    -1.6700    -0.2230 C.ar  1 <1>  -0.1500 
 11 C        3.2890    -3.8220    -0.0860 C.ar  1 <1>  -0.1500 
 12 C        4.4330    -3.0330     0.0530 C.ar  1 <1>   0.0860 
 13 C        5.6960    -3.6150     0.4640 C.2   1 <1>   0.5440 
 14 O        5.9240    -4.7960     0.2860 O.2   1 <1>  -0.5700 
 15 N        6.6580    -2.8540     1.0700 N.am  1 <1>  -0.7300 
 16 C        7.9560    -3.3700     1.5740 C.3   1 <1>   0.1400 
 17 C        8.9000    -3.6570     0.4090 C.3   1 <1>   0.0700 
 18 S       10.5380    -4.0440     1.0960 S.3   1 <1>  -0.4600 
 19 C       11.5140    -4.7220    -0.2770 C.3   1 <1>   0.2300 
 20 C       10.9340    -6.0880    -0.6440 C.3   1 <1>  -0.2400 
 21 C       11.4650    -3.7380    -1.4470 C.3   1 <1>  -0.2400 
 22 C       12.9370    -4.8610     0.2600 C.3   1 <1>  -0.2400 
 23 H       -1.1000    -0.3880     1.9550 H     1 <1>   0.0800 
 24 H        0.2870    -1.4310     1.7930 H     1 <1>   0.0800 
 25 H       -1.2170    -1.8490     1.0130 H     1 <1>   0.0800 
 26 H       -0.2400    -1.1180    -2.9350 H     1 <1>   0.0800 
 27 H       -0.9190    -2.3890    -1.9390 H     1 <1>   0.0800 
 28 H        0.6040    -2.6430    -2.7770 H     1 <1>   0.0800 
 29 H        3.0080    -0.0750    -0.8100 H     1 <1>   0.1500 
 30 H        1.2130    -3.9170    -0.5540 H     1 <1>   0.1500 
 31 H        5.1500    -1.0220    -0.1540 H     1 <1>   0.1500 
 32 H        3.3650    -4.8800     0.1070 H     1 <1>   0.1500 
 33 H        6.4390    -1.8920     1.3280 H     1 <1>   0.3700 
 34 H        7.7900    -4.2770     2.1300 H     1 <1>   0.0800 
 35 H        8.3980    -2.6400     2.2290 H     1 <1>   0.0800 
 36 H        9.0130    -2.7950    -0.2230 H     1 <1>   0.0800 
 37 H        8.5600    -4.5060    -0.1550 H     1 <1>   0.0800 
 38 H        9.9400    -5.9940    -1.0410 H     1 <1>   0.0800 
 39 H       10.8990    -6.7220     0.2240 H     1 <1>   0.0800 
 40 H       11.5480    -6.5610    -1.3880 H     1 <1>   0.0800 
 41 H       10.4760    -3.6800    -1.8610 H     1 <1>   0.0800 
 42 H       12.1320    -4.0620    -2.2260 H     1 <1>   0.0800 
 43 H       11.7690    -2.7590    -1.1230 H     1 <1>   0.0800 
 44 H       12.9510    -5.5170     1.1120 H     1 <1>   0.0800 
 45 H       13.3170    -3.9010     0.5610 H     1 <1>   0.0800 
 46 H       13.5850    -5.2660    -0.4960 H     1 <1>   0.0800 
@<TRIPOS>BOND
  1   1   2  2   
  2   1   3  2   
  3   1   4  am  
  4   1   5  1   
  5   4   6  1   
  6   4   7  1   
  7   5  23  1   
  8   5  24  1   
  9   5  25  1   
 10   6   8  ar  
 11   6   9  ar  
 12   7  26  1   
 13   7  27  1   
 14   7  28  1   
 15   8  10  ar  
 16   8  29  1   
 17   9  11  ar  
 18   9  30  1   
 19  10  12  ar  
 20  10  31  1   
 21  11  12  ar  
 22  11  32  1   
 23  12  13  1   
 24  13  14  2   
 25  13  15  am  
 26  15  16  1   
 27  15  33  1   
 28  16  17  1   
 29  16  34  1   
 30  16  35  1   
 31  17  18  1   
 32  17  36  1   
 33  17  37  1   
 34  18  19  1   
 35  19  20  1   
 36  19  21  1   
 37  19  22  1   
 38  20  38  1   
 39  20  39  1   
 40  20  40  1   
 41  21  41  1   
 42  21  42  1   
 43  21  43  1   
 44  22  44  1   
 45  22  45  1   
 46  22  46  1   
@<TRIPOS>SUBSTRUCTURE
  1 ****  12 GROUP 4 **** **** 0

# MOE 2024.06 (io_trps.svl 2023.06)
