@<TRIPOS>MOLECULE
NONAME
40 40 1 0 0 
SMALL
USER_CHARGES


@<TRIPOS>ATOM
  1 O       -0.2650    -0.6580     0.5680 O.3   1 <1>  -0.3630 
  2 C       -1.4910    -1.0580     0.1530 C.ar  1 <1>   0.0830 
  3 C        0.5690    -1.4990     1.3350 C.3   1 <1>   0.0400 
  4 C       -2.1910    -0.1790    -0.6540 C.ar  1 <1>  -0.1500 
  5 C       -2.0630    -2.2810     0.4890 C.ar  1 <1>  -0.1500 
  6 C       -3.4530    -0.5020    -1.1180 C.ar  1 <1>  -0.1500 
  7 C       -3.3260    -2.6060     0.0260 C.ar  1 <1>  -0.1500 
  8 C       -4.0330    -1.7140    -0.7710 C.ar  1 <1>  -0.1430 
  9 C       -5.4280    -2.0560    -1.2510 C.3   1 <1>   0.4860 
 10 N       -6.3670    -1.8770    -0.0970 N.4   1 <1>  -0.9590 
 11 C       -7.6920    -2.5460    -0.3650 C.3   1 <1>   0.3430 
 12 C       -6.4770    -0.4140     0.2420 C.3   1 <1>   0.2630 
 13 C       -8.6450    -2.6000     0.8660 C.3   1 <1>   0.3430 
 14 N       -9.9810    -3.2580     0.6050 N.4   1 <1>  -0.9590 
 15 C      -10.8830    -3.0890     1.7950 C.3   1 <1>   0.2630 
 16 C       -9.8820    -4.7240     0.2840 C.3   1 <1>   0.2630 
 17 H        1.4910    -0.9770     1.5170 H     1 <1>   0.0800 
 18 H        0.7630    -2.3990     0.7800 H     1 <1>   0.0800 
 19 H        0.0830    -1.7170     2.2690 H     1 <1>   0.0800 
 20 H       -1.7330     0.7590    -0.9160 H     1 <1>   0.1500 
 21 H       -1.5360    -2.9850     1.1060 H     1 <1>   0.1500 
 22 H       -3.9630     0.2050    -1.7510 H     1 <1>   0.1500 
 23 H       -3.7370    -3.5640     0.2950 H     1 <1>   0.1500 
 24 H       -5.4370    -3.0790    -1.5930 H     1 <1>   0.0800 
 25 H       -5.7050    -1.4160    -2.0730 H     1 <1>   0.0800 
 26 H       -5.8710    -2.3310     0.6880 H     1 <1>   0.4500 
 27 H       -7.5080    -3.5560    -0.6930 H     1 <1>   0.0800 
 28 H       -8.1900    -2.0210    -1.1650 H     1 <1>   0.0800 
 29 H       -6.9060     0.1350    -0.5810 H     1 <1>   0.0800 
 30 H       -5.4990    -0.0050     0.4480 H     1 <1>   0.0800 
 31 H       -7.0880    -0.2670     1.1170 H     1 <1>   0.0800 
 32 H       -8.8220    -1.5910     1.2000 H     1 <1>   0.0800 
 33 H       -8.1500    -3.1300     1.6640 H     1 <1>   0.0800 
 34 H      -10.4610    -2.7910    -0.1850 H     1 <1>   0.4500 
 35 H      -10.4620    -3.5720     2.6630 H     1 <1>   0.0800 
 36 H      -11.8500    -3.5260     1.5990 H     1 <1>   0.0800 
 37 H      -11.0250    -2.0430     2.0190 H     1 <1>   0.0800 
 38 H       -9.4160    -5.2590     1.0960 H     1 <1>   0.0800 
 39 H       -9.3060    -4.8830    -0.6130 H     1 <1>   0.0800 
 40 H      -10.8660    -5.1380     0.1280 H     1 <1>   0.0800 
@<TRIPOS>BOND
  1   1   2  1   
  2   1   3  1   
  3   2   4  ar  
  4   2   5  ar  
  5   3  17  1   
  6   3  18  1   
  7   3  19  1   
  8   4   6  ar  
  9   4  20  1   
 10   5   7  ar  
 11   5  21  1   
 12   6   8  ar  
 13   6  22  1   
 14   7   8  ar  
 15   7  23  1   
 16   8   9  1   
 17   9  10  1   
 18   9  24  1   
 19   9  25  1   
 20  10  11  1   
 21  10  12  1   
 22  10  26  1   
 23  11  13  1   
 24  11  27  1   
 25  11  28  1   
 26  12  29  1   
 27  12  30  1   
 28  12  31  1   
 29  13  14  1   
 30  13  32  1   
 31  13  33  1   
 32  14  15  1   
 33  14  16  1   
 34  14  34  1   
 35  15  35  1   
 36  15  36  1   
 37  15  37  1   
 38  16  38  1   
 39  16  39  1   
 40  16  40  1   
@<TRIPOS>SUBSTRUCTURE
  1 ****  10 GROUP 4 **** **** 0

# MOE 2024.06 (io_trps.svl 2023.06)
