@<TRIPOS>MOLECULE
NONAME
39 40 1 0 0 
SMALL
USER_CHARGES


@<TRIPOS>ATOM
  1 CL       3.7590    -0.0790     4.0380 Cl    1 <1>  -0.1770 
  2 C        4.3100     0.3660     2.4420 C.ar  1 <1>   0.1770 
  3 C        5.0020    -0.5590     1.6820 C.ar  1 <1>  -0.1500 
  4 C        4.0470     1.6360     1.9630 C.ar  1 <1>  -0.1500 
  5 C        5.4410    -0.2080     0.4160 C.ar  1 <1>  -0.1500 
  6 C        4.4880     1.9840     0.6980 C.ar  1 <1>  -0.1500 
  7 C        5.1870     1.0710    -0.0800 C.ar  1 <1>   0.0830 
  8 O        5.5910     1.5080    -1.3000 O.3   1 <1>  -0.3630 
  9 C        6.4000     0.7150    -2.1630 C.3   1 <1>   0.2610 
 10 C        7.8000     0.4910    -1.5720 C.2   1 <1>   0.5690 
 11 C        6.4550     1.4410    -3.5110 C.3   1 <1>  -0.2400 
 12 O        8.3840    -0.5350    -1.8330 O.2   1 <1>  -0.5700 
 13 N        8.3360     1.4360    -0.7530 N.am  1 <1>  -0.7300 
 14 C        9.5990     1.3180    -0.0140 C.3   1 <1>   0.2200 
 15 C        9.2790     1.1350     1.4730 C.3   1 <1>  -0.1600 
 16 C       10.4340     2.5800    -0.2550 C.3   1 <1>  -0.1600 
 17 C       10.5610     1.1160     2.3180 C.3   1 <1>  -0.1600 
 18 C       11.7190     2.5630     0.5880 C.3   1 <1>  -0.1600 
 19 C       11.4020     2.3780     2.0780 C.3   1 <1>  -0.1600 
 20 H        5.1920    -1.5400     2.0790 H     1 <1>   0.1500 
 21 H        3.5050     2.3360     2.5730 H     1 <1>   0.1500 
 22 H        5.9760    -0.9430    -0.1580 H     1 <1>   0.1500 
 23 H        4.2910     2.9660     0.3070 H     1 <1>   0.1500 
 24 H        5.9120    -0.2340    -2.2950 H     1 <1>   0.0800 
 25 H        6.9220     2.4030    -3.3970 H     1 <1>   0.0800 
 26 H        5.4630     1.5640    -3.9060 H     1 <1>   0.0800 
 27 H        7.0340     0.8610    -4.2080 H     1 <1>   0.0800 
 28 H        7.7500     2.2320    -0.4970 H     1 <1>   0.3700 
 29 H       10.1480     0.4590    -0.3670 H     1 <1>   0.0800 
 30 H        8.7490     0.2090     1.6090 H     1 <1>   0.0800 
 31 H        8.6500     1.9400     1.8080 H     1 <1>   0.0800 
 32 H        9.8570     3.4490     0.0060 H     1 <1>   0.0800 
 33 H       10.6940     2.6400    -1.2970 H     1 <1>   0.0800 
 34 H       11.1430     0.2470     2.0630 H     1 <1>   0.0800 
 35 H       10.3040     1.0460     3.3610 H     1 <1>   0.0800 
 36 H       12.2560     3.4850     0.4450 H     1 <1>   0.0800 
 37 H       12.3510     1.7570     0.2560 H     1 <1>   0.0800 
 38 H       12.3210     2.3090     2.6360 H     1 <1>   0.0800 
 39 H       10.8640     3.2380     2.4380 H     1 <1>   0.0800 
@<TRIPOS>BOND
  1   1   2  1   
  2   2   3  ar  
  3   2   4  ar  
  4   3   5  ar  
  5   3  20  1   
  6   4   6  ar  
  7   4  21  1   
  8   5   7  ar  
  9   5  22  1   
 10   6   7  ar  
 11   6  23  1   
 12   7   8  1   
 13   8   9  1   
 14   9  10  1   
 15   9  11  1   
 16   9  24  1   
 17  10  12  2   
 18  10  13  am  
 19  11  25  1   
 20  11  26  1   
 21  11  27  1   
 22  13  14  1   
 23  13  28  1   
 24  14  15  1   
 25  14  16  1   
 26  14  29  1   
 27  15  17  1   
 28  15  30  1   
 29  15  31  1   
 30  16  18  1   
 31  16  32  1   
 32  16  33  1   
 33  17  19  1   
 34  17  34  1   
 35  17  35  1   
 36  18  19  1   
 37  18  36  1   
 38  18  37  1   
 39  19  38  1   
 40  19  39  1   
@<TRIPOS>SUBSTRUCTURE
  1 ****  13 GROUP 4 **** **** 0

# MOE 2024.06 (io_trps.svl 2023.06)
