@<TRIPOS>MOLECULE
NONAME
54 56 1 0 0 
SMALL
USER_CHARGES


@<TRIPOS>ATOM
  1 N        0.2150     0.4360    -0.5130 N.3   1 <1>  -0.8100 
  2 C       -0.0830    -0.4260    -1.6860 C.3   1 <1>   0.1100 
  3 C        1.0530     1.5930    -0.9090 C.3   1 <1>   0.1100 
  4 C       -1.0110     0.8670     0.1900 C.3   1 <1>   0.2540 
  5 C        1.2010    -0.9080    -2.4060 C.3   1 <1>   0.3430 
  6 C        2.3300     1.1660    -1.6760 C.3   1 <1>   0.3430 
  7 C       -1.8000    -0.3350     0.6890 C.ar  1 <1>  -0.1440 
  8 N        2.4270    -0.3270    -1.7740 N.4   1 <1>  -0.9590 
  9 C       -3.0820    -0.5810     0.2200 C.ar  1 <1>  -0.1500 
 10 C       -1.2390    -1.2000     1.6170 C.ar  1 <1>  -0.1500 
 11 C        3.6990    -0.8000    -2.3530 C.3   1 <1>   0.4810 
 12 C       -3.7930    -1.6800     0.6720 C.ar  1 <1>  -0.1500 
 13 C       -1.9480    -2.2980     2.0700 C.ar  1 <1>  -0.1500 
 14 C        4.8500    -0.5200    -1.3940 C.2   1 <1>  -0.2760 
 15 C       -3.2260    -2.5390     1.5970 C.ar  1 <1>  -0.1500 
 16 C        4.7540    -0.2120    -0.0900 C.2   1 <1>  -0.2880 
 17 C        6.2050    -0.6450    -2.0880 C.3   1 <1>  -0.0220 
 18 C        5.9440     0.0790     0.8160 C.3   1 <1>  -0.0220 
 19 C        7.3610    -0.7500    -1.0850 C.3   1 <1>  -0.1600 
 20 C        7.2430     0.3060     0.0240 C.3   1 <1>   0.0580 
 21 C        8.4540     0.3270     0.9640 C.2   1 <1>  -0.2760 
 22 C        9.3600    -0.6500     1.0850 C.2   1 <1>  -0.3000 
 23 C        8.5710     1.6030     1.7880 C.3   1 <1>  -0.1020 
 24 H       -0.7030     0.1090    -2.3860 H     1 <1>   0.0800 
 25 H       -0.6340    -1.2960    -1.3710 H     1 <1>   0.0800 
 26 H        1.3460     2.1350    -0.0260 H     1 <1>   0.0800 
 27 H        0.4820     2.2660    -1.5260 H     1 <1>   0.0800 
 28 H       -1.6230     1.4630    -0.4670 H     1 <1>   0.0800 
 29 H       -0.7440     1.4740     1.0390 H     1 <1>   0.0800 
 30 H        1.1490    -0.6280    -3.4450 H     1 <1>   0.0800 
 31 H        1.2400    -1.9840    -2.3560 H     1 <1>   0.0800 
 32 H        3.1930     1.5580    -1.1630 H     1 <1>   0.0800 
 33 H        2.3120     1.5990    -2.6620 H     1 <1>   0.0800 
 34 H        2.3910    -0.6470    -0.7960 H     1 <1>   0.4500 
 35 H       -3.5380     0.0790    -0.4960 H     1 <1>   0.1500 
 36 H       -0.2450    -1.0170     1.9860 H     1 <1>   0.1500 
 37 H        3.8750    -0.2970    -3.2900 H     1 <1>   0.0800 
 38 H        3.6510    -1.8600    -2.5410 H     1 <1>   0.0800 
 39 H       -4.7880    -1.8660     0.3080 H     1 <1>   0.1500 
 40 H       -1.5070    -2.9640     2.7910 H     1 <1>   0.1500 
 41 H       -3.7790    -3.3930     1.9500 H     1 <1>   0.1500 
 42 H        3.8300    -0.1470     0.4600 H     1 <1>   0.1500 
 43 H        6.3600     0.2140    -2.7190 H     1 <1>   0.0800 
 44 H        6.2260    -1.5220    -2.7120 H     1 <1>   0.0800 
 45 H        6.0790    -0.7490     1.4910 H     1 <1>   0.0800 
 46 H        5.7360     0.9540     1.4060 H     1 <1>   0.0800 
 47 H        8.2960    -0.6290    -1.6040 H     1 <1>   0.0800 
 48 H        7.3490    -1.7300    -0.6410 H     1 <1>   0.0800 
 49 H        7.1820     1.2650    -0.4610 H     1 <1>   0.0800 
 50 H       10.2040    -0.6050     1.7520 H     1 <1>   0.1500 
 51 H        9.3510    -1.5790     0.5430 H     1 <1>   0.1500 
 52 H        7.7290     1.7100     2.4470 H     1 <1>   0.0800 
 53 H        8.6210     2.4610     1.1430 H     1 <1>   0.0800 
 54 H        9.4620     1.5850     2.3900 H     1 <1>   0.0800 
@<TRIPOS>BOND
  1   1   2  1   
  2   1   3  1   
  3   1   4  1   
  4   2   5  1   
  5   2  24  1   
  6   2  25  1   
  7   3   6  1   
  8   3  26  1   
  9   3  27  1   
 10   4   7  1   
 11   4  28  1   
 12   4  29  1   
 13   5   8  1   
 14   5  30  1   
 15   5  31  1   
 16   6   8  1   
 17   6  32  1   
 18   6  33  1   
 19   7   9  ar  
 20   7  10  ar  
 21   8  11  1   
 22   8  34  1   
 23   9  12  ar  
 24   9  35  1   
 25  10  13  ar  
 26  10  36  1   
 27  11  14  1   
 28  11  37  1   
 29  11  38  1   
 30  12  15  ar  
 31  12  39  1   
 32  13  15  ar  
 33  13  40  1   
 34  14  16  2   
 35  14  17  1   
 36  15  41  1   
 37  16  18  1   
 38  16  42  1   
 39  17  19  1   
 40  17  43  1   
 41  17  44  1   
 42  18  20  1   
 43  18  45  1   
 44  18  46  1   
 45  19  20  1   
 46  19  47  1   
 47  19  48  1   
 48  20  21  1   
 49  20  49  1   
 50  21  22  2   
 51  21  23  1   
 52  22  50  1   
 53  22  51  1   
 54  23  52  1   
 55  23  53  1   
 56  23  54  1   
@<TRIPOS>SUBSTRUCTURE
  1 ****   8 GROUP 4 **** **** 0

# MOE 2024.06 (io_trps.svl 2023.06)
