@<TRIPOS>MOLECULE
NONAME
46 47 1 0 0 
SMALL
USER_CHARGES


@<TRIPOS>ATOM
  1 N       -0.1010    -0.1450    -0.1610 N.4   1 <1>  -0.9590 
  2 C       -1.2580     0.7710     0.0530 C.3   1 <1>   0.3430 
  3 C       -0.2420    -1.4410     0.5700 C.3   1 <1>   0.3430 
  4 C        1.1660     0.5530     0.2120 C.3   1 <1>   0.3430 
  5 C       -2.5600     0.0870    -0.3730 C.3   1 <1>  -0.1600 
  6 C       -1.5330    -2.1450     0.1450 C.3   1 <1>  -0.1600 
  7 C        2.3560    -0.1750    -0.4010 C.3   1 <1>  -0.2400 
  8 C       -2.7500    -1.2450     0.3610 C.3   1 <1>   0.4230 
  9 N       -3.9570    -1.9480    -0.1350 N.4   1 <1>  -0.9060 
 10 C       -5.2520    -1.3220     0.2600 C.3   1 <1>   0.3430 
 11 C       -6.4290    -2.1550    -0.2610 C.3   1 <1>  -0.0800 
 12 C       -7.7470    -1.4400     0.0900 C.3   1 <1>  -0.1600 
 13 C       -6.4330    -3.5920     0.3060 C.3   1 <1>  -0.1600 
 14 C       -8.9660    -2.2310    -0.4010 C.3   1 <1>  -0.1600 
 15 C       -7.6560    -4.3820    -0.1800 C.3   1 <1>  -0.1600 
 16 C       -8.9620    -3.6570     0.1620 C.3   1 <1>  -0.1600 
 17 H       -0.0180    -0.3420    -1.1700 H     1 <1>   0.4500 
 18 H       -1.1220     1.6740    -0.5220 H     1 <1>   0.0800 
 19 H       -1.3150     1.0460     1.0950 H     1 <1>   0.0800 
 20 H       -0.2560    -1.2590     1.6330 H     1 <1>   0.0800 
 21 H        0.6000    -2.0810     0.3540 H     1 <1>   0.0800 
 22 H        1.2720     0.6000     1.2850 H     1 <1>   0.0800 
 23 H        1.1510     1.5640    -0.1670 H     1 <1>   0.0800 
 24 H       -2.5410    -0.0630    -1.4380 H     1 <1>   0.0800 
 25 H       -3.3710     0.7550    -0.1420 H     1 <1>   0.0800 
 26 H       -1.6340    -3.0400     0.7350 H     1 <1>   0.0800 
 27 H       -1.4460    -2.4310    -0.8890 H     1 <1>   0.0800 
 28 H        2.4840    -1.1570     0.0180 H     1 <1>   0.0800 
 29 H        3.2520     0.3820    -0.1890 H     1 <1>   0.0800 
 30 H        2.2600    -0.2440    -1.4700 H     1 <1>   0.0800 
 31 H       -2.8580    -1.0550     1.4180 H     1 <1>   0.0800 
 32 H       -3.9740    -2.9100     0.2290 H     1 <1>   0.4500 
 33 H       -3.9390    -2.0380    -1.1590 H     1 <1>   0.4500 
 34 H       -5.3220    -0.3260    -0.1470 H     1 <1>   0.0800 
 35 H       -5.3190    -1.2540     1.3340 H     1 <1>   0.0800 
 36 H       -6.3690    -2.2060    -1.3360 H     1 <1>   0.0800 
 37 H       -7.7710    -0.4610    -0.3580 H     1 <1>   0.0800 
 38 H       -7.8270    -1.3160     1.1580 H     1 <1>   0.0800 
 39 H       -6.4550    -3.5600     1.3830 H     1 <1>   0.0800 
 40 H       -5.5540    -4.1320     0.0040 H     1 <1>   0.0800 
 41 H       -8.9630    -2.2730    -1.4770 H     1 <1>   0.0800 
 42 H       -9.8700    -1.7300    -0.0960 H     1 <1>   0.0800 
 43 H       -7.6630    -5.3580     0.2750 H     1 <1>   0.0800 
 44 H       -7.5990    -4.5200    -1.2470 H     1 <1>   0.0800 
 45 H       -9.7950    -4.2050    -0.2430 H     1 <1>   0.0800 
 46 H       -9.0840    -3.6210     1.2310 H     1 <1>   0.0800 
@<TRIPOS>BOND
  1   1   2  1   
  2   1   3  1   
  3   1   4  1   
  4   1  17  1   
  5   2   5  1   
  6   2  18  1   
  7   2  19  1   
  8   3   6  1   
  9   3  20  1   
 10   3  21  1   
 11   4   7  1   
 12   4  22  1   
 13   4  23  1   
 14   5   8  1   
 15   5  24  1   
 16   5  25  1   
 17   6   8  1   
 18   6  26  1   
 19   6  27  1   
 20   7  28  1   
 21   7  29  1   
 22   7  30  1   
 23   8   9  1   
 24   8  31  1   
 25   9  10  1   
 26   9  32  1   
 27   9  33  1   
 28  10  11  1   
 29  10  34  1   
 30  10  35  1   
 31  11  12  1   
 32  11  13  1   
 33  11  36  1   
 34  12  14  1   
 35  12  37  1   
 36  12  38  1   
 37  13  15  1   
 38  13  39  1   
 39  13  40  1   
 40  14  16  1   
 41  14  41  1   
 42  14  42  1   
 43  15  16  1   
 44  15  43  1   
 45  15  44  1   
 46  16  45  1   
 47  16  46  1   
@<TRIPOS>SUBSTRUCTURE
  1 ****   9 GROUP 4 **** **** 0

# MOE 2024.06 (io_trps.svl 2023.06)
