@<TRIPOS>MOLECULE
NONAME
44 45 1 0 0 
SMALL
USER_CHARGES


@<TRIPOS>ATOM
  1 O       -8.0060     2.2390    -0.2790 O.3   1 <1>  -0.2800 
  2 C       -8.7610     3.3310    -0.3050 C.2   1 <1>   0.0870 
  3 C       -6.7380     2.5860    -0.2740 C.2   1 <1>  -0.0400 
  4 C      -10.2050     3.2280    -0.3130 C.ar  1 <1>   0.0530 
  5 C       -7.9390     4.4150    -0.3180 C.2   1 <1>  -0.1500 
  6 C       -6.6280     3.9340    -0.2980 C.2   1 <1>  -0.1500 
  7 C       -5.7170     1.4660    -0.2430 C.3   1 <1>   0.5230 
  8 C      -11.0130     4.3640    -0.3270 C.ar  1 <1>  -0.1500 
  9 C      -10.8500     1.9920    -0.3070 C.ar  1 <1>  -0.1500 
 10 N       -4.3460     2.0360    -0.2390 N.4   1 <1>  -0.9060 
 11 C      -12.3920     4.2710    -0.3330 C.ar  1 <1>  -0.1500 
 12 C      -12.2290     1.8930    -0.3130 C.ar  1 <1>  -0.1500 
 13 C       -3.2330     1.0910    -0.2100 C.3   1 <1>   0.5030 
 14 C      -13.0180     3.0330    -0.3260 C.ar  1 <1>  -0.1430 
 15 C       -1.9600     1.9300    -0.2110 C.3   1 <1>  -0.2400 
 16 C       -3.3000     0.2510     1.0650 C.3   1 <1>  -0.2400 
 17 C       -3.2730     0.2060    -1.4560 C.3   1 <1>  -0.2400 
 18 C      -14.5370     2.9120    -0.3310 C.3   1 <1>   0.3440 
 19 O      -15.0250     3.6770    -1.3650 O.3   1 <1>  -0.6800 
 20 C      -15.1710     3.4150     0.9600 C.3   1 <1>  -0.2400 
 21 H       -8.2170     5.4540    -0.3390 H     1 <1>   0.1500 
 22 H       -5.7600     4.5690    -0.3020 H     1 <1>   0.1500 
 23 H       -5.8610     0.8400    -1.1090 H     1 <1>   0.0800 
 24 H       -5.8790     0.8700     0.6400 H     1 <1>   0.0800 
 25 H      -10.5630     5.3400    -0.3320 H     1 <1>   0.1500 
 26 H      -10.2630     1.0910    -0.2960 H     1 <1>   0.1500 
 27 H       -4.2680     2.6530     0.5740 H     1 <1>   0.4500 
 28 H       -4.2510     2.6240    -1.0710 H     1 <1>   0.4500 
 29 H      -12.9880     5.1690    -0.3430 H     1 <1>   0.1500 
 30 H      -12.6870     0.9180    -0.3060 H     1 <1>   0.1500 
 31 H       -1.9100     2.5650     0.6550 H     1 <1>   0.0800 
 32 H       -1.8910     2.5340    -1.0990 H     1 <1>   0.0800 
 33 H       -1.0970     1.2860    -0.1910 H     1 <1>   0.0800 
 34 H       -3.3220     0.8740     1.9410 H     1 <1>   0.0800 
 35 H       -2.4260    -0.3740     1.1310 H     1 <1>   0.0800 
 36 H       -4.1550    -0.4020     1.0700 H     1 <1>   0.0800 
 37 H       -3.2750     0.7980    -2.3540 H     1 <1>   0.0800 
 38 H       -4.1270    -0.4460    -1.4560 H     1 <1>   0.0800 
 39 H       -2.3980    -0.4210    -1.4810 H     1 <1>   0.0800 
 40 H      -14.8320     1.8920    -0.5160 H     1 <1>   0.0800 
 41 H      -14.4200     3.5850    -2.1240 H     1 <1>   0.4000 
 42 H      -14.9270     4.4490     1.1210 H     1 <1>   0.0800 
 43 H      -14.7990     2.8420     1.7900 H     1 <1>   0.0800 
 44 H      -16.2380     3.3010     0.9140 H     1 <1>   0.0800 
@<TRIPOS>BOND
  1   1   2  1   
  2   1   3  1   
  3   2   4  1   
  4   2   5  2   
  5   3   6  2   
  6   3   7  1   
  7   4   8  ar  
  8   4   9  ar  
  9   5   6  1   
 10   5  21  1   
 11   6  22  1   
 12   7  10  1   
 13   7  23  1   
 14   7  24  1   
 15   8  11  ar  
 16   8  25  1   
 17   9  12  ar  
 18   9  26  1   
 19  10  13  1   
 20  10  27  1   
 21  10  28  1   
 22  11  14  ar  
 23  11  29  1   
 24  12  14  ar  
 25  12  30  1   
 26  13  15  1   
 27  13  16  1   
 28  13  17  1   
 29  14  18  1   
 30  15  31  1   
 31  15  32  1   
 32  15  33  1   
 33  16  34  1   
 34  16  35  1   
 35  16  36  1   
 36  17  37  1   
 37  17  38  1   
 38  17  39  1   
 39  18  19  1   
 40  18  20  1   
 41  18  40  1   
 42  19  41  1   
 43  20  42  1   
 44  20  43  1   
 45  20  44  1   
@<TRIPOS>SUBSTRUCTURE
  1 ****   2 GROUP 4 **** **** 0

# MOE 2024.06 (io_trps.svl 2023.06)
