@<TRIPOS>MOLECULE
NONAME
35 35 1 0 0 
SMALL
USER_CHARGES


@<TRIPOS>ATOM
  1 O       -9.3770    -0.8750     0.0940 O.3   1 <1>  -0.3630 
  2 C      -10.7220    -0.7350    -0.0410 C.ar  1 <1>   0.0830 
  3 C       -8.4800     0.0590    -0.4480 C.3   1 <1>   0.1200 
  4 C      -11.5290    -1.7100     0.5390 C.ar  1 <1>  -0.1440 
  5 C      -11.3090     0.3300    -0.7240 C.ar  1 <1>  -0.1500 
  6 C       -7.0720    -0.4220    -0.0950 C.3   1 <1>   0.3430 
  7 C      -12.9060    -1.6080     0.4290 C.ar  1 <1>  -0.1500 
  8 C      -10.9220    -2.8860     1.2910 C.3   1 <1>  -0.0960 
  9 C      -12.6860     0.4240    -0.8310 C.ar  1 <1>  -0.1440 
 10 N       -6.0180     0.4990    -0.6210 N.4   1 <1>  -0.9060 
 11 C      -13.4810    -0.5490    -0.2500 C.ar  1 <1>  -0.1500 
 12 C      -13.3270     1.5840    -1.5720 C.3   1 <1>  -0.0970 
 13 C       -4.6530     0.0090    -0.2640 C.3   1 <1>   0.3430 
 14 C       -3.5520     0.9370    -0.7920 C.3   1 <1>   0.1200 
 15 O       -2.3410     0.3960    -0.4090 O.3   1 <1>  -0.6800 
 16 H       -8.6890     1.0160    -0.0020 H     1 <1>   0.0800 
 17 H       -8.6290     0.0830    -1.5130 H     1 <1>   0.0800 
 18 H      -10.7160     1.0970    -1.1790 H     1 <1>   0.1500 
 19 H       -6.9330    -1.4080    -0.5110 H     1 <1>   0.0800 
 20 H       -6.9920    -0.4900     0.9780 H     1 <1>   0.0800 
 21 H      -13.5430    -2.3530     0.8720 H     1 <1>   0.1500 
 22 H      -10.2860    -3.4510     0.6340 H     1 <1>   0.0800 
 23 H      -11.6870    -3.5390     1.6700 H     1 <1>   0.0800 
 24 H      -10.3390    -2.5270     2.1200 H     1 <1>   0.0800 
 25 H       -6.1560     1.4400    -0.2300 H     1 <1>   0.4500 
 26 H       -6.0990     0.5680    -1.6440 H     1 <1>   0.4500 
 27 H      -14.5530    -0.4870    -0.3220 H     1 <1>   0.1500 
 28 H      -12.6760     1.9460    -2.3470 H     1 <1>   0.0800 
 29 H      -13.5330     2.3850    -0.8860 H     1 <1>   0.0800 
 30 H      -14.2500     1.2720    -2.0280 H     1 <1>   0.0800 
 31 H       -4.4990    -0.9750    -0.6790 H     1 <1>   0.0800 
 32 H       -4.5590    -0.0580     0.8090 H     1 <1>   0.0800 
 33 H       -3.6270     1.9210    -0.3600 H     1 <1>   0.0800 
 34 H       -3.5660     0.9920    -1.8670 H     1 <1>   0.0800 
 35 H       -1.5810     0.9400    -0.7130 H     1 <1>   0.4000 
@<TRIPOS>BOND
  1   1   2  1   
  2   1   3  1   
  3   2   4  ar  
  4   2   5  ar  
  5   3   6  1   
  6   3  16  1   
  7   3  17  1   
  8   4   7  ar  
  9   4   8  1   
 10   5   9  ar  
 11   5  18  1   
 12   6  10  1   
 13   6  19  1   
 14   6  20  1   
 15   7  11  ar  
 16   7  21  1   
 17   8  22  1   
 18   8  23  1   
 19   8  24  1   
 20   9  11  ar  
 21   9  12  1   
 22  10  13  1   
 23  10  25  1   
 24  10  26  1   
 25  11  27  1   
 26  12  28  1   
 27  12  29  1   
 28  12  30  1   
 29  13  14  1   
 30  13  31  1   
 31  13  32  1   
 32  14  15  1   
 33  14  33  1   
 34  14  34  1   
 35  15  35  1   
@<TRIPOS>SUBSTRUCTURE
  1 ****   1 GROUP 4 **** **** 0

# MOE 2024.06 (io_trps.svl 2023.06)
