@<TRIPOS>MOLECULE
NONAME
41 43 1 0 0 
SMALL
USER_CHARGES


@<TRIPOS>ATOM
  1 CL      -2.0580    -1.1750    -2.0060 Cl    1 <1>  -0.1770 
  2 C       -1.0240    -1.8500    -0.7710 C.ar  1 <1>   0.1770 
  3 C       -1.5230    -2.1850     0.4830 C.ar  1 <1>  -0.0090 
  4 C        0.3080    -2.0350    -1.1070 C.ar  1 <1>  -0.1500 
  5 S       -3.2620    -1.9430     0.9070 S.o2  1 <1>   1.4470 
  6 C       -0.6290    -2.7180     1.4080 C.ar  1 <1>  -0.1500 
  7 C        1.1820    -2.5690    -0.1770 C.ar  1 <1>  -0.1500 
  8 O       -3.6300    -0.5630     0.6830 O.2   1 <1>  -0.6500 
  9 O       -3.5210    -2.5200     2.2080 O.2   1 <1>  -0.6500 
 10 N       -4.0970    -2.9100    -0.2100 N.am  1 <1>  -0.8490 
 11 C        0.7000    -2.9040     1.0740 C.ar  1 <1>   0.1770 
 12 C       -5.4750    -2.4370    -0.4160 C.3   1 <1>   0.1960 
 13 C       -4.0470    -4.3340     0.1330 C.3   1 <1>   0.1960 
 14 CL       1.7900    -3.5770     2.2560 Cl    1 <1>  -0.1770 
 15 C       -6.1810    -3.2350    -1.5210 C.3   1 <1>  -0.0190 
 16 C       -4.6600    -5.1710    -0.9930 C.3   1 <1>  -0.1600 
 17 C       -7.6100    -2.7360    -1.6830 C.2   1 <1>   0.5690 
 18 C       -6.1110    -4.7530    -1.2620 C.3   1 <1>  -0.1600 
 19 O       -7.9060    -2.1570    -2.7000 O.2   1 <1>  -0.5700 
 20 N       -8.5070    -2.9490    -0.6810 N.am  1 <1>  -0.5790 
 21 C       -9.9090    -2.5120    -0.6860 C.3   1 <1>   0.0490 
 22 C      -10.5140    -2.0880     0.6100 C.3   1 <1>  -0.2000 
 23 C      -10.9180    -3.3870    -0.0200 C.3   1 <1>  -0.2000 
 24 H        0.6520    -1.7620    -2.0900 H     1 <1>   0.1500 
 25 H       -0.9640    -2.9900     2.3950 H     1 <1>   0.1500 
 26 H        2.2210    -2.7220    -0.4120 H     1 <1>   0.1500 
 27 H       -5.4610    -1.4000    -0.7110 H     1 <1>   0.0800 
 28 H       -6.0200    -2.5130     0.5100 H     1 <1>   0.0800 
 29 H       -4.5830    -4.5120     1.0530 H     1 <1>   0.0800 
 30 H       -3.0240    -4.6380     0.2770 H     1 <1>   0.0800 
 31 H       -5.6640    -3.0270    -2.4410 H     1 <1>   0.0800 
 32 H       -4.6270    -6.2120    -0.7240 H     1 <1>   0.0800 
 33 H       -4.0700    -5.0420    -1.8840 H     1 <1>   0.0800 
 34 H       -6.4930    -5.2850    -2.1180 H     1 <1>   0.0800 
 35 H       -6.7130    -5.0150    -0.4100 H     1 <1>   0.0800 
 36 H       -8.2260    -3.4630     0.1520 H     1 <1>   0.3700 
 37 H      -10.1910    -1.9870    -1.5860 H     1 <1>   0.1000 
 38 H      -11.2240    -1.2780     0.6040 H     1 <1>   0.1000 
 39 H       -9.9080    -2.1000     1.4980 H     1 <1>   0.1000 
 40 H      -10.5960    -4.3100     0.4280 H     1 <1>   0.1000 
 41 H      -11.9010    -3.4580    -0.4520 H     1 <1>   0.1000 
@<TRIPOS>BOND
  1   1   2  1   
  2   2   3  ar  
  3   2   4  ar  
  4   3   5  1   
  5   3   6  ar  
  6   4   7  ar  
  7   4  24  1   
  8   5   8  2   
  9   5   9  2   
 10   5  10  am  
 11   6  11  ar  
 12   6  25  1   
 13   7  11  ar  
 14   7  26  1   
 15  10  12  1   
 16  10  13  1   
 17  11  14  1   
 18  12  15  1   
 19  12  27  1   
 20  12  28  1   
 21  13  16  1   
 22  13  29  1   
 23  13  30  1   
 24  15  17  1   
 25  15  18  1   
 26  15  31  1   
 27  16  18  1   
 28  16  32  1   
 29  16  33  1   
 30  17  19  2   
 31  17  20  am  
 32  18  34  1   
 33  18  35  1   
 34  20  21  1   
 35  20  36  1   
 36  21  22  1   
 37  21  23  1   
 38  21  37  1   
 39  22  23  1   
 40  22  38  1   
 41  22  39  1   
 42  23  40  1   
 43  23  41  1   
@<TRIPOS>SUBSTRUCTURE
  1 ****  10 GROUP 4 **** **** 0

# MOE 2024.06 (io_trps.svl 2023.06)
