@<TRIPOS>MOLECULE
NONAME
40 41 1 0 0 
SMALL
USER_CHARGES


@<TRIPOS>ATOM
  1 O       -1.6170    -0.0630     1.8040 O.2   1 <1>  -0.5700 
  2 C       -2.3160    -0.8020     1.1370 C.2   1 <1>   0.7060 
  3 O       -3.5520    -0.3890     0.8720 O.3   1 <1>  -0.2330 
  4 C       -1.8860    -2.0760     0.6200 C.2   1 <1>  -0.1240 
  5 C       -4.4440    -1.1040     0.1530 C.ar  1 <1>   0.0820 
  6 C       -2.7280    -2.8270    -0.1410 C.2   1 <1>  -0.1670 
  7 C       -0.4550    -2.4950     0.9780 C.3   1 <1>  -0.1020 
  8 C       -4.0700    -2.3520    -0.3700 C.ar  1 <1>   0.0280 
  9 C       -5.7180    -0.5740    -0.0350 C.ar  1 <1>  -0.1440 
 10 C       -2.3290    -4.1550    -0.7900 C.3   1 <1>  -0.1020 
 11 C       -5.0460    -3.0590    -1.0810 C.ar  1 <1>  -0.1500 
 12 C       -6.6630    -1.3100    -0.7380 C.ar  1 <1>   0.0830 
 13 C       -6.0600     0.8010     0.5440 C.3   1 <1>  -0.0960 
 14 C       -6.3140    -2.5520    -1.2640 C.ar  1 <1>  -0.1500 
 15 O       -7.9070    -0.7940    -0.8790 O.3   1 <1>  -0.3620 
 16 C       -9.0210    -1.5980    -1.2420 C.3   1 <1>   0.1810 
 17 C      -10.3410    -0.8650    -1.0120 C.2   1 <1>   0.5690 
 18 O      -11.0870    -0.7730    -1.9620 O.2   1 <1>  -0.5700 
 19 N      -10.6820    -0.3580     0.2250 N.am  1 <1>  -0.6600 
 20 C      -11.9390     0.4150     0.4290 C.3   1 <1>   0.0600 
 21 C       -9.8210    -0.4520     1.4380 C.3   1 <1>   0.0600 
 22 H       -0.1790    -2.1120     1.9450 H     1 <1>   0.0800 
 23 H        0.2320    -2.1010     0.2520 H     1 <1>   0.0800 
 24 H       -0.3470    -3.5610     1.0300 H     1 <1>   0.0800 
 25 H       -2.5670    -4.1360    -1.8380 H     1 <1>   0.0800 
 26 H       -2.8620    -4.9650    -0.3250 H     1 <1>   0.0800 
 27 H       -1.2790    -4.3590    -0.7210 H     1 <1>   0.0800 
 28 H       -4.8220    -4.0220    -1.5000 H     1 <1>   0.1500 
 29 H       -6.9120     1.2390     0.0570 H     1 <1>   0.0800 
 30 H       -5.2350     1.4780     0.4160 H     1 <1>   0.0800 
 31 H       -6.2710     0.7090     1.5940 H     1 <1>   0.0800 
 32 H       -7.0220    -3.1320    -1.8260 H     1 <1>   0.1500 
 33 H       -9.0080    -2.4930    -0.6490 H     1 <1>   0.0800 
 34 H       -8.9260    -1.8470    -2.2830 H     1 <1>   0.0800 
 35 H      -12.4880     0.5090    -0.4920 H     1 <1>   0.0800 
 36 H      -11.7040     1.4010     0.7890 H     1 <1>   0.0800 
 37 H      -12.5620    -0.0880     1.1490 H     1 <1>   0.0800 
 38 H       -9.1390    -1.2810     1.3680 H     1 <1>   0.0800 
 39 H      -10.4320    -0.5920     2.3120 H     1 <1>   0.0800 
 40 H       -9.2540     0.4560     1.5460 H     1 <1>   0.0800 
@<TRIPOS>BOND
  1   1   2  2   
  2   2   3  1   
  3   2   4  1   
  4   3   5  1   
  5   4   6  2   
  6   4   7  1   
  7   5   8  ar  
  8   5   9  ar  
  9   6   8  1   
 10   6  10  1   
 11   7  22  1   
 12   7  23  1   
 13   7  24  1   
 14   8  11  ar  
 15   9  12  ar  
 16   9  13  1   
 17  10  25  1   
 18  10  26  1   
 19  10  27  1   
 20  11  14  ar  
 21  11  28  1   
 22  12  14  ar  
 23  12  15  1   
 24  13  29  1   
 25  13  30  1   
 26  13  31  1   
 27  14  32  1   
 28  15  16  1   
 29  16  17  1   
 30  16  33  1   
 31  16  34  1   
 32  17  18  2   
 33  17  19  am  
 34  19  20  1   
 35  19  21  1   
 36  20  35  1   
 37  20  36  1   
 38  20  37  1   
 39  21  38  1   
 40  21  39  1   
 41  21  40  1   
@<TRIPOS>SUBSTRUCTURE
  1 ****   9 GROUP 4 **** **** 0

# MOE 2024.06 (io_trps.svl 2023.06)
