@<TRIPOS>MOLECULE
NONAME
26 27 1 0 0 
SMALL
USER_CHARGES


@<TRIPOS>ATOM
  1 O        1.4100     0.2840     1.7170 O.2   1 <1>  -0.5700 
  2 C        1.7510     1.3770     1.3790 C.2   1 <1>   0.4490 
  3 C        1.3580     1.9850     0.0380 C.3   1 <1>  -0.0190 
  4 C        2.4380     2.9430    -0.4920 C.3   1 <1>  -0.0170 
  5 C        0.0030     2.7040     0.1390 C.3   1 <1>  -0.2400 
  6 C        3.8100     2.2860    -0.5380 C.ar  1 <1>  -0.1430 
  7 C        4.7960     2.6650     0.3680 C.ar  1 <1>  -0.1500 
  8 C        4.0800     1.3030    -1.4900 C.ar  1 <1>  -0.1500 
  9 C        6.0240     2.0400     0.2950 C.ar  1 <1>   0.0830 
 10 C        5.3230     0.6850    -1.5480 C.ar  1 <1>  -0.1500 
 11 O        7.1030     2.2420     1.0590 O.3   1 <1>  -0.3620 
 12 C        6.2820     1.0770    -0.6360 C.ar  1 <1>   0.0830 
 13 C        8.1100     1.3480     0.5870 C.3   1 <1>   0.4000 
 14 O        7.5340     0.6290    -0.5010 O.3   1 <1>  -0.3630 
 15 H        2.3510     1.9980     2.0210 H     1 <1>   0.0600 
 16 H        1.2530     1.1710    -0.6580 H     1 <1>   0.0800 
 17 H        2.4800     3.8200     0.1300 H     1 <1>   0.0800 
 18 H        2.1740     3.2670    -1.4840 H     1 <1>   0.0800 
 19 H        0.0550     3.5220     0.8360 H     1 <1>   0.0800 
 20 H       -0.7520     2.0150     0.4790 H     1 <1>   0.0800 
 21 H       -0.2950     3.0840    -0.8220 H     1 <1>   0.0800 
 22 H        4.6310     3.4210     1.1140 H     1 <1>   0.1500 
 23 H        3.3200     1.0090    -2.1930 H     1 <1>   0.1500 
 24 H        5.5440    -0.0760    -2.2740 H     1 <1>   0.1500 
 25 H        8.3780     0.6620     1.3710 H     1 <1>   0.0800 
 26 H        8.9580     1.9100     0.2400 H     1 <1>   0.0800 
@<TRIPOS>BOND
  1   1   2  2   
  2   2   3  1   
  3   2  15  1   
  4   3   4  1   
  5   3   5  1   
  6   3  16  1   
  7   4   6  1   
  8   4  17  1   
  9   4  18  1   
 10   5  19  1   
 11   5  20  1   
 12   5  21  1   
 13   6   7  ar  
 14   6   8  ar  
 15   7   9  ar  
 16   7  22  1   
 17   8  10  ar  
 18   8  23  1   
 19   9  11  1   
 20   9  12  ar  
 21  10  12  ar  
 22  10  24  1   
 23  11  13  1   
 24  12  14  1   
 25  13  14  1   
 26  13  25  1   
 27  13  26  1   
@<TRIPOS>SUBSTRUCTURE
  1 ****   6 GROUP 4 **** **** 0

# MOE 2024.06 (io_trps.svl 2023.06)
