@<TRIPOS>MOLECULE
NONAME
36 38 1 0 0 
SMALL
USER_CHARGES


@<TRIPOS>ATOM
  1 F       -0.8840    -1.2620     1.7210 F     1 <1>  -0.1900 
  2 C       -0.7470    -2.4400     1.1680 C.ar  1 <1>   0.1900 
  3 C        0.3900    -2.7000     0.4270 C.ar  1 <1>  -0.1500 
  4 C       -1.7450    -3.3780     1.3420 C.ar  1 <1>  -0.1500 
  5 C        0.5440    -3.9450    -0.1650 C.ar  1 <1>  -0.1440 
  6 C       -1.5860    -4.6190     0.7540 C.ar  1 <1>  -0.1500 
  7 C       -0.4480    -4.9190     0.0090 C.ar  1 <1>   0.1170 
  8 C        1.7910    -4.2110    -0.9960 C.3   1 <1>  -0.0960 
  9 N       -0.3820    -6.2000    -0.5470 N.am  1 <1>  -0.5470 
 10 C        0.4810    -7.2130    -0.2390 C.2   1 <1>   0.5690 
 11 O        1.5030    -7.0060     0.3740 O.2   1 <1>  -0.5700 
 12 C        0.2140    -8.6410    -0.7580 C.3   1 <1>  -0.0190 
 13 C       -1.4070    -9.2100    -0.8700 C.3   1 <1>  -0.1860 
 14 C        1.0530    -9.8210     0.0640 C.3   1 <1>   0.0580 
 15 C       -2.4620    -8.2280    -0.3960 C.2   1 <1>   0.9060 
 16 C       -1.4460   -10.6910    -0.1260 C.3   1 <1>   0.0580 
 17 C        0.8710   -11.3390     0.5890 C.2   1 <1>  -0.2880 
 18 C       -0.2330   -10.1430    -0.0720 C.3   1 <1>  -0.1600 
 19 O       -2.7930    -7.3460    -1.1940 O.co2 1 <1>  -0.9000 
 20 O       -2.8850    -8.2490     0.7590 O.co2 1 <1>  -0.9000 
 21 C       -0.4370   -11.7940     0.4910 C.2   1 <1>  -0.2880 
 22 H        1.1360    -1.9350     0.3200 H     1 <1>   0.1500 
 23 H       -2.6210    -3.1480     1.9200 H     1 <1>   0.1500 
 24 H       -2.3450    -5.3790     0.8680 H     1 <1>   0.1500 
 25 H        2.2160    -3.2920    -1.3540 H     1 <1>   0.0800 
 26 H        1.5530    -4.8260    -1.8440 H     1 <1>   0.0800 
 27 H        2.5240    -4.7200    -0.3950 H     1 <1>   0.0800 
 28 H       -1.2940    -6.5130    -0.9330 H     1 <1>   0.3700 
 29 H        0.6040    -8.6110    -1.7640 H     1 <1>   0.0800 
 30 H       -1.6360    -9.3590    -1.9140 H     1 <1>   0.0800 
 31 H        1.3950    -9.3310     0.9640 H     1 <1>   0.0800 
 32 H       -2.1520   -10.5630     0.6840 H     1 <1>   0.0800 
 33 H        1.7380   -11.8560     0.9630 H     1 <1>   0.1500 
 34 H       -0.4680    -9.7020     0.9830 H     1 <1>   0.0800 
 35 H        0.0260   -10.6540    -1.1470 H     1 <1>   0.0800 
 36 H       -0.8420   -12.7510     0.7700 H     1 <1>   0.1500 
@<TRIPOS>BOND
  1   1   2  1   
  2   2   3  ar  
  3   2   4  ar  
  4   3   5  ar  
  5   3  22  1   
  6   4   6  ar  
  7   4  23  1   
  8   5   7  ar  
  9   5   8  1   
 10   6   7  ar  
 11   6  24  1   
 12   7   9  1   
 13   8  25  1   
 14   8  26  1   
 15   8  27  1   
 16   9  10  am  
 17   9  28  1   
 18  10  11  2   
 19  10  12  1   
 20  12  13  1   
 21  12  14  1   
 22  12  29  1   
 23  13  15  1   
 24  13  16  1   
 25  13  30  1   
 26  14  17  1   
 27  14  18  1   
 28  14  31  1   
 29  15  19  ar  
 30  15  20  ar  
 31  16  18  1   
 32  16  21  1   
 33  16  32  1   
 34  17  21  2   
 35  17  33  1   
 36  18  34  1   
 37  18  35  1   
 38  21  36  1   
@<TRIPOS>SUBSTRUCTURE
  1 ****   9 GROUP 4 **** **** 0

# MOE 2024.06 (io_trps.svl 2023.06)
