@<TRIPOS>MOLECULE
NONAME
43 44 1 0 0 
SMALL
USER_CHARGES


@<TRIPOS>ATOM
  1 CL       1.8030    -0.8400    -1.4700 Cl    1 <1>  -0.1770 
  2 C        1.0300    -2.1350    -0.5860 C.ar  1 <1>   0.1770 
  3 C        1.5870    -2.6650     0.5760 C.ar  1 <1>  -0.1440 
  4 C       -0.1700    -2.5990    -1.0900 C.ar  1 <1>  -0.1500 
  5 C        0.8970    -3.6840     1.2250 C.ar  1 <1>  -0.1500 
  6 C        2.9060    -2.1790     1.1730 C.3   1 <1>   0.5020 
  7 C       -0.8500    -3.6060    -0.4320 C.ar  1 <1>   0.0830 
  8 C       -0.2990    -4.1700     0.7230 C.ar  1 <1>   0.0830 
  9 N        2.6490    -0.8720     1.7960 N.am  1 <1>  -0.7300 
 10 C        4.0910    -2.1770     0.1880 C.2   1 <1>  -0.1240 
 11 O       -2.0420    -3.9920    -0.9430 O.3   1 <1>  -0.3630 
 12 O       -0.8840    -5.1890     1.3960 O.3   1 <1>  -0.3630 
 13 C        3.3410     0.2390     1.5090 C.2   1 <1>   0.6900 
 14 C        4.7720    -1.0070     0.0060 C.2   1 <1>  -0.0290 
 15 C        4.3580    -3.4280    -0.4660 C.2   1 <1>   0.4950 
 16 C       -3.1770    -3.7180    -0.1520 C.3   1 <1>   0.2580 
 17 C       -0.9940    -6.4210     0.7140 C.3   1 <1>   0.0400 
 18 O        3.0310     1.3020     1.9940 O.2   1 <1>  -0.5700 
 19 N        4.3920     0.1440     0.6620 N.am  1 <1>  -0.5390 
 20 C        5.9780    -0.8060    -0.9000 C.3   1 <1>  -0.1020 
 21 O        4.9390    -3.5150    -1.5180 O.2   1 <1>  -0.5700 
 22 C        3.9320    -4.7620     0.1220 C.3   1 <1>  -0.1790 
 23 C       -4.4080    -4.0130    -0.9860 C.2   1 <1>  -0.2880 
 24 C       -5.3770    -3.1380    -1.2730 C.2   1 <1>  -0.3000 
 25 H       -0.5800    -2.1710    -1.9870 H     1 <1>   0.1500 
 26 H        1.2770    -4.1230     2.1300 H     1 <1>   0.1500 
 27 H        3.1730    -2.8370     1.9810 H     1 <1>   0.0800 
 28 H        1.7780    -0.7520     2.3070 H     1 <1>   0.3700 
 29 H       -3.1480    -2.6830     0.1400 H     1 <1>   0.0800 
 30 H       -3.1530    -4.3430     0.7220 H     1 <1>   0.0800 
 31 H       -1.3640    -7.1570     1.4040 H     1 <1>   0.0800 
 32 H       -0.0220    -6.7090     0.3550 H     1 <1>   0.0800 
 33 H       -1.6790    -6.3170    -0.1080 H     1 <1>   0.0800 
 34 H        4.8530     1.0360     0.4850 H     1 <1>   0.3700 
 35 H        6.6670    -0.1070    -0.4600 H     1 <1>   0.0800 
 36 H        5.6550    -0.4240    -1.8510 H     1 <1>   0.0800 
 37 H        6.5160    -1.7210    -1.0610 H     1 <1>   0.0800 
 38 H        2.9470    -5.0160    -0.2240 H     1 <1>   0.0800 
 39 H        3.9580    -4.7520     1.1940 H     1 <1>   0.0800 
 40 H        4.6080    -5.5270    -0.2150 H     1 <1>   0.0800 
 41 H       -4.4220    -5.0300    -1.3380 H     1 <1>   0.1500 
 42 H       -6.2410    -3.3760    -1.8710 H     1 <1>   0.1500 
 43 H       -5.3910    -2.1140    -0.9400 H     1 <1>   0.1500 
@<TRIPOS>BOND
  1   1   2  1   
  2   2   3  ar  
  3   2   4  ar  
  4   3   5  ar  
  5   3   6  1   
  6   4   7  ar  
  7   4  25  1   
  8   5   8  ar  
  9   5  26  1   
 10   6   9  1   
 11   6  10  1   
 12   6  27  1   
 13   7   8  ar  
 14   7  11  1   
 15   8  12  1   
 16   9  13  am  
 17   9  28  1   
 18  10  14  2   
 19  10  15  1   
 20  11  16  1   
 21  12  17  1   
 22  13  18  2   
 23  13  19  am  
 24  14  19  1   
 25  14  20  1   
 26  15  21  2   
 27  15  22  1   
 28  16  23  1   
 29  16  29  1   
 30  16  30  1   
 31  17  31  1   
 32  17  32  1   
 33  17  33  1   
 34  19  34  1   
 35  20  35  1   
 36  20  36  1   
 37  20  37  1   
 38  22  38  1   
 39  22  39  1   
 40  22  40  1   
 41  23  24  2   
 42  23  41  1   
 43  24  42  1   
 44  24  43  1   
@<TRIPOS>SUBSTRUCTURE
  1 ****   3 GROUP 4 **** **** 0

# MOE 2024.06 (io_trps.svl 2023.06)
