@<TRIPOS>MOLECULE
NONAME
57 58 1 0 0 
SMALL
USER_CHARGES


@<TRIPOS>ATOM
  1 O        0.6980     0.4520     0.9870 O.2   1 <1>  -0.5700 
  2 C        1.5370    -0.2680     0.4970 C.2   1 <1>   0.4950 
  3 C        2.5810     0.2220    -0.3520 C.2   1 <1>   0.0290 
  4 C        1.4110    -1.7450     0.8290 C.3   1 <1>  -0.0990 
  5 C        3.5660    -0.7080    -0.8310 C.2   1 <1>   0.4950 
  6 C        2.6100     1.5640    -0.6760 C.2   1 <1>  -0.0500 
  7 C        2.7570    -2.4820     0.8120 C.3   1 <1>   0.0000 
  8 O        4.5300    -0.3960    -1.4970 O.2   1 <1>  -0.5700 
  9 C        3.4480    -2.1930    -0.5280 C.3   1 <1>  -0.0990 
 10 N        3.5250     2.1710    -1.4700 N.pl3 1 <1>  -0.8690 
 11 C        2.5170    -3.9930     0.9520 C.3   1 <1>  -0.2400 
 12 C        3.6400    -2.0210     1.9870 C.3   1 <1>  -0.2400 
 13 C        3.5650     3.6010    -1.8340 C.3   1 <1>   0.2090 
 14 C        4.6690     4.3000    -1.0210 C.3   1 <1>   0.3430 
 15 N        4.7420     5.7850    -1.2480 N.4   1 <1>  -0.9590 
 16 C        6.0060     6.3320    -0.6320 C.3   1 <1>   0.3430 
 17 C        3.5290     6.5010    -0.7000 C.3   1 <1>   0.3430 
 18 C        6.1220     7.8550    -0.8140 C.3   1 <1>   0.1400 
 19 C        3.6250     8.0340    -0.8570 C.3   1 <1>   0.1400 
 20 N        4.9050     8.5440    -0.2760 N.am  1 <1>  -0.6600 
 21 C        5.0310     9.5160     0.6950 C.2   1 <1>   0.5690 
 22 O        6.1140     9.7470     1.1760 O.2   1 <1>  -0.5700 
 23 C        3.8170    10.3240     1.1960 C.3   1 <1>  -0.0190 
 24 C        3.3770    11.3710     0.1590 C.3   1 <1>  -0.2400 
 25 C        4.0740    11.0300     2.5410 C.3   1 <1>  -0.2400 
 26 H        0.9550    -1.8460     1.7990 H     1 <1>   0.0800 
 27 H        0.7390    -2.1830     0.1130 H     1 <1>   0.0800 
 28 H        1.8330     2.1960    -0.2690 H     1 <1>   0.1500 
 29 H        2.8990    -2.6470    -1.3330 H     1 <1>   0.0800 
 30 H        4.4320    -2.6280    -0.5260 H     1 <1>   0.0800 
 31 H        4.2570     1.5600    -1.8930 H     1 <1>   0.4000 
 32 H        1.9030    -4.3620     0.1490 H     1 <1>   0.0800 
 33 H        2.0230    -4.2140     1.8820 H     1 <1>   0.0800 
 34 H        3.4510    -4.5280     0.9330 H     1 <1>   0.0800 
 35 H        3.1580    -2.2340     2.9260 H     1 <1>   0.0800 
 36 H        3.8430    -0.9660     1.9510 H     1 <1>   0.0800 
 37 H        4.5830    -2.5400     1.9740 H     1 <1>   0.0800 
 38 H        3.7600     3.6870    -2.8890 H     1 <1>   0.0800 
 39 H        2.6050     4.0360    -1.6160 H     1 <1>   0.0800 
 40 H        5.6100     3.8490    -1.2890 H     1 <1>   0.0800 
 41 H        4.4950     4.1040     0.0250 H     1 <1>   0.0800 
 42 H        4.7960     5.9640    -2.2600 H     1 <1>   0.4500 
 43 H        6.0220     6.1170     0.4240 H     1 <1>   0.0800 
 44 H        6.8670     5.8600    -1.0770 H     1 <1>   0.0800 
 45 H        2.6400     6.1560    -1.2010 H     1 <1>   0.0800 
 46 H        3.4230     6.2750     0.3490 H     1 <1>   0.0800 
 47 H        6.2340     8.0940    -1.8570 H     1 <1>   0.0800 
 48 H        7.0130     8.1940    -0.3140 H     1 <1>   0.0800 
 49 H        2.7730     8.4830    -0.3820 H     1 <1>   0.0800 
 50 H        3.5840     8.2940    -1.9000 H     1 <1>   0.0800 
 51 H        3.0050     9.6430     1.3690 H     1 <1>   0.0800 
 52 H        4.1690    12.0820    -0.0040 H     1 <1>   0.0800 
 53 H        2.5080    11.9020     0.5040 H     1 <1>   0.0800 
 54 H        3.1420    10.9080    -0.7820 H     1 <1>   0.0800 
 55 H        4.8630    11.7560     2.4410 H     1 <1>   0.0800 
 56 H        4.3700    10.3140     3.2870 H     1 <1>   0.0800 
 57 H        3.1860    11.5330     2.8830 H     1 <1>   0.0800 
@<TRIPOS>BOND
  1   1   2  2   
  2   2   3  1   
  3   2   4  1   
  4   3   5  1   
  5   3   6  2   
  6   4   7  1   
  7   4  26  1   
  8   4  27  1   
  9   5   8  2   
 10   5   9  1   
 11   6  10  1   
 12   6  28  1   
 13   7   9  1   
 14   7  11  1   
 15   7  12  1   
 16   9  29  1   
 17   9  30  1   
 18  10  13  1   
 19  10  31  1   
 20  11  32  1   
 21  11  33  1   
 22  11  34  1   
 23  12  35  1   
 24  12  36  1   
 25  12  37  1   
 26  13  14  1   
 27  13  38  1   
 28  13  39  1   
 29  14  15  1   
 30  14  40  1   
 31  14  41  1   
 32  15  16  1   
 33  15  17  1   
 34  15  42  1   
 35  16  18  1   
 36  16  43  1   
 37  16  44  1   
 38  17  19  1   
 39  17  45  1   
 40  17  46  1   
 41  18  20  1   
 42  18  47  1   
 43  18  48  1   
 44  19  20  1   
 45  19  49  1   
 46  19  50  1   
 47  20  21  am  
 48  21  22  2   
 49  21  23  1   
 50  23  24  1   
 51  23  25  1   
 52  23  51  1   
 53  24  52  1   
 54  24  53  1   
 55  24  54  1   
 56  25  55  1   
 57  25  56  1   
 58  25  57  1   
@<TRIPOS>SUBSTRUCTURE
  1 ****  14 GROUP 4 **** **** 0

# MOE 2024.06 (io_trps.svl 2023.06)
