@<TRIPOS>MOLECULE
NONAME
43 43 1 0 0 
SMALL
USER_CHARGES


@<TRIPOS>ATOM
  1 CL       0.6680    -0.5620    -2.0490 Cl    1 <1>  -0.1770 
  2 C        0.4280    -2.0010    -1.0790 C.ar  1 <1>   0.1770 
  3 C        1.5060    -2.6060    -0.4430 C.ar  1 <1>   0.0830 
  4 C       -0.8510    -2.5100    -0.9680 C.ar  1 <1>  -0.1500 
  5 O        2.7380    -2.0490    -0.5990 O.3   1 <1>  -0.3630 
  6 C        1.2730    -3.7490     0.3200 C.ar  1 <1>  -0.1500 
  7 C       -1.0680    -3.6460    -0.2070 C.ar  1 <1>  -0.1500 
  8 C        3.8850    -2.5980     0.0000 C.3   1 <1>   0.1200 
  9 C       -0.0090    -4.2660     0.4380 C.ar  1 <1>  -0.1440 
 10 C        5.0680    -1.7150    -0.4000 C.3   1 <1>  -0.1600 
 11 C       -0.2520    -5.5130     1.2700 C.3   1 <1>  -0.0970 
 12 C        6.3920    -2.2150     0.1960 C.3   1 <1>  -0.1600 
 13 C        7.5410    -1.3040    -0.2320 C.3   1 <1>   0.3430 
 14 N        8.8090    -1.8090     0.3560 N.4   1 <1>  -0.9060 
 15 C       10.0250    -1.0520     0.0480 C.3   1 <1>   0.5030 
 16 C       10.2710    -1.0590    -1.4600 C.3   1 <1>  -0.2400 
 17 C       11.1660    -1.7690     0.7630 C.3   1 <1>  -0.2400 
 18 C        9.8950     0.3750     0.5790 C.3   1 <1>  -0.2400 
 19 H       -1.6650    -2.0210    -1.4720 H     1 <1>   0.1500 
 20 H        2.0750    -4.2490     0.8260 H     1 <1>   0.1500 
 21 H       -2.0650    -4.0440    -0.1220 H     1 <1>   0.1500 
 22 H        4.0090    -3.6030    -0.3640 H     1 <1>   0.0800 
 23 H        3.7420    -2.5970     1.0680 H     1 <1>   0.0800 
 24 H        4.8720    -0.7110    -0.0610 H     1 <1>   0.0800 
 25 H        5.1340    -1.7040    -1.4760 H     1 <1>   0.0800 
 26 H        0.4080    -5.5340     2.1190 H     1 <1>   0.0800 
 27 H       -0.0780    -6.3890     0.6720 H     1 <1>   0.0800 
 28 H       -1.2650    -5.5360     1.6310 H     1 <1>   0.0800 
 29 H        6.5730    -3.2190    -0.1500 H     1 <1>   0.0800 
 30 H        6.3110    -2.2210     1.2700 H     1 <1>   0.0800 
 31 H        7.3470    -0.2990     0.1070 H     1 <1>   0.0800 
 32 H        7.6080    -1.2940    -1.3080 H     1 <1>   0.0800 
 33 H        8.9630    -2.7730     0.0470 H     1 <1>   0.4500 
 34 H        8.7190    -1.8380     1.3760 H     1 <1>   0.4500 
 35 H        9.5150    -0.5070    -1.9880 H     1 <1>   0.0800 
 36 H       10.3130    -2.0630    -1.8430 H     1 <1>   0.0800 
 37 H       11.2140    -0.5870    -1.6740 H     1 <1>   0.0800 
 38 H       11.2750    -2.7790     0.4080 H     1 <1>   0.0800 
 39 H       11.0140    -1.7810     1.8270 H     1 <1>   0.0800 
 40 H       12.0950    -1.2570     0.5740 H     1 <1>   0.0800 
 41 H        9.1390     0.9280     0.0520 H     1 <1>   0.0800 
 42 H       10.8250     0.8980     0.4390 H     1 <1>   0.0800 
 43 H        9.6730     0.3800     1.6310 H     1 <1>   0.0800 
@<TRIPOS>BOND
  1   1   2  1   
  2   2   3  ar  
  3   2   4  ar  
  4   3   5  1   
  5   3   6  ar  
  6   4   7  ar  
  7   4  19  1   
  8   5   8  1   
  9   6   9  ar  
 10   6  20  1   
 11   7   9  ar  
 12   7  21  1   
 13   8  10  1   
 14   8  22  1   
 15   8  23  1   
 16   9  11  1   
 17  10  12  1   
 18  10  24  1   
 19  10  25  1   
 20  11  26  1   
 21  11  27  1   
 22  11  28  1   
 23  12  13  1   
 24  12  29  1   
 25  12  30  1   
 26  13  14  1   
 27  13  31  1   
 28  13  32  1   
 29  14  15  1   
 30  14  33  1   
 31  14  34  1   
 32  15  16  1   
 33  15  17  1   
 34  15  18  1   
 35  16  35  1   
 36  16  36  1   
 37  16  37  1   
 38  17  38  1   
 39  17  39  1   
 40  17  40  1   
 41  18  41  1   
 42  18  42  1   
 43  18  43  1   
@<TRIPOS>SUBSTRUCTURE
  1 ****   8 GROUP 4 **** **** 0

# MOE 2024.06 (io_trps.svl 2023.06)
