@<TRIPOS>MOLECULE
NONAME
41 42 1 0 0 
SMALL
USER_CHARGES


@<TRIPOS>ATOM
  1 S        0.4620     0.9280    -1.8260 S.3   1 <1>  -0.3320 
  2 C       -0.8470     1.5030    -0.7350 C.ar  1 <1>   0.4120 
  3 C        0.7950    -0.8560    -1.3900 C.3   1 <1>   0.1310 
  4 N       -1.2100     0.6420     0.2040 N.ar  1 <1>  -0.6200 
  5 C       -1.3780     2.7750    -0.9340 C.ar  1 <1>   0.0730 
  6 C        2.2870    -1.0970    -1.2040 C.2   1 <1>   0.5690 
  7 C       -2.1650     1.0590     1.0130 C.ar  1 <1>   0.1660 
  8 C       -0.9060     3.6180    -1.9930 C.1   1 <1>   0.4840 
  9 C       -2.3860     3.1860    -0.0690 C.ar  1 <1>  -0.1440 
 10 O        2.8370    -1.7900    -2.0280 O.2   1 <1>  -0.5700 
 11 N        2.9730    -0.5790    -0.1320 N.am  1 <1>  -0.6600 
 12 C       -2.7720     2.3000     0.9180 C.ar  1 <1>  -0.1500 
 13 C       -2.5870     0.0860     2.0940 C.3   1 <1>  -0.0960 
 14 N       -0.5930     4.3110    -2.8440 N.1   1 <1>  -0.5570 
 15 C       -3.0360     4.5580    -0.1780 C.3   1 <1>   0.2630 
 16 C        4.4430    -0.7890     0.0310 C.3   1 <1>   0.1400 
 17 C        2.3830     0.2600     0.9560 C.3   1 <1>   0.1400 
 18 O       -2.1390     5.4800     0.3430 O.3   1 <1>  -0.5600 
 19 C        4.7700    -1.2420     1.4630 C.3   1 <1>   0.1200 
 20 C        2.8340    -0.2430     2.3380 C.3   1 <1>   0.1200 
 21 C       -2.4910     6.8080     0.1220 C.3   1 <1>   0.0400 
 22 O        4.2280    -0.3540     2.4010 O.3   1 <1>  -0.5600 
 23 H        0.4270    -1.4430    -2.2100 H     1 <1>   0.0800 
 24 H        0.2650    -1.1260    -0.4990 H     1 <1>   0.0800 
 25 H       -3.5400     2.5760     1.6180 H     1 <1>   0.1500 
 26 H       -1.7450    -0.1460     2.7200 H     1 <1>   0.0800 
 27 H       -2.9420    -0.8230     1.6420 H     1 <1>   0.0800 
 28 H       -3.3690     0.4970     2.7050 H     1 <1>   0.0800 
 29 H       -3.9460     4.6070     0.3950 H     1 <1>   0.0800 
 30 H       -3.2440     4.8050    -1.2060 H     1 <1>   0.0800 
 31 H        4.9560     0.1340    -0.1750 H     1 <1>   0.0800 
 32 H        4.8000    -1.5280    -0.6640 H     1 <1>   0.0800 
 33 H        1.3110     0.2460     0.9190 H     1 <1>   0.0800 
 34 H        2.7050     1.2790     0.8280 H     1 <1>   0.0800 
 35 H        5.8350    -1.2650     1.6100 H     1 <1>   0.0800 
 36 H        4.3740    -2.2260     1.6470 H     1 <1>   0.0800 
 37 H        2.4020    -1.2060     2.5480 H     1 <1>   0.0800 
 38 H        2.5250     0.4480     3.1020 H     1 <1>   0.0800 
 39 H       -1.7460     7.4320     0.5850 H     1 <1>   0.0800 
 40 H       -3.4530     7.0030     0.5640 H     1 <1>   0.0800 
 41 H       -2.5110     7.0000    -0.9370 H     1 <1>   0.0800 
@<TRIPOS>BOND
  1   1   2  1   
  2   1   3  1   
  3   2   4  ar  
  4   2   5  ar  
  5   3   6  1   
  6   3  23  1   
  7   3  24  1   
  8   4   7  ar  
  9   5   8  1   
 10   5   9  ar  
 11   6  10  2   
 12   6  11  am  
 13   7  12  ar  
 14   7  13  1   
 15   8  14  3   
 16   9  12  ar  
 17   9  15  1   
 18  11  16  1   
 19  11  17  1   
 20  12  25  1   
 21  13  26  1   
 22  13  27  1   
 23  13  28  1   
 24  15  18  1   
 25  15  29  1   
 26  15  30  1   
 27  16  19  1   
 28  16  31  1   
 29  16  32  1   
 30  17  20  1   
 31  17  33  1   
 32  17  34  1   
 33  18  21  1   
 34  19  22  1   
 35  19  35  1   
 36  19  36  1   
 37  20  22  1   
 38  20  37  1   
 39  20  38  1   
 40  21  39  1   
 41  21  40  1   
 42  21  41  1   
@<TRIPOS>SUBSTRUCTURE
  1 ****   2 GROUP 4 **** **** 0

# MOE 2024.06 (io_trps.svl 2023.06)
