@<TRIPOS>MOLECULE
NONAME
41 42 1 0 0 
SMALL
USER_CHARGES


@<TRIPOS>ATOM
  1 O       -1.1030    -1.7090     1.4740 O.2   1 <1>  -0.5700 
  2 C       -0.5800    -2.6500     0.9130 C.2   1 <1>   0.6340 
  3 O       -1.3680    -3.6410     0.4720 O.3   1 <1>  -0.4300 
  4 C        0.8500    -2.7570     0.6920 C.ar  1 <1>   0.0860 
  5 C       -2.7640    -3.6280     0.6580 C.3   1 <1>   0.2000 
  6 C        1.4250    -3.8560     0.0450 C.ar  1 <1>  -0.1500 
  7 C        1.7200    -1.7520     1.1230 C.ar  1 <1>  -0.1500 
  8 C       -3.2620    -5.0690     0.5550 C.3   1 <1>  -0.1600 
  9 C       -3.4040    -2.7490    -0.4200 C.3   1 <1>  -0.1600 
 10 C        2.7900    -3.9490    -0.1620 C.ar  1 <1>  -0.1500 
 11 C        3.0840    -1.8370     0.9200 C.ar  1 <1>  -0.1500 
 12 C       -4.7870    -5.1140     0.6120 C.3   1 <1>   0.3430 
 13 C       -4.9250    -2.8310    -0.3420 C.3   1 <1>   0.3430 
 14 C        3.6330    -2.9330     0.2780 C.ar  1 <1>   0.0830 
 15 N       -5.3620    -4.2540    -0.4650 N.4   1 <1>  -0.9590 
 16 O        4.9750    -2.9420     0.1180 O.3   1 <1>  -0.3630 
 17 C       -6.8530    -4.3500    -0.4820 C.3   1 <1>   0.2630 
 18 C        5.6430    -4.0050    -0.5210 C.3   1 <1>   0.1200 
 19 C        7.1360    -3.6880    -0.5270 C.3   1 <1>  -0.2400 
 20 H       -2.9770    -3.2420     1.6430 H     1 <1>   0.0800 
 21 H        0.7950    -4.6550    -0.3030 H     1 <1>   0.1500 
 22 H        1.3170    -0.8890     1.6270 H     1 <1>   0.1500 
 23 H       -2.8640    -5.6400     1.3750 H     1 <1>   0.0800 
 24 H       -2.9230    -5.5150    -0.3630 H     1 <1>   0.0800 
 25 H       -3.0750    -3.0560    -1.3960 H     1 <1>   0.0800 
 26 H       -3.1100    -1.7250    -0.2710 H     1 <1>   0.0800 
 27 H        3.1800    -4.8140    -0.6640 H     1 <1>   0.1500 
 28 H        3.7360    -1.0520     1.2600 H     1 <1>   0.1500 
 29 H       -5.1210    -4.7640     1.5760 H     1 <1>   0.0800 
 30 H       -5.1200    -6.1330     0.4890 H     1 <1>   0.0800 
 31 H       -5.3560    -2.2400    -1.1360 H     1 <1>   0.0800 
 32 H       -5.2580    -2.4250     0.6000 H     1 <1>   0.0800 
 33 H       -5.0040    -4.6070    -1.3650 H     1 <1>   0.4500 
 34 H       -7.2640    -3.9860     0.4460 H     1 <1>   0.0800 
 35 H       -7.1620    -5.3740    -0.6180 H     1 <1>   0.0800 
 36 H       -7.2570    -3.7620    -1.2910 H     1 <1>   0.0800 
 37 H        5.2680    -4.0890    -1.5260 H     1 <1>   0.0800 
 38 H        5.4480    -4.9100     0.0290 H     1 <1>   0.0800 
 39 H        7.3170    -2.7740    -1.0630 H     1 <1>   0.0800 
 40 H        7.6760    -4.4830    -1.0090 H     1 <1>   0.0800 
 41 H        7.4960    -3.5900     0.4820 H     1 <1>   0.0800 
@<TRIPOS>BOND
  1   1   2  2   
  2   2   3  1   
  3   2   4  1   
  4   3   5  1   
  5   4   6  ar  
  6   4   7  ar  
  7   5   8  1   
  8   5   9  1   
  9   5  20  1   
 10   6  10  ar  
 11   6  21  1   
 12   7  11  ar  
 13   7  22  1   
 14   8  12  1   
 15   8  23  1   
 16   8  24  1   
 17   9  13  1   
 18   9  25  1   
 19   9  26  1   
 20  10  14  ar  
 21  10  27  1   
 22  11  14  ar  
 23  11  28  1   
 24  12  15  1   
 25  12  29  1   
 26  12  30  1   
 27  13  15  1   
 28  13  31  1   
 29  13  32  1   
 30  14  16  1   
 31  15  17  1   
 32  15  33  1   
 33  16  18  1   
 34  17  34  1   
 35  17  35  1   
 36  17  36  1   
 37  18  19  1   
 38  18  37  1   
 39  18  38  1   
 40  19  39  1   
 41  19  40  1   
 42  19  41  1   
@<TRIPOS>SUBSTRUCTURE
  1 ****   2 GROUP 4 **** **** 0

# MOE 2024.06 (io_trps.svl 2023.06)
