@<TRIPOS>MOLECULE
NONAME
46 49 1 0 0 
SMALL
USER_CHARGES


@<TRIPOS>ATOM
  1 S        0.4360     0.0820    -0.9140 S.3   1 <1>  -0.0800 
  2 C        0.2450     1.6760    -0.1860 C.2   1 <1>   0.3250 
  3 C        2.0510    -0.0240    -0.2930 C.2   1 <1>  -0.1100 
  4 N        1.3070     2.0490     0.4470 N.2   1 <1>  -0.5650 
  5 C       -1.0050     2.3870    -0.3460 C.ar  1 <1>   0.0530 
  6 C        2.3160     1.1000     0.3900 C.2   1 <1>   0.0460 
  7 C       -1.3050     3.4710     0.4810 C.ar  1 <1>  -0.1500 
  8 C       -1.9560     2.0480    -1.3130 C.ar  1 <1>  -0.1500 
  9 C        3.6200     1.4450     1.0930 C.3   1 <1>   0.5240 
 10 C       -2.4860     4.1790     0.3540 C.ar  1 <1>  -0.1500 
 11 C       -3.1380     2.7540    -1.4430 C.ar  1 <1>  -0.1500 
 12 N        3.9510     2.8580     0.7640 N.4   1 <1>  -0.9590 
 13 C       -3.4110     3.8260    -0.6120 C.ar  1 <1>  -0.1430 
 14 C        4.4270     2.9940    -0.6460 C.3   1 <1>   0.3430 
 15 C        4.8790     3.4710     1.7580 C.3   1 <1>   0.3430 
 16 C       -4.7100     4.5990    -0.7530 C.3   1 <1>  -0.0970 
 17 C        4.6230     4.4640    -0.9880 C.3   1 <1>  -0.1600 
 18 C        5.0800     4.9460     1.4410 C.3   1 <1>  -0.1600 
 19 C        5.5810     5.0850     0.0130 C.3   1 <1>   0.5600 
 20 O        6.8170     4.4540    -0.0940 O.3   1 <1>  -0.5600 
 21 O        5.7720     6.4180    -0.2960 O.3   1 <1>  -0.5600 
 22 C        7.7650     5.3620    -0.5340 C.3   1 <1>   0.1200 
 23 C        7.1210     6.7060    -0.2870 C.3   1 <1>   0.1200 
 24 H        2.6120    -0.9160    -0.5120 H     1 <1>   0.1500 
 25 H       -0.6030     3.7630     1.2400 H     1 <1>   0.1500 
 26 H       -1.7830     1.2260    -1.9820 H     1 <1>   0.1500 
 27 H        4.4100     0.7790     0.7880 H     1 <1>   0.0800 
 28 H        3.4690     1.3460     2.1550 H     1 <1>   0.0800 
 29 H       -2.6850     5.0070     1.0120 H     1 <1>   0.1500 
 30 H       -3.8490     2.4640    -2.1970 H     1 <1>   0.1500 
 31 H        3.0260     3.3210     0.8130 H     1 <1>   0.4500 
 32 H        3.7070     2.5620    -1.3240 H     1 <1>   0.0800 
 33 H        5.3660     2.4770    -0.7660 H     1 <1>   0.0800 
 34 H        5.8340     2.9710     1.7190 H     1 <1>   0.0800 
 35 H        4.4780     3.3690     2.7540 H     1 <1>   0.0800 
 36 H       -4.5680     5.6270    -0.4690 H     1 <1>   0.0800 
 37 H       -5.4630     4.1640    -0.1210 H     1 <1>   0.0800 
 38 H       -5.0540     4.5740    -1.7710 H     1 <1>   0.0800 
 39 H        3.6780     4.9750    -0.9590 H     1 <1>   0.0800 
 40 H        5.0290     4.5570    -1.9780 H     1 <1>   0.0800 
 41 H        5.8010     5.3680     2.1180 H     1 <1>   0.0800 
 42 H        4.1530     5.4760     1.5580 H     1 <1>   0.0800 
 43 H        7.9330     5.2030    -1.5850 H     1 <1>   0.0800 
 44 H        8.6810     5.2340     0.0150 H     1 <1>   0.0800 
 45 H        7.3870     7.0960     0.6800 H     1 <1>   0.0800 
 46 H        7.3470     7.4240    -1.0560 H     1 <1>   0.0800 
@<TRIPOS>BOND
  1   1   2  1   
  2   1   3  1   
  3   2   4  2   
  4   2   5  1   
  5   3   6  2   
  6   3  24  1   
  7   4   6  1   
  8   5   7  ar  
  9   5   8  ar  
 10   6   9  1   
 11   7  10  ar  
 12   7  25  1   
 13   8  11  ar  
 14   8  26  1   
 15   9  12  1   
 16   9  27  1   
 17   9  28  1   
 18  10  13  ar  
 19  10  29  1   
 20  11  13  ar  
 21  11  30  1   
 22  12  14  1   
 23  12  15  1   
 24  12  31  1   
 25  13  16  1   
 26  14  17  1   
 27  14  32  1   
 28  14  33  1   
 29  15  18  1   
 30  15  34  1   
 31  15  35  1   
 32  16  36  1   
 33  16  37  1   
 34  16  38  1   
 35  17  19  1   
 36  17  39  1   
 37  17  40  1   
 38  18  19  1   
 39  18  41  1   
 40  18  42  1   
 41  19  20  1   
 42  19  21  1   
 43  20  22  1   
 44  21  23  1   
 45  22  23  1   
 46  22  43  1   
 47  22  44  1   
 48  23  45  1   
 49  23  46  1   
@<TRIPOS>SUBSTRUCTURE
  1 ****   4 GROUP 4 **** **** 0

# MOE 2024.06 (io_trps.svl 2023.06)
