@<TRIPOS>MOLECULE
NONAME
32 33 1 0 0 
SMALL
USER_CHARGES


@<TRIPOS>ATOM
  1 S       -0.8150     1.1490     1.2590 S.o2  1 <1>   1.0900 
  2 O       -1.3950     1.8960     2.3480 O.2   1 <1>  -0.6500 
  3 O       -0.6670    -0.2850     1.2990 O.2   1 <1>  -0.6500 
  4 C       -1.6850     1.6120    -0.2270 C.3   1 <1>  -0.0550 
  5 C        0.7340     1.8960     0.8190 C.3   1 <1>  -0.0550 
  6 C       -0.6850     2.3340    -1.1400 C.3   1 <1>   0.0250 
  7 C        0.3910     2.9370    -0.2330 C.3   1 <1>   0.2000 
  8 S       -1.4160     3.5420    -2.2530 S.o2  1 <1>   1.2040 
  9 O        1.5280     3.2160    -0.9650 O.3   1 <1>  -0.6800 
 10 O       -0.3100     4.1960    -2.9190 O.2   1 <1>  -0.6500 
 11 O       -2.4140     2.8380    -3.0240 O.2   1 <1>  -0.6500 
 12 C       -2.2290     4.7310    -1.1540 C.ar  1 <1>  -0.0090 
 13 C       -3.5570     4.5680    -0.7760 C.ar  1 <1>  -0.1500 
 14 C       -1.5390     5.8220    -0.6400 C.ar  1 <1>  -0.1500 
 15 C       -4.1660     5.4460     0.1030 C.ar  1 <1>  -0.1500 
 16 C       -2.1420     6.7040     0.2400 C.ar  1 <1>  -0.1500 
 17 C       -3.4590     6.5160     0.6210 C.ar  1 <1>  -0.1430 
 18 C       -4.1240     7.4800     1.5880 C.3   1 <1>  -0.0970 
 19 H       -2.4950     2.2620     0.0390 H     1 <1>   0.0800 
 20 H       -2.0920     0.7510    -0.7240 H     1 <1>   0.0800 
 21 H        1.3820     1.1540     0.3920 H     1 <1>   0.0800 
 22 H        1.2090     2.3440     1.6710 H     1 <1>   0.0800 
 23 H       -0.2050     1.5750    -1.7310 H     1 <1>   0.0800 
 24 H        0.0510     3.8420     0.2440 H     1 <1>   0.0800 
 25 H        1.3310     3.7920    -1.7450 H     1 <1>   0.4000 
 26 H       -4.1300     3.7480    -1.1750 H     1 <1>   0.1500 
 27 H       -0.5160     5.9960    -0.9300 H     1 <1>   0.1500 
 28 H       -5.1950     5.2940     0.3810 H     1 <1>   0.1500 
 29 H       -1.5840     7.5400     0.6250 H     1 <1>   0.1500 
 30 H       -4.8750     6.9740     2.1670 H     1 <1>   0.0800 
 31 H       -4.5880     8.2810     1.0420 H     1 <1>   0.0800 
 32 H       -3.3990     7.8950     2.2650 H     1 <1>   0.0800 
@<TRIPOS>BOND
  1   1   2  2   
  2   1   3  2   
  3   1   4  1   
  4   1   5  1   
  5   4   6  1   
  6   4  19  1   
  7   4  20  1   
  8   5   7  1   
  9   5  21  1   
 10   5  22  1   
 11   6   7  1   
 12   6   8  1   
 13   6  23  1   
 14   7   9  1   
 15   7  24  1   
 16   8  10  2   
 17   8  11  2   
 18   8  12  1   
 19   9  25  1   
 20  12  13  ar  
 21  12  14  ar  
 22  13  15  ar  
 23  13  26  1   
 24  14  16  ar  
 25  14  27  1   
 26  15  17  ar  
 27  15  28  1   
 28  16  17  ar  
 29  16  29  1   
 30  17  18  1   
 31  18  30  1   
 32  18  31  1   
 33  18  32  1   
@<TRIPOS>SUBSTRUCTURE
  1 ****  12 GROUP 4 **** **** 0

# MOE 2024.06 (io_trps.svl 2023.06)
