@<TRIPOS>MOLECULE
NONAME
44 46 1 0 0 
SMALL
USER_CHARGES


@<TRIPOS>ATOM
  1 O       -1.0810    -8.0280     2.0240 O.3   1 <1>  -0.3630 
  2 C       -1.6710    -7.6950     0.8580 C.ar  1 <1>   0.0830 
  3 C        0.3190    -7.8650     2.1660 C.3   1 <1>   0.1200 
  4 C       -1.7280    -6.3430     0.4290 C.ar  1 <1>   0.0000 
  5 C       -2.1740    -8.7090     0.0860 C.ar  1 <1>  -0.1500 
  6 C        1.0880    -8.8410     1.2550 C.3   1 <1>   0.3430 
  7 C       -2.1850    -6.0870    -0.8840 C.ar  1 <1>   0.0000 
  8 C       -1.3630    -5.2380     1.2300 C.ar  1 <1>  -0.1500 
  9 C       -2.6760    -8.4390    -1.1890 C.ar  1 <1>  -0.1500 
 10 N        1.8900    -8.1490     0.1870 N.4   1 <1>  -0.9590 
 11 C       -2.6650    -7.1570    -1.6650 C.ar  1 <1>  -0.1500 
 12 C       -2.1600    -4.7640    -1.3710 C.ar  1 <1>  -0.1500 
 13 C       -1.3610    -3.9630     0.7370 C.ar  1 <1>  -0.1500 
 14 C        1.0610    -7.6840    -0.9580 C.3   1 <1>   0.3430 
 15 C        2.9790    -9.0240    -0.3200 C.3   1 <1>   0.3430 
 16 C       -1.7510    -3.7240    -0.5840 C.ar  1 <1>  -0.1500 
 17 C        1.4580    -6.2610    -1.3460 C.3   1 <1>  -0.1600 
 18 C        4.1490    -8.1890    -0.8500 C.3   1 <1>  -0.1600 
 19 C        2.9700    -5.9760    -1.4130 C.3   1 <1>  -0.1600 
 20 C        3.8120    -7.1500    -1.9370 C.3   1 <1>  -0.1600 
 21 H        0.5470    -8.0830     3.1940 H     1 <1>   0.0800 
 22 H        0.5850    -6.8450     1.9630 H     1 <1>   0.0800 
 23 H       -2.1800    -9.7220     0.4500 H     1 <1>   0.1500 
 24 H        0.3980    -9.5400     0.8120 H     1 <1>   0.0800 
 25 H        1.7640    -9.3990     1.8820 H     1 <1>   0.0800 
 26 H       -1.0960    -5.4080     2.2570 H     1 <1>   0.1500 
 27 H       -3.0700    -9.2460    -1.7840 H     1 <1>   0.1500 
 28 H        2.3370    -7.3110     0.5810 H     1 <1>   0.4500 
 29 H       -3.0430    -6.9430    -2.6500 H     1 <1>   0.1500 
 30 H       -2.4820    -4.5810    -2.3810 H     1 <1>   0.1500 
 31 H       -1.0740    -3.1280     1.3540 H     1 <1>   0.1500 
 32 H        0.0160    -7.7040    -0.7160 H     1 <1>   0.0800 
 33 H        1.2080    -8.3370    -1.8030 H     1 <1>   0.0800 
 34 H        2.6020    -9.6650    -1.1010 H     1 <1>   0.0800 
 35 H        3.3450    -9.6520     0.4770 H     1 <1>   0.0800 
 36 H       -1.7390    -2.7150    -0.9600 H     1 <1>   0.1500 
 37 H        0.9960    -5.5650    -0.6670 H     1 <1>   0.0800 
 38 H        1.0280    -6.0670    -2.3140 H     1 <1>   0.0800 
 39 H        4.8690    -8.8750    -1.2620 H     1 <1>   0.0800 
 40 H        4.6360    -7.7010    -0.0240 H     1 <1>   0.0800 
 41 H        3.3330    -5.6750    -0.4460 H     1 <1>   0.0800 
 42 H        3.1150    -5.1310    -2.0670 H     1 <1>   0.0800 
 43 H        3.3310    -7.6170    -2.7800 H     1 <1>   0.0800 
 44 H        4.7440    -6.7470    -2.2980 H     1 <1>   0.0800 
@<TRIPOS>BOND
  1   1   2  1   
  2   1   3  1   
  3   2   4  ar  
  4   2   5  ar  
  5   3   6  1   
  6   3  21  1   
  7   3  22  1   
  8   4   7  ar  
  9   4   8  ar  
 10   5   9  ar  
 11   5  23  1   
 12   6  10  1   
 13   6  24  1   
 14   6  25  1   
 15   7  11  ar  
 16   7  12  ar  
 17   8  13  ar  
 18   8  26  1   
 19   9  11  ar  
 20   9  27  1   
 21  10  14  1   
 22  10  15  1   
 23  10  28  1   
 24  11  29  1   
 25  12  16  ar  
 26  12  30  1   
 27  13  16  ar  
 28  13  31  1   
 29  14  17  1   
 30  14  32  1   
 31  14  33  1   
 32  15  18  1   
 33  15  34  1   
 34  15  35  1   
 35  16  36  1   
 36  17  19  1   
 37  17  37  1   
 38  17  38  1   
 39  18  20  1   
 40  18  39  1   
 41  18  40  1   
 42  19  20  1   
 43  19  41  1   
 44  19  42  1   
 45  20  43  1   
 46  20  44  1   
@<TRIPOS>SUBSTRUCTURE
  1 ****  14 GROUP 4 **** **** 0

# MOE 2024.06 (io_trps.svl 2023.06)
