@<TRIPOS>MOLECULE
NONAME
41 42 1 0 0 
SMALL
USER_CHARGES


@<TRIPOS>ATOM
  1 I       -0.8800    -0.8720     2.3770 I     1 <1>  -0.0810 
  2 C        0.4340    -2.0530     1.1700 C.ar  1 <1>   0.0810 
  3 C       -0.0700    -3.1030     0.4090 C.ar  1 <1>   0.0820 
  4 C        1.7760    -1.7220     1.1910 C.ar  1 <1>  -0.1500 
  5 O       -1.4050    -3.3640     0.4430 O.3   1 <1>  -0.3630 
  6 C        0.8340    -3.8370    -0.3560 C.ar  1 <1>  -0.1500 
  7 C        2.6610    -2.4620     0.4230 C.ar  1 <1>  -0.1430 
  8 C       -1.9750    -4.4150    -0.2910 C.3   1 <1>   0.1200 
  9 C        2.1830    -3.5150    -0.3440 C.ar  1 <1>  -0.1500 
 10 C        4.1420    -2.1270     0.4230 C.3   1 <1>  -0.0960 
 11 C       -3.4740    -4.3960     0.0090 C.3   1 <1>  -0.1600 
 12 C       -4.1980    -5.5090    -0.7360 C.3   1 <1>   0.3430 
 13 N       -5.6390    -5.4450    -0.3970 N.4   1 <1>  -0.9060 
 14 C       -6.4630    -6.4860    -1.0390 C.3   1 <1>   0.4230 
 15 C       -7.9240    -6.1720    -0.7440 C.3   1 <1>  -0.1600 
 16 C       -6.2540    -7.8160    -0.3190 C.3   1 <1>  -0.1600 
 17 C       -8.1850    -6.6830     0.6790 C.3   1 <1>  -0.1600 
 18 C       -7.1090    -7.7420     0.9530 C.3   1 <1>  -0.1600 
 19 H        2.1220    -0.9030     1.7950 H     1 <1>   0.1500 
 20 H        0.5160    -4.6600    -0.9660 H     1 <1>   0.1500 
 21 H       -1.5200    -5.3360     0.0320 H     1 <1>   0.0800 
 22 H       -1.7800    -4.2400    -1.3350 H     1 <1>   0.0800 
 23 H        2.8680    -4.0930    -0.9390 H     1 <1>   0.1500 
 24 H        4.2970    -1.0970     0.6890 H     1 <1>   0.0800 
 25 H        4.5620    -2.2920    -0.5530 H     1 <1>   0.0800 
 26 H        4.6550    -2.7500     1.1330 H     1 <1>   0.0800 
 27 H       -3.8670    -3.4400    -0.2910 H     1 <1>   0.0800 
 28 H       -3.6070    -4.5210     1.0700 H     1 <1>   0.0800 
 29 H       -3.7900    -6.4640    -0.4450 H     1 <1>   0.0800 
 30 H       -4.0620    -5.3870    -1.7990 H     1 <1>   0.0800 
 31 H       -6.0130    -4.5240    -0.6520 H     1 <1>   0.4500 
 32 H       -5.7710    -5.5430     0.6170 H     1 <1>   0.4500 
 33 H       -6.2660    -6.5470    -2.0980 H     1 <1>   0.0800 
 34 H       -8.5340    -6.7410    -1.4260 H     1 <1>   0.0800 
 35 H       -8.1720    -5.1320    -0.8650 H     1 <1>   0.0800 
 36 H       -5.2250    -8.0460    -0.1120 H     1 <1>   0.0800 
 37 H       -6.6480    -8.5990    -0.9450 H     1 <1>   0.0800 
 38 H       -9.1740    -7.1050     0.7570 H     1 <1>   0.0800 
 39 H       -8.1030    -5.8800     1.3920 H     1 <1>   0.0800 
 40 H       -6.5090    -7.4490     1.7980 H     1 <1>   0.0800 
 41 H       -7.5530    -8.7000     1.1700 H     1 <1>   0.0800 
@<TRIPOS>BOND
  1   1   2  1   
  2   2   3  ar  
  3   2   4  ar  
  4   3   5  1   
  5   3   6  ar  
  6   4   7  ar  
  7   4  19  1   
  8   5   8  1   
  9   6   9  ar  
 10   6  20  1   
 11   7   9  ar  
 12   7  10  1   
 13   8  11  1   
 14   8  21  1   
 15   8  22  1   
 16   9  23  1   
 17  10  24  1   
 18  10  25  1   
 19  10  26  1   
 20  11  12  1   
 21  11  27  1   
 22  11  28  1   
 23  12  13  1   
 24  12  29  1   
 25  12  30  1   
 26  13  14  1   
 27  13  31  1   
 28  13  32  1   
 29  14  15  1   
 30  14  16  1   
 31  14  33  1   
 32  15  17  1   
 33  15  34  1   
 34  15  35  1   
 35  16  18  1   
 36  16  36  1   
 37  16  37  1   
 38  17  18  1   
 39  17  38  1   
 40  17  39  1   
 41  18  40  1   
 42  18  41  1   
@<TRIPOS>SUBSTRUCTURE
  1 ****   8 GROUP 4 **** **** 0

# MOE 2024.06 (io_trps.svl 2023.06)
