@<TRIPOS>MOLECULE
NONAME
44 45 1 0 0 
SMALL
USER_CHARGES


@<TRIPOS>ATOM
  1 O       -4.4780    -6.3030     0.2610 O.3   1 <1>  -0.3630 
  2 C       -3.3950    -5.5380    -0.0130 C.ar  1 <1>   0.0830 
  3 C       -5.3990    -5.9480     1.2690 C.3   1 <1>   0.0400 
  4 C       -2.5990    -5.9460    -1.0700 C.ar  1 <1>  -0.1500 
  5 C       -3.0540    -4.3910     0.6960 C.ar  1 <1>  -0.1500 
  6 C       -1.4690    -5.2290    -1.4180 C.ar  1 <1>  -0.1500 
  7 C       -1.9230    -3.6720     0.3500 C.ar  1 <1>  -0.1500 
  8 C       -1.1200    -4.0920    -0.7020 C.ar  1 <1>  -0.1430 
  9 C        0.1350    -3.3340    -1.0540 C.3   1 <1>   0.4860 
 10 N        1.2130    -3.9880    -0.2720 N.4   1 <1>  -0.9060 
 11 C        2.5830    -3.4060    -0.5040 C.3   1 <1>   0.3430 
 12 C        3.7310    -4.1140     0.2880 C.3   1 <1>   0.4230 
 13 N        5.1140    -3.6310    -0.0190 N.4   1 <1>  -0.9590 
 14 C        3.8170    -5.6130     0.0060 C.3   1 <1>  -0.1600 
 15 C        6.0330    -4.6970     0.4810 C.3   1 <1>   0.3430 
 16 C        5.4590    -2.2960     0.5520 C.3   1 <1>   0.3430 
 17 C        5.2690    -6.0020     0.2950 C.3   1 <1>  -0.1600 
 18 C        6.7510    -1.7940    -0.0800 C.3   1 <1>  -0.2400 
 19 H       -6.1800    -6.6870     1.2820 H     1 <1>   0.0800 
 20 H       -5.8140    -4.9830     1.0390 H     1 <1>   0.0800 
 21 H       -4.8930    -5.9360     2.2180 H     1 <1>   0.0800 
 22 H       -2.8790    -6.8300    -1.6170 H     1 <1>   0.1500 
 23 H       -3.6600    -4.0480     1.5140 H     1 <1>   0.1500 
 24 H       -0.8820    -5.5750    -2.2530 H     1 <1>   0.1500 
 25 H       -1.6890    -2.7840     0.9140 H     1 <1>   0.1500 
 26 H        0.0300    -2.2960    -0.7810 H     1 <1>   0.0800 
 27 H        0.3240    -3.4060    -2.1130 H     1 <1>   0.0800 
 28 H        1.1590    -4.9880    -0.5150 H     1 <1>   0.4500 
 29 H        0.9120    -3.9360     0.7120 H     1 <1>   0.4500 
 30 H        2.5700    -2.3630    -0.2290 H     1 <1>   0.0800 
 31 H        2.8100    -3.4700    -1.5560 H     1 <1>   0.0800 
 32 H        3.5600    -3.9780     1.3440 H     1 <1>   0.0800 
 33 H        5.2610    -3.5960    -1.0380 H     1 <1>   0.4500 
 34 H        3.5930    -5.8180    -1.0280 H     1 <1>   0.0800 
 35 H        3.1340    -6.1710     0.6250 H     1 <1>   0.0800 
 36 H        6.2380    -4.5480     1.5300 H     1 <1>   0.0800 
 37 H        6.9660    -4.7040    -0.0620 H     1 <1>   0.0800 
 38 H        5.5760    -2.3630     1.6230 H     1 <1>   0.0800 
 39 H        4.6750    -1.5860     0.3420 H     1 <1>   0.0800 
 40 H        5.6880    -6.5680    -0.5200 H     1 <1>   0.0800 
 41 H        5.3480    -6.5970     1.1900 H     1 <1>   0.0800 
 42 H        7.5850    -2.4250     0.1710 H     1 <1>   0.0800 
 43 H        6.9680    -0.8100     0.2970 H     1 <1>   0.0800 
 44 H        6.6600    -1.7230    -1.1490 H     1 <1>   0.0800 
@<TRIPOS>BOND
  1   1   2  1   
  2   1   3  1   
  3   2   4  ar  
  4   2   5  ar  
  5   3  19  1   
  6   3  20  1   
  7   3  21  1   
  8   4   6  ar  
  9   4  22  1   
 10   5   7  ar  
 11   5  23  1   
 12   6   8  ar  
 13   6  24  1   
 14   7   8  ar  
 15   7  25  1   
 16   8   9  1   
 17   9  10  1   
 18   9  26  1   
 19   9  27  1   
 20  10  11  1   
 21  10  28  1   
 22  10  29  1   
 23  11  12  1   
 24  11  30  1   
 25  11  31  1   
 26  12  13  1   
 27  12  14  1   
 28  12  32  1   
 29  13  15  1   
 30  13  16  1   
 31  13  33  1   
 32  14  17  1   
 33  14  34  1   
 34  14  35  1   
 35  15  17  1   
 36  15  36  1   
 37  15  37  1   
 38  16  18  1   
 39  16  38  1   
 40  16  39  1   
 41  17  40  1   
 42  17  41  1   
 43  18  42  1   
 44  18  43  1   
 45  18  44  1   
@<TRIPOS>SUBSTRUCTURE
  1 ****  10 GROUP 4 **** **** 0

# MOE 2024.06 (io_trps.svl 2023.06)
