@<TRIPOS>MOLECULE
NONAME
47 49 1 0 0 
SMALL
USER_CHARGES


@<TRIPOS>ATOM
  1 F        3.0900     0.2990    -1.5560 F     1 <1>  -0.1980 
  2 C        2.5920    -0.8820    -1.3020 C.ar  1 <1>   0.1820 
  3 C        2.6040    -1.3630     0.0000 C.ar  1 <1>  -0.1520 
  4 C        2.0820    -1.6090    -2.3610 C.ar  1 <1>  -0.1580 
  5 C        2.0820    -2.6300     0.2240 C.ar  1 <1>  -0.1580 
  6 C        3.1730    -0.5460     1.1530 C.3   1 <1>   0.2760 
  7 C        1.5650    -2.8690    -2.1160 C.ar  1 <1>  -0.1580 
  8 C        1.5680    -3.3750    -0.8260 C.ar  1 <1>  -0.1580 
  9 N        4.6540    -0.4730     1.0310 N.am  1 <1>  -0.4260 
 10 C        5.2490     0.7220     0.6570 C.2   1 <1>   0.6860 
 11 C        5.3870    -1.6440     1.1130 C.2   1 <1>   0.6990 
 12 O        4.6720     1.7740     0.8330 O.2   1 <1>  -0.5750 
 13 N        6.5260     0.7150     0.1110 N.am  1 <1>  -0.4420 
 14 O        4.9280    -2.6350     1.6580 O.2   1 <1>  -0.5750 
 15 C        6.7080    -1.6430     0.5610 C.2   1 <1>   0.2700 
 16 C        7.2110    -0.4840     0.0840 C.2   1 <1>   0.4200 
 17 C        7.1380     1.9750    -0.4050 C.3   1 <1>   0.0510 
 18 N        7.7050    -2.6210     0.3710 N.pl3 1 <1>  -0.7680 
 19 N        8.4650    -0.7200    -0.3880 N.pl3 1 <1>  -0.7040 
 20 C        8.7370    -2.0090    -0.2090 C.cat 1 <1>   1.0680 
 21 C        7.5030    -4.0440     0.7650 C.3   1 <1>   0.2670 
 22 N        9.8800    -2.5940    -0.5540 N.pl3 1 <1>  -0.7180 
 23 C       11.0510    -1.9740    -1.2360 C.3   1 <1>   0.1600 
 24 C       12.2180    -1.7370    -0.2630 C.3   1 <1>   0.1920 
 25 O       13.1800    -1.0420    -0.9550 O.3   1 <1>  -0.6840 
 26 C       12.8600    -3.0260     0.2450 C.3   1 <1>  -0.2470 
 27 H        2.0890    -1.1960    -3.3540 H     1 <1>   0.1420 
 28 H        2.0760    -3.0480     1.2170 H     1 <1>   0.1420 
 29 H        2.9180    -1.0030     2.0930 H     1 <1>   0.0710 
 30 H        2.7330     0.4370     1.1410 H     1 <1>   0.0710 
 31 H        1.1610    -3.4540    -2.9250 H     1 <1>   0.1420 
 32 H        1.1650    -4.3560    -0.6380 H     1 <1>   0.1420 
 33 H        6.3710     2.6830    -0.6720 H     1 <1>   0.0710 
 34 H        7.7260     1.7760    -1.2830 H     1 <1>   0.0710 
 35 H        7.7600     2.4140     0.3550 H     1 <1>   0.0710 
 36 H        9.0960    -0.0430    -0.8050 H     1 <1>   0.4440 
 37 H        6.6380    -4.4440     0.2610 H     1 <1>   0.0710 
 38 H        7.3370    -4.1090     1.8280 H     1 <1>   0.0710 
 39 H        8.3600    -4.6430     0.5100 H     1 <1>   0.0710 
 40 H        9.9920    -3.5860    -0.3490 H     1 <1>   0.4440 
 41 H       10.7670    -1.0330    -1.6740 H     1 <1>   0.0710 
 42 H       11.3800    -2.6230    -2.0310 H     1 <1>   0.0710 
 43 H       11.9050    -1.1160     0.5600 H     1 <1>   0.0710 
 44 H       14.0100    -0.9910    -0.4370 H     1 <1>   0.3940 
 45 H       13.2020    -3.6300    -0.5770 H     1 <1>   0.0710 
 46 H       12.1540    -3.5960     0.8190 H     1 <1>   0.0710 
 47 H       13.6950    -2.7990     0.8860 H     1 <1>   0.0710 
@<TRIPOS>BOND
  1   1   2  1   
  2   2   3  ar  
  3   2   4  ar  
  4   3   5  ar  
  5   3   6  1   
  6   4   7  ar  
  7   4  27  1   
  8   5   8  ar  
  9   5  28  1   
 10   6   9  1   
 11   6  29  1   
 12   6  30  1   
 13   7   8  ar  
 14   7  31  1   
 15   8  32  1   
 16   9  10  am  
 17   9  11  am  
 18  10  12  2   
 19  10  13  am  
 20  11  14  2   
 21  11  15  1   
 22  13  16  1   
 23  13  17  1   
 24  15  16  2   
 25  15  18  1   
 26  16  19  1   
 27  17  33  1   
 28  17  34  1   
 29  17  35  1   
 30  18  20  ar  
 31  18  21  1   
 32  19  20  ar  
 33  19  36  1   
 34  20  22  ar  
 35  21  37  1   
 36  21  38  1   
 37  21  39  1   
 38  22  23  1   
 39  22  40  1   
 40  23  24  1   
 41  23  41  1   
 42  23  42  1   
 43  24  25  1   
 44  24  26  1   
 45  24  43  1   
 46  25  44  1   
 47  26  45  1   
 48  26  46  1   
 49  26  47  1   
@<TRIPOS>SUBSTRUCTURE
  1 ****  15 GROUP 4 **** **** 0

# MOE 2024.06 (io_trps.svl 2023.06)
