@<TRIPOS>MOLECULE
NONAME
35 36 1 0 0 
SMALL
USER_CHARGES


@<TRIPOS>ATOM
  1 CL       1.9100     0.4460    -1.1800 Cl    1 <1>  -0.1770 
  2 C        1.2370    -1.0370    -0.5400 C.ar  1 <1>   0.1770 
  3 C        1.9800    -1.8170     0.3380 C.ar  1 <1>   0.0830 
  4 C       -0.0350    -1.4150    -0.9330 C.ar  1 <1>  -0.1500 
  5 O        3.2150    -1.4290     0.7360 O.3   1 <1>  -0.3630 
  6 C        1.4140    -2.9930     0.8150 C.ar  1 <1>   0.1770 
  7 C       -0.5850    -2.5910    -0.4450 C.ar  1 <1>  -0.1500 
  8 C        4.2900    -1.8490    -0.0630 C.3   1 <1>   0.1200 
  9 CL       2.3140    -4.0170     1.9120 Cl    1 <1>  -0.1770 
 10 C        0.1420    -3.3830     0.4310 C.ar  1 <1>  -0.1500 
 11 C        5.5510    -1.2080     0.5120 C.3   1 <1>  -0.1600 
 12 C        6.7770    -1.5840    -0.3170 C.3   1 <1>   0.3430 
 13 N        8.0030    -0.9990     0.2910 N.4   1 <1>  -0.9590 
 14 C        8.0800     0.4820     0.2070 C.3   1 <1>   0.3430 
 15 C        9.2530    -1.5020    -0.3290 C.3   1 <1>   0.3430 
 16 C        9.5540     0.7990     0.4140 C.3   1 <1>  -0.1600 
 17 C       10.3120    -0.4900     0.0830 C.3   1 <1>  -0.1600 
 18 H       -0.5890    -0.7920    -1.6130 H     1 <1>   0.1500 
 19 H       -1.5760    -2.8900    -0.7460 H     1 <1>   0.1500 
 20 H        4.1080    -1.5220    -1.0740 H     1 <1>   0.0800 
 21 H        4.3380    -2.9240    -0.0260 H     1 <1>   0.0800 
 22 H       -0.2720    -4.2980     0.8170 H     1 <1>   0.1500 
 23 H        5.6770    -1.5530     1.5230 H     1 <1>   0.0800 
 24 H        5.4140    -0.1420     0.5090 H     1 <1>   0.0800 
 25 H        6.6600    -1.2270    -1.3280 H     1 <1>   0.0800 
 26 H        6.8660    -2.6580    -0.3450 H     1 <1>   0.0800 
 27 H        8.0330    -1.2510     1.2890 H     1 <1>   0.4500 
 28 H        7.4610     0.9590     0.9520 H     1 <1>   0.0800 
 29 H        7.7750     0.8090    -0.7740 H     1 <1>   0.0800 
 30 H        9.1540    -1.5020    -1.4030 H     1 <1>   0.0800 
 31 H        9.4970    -2.4970     0.0090 H     1 <1>   0.0800 
 32 H        9.7270     1.0860     1.4370 H     1 <1>   0.0800 
 33 H        9.8540     1.6140    -0.2230 H     1 <1>   0.0800 
 34 H       11.0230    -0.3440    -0.7120 H     1 <1>   0.0800 
 35 H       10.8400    -0.8480     0.9500 H     1 <1>   0.0800 
@<TRIPOS>BOND
  1   1   2  1   
  2   2   3  ar  
  3   2   4  ar  
  4   3   5  1   
  5   3   6  ar  
  6   4   7  ar  
  7   4  18  1   
  8   5   8  1   
  9   6   9  1   
 10   6  10  ar  
 11   7  10  ar  
 12   7  19  1   
 13   8  11  1   
 14   8  20  1   
 15   8  21  1   
 16  10  22  1   
 17  11  12  1   
 18  11  23  1   
 19  11  24  1   
 20  12  13  1   
 21  12  25  1   
 22  12  26  1   
 23  13  14  1   
 24  13  15  1   
 25  13  27  1   
 26  14  16  1   
 27  14  28  1   
 28  14  29  1   
 29  15  17  1   
 30  15  30  1   
 31  15  31  1   
 32  16  17  1   
 33  16  32  1   
 34  16  33  1   
 35  17  34  1   
 36  17  35  1   
@<TRIPOS>SUBSTRUCTURE
  1 ****   8 GROUP 4 **** **** 0

# MOE 2024.06 (io_trps.svl 2023.06)
