@<TRIPOS>MOLECULE
NONAME
46 48 1 0 0 
SMALL
USER_CHARGES


@<TRIPOS>ATOM
  1 F        1.2210    -1.2840    -3.0910 F     1 <1>  -0.3400 
  2 C        1.5770    -1.1890    -1.8160 C.3   1 <1>   1.1640 
  3 F        0.9380    -0.1350    -1.3250 F     1 <1>  -0.3400 
  4 F        2.8670    -0.8710    -1.8170 F     1 <1>  -0.3400 
  5 C        1.2710    -2.4720    -1.0290 C.ar  1 <1>  -0.1440 
  6 C       -0.0370    -2.9400    -0.9630 C.ar  1 <1>  -0.1500 
  7 C        2.2660    -3.1920    -0.3740 C.ar  1 <1>  -0.1500 
  8 C       -0.3600    -4.0940    -0.2620 C.ar  1 <1>   0.1170 
  9 C        1.9560    -4.3450     0.3260 C.ar  1 <1>  -0.1500 
 10 N       -1.6610    -4.6110    -0.1580 N.am  1 <1>  -0.5470 
 11 C        0.6510    -4.8090     0.3960 C.ar  1 <1>   0.1000 
 12 C       -2.9060    -4.2510    -0.6030 C.2   1 <1>   0.5440 
 13 N        0.3320    -5.9860     1.0970 N.pl3 1 <1>  -0.8380 
 14 O       -3.0410    -3.2240    -1.2420 O.2   1 <1>  -0.5700 
 15 C       -4.0530    -5.1000    -0.3310 C.ar  1 <1>   0.0860 
 16 C        0.8850    -6.1800     2.4700 C.3   1 <1>   0.2090 
 17 C        0.3730    -7.2490     0.3020 C.3   1 <1>   0.2090 
 18 C       -4.1310    -5.9880     0.7570 C.ar  1 <1>   0.0830 
 19 C       -5.1560    -5.0630    -1.1890 C.ar  1 <1>  -0.1500 
 20 C        0.2230    -7.3920     3.1510 C.3   1 <1>   0.1200 
 21 C       -0.2630    -8.4070     1.0940 C.3   1 <1>   0.1200 
 22 O       -3.1450    -6.0920     1.6690 O.3   1 <1>  -0.3630 
 23 C       -5.2340    -6.8090     0.9380 C.ar  1 <1>  -0.1500 
 24 C       -6.2620    -5.8720    -1.0020 C.ar  1 <1>  -0.1500 
 25 O        0.3400    -8.5390     2.3540 O.3   1 <1>  -0.5600 
 26 C       -3.1250    -5.1220     2.6940 C.3   1 <1>   0.0400 
 27 C       -6.3010    -6.7530     0.0630 C.ar  1 <1>  -0.1500 
 28 H       -0.8150    -2.3950    -1.4660 H     1 <1>   0.1500 
 29 H        3.2920    -2.8640    -0.4020 H     1 <1>   0.1500 
 30 H        2.7400    -4.8920     0.8150 H     1 <1>   0.1500 
 31 H       -1.6540    -5.4330     0.4610 H     1 <1>   0.3700 
 32 H        0.7090    -5.2940     3.0550 H     1 <1>   0.0800 
 33 H        1.9470    -6.3480     2.4180 H     1 <1>   0.0800 
 34 H        1.3940    -7.4960     0.0680 H     1 <1>   0.0800 
 35 H       -0.1600    -7.1110    -0.6230 H     1 <1>   0.0800 
 36 H       -5.1400    -4.3850    -2.0260 H     1 <1>   0.1500 
 37 H       -0.8210    -7.2020     3.3250 H     1 <1>   0.0800 
 38 H        0.7010    -7.5970     4.0920 H     1 <1>   0.0800 
 39 H       -0.1300    -9.3340     0.5670 H     1 <1>   0.0800 
 40 H       -1.3160    -8.2320     1.2320 H     1 <1>   0.0800 
 41 H       -5.2530    -7.4900     1.7700 H     1 <1>   0.1500 
 42 H       -7.0920    -5.8170    -1.6850 H     1 <1>   0.1500 
 43 H       -2.2610    -5.2970     3.3090 H     1 <1>   0.0800 
 44 H       -4.0220    -5.2170     3.2800 H     1 <1>   0.0800 
 45 H       -3.0660    -4.1410     2.2560 H     1 <1>   0.0800 
 46 H       -7.1580    -7.3880     0.2090 H     1 <1>   0.1500 
@<TRIPOS>BOND
  1   1   2  1   
  2   2   3  1   
  3   2   4  1   
  4   2   5  1   
  5   5   6  ar  
  6   5   7  ar  
  7   6   8  ar  
  8   6  28  1   
  9   7   9  ar  
 10   7  29  1   
 11   8  10  1   
 12   8  11  ar  
 13   9  11  ar  
 14   9  30  1   
 15  10  12  am  
 16  10  31  1   
 17  11  13  1   
 18  12  14  2   
 19  12  15  1   
 20  13  16  1   
 21  13  17  1   
 22  15  18  ar  
 23  15  19  ar  
 24  16  20  1   
 25  16  32  1   
 26  16  33  1   
 27  17  21  1   
 28  17  34  1   
 29  17  35  1   
 30  18  22  1   
 31  18  23  ar  
 32  19  24  ar  
 33  19  36  1   
 34  20  25  1   
 35  20  37  1   
 36  20  38  1   
 37  21  25  1   
 38  21  39  1   
 39  21  40  1   
 40  22  26  1   
 41  23  27  ar  
 42  23  41  1   
 43  24  27  ar  
 44  24  42  1   
 45  26  43  1   
 46  26  44  1   
 47  26  45  1   
 48  27  46  1   
@<TRIPOS>SUBSTRUCTURE
  1 ****  10 GROUP 4 **** **** 0

# MOE 2024.06 (io_trps.svl 2023.06)
