@<TRIPOS>MOLECULE
NONAME
51 53 1 0 0 
SMALL
USER_CHARGES


@<TRIPOS>ATOM
  1 S       -0.8500     0.9180    -1.9690 S.o2  1 <1>   1.4470 
  2 O       -1.8090     1.6010    -2.8130 O.2   1 <1>  -0.6500 
  3 O        0.2900     0.2980    -2.6030 O.2   1 <1>  -0.6500 
  4 N       -1.7590    -0.3420    -1.1940 N.am  1 <1>  -0.6930 
  5 C       -0.4370     2.0450    -0.6070 C.ar  1 <1>  -0.0090 
  6 C       -1.1830    -1.1770    -0.2460 C.ar  1 <1>   0.1990 
  7 C       -2.9460    -0.8890    -1.9270 C.3   1 <1>   0.2570 
  8 C        0.5750     1.7600     0.3060 C.ar  1 <1>   0.0830 
  9 C       -1.1660     3.2170    -0.4270 C.ar  1 <1>  -0.1500 
 10 C       -0.1910    -2.0880    -0.5910 C.ar  1 <1>  -0.1500 
 11 C       -1.6130    -1.1270     1.0740 C.ar  1 <1>  -0.1500 
 12 C       -4.2090    -1.0180    -1.0670 C.2   1 <1>   0.5690 
 13 O        1.2960     0.6300     0.1200 O.3   1 <1>  -0.3630 
 14 C        0.8280     2.6230     1.3700 C.ar  1 <1>  -0.1500 
 15 C       -0.9200     4.0800     0.6280 C.ar  1 <1>  -0.1440 
 16 C        0.3590    -2.9280     0.3600 C.ar  1 <1>  -0.1500 
 17 C       -1.0640    -1.9630     2.0290 C.ar  1 <1>  -0.1500 
 18 O       -4.7040    -2.1170    -0.9520 O.2   1 <1>  -0.5700 
 19 N       -4.7750     0.0750    -0.4610 N.am  1 <1>  -0.6600 
 20 C        2.1040     0.0760     1.1330 C.3   1 <1>   0.0400 
 21 C        0.0810     3.7740     1.5300 C.ar  1 <1>  -0.1500 
 22 C       -1.7400     5.3470     0.7950 C.3   1 <1>  -0.0970 
 23 C       -0.0770    -2.8660     1.6730 C.ar  1 <1>  -0.1500 
 24 C       -5.9670    -0.0240     0.4060 C.3   1 <1>   0.1400 
 25 C       -4.2890     1.4690    -0.5420 C.3   1 <1>   0.1400 
 26 C       -6.0630     1.3350     1.0890 C.3   1 <1>  -0.1600 
 27 C       -5.3780     2.3000     0.1240 C.3   1 <1>  -0.1600 
 28 H       -2.6940    -1.8660    -2.2970 H     1 <1>   0.0800 
 29 H       -3.1920    -0.2850    -2.7790 H     1 <1>   0.0800 
 30 H       -1.9460     3.4620    -1.1270 H     1 <1>   0.1500 
 31 H        0.1510    -2.1310    -1.6100 H     1 <1>   0.1500 
 32 H       -2.3850    -0.4310     1.3460 H     1 <1>   0.1500 
 33 H        1.6060     2.4170     2.0800 H     1 <1>   0.1500 
 34 H        1.1260    -3.6280     0.0780 H     1 <1>   0.1500 
 35 H       -1.4090    -1.9150     3.0480 H     1 <1>   0.1500 
 36 H        2.4680    -0.8730     0.7840 H     1 <1>   0.0800 
 37 H        1.5070    -0.0660     2.0170 H     1 <1>   0.0800 
 38 H        2.9320     0.7360     1.3220 H     1 <1>   0.0800 
 39 H        0.2850     4.4320     2.3560 H     1 <1>   0.1500 
 40 H       -2.5550     5.1670     1.4730 H     1 <1>   0.0800 
 41 H       -2.1380     5.6700    -0.1500 H     1 <1>   0.0800 
 42 H       -1.1280     6.1380     1.1910 H     1 <1>   0.0800 
 43 H        0.3480    -3.5210     2.4140 H     1 <1>   0.1500 
 44 H       -5.8590    -0.8250     1.1180 H     1 <1>   0.0800 
 45 H       -6.8320    -0.2040    -0.2100 H     1 <1>   0.0800 
 46 H       -4.1320     1.7700    -1.5640 H     1 <1>   0.0800 
 47 H       -3.3710     1.5520     0.0140 H     1 <1>   0.0800 
 48 H       -5.5200     1.2970     2.0170 H     1 <1>   0.0800 
 49 H       -7.0830     1.6090     1.2910 H     1 <1>   0.0800 
 50 H       -6.0780     2.6240    -0.6270 H     1 <1>   0.0800 
 51 H       -4.9730     3.1630     0.6230 H     1 <1>   0.0800 
@<TRIPOS>BOND
  1   1   2  2   
  2   1   3  2   
  3   1   4  am  
  4   1   5  1   
  5   4   6  1   
  6   4   7  1   
  7   5   8  ar  
  8   5   9  ar  
  9   6  10  ar  
 10   6  11  ar  
 11   7  12  1   
 12   7  28  1   
 13   7  29  1   
 14   8  13  1   
 15   8  14  ar  
 16   9  15  ar  
 17   9  30  1   
 18  10  16  ar  
 19  10  31  1   
 20  11  17  ar  
 21  11  32  1   
 22  12  18  2   
 23  12  19  am  
 24  13  20  1   
 25  14  21  ar  
 26  14  33  1   
 27  15  21  ar  
 28  15  22  1   
 29  16  23  ar  
 30  16  34  1   
 31  17  23  ar  
 32  17  35  1   
 33  19  24  1   
 34  19  25  1   
 35  20  36  1   
 36  20  37  1   
 37  20  38  1   
 38  21  39  1   
 39  22  40  1   
 40  22  41  1   
 41  22  42  1   
 42  23  43  1   
 43  24  26  1   
 44  24  44  1   
 45  24  45  1   
 46  25  27  1   
 47  25  46  1   
 48  25  47  1   
 49  26  27  1   
 50  26  48  1   
 51  26  49  1   
 52  27  50  1   
 53  27  51  1   
@<TRIPOS>SUBSTRUCTURE
  1 ****   4 GROUP 4 **** **** 0

# MOE 2024.06 (io_trps.svl 2023.06)
