@<TRIPOS>MOLECULE
NONAME
37 38 1 0 0 
SMALL
USER_CHARGES


@<TRIPOS>ATOM
  1 CL       1.3310    -1.1730    -2.6270 Cl    1 <1>  -0.1770 
  2 C        0.7030    -2.1280    -1.2990 C.ar  1 <1>   0.1770 
  3 C        1.5290    -2.4170    -0.2120 C.ar  1 <1>   0.1170 
  4 C       -0.6050    -2.5690    -1.3700 C.ar  1 <1>  -0.1500 
  5 N        2.8510    -1.9350    -0.2060 N.am  1 <1>  -0.5470 
  6 C        0.9810    -3.1740     0.8210 C.ar  1 <1>  -0.1500 
  7 C       -1.1250    -3.3220    -0.3320 C.ar  1 <1>  -0.1500 
  8 C        3.9250    -2.1450     0.6030 C.2   1 <1>   0.6900 
  9 C       -0.3290    -3.6210     0.7610 C.ar  1 <1>  -0.1500 
 10 O        3.8910    -2.8810     1.5700 O.2   1 <1>  -0.5700 
 11 N        5.0600    -1.4610     0.2930 N.am  1 <1>  -0.6600 
 12 C        6.3710    -2.1700     0.1490 C.3   1 <1>   0.2200 
 13 C        5.1520    -0.0880     0.8510 C.3   1 <1>   0.1400 
 14 C        7.3390    -1.2880    -0.6670 C.3   1 <1>  -0.1600 
 15 C        6.1870    -3.5510    -0.5240 C.3   1 <1>  -0.1600 
 16 C        6.0720     0.7780    -0.0080 C.3   1 <1>  -0.1600 
 17 C        7.4590     0.1400    -0.1210 C.3   1 <1>  -0.1600 
 18 C        7.4910    -4.3410    -0.7190 C.3   1 <1>  -0.2400 
 19 H       -1.2060    -2.3240    -2.2270 H     1 <1>   0.1500 
 20 H        3.1020    -1.3580    -1.0070 H     1 <1>   0.3700 
 21 H        1.5720    -3.4200     1.6840 H     1 <1>   0.1500 
 22 H       -2.1420    -3.6730    -0.3720 H     1 <1>   0.1500 
 23 H       -0.7280    -4.2060     1.5720 H     1 <1>   0.1500 
 24 H        6.7790    -2.3190     1.1350 H     1 <1>   0.0800 
 25 H        5.5360    -0.1470     1.8560 H     1 <1>   0.0800 
 26 H        4.1710     0.3550     0.8940 H     1 <1>   0.0800 
 27 H        7.0000    -1.2510    -1.6870 H     1 <1>   0.0800 
 28 H        8.3190    -1.7280    -0.6650 H     1 <1>   0.0800 
 29 H        5.7090    -3.4220    -1.4790 H     1 <1>   0.0800 
 30 H        5.5460    -4.1590     0.0900 H     1 <1>   0.0800 
 31 H        6.1580     1.7540     0.4350 H     1 <1>   0.0800 
 32 H        5.6380     0.8940    -0.9850 H     1 <1>   0.0800 
 33 H        8.0800     0.7290    -0.7730 H     1 <1>   0.0800 
 34 H        7.9230     0.1140     0.8510 H     1 <1>   0.0800 
 35 H        8.1240    -3.8740    -1.4520 H     1 <1>   0.0800 
 36 H        7.2630    -5.3340    -1.0620 H     1 <1>   0.0800 
 37 H        8.0260    -4.4180     0.2120 H     1 <1>   0.0800 
@<TRIPOS>BOND
  1   1   2  1   
  2   2   3  ar  
  3   2   4  ar  
  4   3   5  1   
  5   3   6  ar  
  6   4   7  ar  
  7   4  19  1   
  8   5   8  am  
  9   5  20  1   
 10   6   9  ar  
 11   6  21  1   
 12   7   9  ar  
 13   7  22  1   
 14   8  10  2   
 15   8  11  am  
 16   9  23  1   
 17  11  12  1   
 18  11  13  1   
 19  12  14  1   
 20  12  15  1   
 21  12  24  1   
 22  13  16  1   
 23  13  25  1   
 24  13  26  1   
 25  14  17  1   
 26  14  27  1   
 27  14  28  1   
 28  15  18  1   
 29  15  29  1   
 30  15  30  1   
 31  16  17  1   
 32  16  31  1   
 33  16  32  1   
 34  17  33  1   
 35  17  34  1   
 36  18  35  1   
 37  18  36  1   
 38  18  37  1   
@<TRIPOS>SUBSTRUCTURE
  1 ****   5 GROUP 4 **** **** 0

# MOE 2024.06 (io_trps.svl 2023.06)
