@<TRIPOS>MOLECULE
NONAME
36 37 1 0 0 
SMALL
USER_CHARGES


@<TRIPOS>ATOM
  1 O        0.8710     1.6020    -2.2250 O.2   1 <1>  -0.5700 
  2 C        1.1790     1.5680    -1.0520 C.2   1 <1>   0.5440 
  3 N        0.2000     1.1860    -0.1990 N.am  1 <1>  -0.8000 
  4 C        2.5190     1.8990    -0.6020 C.ar  1 <1>   0.0860 
  5 C        2.8040     2.2230     0.7270 C.ar  1 <1>  -0.1500 
  6 C        3.5950     1.9060    -1.4920 C.ar  1 <1>  -0.1500 
  7 C        4.0870     2.5260     1.1420 C.ar  1 <1>  -0.1500 
  8 C        4.8780     2.2090    -1.0800 C.ar  1 <1>  -0.1500 
  9 C        5.1500     2.5230     0.2450 C.ar  1 <1>   0.1170 
 10 N        6.4680     2.8190     0.6060 N.am  1 <1>  -0.5470 
 11 C        7.0650     3.1920     1.7780 C.2   1 <1>   0.5690 
 12 O        6.4830     3.3560     2.8230 O.2   1 <1>  -0.5700 
 13 C        8.5790     3.4070     1.7230 C.3   1 <1>   0.1710 
 14 N        9.0930     3.7020     0.3510 N.3   1 <1>  -0.8100 
 15 C       10.5560     3.5080     0.2880 C.3   1 <1>   0.1100 
 16 C        8.7750     5.0930    -0.0470 C.3   1 <1>   0.1100 
 17 C       11.1060     3.8850    -1.0990 C.3   1 <1>   0.1200 
 18 C        9.3770     5.4280    -1.4240 C.3   1 <1>   0.1200 
 19 O       10.7570     5.2010    -1.4220 O.3   1 <1>  -0.5600 
 20 H       -0.7110     0.9380    -0.5870 H     1 <1>   0.3700 
 21 H        0.3480     0.9910     0.7900 H     1 <1>   0.3700 
 22 H        2.0100     2.2480     1.4510 H     1 <1>   0.1500 
 23 H        3.4110     1.6680    -2.5270 H     1 <1>   0.1500 
 24 H        4.2560     2.7670     2.1750 H     1 <1>   0.1500 
 25 H        5.6780     2.2010    -1.7980 H     1 <1>   0.1500 
 26 H        7.1600     2.7980    -0.1500 H     1 <1>   0.3700 
 27 H        9.0350     2.5040     2.0870 H     1 <1>   0.0800 
 28 H        8.8440     4.2030     2.3980 H     1 <1>   0.0800 
 29 H       10.7910     2.4760     0.4880 H     1 <1>   0.0800 
 30 H       11.0440     4.1150     1.0320 H     1 <1>   0.0800 
 31 H        9.1700     5.7860     0.6780 H     1 <1>   0.0800 
 32 H        7.7080     5.2290    -0.0900 H     1 <1>   0.0800 
 33 H       10.7130     3.2280    -1.8550 H     1 <1>   0.0800 
 34 H       12.1800     3.8200    -1.1060 H     1 <1>   0.0800 
 35 H        9.2160     6.4650    -1.6600 H     1 <1>   0.0800 
 36 H        8.9290     4.8230    -2.1920 H     1 <1>   0.0800 
@<TRIPOS>BOND
  1   1   2  2   
  2   2   3  am  
  3   2   4  1   
  4   3  20  1   
  5   3  21  1   
  6   4   5  ar  
  7   4   6  ar  
  8   5   7  ar  
  9   5  22  1   
 10   6   8  ar  
 11   6  23  1   
 12   7   9  ar  
 13   7  24  1   
 14   8   9  ar  
 15   8  25  1   
 16   9  10  1   
 17  10  11  am  
 18  10  26  1   
 19  11  12  2   
 20  11  13  1   
 21  13  14  1   
 22  13  27  1   
 23  13  28  1   
 24  14  15  1   
 25  14  16  1   
 26  15  17  1   
 27  15  29  1   
 28  15  30  1   
 29  16  18  1   
 30  16  31  1   
 31  16  32  1   
 32  17  19  1   
 33  17  33  1   
 34  17  34  1   
 35  18  19  1   
 36  18  35  1   
 37  18  36  1   
@<TRIPOS>SUBSTRUCTURE
  1 ****  10 GROUP 4 **** **** 0

# MOE 2024.06 (io_trps.svl 2023.06)
