@<TRIPOS>MOLECULE
NONAME
44 45 1 0 0 
SMALL
USER_CHARGES


@<TRIPOS>ATOM
  1 S        0.0790     0.1140     0.0150 S.o2  1 <1>   1.4470 
  2 O        0.2990     0.5370     1.3790 O.2   1 <1>  -0.6500 
  3 O        0.2710     1.0370    -1.0780 O.2   1 <1>  -0.6500 
  4 N        1.2390    -1.0580    -0.3000 N.am  1 <1>  -0.9140 
  5 C       -1.4890    -0.7850    -0.1430 C.ar  1 <1>  -0.0090 
  6 C        2.5570    -0.6490     0.1380 C.3   1 <1>   0.1960 
  7 C       -2.2610    -0.6900    -1.2970 C.ar  1 <1>  -0.1500 
  8 C       -1.9430    -1.6100     0.8820 C.ar  1 <1>  -0.1500 
  9 C        3.5490    -1.7600    -0.1990 C.3   1 <1>  -0.1600 
 10 C       -3.4470    -1.3930    -1.4260 C.ar  1 <1>  -0.1500 
 11 C       -3.1280    -2.3190     0.7670 C.ar  1 <1>  -0.1500 
 12 C        4.9250    -1.4230     0.3760 C.3   1 <1>   0.3430 
 13 C       -3.8740    -2.2050    -0.3930 C.ar  1 <1>   0.1020 
 14 N        5.8680    -2.5620     0.1890 N.4   1 <1>  -0.9590 
 15 S       -5.4240    -3.0880    -0.6320 S.3   1 <1>  -0.3320 
 16 C        7.1050    -2.3700     1.0270 C.3   1 <1>   0.3430 
 17 C        6.2510    -2.7730    -1.2550 C.3   1 <1>   0.3430 
 18 C       -5.7210    -4.0720     0.9030 C.3   1 <1>  -0.0100 
 19 C        8.1430    -3.4800     0.7730 C.3   1 <1>   0.1200 
 20 C        7.3300    -3.8630    -1.4050 C.3   1 <1>   0.1200 
 21 O        8.4280    -3.5700    -0.5920 O.3   1 <1>  -0.5600 
 22 H        1.2420    -1.0940    -1.3180 H     1 <1>   0.4200 
 23 H        2.5430    -0.4890     1.2050 H     1 <1>   0.0800 
 24 H        2.8350     0.2750    -0.3450 H     1 <1>   0.0800 
 25 H       -1.9350    -0.0560    -2.1060 H     1 <1>   0.1500 
 26 H       -1.3600    -1.6970     1.7840 H     1 <1>   0.1500 
 27 H        3.6040    -1.8640    -1.2670 H     1 <1>   0.0800 
 28 H        3.1930    -2.6770     0.2390 H     1 <1>   0.0800 
 29 H       -4.0400    -1.3140    -2.3200 H     1 <1>   0.1500 
 30 H       -3.4490    -2.9440     1.5780 H     1 <1>   0.1500 
 31 H        4.8180    -1.2180     1.4300 H     1 <1>   0.0800 
 32 H        5.3170    -0.5360    -0.0980 H     1 <1>   0.0800 
 33 H        5.4080    -3.4220     0.5170 H     1 <1>   0.4500 
 34 H        6.8460    -2.3600     2.0730 H     1 <1>   0.0800 
 35 H        7.5630    -1.4230     0.7900 H     1 <1>   0.0800 
 36 H        6.6410    -1.8560    -1.6670 H     1 <1>   0.0800 
 37 H        5.3860    -3.0530    -1.8320 H     1 <1>   0.0800 
 38 H       -6.6460    -4.6040     0.7730 H     1 <1>   0.0800 
 39 H       -5.7890    -3.3860     1.7290 H     1 <1>   0.0800 
 40 H       -4.9010    -4.7560     1.0240 H     1 <1>   0.0800 
 41 H        7.7890    -4.4360     1.1190 H     1 <1>   0.0800 
 42 H        9.0630    -3.2520     1.2840 H     1 <1>   0.0800 
 43 H        7.6790    -3.9020    -2.4230 H     1 <1>   0.0800 
 44 H        6.9470    -4.8330    -1.1380 H     1 <1>   0.0800 
@<TRIPOS>BOND
  1   1   2  2   
  2   1   3  2   
  3   1   4  am  
  4   1   5  1   
  5   4   6  1   
  6   4  22  1   
  7   5   7  ar  
  8   5   8  ar  
  9   6   9  1   
 10   6  23  1   
 11   6  24  1   
 12   7  10  ar  
 13   7  25  1   
 14   8  11  ar  
 15   8  26  1   
 16   9  12  1   
 17   9  27  1   
 18   9  28  1   
 19  10  13  ar  
 20  10  29  1   
 21  11  13  ar  
 22  11  30  1   
 23  12  14  1   
 24  12  31  1   
 25  12  32  1   
 26  13  15  1   
 27  14  16  1   
 28  14  17  1   
 29  14  33  1   
 30  15  18  1   
 31  16  19  1   
 32  16  34  1   
 33  16  35  1   
 34  17  20  1   
 35  17  36  1   
 36  17  37  1   
 37  18  38  1   
 38  18  39  1   
 39  18  40  1   
 40  19  21  1   
 41  19  41  1   
 42  19  42  1   
 43  20  21  1   
 44  20  43  1   
 45  20  44  1   
@<TRIPOS>SUBSTRUCTURE
  1 ****   4 GROUP 4 **** **** 0

# MOE 2024.06 (io_trps.svl 2023.06)
