@<TRIPOS>MOLECULE
NONAME
46 48 1 0 0 
SMALL
USER_CHARGES


@<TRIPOS>ATOM
  1 S        1.2100    -0.5010    -0.5360 S.o2  1 <1>   1.5010 
  2 O        2.2110    -1.1870    -1.3280 O.2   1 <1>  -0.6500 
  3 O        1.2880     0.9350    -0.4210 O.2   1 <1>  -0.6500 
  4 N        1.4030    -1.1190     1.0370 N.am  1 <1>  -0.8490 
  5 C       -0.4410    -1.0340    -0.9930 C.2   1 <1>  -0.0630 
  6 C        1.5770    -2.5930     1.0880 C.3   1 <1>   0.1960 
  7 C        2.4330    -0.3990     1.8100 C.3   1 <1>   0.1960 
  8 C       -0.7270    -1.7890    -2.1220 C.2   1 <1>   0.1390 
  9 C       -1.6530    -0.8550    -0.4090 C.2   1 <1>  -0.3020 
 10 C        2.9530    -3.0790     1.6250 C.3   1 <1>   0.3430 
 11 C        3.8560    -0.7350     1.3080 C.3   1 <1>   0.3430 
 12 N       -1.9880    -2.0700    -2.2300 N.2   1 <1>  -0.7070 
 13 N       -2.5680    -1.4820    -1.1700 N.pl3 1 <1>   0.3140 
 14 N        4.1320    -2.2250     1.2220 N.4   1 <1>  -0.9590 
 15 C       -4.0270    -1.5420    -0.9410 C.3   1 <1>   0.0960 
 16 C        4.6510    -2.6020    -0.1290 C.3   1 <1>   0.4860 
 17 C       -4.3800    -2.5810     0.1310 C.3   1 <1>  -0.2400 
 18 C        5.9030    -1.7970    -0.4160 C.ar  1 <1>  -0.1430 
 19 C        5.8520    -0.7520    -1.3280 C.ar  1 <1>  -0.1500 
 20 C        7.0980    -2.0890     0.2260 C.ar  1 <1>  -0.1500 
 21 C        6.9830     0.0040    -1.5840 C.ar  1 <1>  -0.1500 
 22 C        8.2270    -1.3310    -0.0320 C.ar  1 <1>  -0.1500 
 23 C        8.1690    -0.2840    -0.9340 C.ar  1 <1>  -0.1500 
 24 H        1.4120    -3.0270     0.1160 H     1 <1>   0.0800 
 25 H        0.8100    -2.9980     1.7270 H     1 <1>   0.0800 
 26 H        2.3500    -0.6650     2.8500 H     1 <1>   0.0800 
 27 H        2.2720     0.6650     1.7540 H     1 <1>   0.0800 
 28 H        0.0100    -2.1150    -2.8380 H     1 <1>   0.1500 
 29 H       -1.9030    -0.3200     0.4900 H     1 <1>   0.1500 
 30 H        3.1120    -4.1020     1.3230 H     1 <1>   0.0800 
 31 H        2.8870    -3.0790     2.7010 H     1 <1>   0.0800 
 32 H        4.5790    -0.2700     1.9580 H     1 <1>   0.0800 
 33 H        3.9750    -0.2860     0.3360 H     1 <1>   0.0800 
 34 H        4.9120    -2.4150     1.8630 H     1 <1>   0.4500 
 35 H       -4.5020    -1.8000    -1.8710 H     1 <1>   0.0800 
 36 H       -4.3660    -0.5670    -0.6430 H     1 <1>   0.0800 
 37 H        3.9170    -2.4160    -0.8910 H     1 <1>   0.0800 
 38 H        4.8960    -3.6510    -0.1530 H     1 <1>   0.0800 
 39 H       -4.0400    -3.5550    -0.1730 H     1 <1>   0.0800 
 40 H       -5.4460    -2.6180     0.2630 H     1 <1>   0.0800 
 41 H       -3.9280    -2.3210     1.0720 H     1 <1>   0.0800 
 42 H        4.9380    -0.5160    -1.8500 H     1 <1>   0.1500 
 43 H        7.1740    -2.9040     0.9240 H     1 <1>   0.1500 
 44 H        6.9420     0.8150    -2.2910 H     1 <1>   0.1500 
 45 H        9.1570    -1.5550     0.4640 H     1 <1>   0.1500 
 46 H        9.0490     0.3040    -1.1350 H     1 <1>   0.1500 
@<TRIPOS>BOND
  1   1   2  2   
  2   1   3  2   
  3   1   4  am  
  4   1   5  1   
  5   4   6  1   
  6   4   7  1   
  7   5   8  1   
  8   5   9  2   
  9   6  10  1   
 10   6  24  1   
 11   6  25  1   
 12   7  11  1   
 13   7  26  1   
 14   7  27  1   
 15   8  12  2   
 16   8  28  1   
 17   9  13  1   
 18   9  29  1   
 19  10  14  1   
 20  10  30  1   
 21  10  31  1   
 22  11  14  1   
 23  11  32  1   
 24  11  33  1   
 25  12  13  1   
 26  13  15  1   
 27  14  16  1   
 28  14  34  1   
 29  15  17  1   
 30  15  35  1   
 31  15  36  1   
 32  16  18  1   
 33  16  37  1   
 34  16  38  1   
 35  17  39  1   
 36  17  40  1   
 37  17  41  1   
 38  18  19  ar  
 39  18  20  ar  
 40  19  21  ar  
 41  19  42  1   
 42  20  22  ar  
 43  20  43  1   
 44  21  23  ar  
 45  21  44  1   
 46  22  23  ar  
 47  22  45  1   
 48  23  46  1   
@<TRIPOS>SUBSTRUCTURE
  1 ****   2 GROUP 4 **** **** 0

# MOE 2024.06 (io_trps.svl 2023.06)
