@<TRIPOS>MOLECULE
NONAME
34 35 1 0 0 
SMALL
USER_CHARGES


@<TRIPOS>ATOM
  1 I        1.0010     0.0720    -1.9020 I     1 <1>  -0.0810 
  2 C        0.4210    -1.8200    -1.0920 C.ar  1 <1>   0.0810 
  3 C        1.2100    -2.4620    -0.1500 C.ar  1 <1>   0.0830 
  4 C       -0.7670    -2.3620    -1.5470 C.ar  1 <1>  -0.1500 
  5 O        2.3660    -1.9310     0.3010 O.3   1 <1>  -0.5330 
  6 C        0.7980    -3.6950     0.3470 C.ar  1 <1>   0.0830 
  7 C       -1.1900    -3.5830    -1.0370 C.ar  1 <1>  -0.1430 
  8 O        1.6080    -4.2990     1.2610 O.3   1 <1>  -0.3630 
  9 C       -0.4020    -4.2470    -0.1000 C.ar  1 <1>  -0.1500 
 10 C       -2.5070    -4.1770    -1.5010 C.3   1 <1>   0.4860 
 11 C        1.4460    -5.6570     1.6130 C.3   1 <1>   0.0400 
 12 N       -3.5330    -3.9600    -0.4410 N.4   1 <1>  -0.9590 
 13 C       -4.7770    -4.7520    -0.7430 C.3   1 <1>   0.3430 
 14 C       -3.8100    -2.4890    -0.2460 C.3   1 <1>   0.3430 
 15 C       -5.7740    -4.7580     0.4240 C.3   1 <1>   0.0700 
 16 C       -4.6870    -2.2080     0.9810 C.3   1 <1>   0.0700 
 17 S       -6.2750    -3.0550     0.7780 S.3   1 <1>  -0.4600 
 18 H       -1.3390    -1.8270    -2.2860 H     1 <1>   0.1500 
 19 H        2.7860    -2.5360     0.9460 H     1 <1>   0.4500 
 20 H       -0.7230    -5.1980     0.2820 H     1 <1>   0.1500 
 21 H       -2.3740    -5.2320    -1.6790 H     1 <1>   0.0800 
 22 H       -2.8180    -3.7130    -2.4230 H     1 <1>   0.0800 
 23 H        2.2660    -5.9350     2.2520 H     1 <1>   0.0800 
 24 H        1.4650    -6.2560     0.7200 H     1 <1>   0.0800 
 25 H        0.5190    -5.7760     2.1430 H     1 <1>   0.0800 
 26 H       -3.1260    -4.3070     0.4370 H     1 <1>   0.4500 
 27 H       -4.5110    -5.7730    -0.9660 H     1 <1>   0.0800 
 28 H       -5.2670    -4.3410    -1.6110 H     1 <1>   0.0800 
 29 H       -4.2990    -2.0910    -1.1200 H     1 <1>   0.0800 
 30 H       -2.8800    -1.9580    -0.1190 H     1 <1>   0.0800 
 31 H       -5.3460    -5.1720     1.3200 H     1 <1>   0.0800 
 32 H       -6.6680    -5.3000     0.1690 H     1 <1>   0.0800 
 33 H       -4.9010    -1.1570     1.0710 H     1 <1>   0.0800 
 34 H       -4.2340    -2.5610     1.8900 H     1 <1>   0.0800 
@<TRIPOS>BOND
  1   1   2  1   
  2   2   3  ar  
  3   2   4  ar  
  4   3   5  1   
  5   3   6  ar  
  6   4   7  ar  
  7   4  18  1   
  8   5  19  1   
  9   6   8  1   
 10   6   9  ar  
 11   7   9  ar  
 12   7  10  1   
 13   8  11  1   
 14   9  20  1   
 15  10  12  1   
 16  10  21  1   
 17  10  22  1   
 18  11  23  1   
 19  11  24  1   
 20  11  25  1   
 21  12  13  1   
 22  12  14  1   
 23  12  26  1   
 24  13  15  1   
 25  13  27  1   
 26  13  28  1   
 27  14  16  1   
 28  14  29  1   
 29  14  30  1   
 30  15  17  1   
 31  15  31  1   
 32  15  32  1   
 33  16  17  1   
 34  16  33  1   
 35  16  34  1   
@<TRIPOS>SUBSTRUCTURE
  1 ****   7 GROUP 4 **** **** 0

# MOE 2024.06 (io_trps.svl 2023.06)
