@<TRIPOS>MOLECULE
NONAME
56 57 1 0 0 
SMALL
USER_CHARGES


@<TRIPOS>ATOM
  1 O       -6.3400    -2.4730    -0.1600 O.3   1 <1>  -0.3630 
  2 C       -7.6920    -2.4220    -0.0600 C.ar  1 <1>   0.0830 
  3 C       -5.6390    -3.6920     0.0040 C.3   1 <1>   0.1200 
  4 C       -8.2850    -1.1810    -0.2080 C.ar  1 <1>  -0.1500 
  5 C       -8.4970    -3.5290     0.1780 C.ar  1 <1>  -0.1500 
  6 C       -4.1360    -3.4390    -0.1710 C.3   1 <1>   0.2000 
  7 C       -9.6580    -1.0400    -0.1210 C.ar  1 <1>  -0.1500 
  8 C       -9.8700    -3.3810     0.2640 C.ar  1 <1>  -0.1500 
  9 O       -3.9560    -2.7460    -1.3640 O.3   1 <1>  -0.6800 
 10 C       -3.3290    -4.7560    -0.1840 C.3   1 <1>   0.1100 
 11 C      -10.4810    -2.1390     0.1170 C.ar  1 <1>  -0.1430 
 12 N       -1.8690    -4.5970     0.0480 N.3   1 <1>  -0.8100 
 13 C      -12.0190    -2.0320     0.2230 C.3   1 <1>   0.1440 
 14 C       -1.2120    -5.9180     0.1820 C.3   1 <1>   0.1100 
 15 C       -1.2120    -3.8010    -1.0260 C.3   1 <1>   0.1100 
 16 C      -12.4740    -2.5140     1.6080 C.3   1 <1>  -0.2400 
 17 C      -12.5410    -0.5960     0.0370 C.3   1 <1>  -0.2400 
 18 C      -12.6710    -2.9040    -0.8610 C.3   1 <1>  -0.2400 
 19 C        0.2960    -5.7950     0.5170 C.3   1 <1>   0.3430 
 20 C        0.3330    -3.8330    -0.9590 C.3   1 <1>   0.3430 
 21 N        0.7880    -4.3870     0.3580 N.4   1 <1>  -0.9590 
 22 C        2.2390    -4.2470     0.6300 C.3   1 <1>   0.3430 
 23 C        2.5810    -2.7790     0.8510 C.3   1 <1>  -0.2400 
 24 H       -5.9890    -4.3880    -0.7380 H     1 <1>   0.0800 
 25 H       -5.8430    -4.0720     0.9890 H     1 <1>   0.0800 
 26 H       -7.6660    -0.3220    -0.3920 H     1 <1>   0.1500 
 27 H       -8.0820    -4.5100     0.2990 H     1 <1>   0.1500 
 28 H       -3.7940    -2.8160     0.6380 H     1 <1>   0.0800 
 29 H      -10.0620    -0.0530    -0.2440 H     1 <1>   0.1500 
 30 H      -10.4650    -4.2560     0.4490 H     1 <1>   0.1500 
 31 H       -4.6720    -2.0760    -1.4300 H     1 <1>   0.4000 
 32 H       -3.5060    -5.2680    -1.1150 H     1 <1>   0.0800 
 33 H       -3.7180    -5.3770     0.6050 H     1 <1>   0.0800 
 34 H       -1.3250    -6.4720    -0.7350 H     1 <1>   0.0800 
 35 H       -1.6930    -6.4850     0.9620 H     1 <1>   0.0800 
 36 H       -1.5200    -2.7740    -0.9350 H     1 <1>   0.0800 
 37 H       -1.5320    -4.1450    -1.9950 H     1 <1>   0.0800 
 38 H      -11.9950    -1.9310     2.3750 H     1 <1>   0.0800 
 39 H      -12.2210    -3.5460     1.7630 H     1 <1>   0.0800 
 40 H      -13.5380    -2.4120     1.7160 H     1 <1>   0.0800 
 41 H      -12.2710    -0.2190    -0.9330 H     1 <1>   0.0800 
 42 H      -12.1340     0.0530     0.7920 H     1 <1>   0.0800 
 43 H      -13.6130    -0.5700     0.1180 H     1 <1>   0.0800 
 44 H      -12.3300    -2.5960    -1.8330 H     1 <1>   0.0800 
 45 H      -13.7420    -2.8140    -0.8290 H     1 <1>   0.0800 
 46 H      -12.4190    -3.9400    -0.7290 H     1 <1>   0.0800 
 47 H        0.8520    -6.4590    -0.1240 H     1 <1>   0.0800 
 48 H        0.4500    -6.1170     1.5340 H     1 <1>   0.0800 
 49 H        0.7060    -2.8330    -1.1010 H     1 <1>   0.0800 
 50 H        0.7100    -4.4430    -1.7620 H     1 <1>   0.0800 
 51 H        0.2440    -3.8520     1.0530 H     1 <1>   0.4500 
 52 H        2.8120    -4.6440    -0.1920 H     1 <1>   0.0800 
 53 H        2.4940    -4.8010     1.5200 H     1 <1>   0.0800 
 54 H        2.4370    -2.2020    -0.0440 H     1 <1>   0.0800 
 55 H        3.6170    -2.6980     1.1280 H     1 <1>   0.0800 
 56 H        1.9910    -2.3650     1.6490 H     1 <1>   0.0800 
@<TRIPOS>BOND
  1   1   2  1   
  2   1   3  1   
  3   2   4  ar  
  4   2   5  ar  
  5   3   6  1   
  6   3  24  1   
  7   3  25  1   
  8   4   7  ar  
  9   4  26  1   
 10   5   8  ar  
 11   5  27  1   
 12   6   9  1   
 13   6  10  1   
 14   6  28  1   
 15   7  11  ar  
 16   7  29  1   
 17   8  11  ar  
 18   8  30  1   
 19   9  31  1   
 20  10  12  1   
 21  10  32  1   
 22  10  33  1   
 23  11  13  1   
 24  12  14  1   
 25  12  15  1   
 26  13  16  1   
 27  13  17  1   
 28  13  18  1   
 29  14  19  1   
 30  14  34  1   
 31  14  35  1   
 32  15  20  1   
 33  15  36  1   
 34  15  37  1   
 35  16  38  1   
 36  16  39  1   
 37  16  40  1   
 38  17  41  1   
 39  17  42  1   
 40  17  43  1   
 41  18  44  1   
 42  18  45  1   
 43  18  46  1   
 44  19  21  1   
 45  19  47  1   
 46  19  48  1   
 47  20  21  1   
 48  20  49  1   
 49  20  50  1   
 50  21  22  1   
 51  21  51  1   
 52  22  23  1   
 53  22  52  1   
 54  22  53  1   
 55  23  54  1   
 56  23  55  1   
 57  23  56  1   
@<TRIPOS>SUBSTRUCTURE
  1 ****   3 GROUP 4 **** **** 0

# MOE 2024.06 (io_trps.svl 2023.06)
