@<TRIPOS>MOLECULE
NONAME
30 30 1 0 0 
SMALL
USER_CHARGES


@<TRIPOS>ATOM
  1 S        0.1880    -0.1090     1.0110 S.o2  1 <1>   1.4470 
  2 O        1.4450    -0.1950     1.7220 O.2   1 <1>  -0.6500 
  3 O       -1.0090    -0.6300     1.6340 O.2   1 <1>  -0.6500 
  4 N        0.3780    -0.9600    -0.4450 N.am  1 <1>  -0.8490 
  5 C       -0.0690     1.6040     0.4670 C.ar  1 <1>  -0.0090 
  6 C        0.9790    -2.3070    -0.2360 C.3   1 <1>   0.2570 
  7 C       -0.8680    -1.0640    -1.2140 C.3   1 <1>   0.1160 
  8 C        0.7930     2.1900    -0.4580 C.ar  1 <1>  -0.1500 
  9 C       -1.1230     2.3670     0.9660 C.ar  1 <1>  -0.1500 
 10 C        2.4970    -2.3860    -0.4710 C.2   1 <1>   0.5690 
 11 C        0.6130     3.4970    -0.8820 C.ar  1 <1>  -0.1500 
 12 C       -1.3210     3.6750     0.5550 C.ar  1 <1>  -0.1500 
 13 O        2.9060    -3.1350    -1.3280 O.2   1 <1>  -0.5700 
 14 N        3.3460    -1.6410     0.2890 N.am  1 <1>  -0.7300 
 15 C       -0.4460     4.2170    -0.3660 C.ar  1 <1>   0.1900 
 16 C        4.8240    -1.6210     0.1840 C.3   1 <1>   0.0600 
 17 F       -0.6260     5.4470    -0.7600 F     1 <1>  -0.1900 
 18 H        0.5340    -3.0120    -0.9160 H     1 <1>   0.0800 
 19 H        0.7670    -2.6600     0.7580 H     1 <1>   0.0800 
 20 H       -1.2770    -0.0840    -1.3970 H     1 <1>   0.0800 
 21 H       -1.5970    -1.6500    -0.6790 H     1 <1>   0.0800 
 22 H       -0.6750    -1.5280    -2.1670 H     1 <1>   0.0800 
 23 H        1.6150     1.6140    -0.8510 H     1 <1>   0.1500 
 24 H       -1.7980     1.9310     1.6850 H     1 <1>   0.1500 
 25 H        1.2760     3.9500    -1.5970 H     1 <1>   0.1500 
 26 H       -2.1340     4.2660     0.9380 H     1 <1>   0.1500 
 27 H        2.9280    -1.0120     0.9940 H     1 <1>   0.3700 
 28 H        5.1540    -2.3040    -0.5810 H     1 <1>   0.0800 
 29 H        5.2580    -1.9150     1.1240 H     1 <1>   0.0800 
 30 H        5.1560    -0.6290    -0.0670 H     1 <1>   0.0800 
@<TRIPOS>BOND
  1   1   2  2   
  2   1   3  2   
  3   1   4  am  
  4   1   5  1   
  5   4   6  1   
  6   4   7  1   
  7   5   8  ar  
  8   5   9  ar  
  9   6  10  1   
 10   6  18  1   
 11   6  19  1   
 12   7  20  1   
 13   7  21  1   
 14   7  22  1   
 15   8  11  ar  
 16   8  23  1   
 17   9  12  ar  
 18   9  24  1   
 19  10  13  2   
 20  10  14  am  
 21  11  15  ar  
 22  11  25  1   
 23  12  15  ar  
 24  12  26  1   
 25  14  16  1   
 26  14  27  1   
 27  15  17  1   
 28  16  28  1   
 29  16  29  1   
 30  16  30  1   
@<TRIPOS>SUBSTRUCTURE
  1 ****   1 GROUP 4 **** **** 0

# MOE 2024.06 (io_trps.svl 2023.06)
