@<TRIPOS>MOLECULE
NONAME
48 50 1 0 0 
SMALL
USER_CHARGES


@<TRIPOS>ATOM
  1 S        0.5770     0.1290     0.2700 S.3   1 <1>  -0.0800 
  2 C       -0.5200     1.4500    -0.1610 C.2   1 <1>  -0.0450 
  3 C        1.8070     0.6880    -0.8430 C.2   1 <1>  -0.1100 
  4 C       -1.8080     1.5680     0.4810 C.2   1 <1>   0.7150 
  5 C        0.0910     2.2290    -1.0890 C.2   1 <1>  -0.1500 
  6 C        1.3950     1.8000    -1.4780 C.2   1 <1>  -0.1500 
  7 O       -2.3850     2.6400     0.4810 O.2   1 <1>  -0.5700 
  8 N       -2.4540     0.5020     1.0730 N.am  1 <1>  -0.6600 
  9 C       -3.3690     0.7220     2.2190 C.3   1 <1>   0.1400 
 10 C       -2.6020    -0.8010     0.3840 C.3   1 <1>   0.1400 
 11 C       -4.8090     0.6470     1.7170 C.3   1 <1>  -0.1600 
 12 C       -4.0350    -0.9100    -0.1440 C.3   1 <1>  -0.1600 
 13 C       -5.0550    -0.6760     0.9840 C.3   1 <1>   0.4230 
 14 N       -6.4650    -0.7290     0.4940 N.4   1 <1>  -0.9590 
 15 C       -6.8620    -2.0890     0.0360 C.3   1 <1>   0.3430 
 16 C       -6.8160     0.3220    -0.5300 C.3   1 <1>   0.3430 
 17 C       -8.3980    -2.1910    -0.0130 C.3   1 <1>  -0.0800 
 18 C       -8.1700     0.0580    -1.2240 C.3   1 <1>  -0.0800 
 19 C       -9.0800    -0.8520    -0.3780 C.3   1 <1>  -0.1600 
 20 C       -8.9590    -2.7220     1.3150 C.3   1 <1>  -0.2400 
 21 C       -7.9740    -0.5080    -2.6420 C.3   1 <1>  -0.2400 
 22 H        2.7190     0.1210    -0.9060 H     1 <1>   0.1500 
 23 H       -0.3480     3.1150    -1.5150 H     1 <1>   0.1500 
 24 H        1.9630     2.3450    -2.2110 H     1 <1>   0.1500 
 25 H       -3.1810     1.6870     2.6630 H     1 <1>   0.0800 
 26 H       -3.1850    -0.0290     2.9700 H     1 <1>   0.0800 
 27 H       -2.3830    -1.5980     1.0760 H     1 <1>   0.0800 
 28 H       -1.9130    -0.8740    -0.4420 H     1 <1>   0.0800 
 29 H       -4.9660     1.4890     1.0650 H     1 <1>   0.0800 
 30 H       -5.4710     0.7350     2.5580 H     1 <1>   0.0800 
 31 H       -4.1620    -1.8870    -0.5710 H     1 <1>   0.0800 
 32 H       -4.1460    -0.1780    -0.9220 H     1 <1>   0.0800 
 33 H       -4.9200    -1.4660     1.7060 H     1 <1>   0.0800 
 34 H       -7.0700    -0.5390     1.3020 H     1 <1>   0.4500 
 35 H       -6.4750    -2.8430     0.7010 H     1 <1>   0.0800 
 36 H       -6.4570    -2.2660    -0.9460 H     1 <1>   0.0800 
 37 H       -6.0520     0.3770    -1.2870 H     1 <1>   0.0800 
 38 H       -6.8580     1.2830    -0.0440 H     1 <1>   0.0800 
 39 H       -8.6390    -2.9130    -0.7760 H     1 <1>   0.0800 
 40 H       -8.6620     1.0090    -1.3400 H     1 <1>   0.0800 
 41 H       -9.3370    -0.3170     0.5210 H     1 <1>   0.0800 
 42 H      -10.0040    -1.0450    -0.8990 H     1 <1>   0.0800 
 43 H       -8.7340    -2.0580     2.1310 H     1 <1>   0.0800 
 44 H       -8.5470    -3.6910     1.5380 H     1 <1>   0.0800 
 45 H      -10.0290    -2.8270     1.2490 H     1 <1>   0.0800 
 46 H       -7.4690    -1.4560    -2.6380 H     1 <1>   0.0800 
 47 H       -7.4010     0.1780    -3.2420 H     1 <1>   0.0800 
 48 H       -8.9300    -0.6410    -3.1210 H     1 <1>   0.0800 
@<TRIPOS>BOND
  1   1   2  1   
  2   1   3  1   
  3   2   4  1   
  4   2   5  2   
  5   3   6  2   
  6   3  22  1   
  7   4   7  2   
  8   4   8  am  
  9   5   6  1   
 10   5  23  1   
 11   6  24  1   
 12   8   9  1   
 13   8  10  1   
 14   9  11  1   
 15   9  25  1   
 16   9  26  1   
 17  10  12  1   
 18  10  27  1   
 19  10  28  1   
 20  11  13  1   
 21  11  29  1   
 22  11  30  1   
 23  12  13  1   
 24  12  31  1   
 25  12  32  1   
 26  13  14  1   
 27  13  33  1   
 28  14  15  1   
 29  14  16  1   
 30  14  34  1   
 31  15  17  1   
 32  15  35  1   
 33  15  36  1   
 34  16  18  1   
 35  16  37  1   
 36  16  38  1   
 37  17  19  1   
 38  17  20  1   
 39  17  39  1   
 40  18  19  1   
 41  18  21  1   
 42  18  40  1   
 43  19  41  1   
 44  19  42  1   
 45  20  43  1   
 46  20  44  1   
 47  20  45  1   
 48  21  46  1   
 49  21  47  1   
 50  21  48  1   
@<TRIPOS>SUBSTRUCTURE
  1 ****  12 GROUP 4 **** **** 0

# MOE 2024.06 (io_trps.svl 2023.06)
