@<TRIPOS>MOLECULE
NONAME
53 56 1 0 0 
SMALL
USER_CHARGES


@<TRIPOS>ATOM
  1 O       -0.3110     1.8630     1.8530 O.2   1 <1>  -0.5700 
  2 C        0.0170     0.7760     1.4570 C.2   1 <1>   0.4950 
  3 C        1.2420     0.4710     0.7700 C.2   1 <1>  -0.1240 
  4 C       -0.9530    -0.3640     1.7230 C.3   1 <1>  -0.0990 
  5 C        1.4780    -0.7610     0.2710 C.2   1 <1>  -0.0620 
  6 C        2.3020     1.5700     0.5970 C.3   1 <1>   0.4810 
  7 C       -0.9540    -1.4200     0.6000 C.3   1 <1>   0.0000 
  8 O        2.6110    -1.0990    -0.3430 O.3   1 <1>  -0.1530 
  9 C        0.4880    -1.9130     0.3560 C.3   1 <1>  -0.0220 
 10 C        3.6120     1.0320    -0.0160 C.2   1 <1>  -0.1240 
 11 C        2.5410     2.3390     1.9130 C.2   1 <1>   0.5690 
 12 C        1.7230     2.6980    -0.2590 C.ar  1 <1>  -0.1440 
 13 C       -1.8430    -2.6050     1.0110 C.3   1 <1>  -0.2400 
 14 C       -1.5300    -0.8110    -0.6930 C.3   1 <1>  -0.2400 
 15 C        3.6500    -0.2660    -0.4520 C.2   1 <1>   0.1770 
 16 C        4.7070     1.9460    -0.0860 C.2   1 <1>   0.7060 
 17 O        3.0170     1.8680     2.9210 O.2   1 <1>  -0.5700 
 18 N        2.1430     3.6290     1.7720 N.am  1 <1>  -0.5470 
 19 C        1.6570     3.8570     0.4930 C.ar  1 <1>   0.1170 
 20 C        1.2970     2.6830    -1.5760 C.ar  1 <1>  -0.1500 
 21 N        4.7120    -0.8810    -1.0440 N.pl3 1 <1>  -0.9000 
 22 O        4.6210     3.1430     0.1240 O.2   1 <1>  -0.5700 
 23 O        5.9270     1.4790    -0.4040 O.3   1 <1>  -0.4300 
 24 C        1.1610     5.0270    -0.0560 C.ar  1 <1>  -0.1500 
 25 C        0.8010     3.8540    -2.1290 C.ar  1 <1>  -0.1500 
 26 C        7.0800     2.2900    -0.4390 C.3   1 <1>   0.2000 
 27 C        0.7330     5.0180    -1.3740 C.ar  1 <1>  -0.1500 
 28 C        8.0810     1.6060    -1.3670 C.3   1 <1>  -0.2400 
 29 C        7.6310     2.4100     0.9830 C.3   1 <1>  -0.2400 
 30 H       -1.9420     0.0410     1.8440 H     1 <1>   0.0800 
 31 H       -0.6720    -0.8180     2.6550 H     1 <1>   0.0800 
 32 H        0.8010    -2.5600     1.1570 H     1 <1>   0.0800 
 33 H        0.5210    -2.4850    -0.5550 H     1 <1>   0.0800 
 34 H       -1.4830    -3.0570     1.9180 H     1 <1>   0.0800 
 35 H       -1.8530    -3.3560     0.2400 H     1 <1>   0.0800 
 36 H       -2.8550    -2.2790     1.1760 H     1 <1>   0.0800 
 37 H       -0.9350     0.0140    -1.0410 H     1 <1>   0.0800 
 38 H       -2.5310    -0.4520    -0.5270 H     1 <1>   0.0800 
 39 H       -1.5650    -1.5480    -1.4760 H     1 <1>   0.0800 
 40 H        2.1940     4.3060     2.5300 H     1 <1>   0.3700 
 41 H        1.3500     1.7810    -2.1610 H     1 <1>   0.1500 
 42 H        5.6250    -0.4100    -1.1230 H     1 <1>   0.4000 
 43 H        4.7000    -1.8710    -1.3030 H     1 <1>   0.4000 
 44 H        1.1130     5.9220     0.5360 H     1 <1>   0.1500 
 45 H        0.4660     3.8610    -3.1520 H     1 <1>   0.1500 
 46 H        6.8220     3.2590    -0.8360 H     1 <1>   0.0800 
 47 H        0.3450     5.9190    -1.8160 H     1 <1>   0.1500 
 48 H        8.3340     0.6290    -0.9950 H     1 <1>   0.0800 
 49 H        8.9790     2.1920    -1.4300 H     1 <1>   0.0800 
 50 H        7.6650     1.5180    -2.3540 H     1 <1>   0.0800 
 51 H        7.8500     1.4380     1.3860 H     1 <1>   0.0800 
 52 H        6.9160     2.9050     1.6160 H     1 <1>   0.0800 
 53 H        8.5330     2.9930     0.9780 H     1 <1>   0.0800 
@<TRIPOS>BOND
  1   1   2  2   
  2   2   3  1   
  3   2   4  1   
  4   3   5  2   
  5   3   6  1   
  6   4   7  1   
  7   4  30  1   
  8   4  31  1   
  9   5   8  1   
 10   5   9  1   
 11   6  10  1   
 12   6  11  1   
 13   6  12  1   
 14   7   9  1   
 15   7  13  1   
 16   7  14  1   
 17   8  15  1   
 18   9  32  1   
 19   9  33  1   
 20  10  15  2   
 21  10  16  1   
 22  11  17  2   
 23  11  18  am  
 24  12  19  ar  
 25  12  20  ar  
 26  13  34  1   
 27  13  35  1   
 28  13  36  1   
 29  14  37  1   
 30  14  38  1   
 31  14  39  1   
 32  15  21  1   
 33  16  22  2   
 34  16  23  1   
 35  18  19  1   
 36  18  40  1   
 37  19  24  ar  
 38  20  25  ar  
 39  20  41  1   
 40  21  42  1   
 41  21  43  1   
 42  23  26  1   
 43  24  27  ar  
 44  24  44  1   
 45  25  27  ar  
 46  25  45  1   
 47  26  28  1   
 48  26  29  1   
 49  26  46  1   
 50  27  47  1   
 51  28  48  1   
 52  28  49  1   
 53  28  50  1   
 54  29  51  1   
 55  29  52  1   
 56  29  53  1   
@<TRIPOS>SUBSTRUCTURE
  1 ****   6 GROUP 4 **** **** 0

# MOE 2024.06 (io_trps.svl 2023.06)
