@<TRIPOS>MOLECULE
NONAME
53 56 1 0 0 
SMALL
USER_CHARGES


@<TRIPOS>ATOM
  1 F       -1.1270    -2.5050    -1.1620 F     1 <1>  -0.1900 
  2 C       -2.0040    -2.0570    -0.3050 C.ar  1 <1>   0.1900 
  3 C       -3.0370    -1.2630    -0.7660 C.ar  1 <1>  -0.1500 
  4 C       -1.8670    -2.3950     1.0280 C.ar  1 <1>  -0.1500 
  5 C       -3.9750    -0.7900     0.1400 C.ar  1 <1>  -0.1440 
  6 C       -2.8030    -1.9170     1.9290 C.ar  1 <1>  -0.1500 
  7 C       -3.8480    -1.1200     1.4840 C.ar  1 <1>  -0.1500 
  8 C       -5.1340     0.0810    -0.3250 C.3   1 <1>   0.2540 
  9 N       -6.4340    -0.5980    -0.1040 N.3   1 <1>  -0.8100 
 10 C       -7.6810     0.1870    -0.4060 C.3   1 <1>   0.1900 
 11 C       -6.4430    -1.9120    -0.8100 C.3   1 <1>   0.1100 
 12 C       -7.6390     1.6490     0.1570 C.3   1 <1>  -0.0800 
 13 C       -8.9260    -0.6300     0.0950 C.3   1 <1>   0.4230 
 14 C       -7.8080    -2.6300    -0.7920 C.3   1 <1>   0.3430 
 15 C       -8.9860     2.2250     0.6630 C.3   1 <1>  -0.1600 
 16 C       -7.0820     2.6240    -0.9110 C.3   1 <1>  -0.1600 
 17 N       -8.6810    -2.0890     0.2920 N.4   1 <1>  -0.9590 
 18 C      -10.1450    -0.6010    -0.8300 C.3   1 <1>  -0.1600 
 19 C       -8.8280     3.6480     1.2180 C.3   1 <1>  -0.1600 
 20 C       -6.9060     4.0450    -0.3610 C.3   1 <1>  -0.1600 
 21 C      -10.0070    -2.7440     0.3550 C.3   1 <1>   0.3430 
 22 C      -10.9130    -1.8950    -0.5340 C.3   1 <1>  -0.1600 
 23 C       -8.2310     4.5940     0.1730 C.3   1 <1>  -0.1600 
 24 H       -3.0930    -1.0280    -1.8130 H     1 <1>   0.1500 
 25 H       -1.0480    -3.0140     1.3470 H     1 <1>   0.1500 
 26 H       -2.7180    -2.1620     2.9740 H     1 <1>   0.1500 
 27 H       -4.5730    -0.7540     2.1910 H     1 <1>   0.1500 
 28 H       -5.0180     0.3190    -1.3690 H     1 <1>   0.0800 
 29 H       -5.0850     0.9960     0.2370 H     1 <1>   0.0800 
 30 H       -7.7640     0.2660    -1.4770 H     1 <1>   0.0800 
 31 H       -5.7260    -2.5670    -0.3430 H     1 <1>   0.0800 
 32 H       -6.1360    -1.7830    -1.8340 H     1 <1>   0.0800 
 33 H       -6.9860     1.6530     1.0120 H     1 <1>   0.0800 
 34 H       -9.2250    -0.2380     1.0500 H     1 <1>   0.0800 
 35 H       -7.6510    -3.6880    -0.6570 H     1 <1>   0.0800 
 36 H       -8.2890    -2.4880    -1.7450 H     1 <1>   0.0800 
 37 H       -9.3890     1.6300     1.4620 H     1 <1>   0.0800 
 38 H       -9.7000     2.2560    -0.1420 H     1 <1>   0.0800 
 39 H       -7.7590     2.6630    -1.7480 H     1 <1>   0.0800 
 40 H       -6.1340     2.2990    -1.2920 H     1 <1>   0.0800 
 41 H       -8.1450    -2.1770     1.1670 H     1 <1>   0.4500 
 42 H       -9.8330    -0.5880    -1.8600 H     1 <1>   0.0800 
 43 H      -10.7550     0.2660    -0.6490 H     1 <1>   0.0800 
 44 H       -8.1880     3.6270     2.0840 H     1 <1>   0.0800 
 45 H       -9.7880     4.0240     1.5300 H     1 <1>   0.0800 
 46 H       -6.5390     4.6920    -1.1390 H     1 <1>   0.0800 
 47 H       -6.1760     4.0370     0.4310 H     1 <1>   0.0800 
 48 H      -10.3760    -2.7180     1.3680 H     1 <1>   0.0800 
 49 H       -9.9630    -3.7680     0.0210 H     1 <1>   0.0800 
 50 H      -11.1420    -2.4200    -1.4450 H     1 <1>   0.0800 
 51 H      -11.8360    -1.6920    -0.0190 H     1 <1>   0.0800 
 52 H       -8.0690     5.5640     0.6130 H     1 <1>   0.0800 
 53 H       -8.9240     4.7140    -0.6420 H     1 <1>   0.0800 
@<TRIPOS>BOND
  1   1   2  1   
  2   2   3  ar  
  3   2   4  ar  
  4   3   5  ar  
  5   3  24  1   
  6   4   6  ar  
  7   4  25  1   
  8   5   7  ar  
  9   5   8  1   
 10   6   7  ar  
 11   6  26  1   
 12   7  27  1   
 13   8   9  1   
 14   8  28  1   
 15   8  29  1   
 16   9  10  1   
 17   9  11  1   
 18  10  12  1   
 19  10  13  1   
 20  10  30  1   
 21  11  14  1   
 22  11  31  1   
 23  11  32  1   
 24  12  15  1   
 25  12  16  1   
 26  12  33  1   
 27  13  17  1   
 28  13  18  1   
 29  13  34  1   
 30  14  17  1   
 31  14  35  1   
 32  14  36  1   
 33  15  19  1   
 34  15  37  1   
 35  15  38  1   
 36  16  20  1   
 37  16  39  1   
 38  16  40  1   
 39  17  21  1   
 40  17  41  1   
 41  18  22  1   
 42  18  42  1   
 43  18  43  1   
 44  19  23  1   
 45  19  44  1   
 46  19  45  1   
 47  20  23  1   
 48  20  46  1   
 49  20  47  1   
 50  21  22  1   
 51  21  48  1   
 52  21  49  1   
 53  22  50  1   
 54  22  51  1   
 55  23  52  1   
 56  23  53  1   
@<TRIPOS>SUBSTRUCTURE
  1 ****   9 GROUP 4 **** **** 0

# MOE 2024.06 (io_trps.svl 2023.06)
