@<TRIPOS>MOLECULE
NONAME
21 20 1 0 0 
SMALL
USER_CHARGES


@<TRIPOS>ATOM
  1 O        1.3840     3.3540    -0.0590 O.3   1 <1>  -0.5600 
  2 C        0.2670     4.0280     0.4840 C.3   1 <1>   0.1200 
  3 C        2.5170     4.1860    -0.1780 C.3   1 <1>   0.1200 
  4 C       -1.0410     3.5690    -0.1910 C.3   1 <1>   0.3430 
  5 C        3.7500     3.3820    -0.6310 C.3   1 <1>   0.3430 
  6 N       -1.0920     2.0890    -0.3310 N.4   1 <1>  -0.8530 
  7 N        3.9920     2.2210     0.2690 N.4   1 <1>  -0.8530 
  8 H        0.3690     5.0930     0.3440 H     1 <1>   0.0800 
  9 H        0.2350     3.8290     1.5420 H     1 <1>   0.0800 
 10 H        2.7130     4.6530     0.7740 H     1 <1>   0.0800 
 11 H        2.3040     4.9550    -0.9030 H     1 <1>   0.0800 
 12 H       -1.0970     4.0250    -1.1670 H     1 <1>   0.0800 
 13 H       -1.8860     3.9210     0.3800 H     1 <1>   0.0800 
 14 H        4.6150     4.0260    -0.6440 H     1 <1>   0.0800 
 15 H        3.5840     3.0360    -1.6390 H     1 <1>   0.0800 
 16 H       -0.2090     1.7710    -0.7470 H     1 <1>   0.4500 
 17 H       -1.8670     1.7940    -0.9380 H     1 <1>   0.4500 
 18 H       -1.2030     1.6270     0.5780 H     1 <1>   0.4500 
 19 H        4.3240     2.5230     1.1930 H     1 <1>   0.4500 
 20 H        4.6910     1.5790    -0.1230 H     1 <1>   0.4500 
 21 H        3.1130     1.7100     0.4040 H     1 <1>   0.4500 
@<TRIPOS>BOND
  1   1   2  1   
  2   1   3  1   
  3   2   4  1   
  4   2   8  1   
  5   2   9  1   
  6   3   5  1   
  7   3  10  1   
  8   3  11  1   
  9   4   6  1   
 10   4  12  1   
 11   4  13  1   
 12   5   7  1   
 13   5  14  1   
 14   5  15  1   
 15   6  16  1   
 16   6  17  1   
 17   6  18  1   
 18   7  19  1   
 19   7  20  1   
 20   7  21  1   
@<TRIPOS>SUBSTRUCTURE
  1 ****   1 GROUP 4 **** **** 0

# MOE 2024.06 (io_trps.svl 2023.06)
