@<TRIPOS>MOLECULE
NONAME
48 49 1 0 0 
SMALL
USER_CHARGES


@<TRIPOS>ATOM
  1 CL       0.5150    -0.1410    -1.2690 Cl    1 <1>  -0.1770 
  2 C        0.4020    -1.7550    -0.5990 C.ar  1 <1>   0.1770 
  3 C        1.5520    -2.4320    -0.2060 C.ar  1 <1>   0.0830 
  4 C       -0.8500    -2.3260    -0.4750 C.ar  1 <1>  -0.1500 
  5 O        2.7510    -1.8070    -0.3580 O.3   1 <1>  -0.3630 
  6 C        1.4180    -3.7140     0.3210 C.ar  1 <1>  -0.1500 
  7 C       -0.9760    -3.6020     0.0520 C.ar  1 <1>  -0.1430 
  8 C        3.9620    -2.4230     0.0160 C.3   1 <1>   0.1200 
  9 C        0.1630    -4.2880     0.4460 C.ar  1 <1>  -0.1500 
 10 C       -2.3440    -4.2440     0.1940 C.3   1 <1>  -0.0960 
 11 C        5.0940    -1.4470    -0.2900 C.3   1 <1>   0.1200 
 12 O        6.3090    -2.0340     0.0740 O.3   1 <1>  -0.5600 
 13 C        7.4190    -1.2330    -0.1600 C.3   1 <1>   0.1200 
 14 C        8.6570    -2.0280     0.2720 C.3   1 <1>   0.3430 
 15 N        9.9410    -1.2970     0.0150 N.4   1 <1>  -0.9590 
 16 C       11.1070    -2.2260     0.1720 C.3   1 <1>   0.3430 
 17 C       10.1090    -0.0880     0.8710 C.3   1 <1>   0.3430 
 18 C       12.4610    -1.4840     0.1700 C.3   1 <1>  -0.0800 
 19 C       11.2780     0.7530     0.3430 C.3   1 <1>  -0.1600 
 20 C       12.3520    -0.0610    -0.4040 C.3   1 <1>  -0.1600 
 21 C       13.5160    -2.2880    -0.6010 C.3   1 <1>  -0.2400 
 22 H       -1.7140    -1.7700    -0.7910 H     1 <1>   0.1500 
 23 H        2.2730    -4.2810     0.6390 H     1 <1>   0.1500 
 24 H        4.0760    -3.3250    -0.5600 H     1 <1>   0.0800 
 25 H        3.9230    -2.6380     1.0690 H     1 <1>   0.0800 
 26 H        0.0750    -5.2810     0.8540 H     1 <1>   0.1500 
 27 H       -3.1110    -3.4930     0.2580 H     1 <1>   0.0800 
 28 H       -2.3850    -4.8450     1.0850 H     1 <1>   0.0800 
 29 H       -2.5430    -4.8700    -0.6570 H     1 <1>   0.0800 
 30 H        4.9600    -0.5420     0.2780 H     1 <1>   0.0800 
 31 H        5.1140    -1.2290    -1.3440 H     1 <1>   0.0800 
 32 H        7.3120    -0.3320     0.4180 H     1 <1>   0.0800 
 33 H        7.4580    -1.0080    -1.2130 H     1 <1>   0.0800 
 34 H        8.6610    -2.9560    -0.2770 H     1 <1>   0.0800 
 35 H        8.5740    -2.2580     1.3210 H     1 <1>   0.0800 
 36 H        9.9550    -0.9750    -0.9620 H     1 <1>   0.4500 
 37 H       11.0970    -2.9390    -0.6370 H     1 <1>   0.0800 
 38 H       11.0180    -2.7780     1.0940 H     1 <1>   0.0800 
 39 H       10.3170    -0.3960     1.8840 H     1 <1>   0.0800 
 40 H        9.2120     0.5100     0.8780 H     1 <1>   0.0800 
 41 H       12.7940    -1.4090     1.1920 H     1 <1>   0.0800 
 42 H       11.7300     1.2530     1.1830 H     1 <1>   0.0800 
 43 H       10.9010     1.5230    -0.3080 H     1 <1>   0.0800 
 44 H       12.0950    -0.1180    -1.4480 H     1 <1>   0.0800 
 45 H       13.3010     0.4450    -0.3340 H     1 <1>   0.0800 
 46 H       13.2410    -2.3940    -1.6370 H     1 <1>   0.0800 
 47 H       13.6320    -3.2700    -0.1740 H     1 <1>   0.0800 
 48 H       14.4700    -1.7920    -0.5550 H     1 <1>   0.0800 
@<TRIPOS>BOND
  1   1   2  1   
  2   2   3  ar  
  3   2   4  ar  
  4   3   5  1   
  5   3   6  ar  
  6   4   7  ar  
  7   4  22  1   
  8   5   8  1   
  9   6   9  ar  
 10   6  23  1   
 11   7   9  ar  
 12   7  10  1   
 13   8  11  1   
 14   8  24  1   
 15   8  25  1   
 16   9  26  1   
 17  10  27  1   
 18  10  28  1   
 19  10  29  1   
 20  11  12  1   
 21  11  30  1   
 22  11  31  1   
 23  12  13  1   
 24  13  14  1   
 25  13  32  1   
 26  13  33  1   
 27  14  15  1   
 28  14  34  1   
 29  14  35  1   
 30  15  16  1   
 31  15  17  1   
 32  15  36  1   
 33  16  18  1   
 34  16  37  1   
 35  16  38  1   
 36  17  19  1   
 37  17  39  1   
 38  17  40  1   
 39  18  20  1   
 40  18  21  1   
 41  18  41  1   
 42  19  20  1   
 43  19  42  1   
 44  19  43  1   
 45  20  44  1   
 46  20  45  1   
 47  21  46  1   
 48  21  47  1   
 49  21  48  1   
@<TRIPOS>SUBSTRUCTURE
  1 ****  11 GROUP 4 **** **** 0

# MOE 2024.06 (io_trps.svl 2023.06)
