@<TRIPOS>MOLECULE
NONAME
45 47 1 0 0 
SMALL
USER_CHARGES


@<TRIPOS>ATOM
  1 S       -8.4020     1.1450    -1.8720 S.o2  1 <1>   1.4470 
  2 O       -8.1400     0.0220    -2.7410 O.2   1 <1>  -0.6500 
  3 O       -8.3010     2.4940    -2.3850 O.2   1 <1>  -0.6500 
  4 N       -7.2260     1.0610    -0.6490 N.am  1 <1>  -0.8490 
  5 C       -9.9530     0.9020    -0.9660 C.ar  1 <1>  -0.0090 
  6 C       -7.2970     2.2120     0.2730 C.3   1 <1>   0.1960 
  7 C       -5.8790     0.9370    -1.2380 C.3   1 <1>   0.1960 
  8 C      -10.2500    -0.3210    -0.3760 C.ar  1 <1>  -0.1500 
  9 C      -10.8700     1.9360    -0.8110 C.ar  1 <1>  -0.1500 
 10 C       -6.2450     2.1090     1.3980 C.3   1 <1>   0.3430 
 11 C       -4.7870     0.8100    -0.1560 C.3   1 <1>   0.3430 
 12 C      -11.4140    -0.5050     0.3500 C.ar  1 <1>  -0.1500 
 13 C      -12.0350     1.7590    -0.0860 C.ar  1 <1>  -0.1500 
 14 N       -4.8600     1.9260     0.8500 N.4   1 <1>  -0.9590 
 15 C      -12.3110     0.5370     0.5020 C.ar  1 <1>  -0.1430 
 16 C       -3.8100     1.8100     1.8970 C.3   1 <1>   0.5240 
 17 C      -13.5900     0.3370     1.2950 C.3   1 <1>  -0.0970 
 18 C       -2.4850     2.1870     1.2500 C.2   1 <1>   0.0460 
 19 N       -2.5030     3.2730     0.3770 N.2   1 <1>  -0.5650 
 20 C       -1.3020     1.5770     1.4210 C.2   1 <1>  -0.1100 
 21 C       -1.3450     3.4970    -0.1030 C.2   1 <1>   0.1980 
 22 S       -0.1090     2.3900     0.4520 S.3   1 <1>  -0.0800 
 23 C       -0.9190     4.5770    -1.0720 C.3   1 <1>  -0.0600 
 24 H       -8.2750     2.2540     0.7220 H     1 <1>   0.0800 
 25 H       -7.1460     3.1330    -0.2670 H     1 <1>   0.0800 
 26 H       -5.6700     1.7890    -1.8650 H     1 <1>   0.0800 
 27 H       -5.8370     0.0590    -1.8610 H     1 <1>   0.0800 
 28 H       -9.5610    -1.1420    -0.4890 H     1 <1>   0.1500 
 29 H      -10.6750     2.8930    -1.2660 H     1 <1>   0.1500 
 30 H       -6.5020     1.2700     2.0230 H     1 <1>   0.0800 
 31 H       -6.2870     3.0010     2.0030 H     1 <1>   0.0800 
 32 H       -3.8190     0.8100    -0.6310 H     1 <1>   0.0800 
 33 H       -4.9150    -0.1370     0.3410 H     1 <1>   0.0800 
 34 H      -11.6200    -1.4640     0.7920 H     1 <1>   0.1500 
 35 H      -12.7290     2.5760     0.0150 H     1 <1>   0.1500 
 36 H       -4.5690     2.7850     0.3470 H     1 <1>   0.4500 
 37 H       -3.7710     0.8140     2.3040 H     1 <1>   0.0800 
 38 H       -4.0100     2.5090     2.6920 H     1 <1>   0.0800 
 39 H      -13.4360    -0.3760     2.0850 H     1 <1>   0.0800 
 40 H      -14.3670    -0.0260     0.6470 H     1 <1>   0.0800 
 41 H      -13.9110     1.2650     1.7350 H     1 <1>   0.0800 
 42 H       -0.9730     0.7370     2.0080 H     1 <1>   0.1500 
 43 H       -1.7640     5.1810    -1.3460 H     1 <1>   0.0800 
 44 H       -0.5040     4.1330    -1.9580 H     1 <1>   0.0800 
 45 H       -0.1770     5.2050    -0.6130 H     1 <1>   0.0800 
@<TRIPOS>BOND
  1   1   2  2   
  2   1   3  2   
  3   1   4  am  
  4   1   5  1   
  5   4   6  1   
  6   4   7  1   
  7   5   8  ar  
  8   5   9  ar  
  9   6  10  1   
 10   6  24  1   
 11   6  25  1   
 12   7  11  1   
 13   7  26  1   
 14   7  27  1   
 15   8  12  ar  
 16   8  28  1   
 17   9  13  ar  
 18   9  29  1   
 19  10  14  1   
 20  10  30  1   
 21  10  31  1   
 22  11  14  1   
 23  11  32  1   
 24  11  33  1   
 25  12  15  ar  
 26  12  34  1   
 27  13  15  ar  
 28  13  35  1   
 29  14  16  1   
 30  14  36  1   
 31  15  17  1   
 32  16  18  1   
 33  16  37  1   
 34  16  38  1   
 35  17  39  1   
 36  17  40  1   
 37  17  41  1   
 38  18  19  1   
 39  18  20  2   
 40  19  21  2   
 41  20  22  1   
 42  20  42  1   
 43  21  22  1   
 44  21  23  1   
 45  23  43  1   
 46  23  44  1   
 47  23  45  1   
@<TRIPOS>SUBSTRUCTURE
  1 ****   4 GROUP 4 **** **** 0

# MOE 2024.06 (io_trps.svl 2023.06)
