@<TRIPOS>MOLECULE
NONAME
45 47 1 0 0 
SMALL
USER_CHARGES


@<TRIPOS>ATOM
  1 S       -0.8340     0.3800    -1.0140 S.3   1 <1>  -0.0800 
  2 C       -1.8910     0.7660     0.3470 C.2   1 <1>  -0.0450 
  3 C        0.5510     1.1260    -0.2470 C.2   1 <1>  -0.1400 
  4 C       -3.2790     0.3830     0.2800 C.2   1 <1>   0.7150 
  5 C       -1.1610     1.4170     1.2900 C.2   1 <1>  -0.1500 
  6 C        0.2090     1.6200     0.9560 C.2   1 <1>  -0.1500 
  7 C        1.8610     1.1020    -1.0060 C.3   1 <1>  -0.0600 
  8 O       -3.6810    -0.4650    -0.4950 O.2   1 <1>  -0.5700 
  9 N       -4.2250     1.0280     1.0460 N.am  1 <1>  -0.6600 
 10 C       -4.3820     2.5010     0.8950 C.3   1 <1>   0.1400 
 11 C       -5.5120     0.3290     1.3360 C.3   1 <1>   0.1400 
 12 C       -5.3990     2.8070    -0.2280 C.3   1 <1>   0.3430 
 13 C       -6.5210     0.6060     0.2070 C.3   1 <1>   0.3430 
 14 N       -6.7090     2.0870    -0.0340 N.4   1 <1>  -0.9590 
 15 C       -7.6310     2.3200    -1.1780 C.3   1 <1>   0.4860 
 16 C       -8.9960     1.7810    -0.8030 C.ar  1 <1>  -0.1430 
 17 C       -9.4430     0.5810    -1.3370 C.ar  1 <1>  -0.1500 
 18 C       -9.8050     2.4760     0.0840 C.ar  1 <1>  -0.1500 
 19 C      -10.6800     0.0770    -0.9750 C.ar  1 <1>  -0.1500 
 20 C      -11.0410     1.9670     0.4430 C.ar  1 <1>  -0.1500 
 21 C      -11.4840     0.7660    -0.0840 C.ar  1 <1>  -0.1430 
 22 C      -12.8410     0.2090     0.3110 C.3   1 <1>  -0.0970 
 23 H       -1.5470     1.7620     2.2330 H     1 <1>   0.1500 
 24 H        0.8780     2.1250     1.6320 H     1 <1>   0.1500 
 25 H        2.1560     0.0860    -1.1960 H     1 <1>   0.0800 
 26 H        2.6320     1.5860    -0.4330 H     1 <1>   0.0800 
 27 H        1.7510     1.6150    -1.9440 H     1 <1>   0.0800 
 28 H       -3.4370     2.9540     0.6490 H     1 <1>   0.0800 
 29 H       -4.7170     2.9260     1.8260 H     1 <1>   0.0800 
 30 H       -5.9060     0.6640     2.2800 H     1 <1>   0.0800 
 31 H       -5.3420    -0.7330     1.4100 H     1 <1>   0.0800 
 32 H       -4.9600     2.5030    -1.1650 H     1 <1>   0.0800 
 33 H       -5.5660     3.8710    -0.2720 H     1 <1>   0.0800 
 34 H       -7.4660     0.1500     0.4580 H     1 <1>   0.0800 
 35 H       -6.1550     0.1340    -0.6910 H     1 <1>   0.0800 
 36 H       -7.1810     2.4630     0.7970 H     1 <1>   0.4500 
 37 H       -7.2660     1.8230    -2.0620 H     1 <1>   0.0800 
 38 H       -7.7120     3.3750    -1.3850 H     1 <1>   0.0800 
 39 H       -8.8440     0.0250    -2.0380 H     1 <1>   0.1500 
 40 H       -9.4960     3.4180     0.5030 H     1 <1>   0.1500 
 41 H      -11.0190    -0.8560    -1.3930 H     1 <1>   0.1500 
 42 H      -11.6640     2.5110     1.1320 H     1 <1>   0.1500 
 43 H      -12.7380    -0.4310     1.1680 H     1 <1>   0.0800 
 44 H      -13.2650    -0.3590    -0.4970 H     1 <1>   0.0800 
 45 H      -13.5200     1.0070     0.5540 H     1 <1>   0.0800 
@<TRIPOS>BOND
  1   1   2  1   
  2   1   3  1   
  3   2   4  1   
  4   2   5  2   
  5   3   6  2   
  6   3   7  1   
  7   4   8  2   
  8   4   9  am  
  9   5   6  1   
 10   5  23  1   
 11   6  24  1   
 12   7  25  1   
 13   7  26  1   
 14   7  27  1   
 15   9  10  1   
 16   9  11  1   
 17  10  12  1   
 18  10  28  1   
 19  10  29  1   
 20  11  13  1   
 21  11  30  1   
 22  11  31  1   
 23  12  14  1   
 24  12  32  1   
 25  12  33  1   
 26  13  14  1   
 27  13  34  1   
 28  13  35  1   
 29  14  15  1   
 30  14  36  1   
 31  15  16  1   
 32  15  37  1   
 33  15  38  1   
 34  16  17  ar  
 35  16  18  ar  
 36  17  19  ar  
 37  17  39  1   
 38  18  20  ar  
 39  18  40  1   
 40  19  21  ar  
 41  19  41  1   
 42  20  21  ar  
 43  20  42  1   
 44  21  22  1   
 45  22  43  1   
 46  22  44  1   
 47  22  45  1   
@<TRIPOS>SUBSTRUCTURE
  1 ****  13 GROUP 4 **** **** 0

# MOE 2024.06 (io_trps.svl 2023.06)
