@<TRIPOS>MOLECULE
11826
30 30 1 0 0 
SMALL
USER_CHARGES


@<TRIPOS>ATOM
  1 CL       0.5800    -0.4870     1.6150 Cl    1 <1>  -0.1770 
  2 C        1.8590     0.4600     0.8890 C.ar  1 <1>   0.1770 
  3 C        1.7610     1.8400     0.8230 C.ar  1 <1>   0.1770 
  4 C        2.9700    -0.1880     0.3870 C.ar  1 <1>  -0.1500 
  5 CL       0.3590     2.6760     1.4560 Cl    1 <1>  -0.1770 
  6 C        2.7790     2.5820     0.2520 C.ar  1 <1>  -0.1500 
  7 C        4.0040     0.5430    -0.1940 C.ar  1 <1>   0.1170 
  8 C        3.8930     1.9310    -0.2510 C.ar  1 <1>  -0.1500 
  9 N        5.1570    -0.0640    -0.7060 N.am  1 <1>  -0.5470 
 10 C        5.3590    -1.3200    -1.1950 C.2   1 <1>   0.6900 
 11 O        4.4530    -2.1070    -1.3630 O.2   1 <1>  -0.5700 
 12 N        6.6070    -1.7150    -1.5230 N.am  1 <1>  -0.7300 
 13 C        7.8980    -1.2070    -1.0000 C.3   1 <1>   0.1400 
 14 C        8.5480    -2.2410    -0.0670 C.3   1 <1>  -0.0800 
 15 C        7.6820    -2.5300     1.1690 C.3   1 <1>  -0.2400 
 16 C        9.9290    -1.7470     0.3820 C.3   1 <1>  -0.2400 
 17 H        3.0250    -1.2590     0.4530 H     1 <1>   0.1500 
 18 H        2.6950     3.6540     0.2040 H     1 <1>   0.1500 
 19 H        4.6830     2.5080    -0.6980 H     1 <1>   0.1500 
 20 H        5.9600     0.5390    -0.8440 H     1 <1>   0.3700 
 21 H        6.6370    -2.6650    -1.8950 H     1 <1>   0.3700 
 22 H        7.7500    -0.2850    -0.4640 H     1 <1>   0.0800 
 23 H        8.5520    -1.0100    -1.8330 H     1 <1>   0.0800 
 24 H        8.6870    -3.1570    -0.6160 H     1 <1>   0.0800 
 25 H        7.4960    -1.6280     1.7250 H     1 <1>   0.0800 
 26 H        8.1750    -3.2350     1.8150 H     1 <1>   0.0800 
 27 H        6.7350    -2.9530     0.8810 H     1 <1>   0.0800 
 28 H        9.8440    -0.8340     0.9450 H     1 <1>   0.0800 
 29 H       10.5610    -1.5700    -0.4700 H     1 <1>   0.0800 
 30 H       10.4050    -2.4860     1.0030 H     1 <1>   0.0800 
@<TRIPOS>BOND
  1   1   2  1   
  2   2   3  ar  
  3   2   4  ar  
  4   3   5  1   
  5   3   6  ar  
  6   4   7  ar  
  7   4  17  1   
  8   6   8  ar  
  9   6  18  1   
 10   7   8  ar  
 11   7   9  1   
 12   8  19  1   
 13   9  10  am  
 14   9  20  1   
 15  10  11  2   
 16  10  12  am  
 17  12  13  1   
 18  12  21  1   
 19  13  14  1   
 20  13  22  1   
 21  13  23  1   
 22  14  15  1   
 23  14  16  1   
 24  14  24  1   
 25  15  25  1   
 26  15  26  1   
 27  15  27  1   
 28  16  28  1   
 29  16  29  1   
 30  16  30  1   
@<TRIPOS>SUBSTRUCTURE
  1 ****   9 GROUP 4 **** **** 0

# MOE 2024.06 (io_trps.svl 2023.06)
