@<TRIPOS>MOLECULE
NONAME
35 36 1 0 0 
SMALL
USER_CHARGES


@<TRIPOS>ATOM
  1 O        1.8040    -5.1000     0.2020 O.2   1 <1>  -0.5700 
  2 C        1.5850    -4.0260     0.7290 C.2   1 <1>   0.5440 
  3 N        0.3230    -3.8260     1.2430 N.am  1 <1>  -0.6600 
  4 C        2.5900    -2.9760     0.7390 C.ar  1 <1>   0.0860 
  5 C       -0.4920    -2.6830     0.7450 C.3   1 <1>   0.1400 
  6 C       -0.4970    -5.0130     1.6220 C.3   1 <1>   0.1400 
  7 C        3.5400    -2.8800    -0.2780 C.ar  1 <1>  -0.1500 
  8 C        2.6400    -2.0210     1.7560 C.ar  1 <1>  -0.1500 
  9 C       -1.3530    -3.1370    -0.4550 C.3   1 <1>   0.3430 
 10 C       -1.3240    -5.4780     0.4100 C.3   1 <1>   0.3430 
 11 C        4.4860    -1.8700    -0.3000 C.ar  1 <1>  -0.1440 
 12 C        3.5790    -1.0060     1.7430 C.ar  1 <1>  -0.1500 
 13 N       -2.1800    -4.3640    -0.1480 N.4   1 <1>  -0.9590 
 14 C        4.4980    -0.9280     0.7140 C.ar  1 <1>  -0.1500 
 15 C        5.5050    -1.7880    -1.4230 C.3   1 <1>  -0.0970 
 16 C       -2.9110    -4.8270    -1.3650 C.3   1 <1>   0.2630 
 17 H        0.1490    -1.8760     0.4330 H     1 <1>   0.0800 
 18 H       -1.1210    -2.3150     1.5370 H     1 <1>   0.0800 
 19 H       -1.1430    -4.7630     2.4460 H     1 <1>   0.0800 
 20 H        0.1490    -5.8140     1.9430 H     1 <1>   0.0800 
 21 H        3.5310    -3.6180    -1.0620 H     1 <1>   0.1500 
 22 H        1.9380    -2.0760     2.5690 H     1 <1>   0.1500 
 23 H       -0.6890    -3.3510    -1.2770 H     1 <1>   0.0800 
 24 H       -1.9960    -2.3260    -0.7550 H     1 <1>   0.0800 
 25 H       -1.9440    -6.3100     0.7010 H     1 <1>   0.0800 
 26 H       -0.6370    -5.8250    -0.3460 H     1 <1>   0.0800 
 27 H        3.6000    -0.2770     2.5350 H     1 <1>   0.1500 
 28 H       -2.8650    -4.1080     0.5760 H     1 <1>   0.4500 
 29 H        5.2270    -0.1360     0.7080 H     1 <1>   0.1500 
 30 H        5.5800    -2.7270    -1.9410 H     1 <1>   0.0800 
 31 H        6.4740    -1.5440    -1.0260 H     1 <1>   0.0800 
 32 H        5.2150    -1.0270    -2.1250 H     1 <1>   0.0800 
 33 H       -2.2110    -5.1080    -2.1370 H     1 <1>   0.0800 
 34 H       -3.5450    -4.0420    -1.7450 H     1 <1>   0.0800 
 35 H       -3.5250    -5.6820    -1.1310 H     1 <1>   0.0800 
@<TRIPOS>BOND
  1   1   2  2   
  2   2   3  am  
  3   2   4  1   
  4   3   5  1   
  5   3   6  1   
  6   4   7  ar  
  7   4   8  ar  
  8   5   9  1   
  9   5  17  1   
 10   5  18  1   
 11   6  10  1   
 12   6  19  1   
 13   6  20  1   
 14   7  11  ar  
 15   7  21  1   
 16   8  12  ar  
 17   8  22  1   
 18   9  13  1   
 19   9  23  1   
 20   9  24  1   
 21  10  13  1   
 22  10  25  1   
 23  10  26  1   
 24  11  14  ar  
 25  11  15  1   
 26  12  14  ar  
 27  12  27  1   
 28  13  16  1   
 29  13  28  1   
 30  14  29  1   
 31  15  30  1   
 32  15  31  1   
 33  15  32  1   
 34  16  33  1   
 35  16  34  1   
 36  16  35  1   
@<TRIPOS>SUBSTRUCTURE
  1 ****   2 GROUP 4 **** **** 0

# MOE 2024.06 (io_trps.svl 2023.06)
