@<TRIPOS>MOLECULE
NONAME
48 49 1 0 0 
SMALL
USER_CHARGES


@<TRIPOS>ATOM
  1 S       -0.3140     0.1910    -0.5140 S.o2  1 <1>   1.3330 
  2 O        1.0430     0.2930    -0.0420 O.2   1 <1>  -0.6500 
  3 O       -0.7380     0.8390    -1.7300 O.2   1 <1>  -0.6500 
  4 N       -1.2400     0.8370     0.7800 N.am  1 <1>  -0.7570 
  5 C       -0.8120    -1.5360    -0.5140 C.3   1 <1>  -0.0550 
  6 C       -2.5710     1.2130     0.8320 C.ar  1 <1>   0.1990 
  7 C       -0.1030    -2.4010    -1.5700 C.3   1 <1>  -0.2400 
  8 C       -3.0590     1.7880     2.0000 C.ar  1 <1>  -0.1500 
  9 C       -3.4610     1.0470    -0.2270 C.ar  1 <1>  -0.1500 
 10 C       -4.3790     2.1780     2.1090 C.ar  1 <1>  -0.1500 
 11 C       -4.7810     1.4400    -0.1160 C.ar  1 <1>  -0.1500 
 12 C       -5.2800     2.0080     1.0580 C.ar  1 <1>   0.0860 
 13 C       -6.6610     2.4290     1.1880 C.2   1 <1>   0.5440 
 14 O       -6.9070     3.5210     1.6660 O.2   1 <1>  -0.5700 
 15 N       -7.7180     1.6300     0.8020 N.am  1 <1>  -0.6600 
 16 C       -7.6020     0.1450     0.6380 C.3   1 <1>   0.1400 
 17 C       -9.1050     2.1960     0.7680 C.3   1 <1>   0.1400 
 18 C       -8.9000    -0.5870     1.0130 C.3   1 <1>   0.1400 
 19 C      -10.0500     1.3790    -0.1280 C.3   1 <1>   0.1400 
 20 N      -10.0660    -0.0710     0.2350 N.am  1 <1>  -0.6600 
 21 C      -11.0850    -0.9000    -0.1450 C.2   1 <1>   0.7800 
 22 O      -11.1130    -2.0800     0.1490 O.2   1 <1>  -0.5700 
 23 O      -12.0720    -0.3720    -0.8700 O.3   1 <1>  -0.4300 
 24 C      -13.1550    -1.1630    -1.3000 C.3   1 <1>   0.1200 
 25 C      -14.1040    -0.2740    -2.0970 C.3   1 <1>  -0.2400 
 26 H       -0.6090     1.1770     1.5010 H     1 <1>   0.4200 
 27 H       -1.8700    -1.5930    -0.6810 H     1 <1>   0.0800 
 28 H       -0.6160    -1.9530     0.4550 H     1 <1>   0.0800 
 29 H       -0.3050    -2.0220    -2.5580 H     1 <1>   0.0800 
 30 H       -0.4470    -3.4190    -1.5130 H     1 <1>   0.0800 
 31 H        0.9610    -2.3860    -1.4080 H     1 <1>   0.0800 
 32 H       -2.3950     1.9350     2.8330 H     1 <1>   0.1500 
 33 H       -3.1260     0.6220    -1.1540 H     1 <1>   0.1500 
 34 H       -4.7340     2.6310     3.0200 H     1 <1>   0.1500 
 35 H       -5.4420     1.3200    -0.9570 H     1 <1>   0.1500 
 36 H       -6.8030    -0.2260     1.2570 H     1 <1>   0.0800 
 37 H       -7.3650    -0.0790    -0.3870 H     1 <1>   0.0800 
 38 H       -9.0690     3.2100     0.4070 H     1 <1>   0.0800 
 39 H       -9.4970     2.2200     1.7700 H     1 <1>   0.0800 
 40 H       -9.0940    -0.4560     2.0640 H     1 <1>   0.0800 
 41 H       -8.7760    -1.6410     0.8300 H     1 <1>   0.0800 
 42 H       -9.7350     1.4790    -1.1520 H     1 <1>   0.0800 
 43 H      -11.0440     1.7830    -0.0460 H     1 <1>   0.0800 
 44 H      -13.6450    -1.5710    -0.4310 H     1 <1>   0.0800 
 45 H      -12.7710    -1.9650    -1.9090 H     1 <1>   0.0800 
 46 H      -14.4690     0.5260    -1.4790 H     1 <1>   0.0800 
 47 H      -14.9420    -0.8540    -2.4380 H     1 <1>   0.0800 
 48 H      -13.5970     0.1340    -2.9540 H     1 <1>   0.0800 
@<TRIPOS>BOND
  1   1   2  2   
  2   1   3  2   
  3   1   4  am  
  4   1   5  1   
  5   4   6  1   
  6   4  26  1   
  7   5   7  1   
  8   5  27  1   
  9   5  28  1   
 10   6   8  ar  
 11   6   9  ar  
 12   7  29  1   
 13   7  30  1   
 14   7  31  1   
 15   8  10  ar  
 16   8  32  1   
 17   9  11  ar  
 18   9  33  1   
 19  10  12  ar  
 20  10  34  1   
 21  11  12  ar  
 22  11  35  1   
 23  12  13  1   
 24  13  14  2   
 25  13  15  am  
 26  15  16  1   
 27  15  17  1   
 28  16  18  1   
 29  16  36  1   
 30  16  37  1   
 31  17  19  1   
 32  17  38  1   
 33  17  39  1   
 34  18  20  1   
 35  18  40  1   
 36  18  41  1   
 37  19  20  1   
 38  19  42  1   
 39  19  43  1   
 40  20  21  am  
 41  21  22  2   
 42  21  23  1   
 43  23  24  1   
 44  24  25  1   
 45  24  44  1   
 46  24  45  1   
 47  25  46  1   
 48  25  47  1   
 49  25  48  1   
@<TRIPOS>SUBSTRUCTURE
  1 ****  16 GROUP 4 **** **** 0

# MOE 2024.06 (io_trps.svl 2023.06)
