@<TRIPOS>MOLECULE
NONAME
53 56 1 0 0 
SMALL
USER_CHARGES


@<TRIPOS>ATOM
  1 F        0.5860     0.7200     1.2990 F     1 <1>  -0.1900 
  2 C        1.7230     1.2320     0.9130 C.ar  1 <1>   0.1900 
  3 C        2.5170     1.8730     1.8430 C.ar  1 <1>  -0.1500 
  4 C        2.0910     1.1150    -0.4130 C.ar  1 <1>  -0.1500 
  5 C        3.7210     2.4140     1.4260 C.ar  1 <1>  -0.1500 
  6 C        3.2980     1.6600    -0.8190 C.ar  1 <1>  -0.1500 
  7 C        4.1190     2.3130     0.0950 C.ar  1 <1>  -0.1430 
  8 C        5.4400     2.9170    -0.3700 C.3   1 <1>   0.4330 
  9 N        6.5110     2.5720     0.5840 N.pl3 1 <1>  -0.8530 
 10 C        5.3540     4.4450    -0.4540 C.3   1 <1>  -0.1600 
 11 C        7.7310     3.2390     0.4170 C.2   1 <1>  -0.0680 
 12 C        6.7020     5.1040    -0.8680 C.3   1 <1>   0.1760 
 13 N        7.8430     4.4330    -0.2080 N.pl3 1 <1>   0.3140 
 14 C        8.9760     2.8840     0.7860 C.2   1 <1>  -0.1500 
 15 C        6.7350     6.6120    -0.5860 C.3   1 <1>   1.0200 
 16 N        9.1260     4.8280    -0.2950 N.2   1 <1>  -0.7070 
 17 C        9.8330     3.9000     0.3340 C.2   1 <1>   0.2030 
 18 F        5.6370     7.2030    -1.0450 F     1 <1>  -0.3400 
 19 F        6.7830     6.9080     0.7080 F     1 <1>  -0.3400 
 20 F        7.7450     7.2520    -1.1630 F     1 <1>  -0.3400 
 21 C       11.2810     3.8510     0.5560 C.2   1 <1>   0.7160 
 22 O       11.7820     2.7950     0.9140 O.2   1 <1>  -0.5700 
 23 N       12.1390     4.9330     0.3850 N.am  1 <1>  -0.6600 
 24 C       13.5950     4.8230     0.6940 C.3   1 <1>   0.1400 
 25 C       11.6900     6.2710    -0.0940 C.3   1 <1>   0.0600 
 26 C       14.3640     4.3680    -0.5460 C.3   1 <1>  -0.0170 
 27 C       15.8380     4.2200    -0.2200 C.ar  1 <1>   0.1670 
 28 N       16.5240     5.3450    -0.0790 N.ar  1 <1>  -0.6200 
 29 C       16.3880     2.9540    -0.0830 C.ar  1 <1>  -0.1500 
 30 C       17.8080     5.2010     0.2050 C.ar  1 <1>   0.1600 
 31 C       17.7270     2.8190     0.2140 C.ar  1 <1>  -0.1500 
 32 C       18.4490     3.9840     0.3600 C.ar  1 <1>  -0.1500 
 33 H        2.1990     1.9430     2.8680 H     1 <1>   0.1500 
 34 H        1.4450     0.6070    -1.1070 H     1 <1>   0.1500 
 35 H        4.3540     2.9130     2.1410 H     1 <1>   0.1500 
 36 H        3.5890     1.5710    -1.8520 H     1 <1>   0.1500 
 37 H        5.6990     2.5140    -1.3350 H     1 <1>   0.0800 
 38 H        6.5750     1.5580     0.7420 H     1 <1>   0.4000 
 39 H        5.0500     4.8190     0.5080 H     1 <1>   0.0800 
 40 H        4.5870     4.7160    -1.1580 H     1 <1>   0.0800 
 41 H        6.8380     4.9700    -1.9240 H     1 <1>   0.0800 
 42 H        9.2880     2.0030     1.3160 H     1 <1>   0.1500 
 43 H       13.7490     4.1140     1.4890 H     1 <1>   0.0800 
 44 H       13.9750     5.7730     1.0320 H     1 <1>   0.0800 
 45 H       11.2900     6.1840    -1.0900 H     1 <1>   0.0800 
 46 H       12.5090     6.9680    -0.1130 H     1 <1>   0.0800 
 47 H       10.9240     6.6540     0.5580 H     1 <1>   0.0800 
 48 H       14.2500     5.0940    -1.3310 H     1 <1>   0.0800 
 49 H       13.9670     3.4300    -0.8860 H     1 <1>   0.0800 
 50 H       15.7740     2.0800    -0.2060 H     1 <1>   0.1500 
 51 H       18.3830     6.1040     0.3220 H     1 <1>   0.1500 
 52 H       18.1850     1.8520     0.3260 H     1 <1>   0.1500 
 53 H       19.4980     3.9510     0.5910 H     1 <1>   0.1500 
@<TRIPOS>BOND
  1   1   2  1   
  2   2   3  ar  
  3   2   4  ar  
  4   3   5  ar  
  5   3  33  1   
  6   4   6  ar  
  7   4  34  1   
  8   5   7  ar  
  9   5  35  1   
 10   6   7  ar  
 11   6  36  1   
 12   7   8  1   
 13   8   9  1   
 14   8  10  1   
 15   8  37  1   
 16   9  11  1   
 17   9  38  1   
 18  10  12  1   
 19  10  39  1   
 20  10  40  1   
 21  11  13  1   
 22  11  14  2   
 23  12  13  1   
 24  12  15  1   
 25  12  41  1   
 26  13  16  1   
 27  14  17  1   
 28  14  42  1   
 29  15  18  1   
 30  15  19  1   
 31  15  20  1   
 32  16  17  2   
 33  17  21  1   
 34  21  22  2   
 35  21  23  am  
 36  23  24  1   
 37  23  25  1   
 38  24  26  1   
 39  24  43  1   
 40  24  44  1   
 41  25  45  1   
 42  25  46  1   
 43  25  47  1   
 44  26  27  1   
 45  26  48  1   
 46  26  49  1   
 47  27  28  ar  
 48  27  29  ar  
 49  28  30  ar  
 50  29  31  ar  
 51  29  50  1   
 52  30  32  ar  
 53  30  51  1   
 54  31  32  ar  
 55  31  52  1   
 56  32  53  1   
@<TRIPOS>SUBSTRUCTURE
  1 ****  17 GROUP 4 **** **** 0

# MOE 2024.06 (io_trps.svl 2023.06)
