@<TRIPOS>MOLECULE
NONAME
37 38 1 0 0 
SMALL
USER_CHARGES


@<TRIPOS>ATOM
  1 S        0.3620    -0.0680     0.3600 S.o2  1 <1>   1.4470 
  2 O        0.9760    -0.2730     1.6520 O.2   1 <1>  -0.6500 
  3 O        0.3010     1.2520    -0.2230 O.2   1 <1>  -0.6500 
  4 N        1.2630    -0.9460    -0.7500 N.am  1 <1>  -0.9140 
  5 C       -1.2610    -0.8730     0.2980 C.ar  1 <1>  -0.0090 
  6 C        2.6940    -0.7280    -0.6080 C.3   1 <1>   0.1960 
  7 C       -2.3420    -0.2750    -0.3430 C.ar  1 <1>  -0.1500 
  8 C       -1.4590    -2.1230     0.8740 C.ar  1 <1>  -0.1500 
  9 C        3.4290    -1.5750    -1.6390 C.3   1 <1>  -0.0990 
 10 C       -3.5750    -0.9000    -0.4050 C.ar  1 <1>  -0.1500 
 11 C       -2.6890    -2.7550     0.8180 C.ar  1 <1>  -0.1500 
 12 C        4.9200    -1.4130    -1.4470 C.2   1 <1>   0.5690 
 13 C       -3.7500    -2.1420     0.1760 C.ar  1 <1>  -0.1500 
 14 O        5.4670    -0.5280    -2.0600 O.2   1 <1>  -0.5700 
 15 N        5.6080    -2.2320    -0.5960 N.am  1 <1>  -0.6600 
 16 C        7.0670    -2.0980    -0.3890 C.3   1 <1>   0.1400 
 17 C        5.0530    -3.3230     0.2370 C.3   1 <1>   0.1400 
 18 C        7.4590    -3.3200     0.4340 C.3   1 <1>  -0.1600 
 19 C        6.1860    -3.7050     1.1820 C.3   1 <1>  -0.1600 
 20 H        0.9920    -0.5390    -1.6430 H     1 <1>   0.4200 
 21 H        3.0100    -1.0140     0.3820 H     1 <1>   0.0800 
 22 H        2.9290     0.3160    -0.7510 H     1 <1>   0.0800 
 23 H       -2.2180     0.6940    -0.7980 H     1 <1>   0.1500 
 24 H       -0.6360    -2.6060     1.3750 H     1 <1>   0.1500 
 25 H        3.1760    -1.2440    -2.6290 H     1 <1>   0.0800 
 26 H        3.1540    -2.6070    -1.5420 H     1 <1>   0.0800 
 27 H       -4.4000    -0.4190    -0.9040 H     1 <1>   0.1500 
 28 H       -2.8210    -3.7220     1.2720 H     1 <1>   0.1500 
 29 H       -4.7080    -2.6310     0.1300 H     1 <1>   0.1500 
 30 H        7.2600    -1.1910     0.1590 H     1 <1>   0.0800 
 31 H        7.5870    -2.0650    -1.3320 H     1 <1>   0.0800 
 32 H        4.8010    -4.1570    -0.3970 H     1 <1>   0.0800 
 33 H        4.1820    -2.9990     0.7810 H     1 <1>   0.0800 
 34 H        8.2790    -3.1070     1.0980 H     1 <1>   0.0800 
 35 H        7.7460    -4.1120    -0.2340 H     1 <1>   0.0800 
 36 H        6.1600    -4.7490     1.4390 H     1 <1>   0.0800 
 37 H        6.1010    -3.1210     2.0820 H     1 <1>   0.0800 
@<TRIPOS>BOND
  1   1   2  2   
  2   1   3  2   
  3   1   4  am  
  4   1   5  1   
  5   4   6  1   
  6   4  20  1   
  7   5   7  ar  
  8   5   8  ar  
  9   6   9  1   
 10   6  21  1   
 11   6  22  1   
 12   7  10  ar  
 13   7  23  1   
 14   8  11  ar  
 15   8  24  1   
 16   9  12  1   
 17   9  25  1   
 18   9  26  1   
 19  10  13  ar  
 20  10  27  1   
 21  11  13  ar  
 22  11  28  1   
 23  12  14  2   
 24  12  15  am  
 25  13  29  1   
 26  15  16  1   
 27  15  17  1   
 28  16  18  1   
 29  16  30  1   
 30  16  31  1   
 31  17  19  1   
 32  17  32  1   
 33  17  33  1   
 34  18  19  1   
 35  18  34  1   
 36  18  35  1   
 37  19  36  1   
 38  19  37  1   
@<TRIPOS>SUBSTRUCTURE
  1 ****   4 GROUP 4 **** **** 0

# MOE 2024.06 (io_trps.svl 2023.06)
