@<TRIPOS>MOLECULE
NONAME
44 45 1 0 0 
SMALL
USER_CHARGES


@<TRIPOS>ATOM
  1 S        0.2130     0.2140    -0.0850 S.3   1 <1>  -0.0800 
  2 C        1.5900    -0.8200    -0.2790 C.2   1 <1>   0.4420 
  3 C       -0.7770    -1.2010    -0.1940 C.2   1 <1>   0.1980 
  4 N        1.2570    -2.0520    -0.3990 N.2   1 <1>  -0.3380 
  5 N        2.8280    -0.2090    -0.2630 N.am  1 <1>  -0.4940 
  6 N       -0.0940    -2.2620    -0.3500 N.2   1 <1>  -0.3380 
  7 C       -2.2830    -1.0090    -0.0940 C.3   1 <1>   0.0200 
  8 C        4.0590    -0.7610    -0.4980 C.2   1 <1>   0.5690 
  9 C       -3.0630    -2.3260    -0.2000 C.3   1 <1>  -0.2400 
 10 O        4.2030    -1.8950    -0.8830 O.2   1 <1>  -0.5700 
 11 C        5.2970     0.1270    -0.2540 C.3   1 <1>   0.1710 
 12 N        6.5890    -0.5940    -0.0580 N.3   1 <1>  -0.8100 
 13 C        7.7750     0.2900    -0.0300 C.3   1 <1>   0.1100 
 14 C        6.5860    -1.5160     1.1060 C.3   1 <1>   0.1100 
 15 C        9.0940    -0.5190     0.0970 C.3   1 <1>   0.3430 
 16 C        7.8690    -2.3820     1.1560 C.3   1 <1>   0.3430 
 17 N        8.8280    -1.9960     0.0640 N.4   1 <1>  -0.9590 
 18 C       10.0650    -2.8150    -0.0020 C.3   1 <1>   0.3430 
 19 C        9.7340    -4.2510    -0.4120 C.3   1 <1>  -0.1600 
 20 C       11.0130    -5.0740    -0.6080 C.3   1 <1>  -0.2400 
 21 H        2.7980     0.7840    -0.0550 H     1 <1>   0.3700 
 22 H       -2.5990    -0.3480    -0.8800 H     1 <1>   0.0800 
 23 H       -2.5080    -0.5410     0.8480 H     1 <1>   0.0800 
 24 H       -2.8610    -2.8020    -1.1440 H     1 <1>   0.0800 
 25 H       -4.1190    -2.1420    -0.1240 H     1 <1>   0.0800 
 26 H       -2.7700    -2.9960     0.5900 H     1 <1>   0.0800 
 27 H        5.1110     0.7460     0.6050 H     1 <1>   0.0800 
 28 H        5.3940     0.7690    -1.1110 H     1 <1>   0.0800 
 29 H        7.7020     0.9820     0.7920 H     1 <1>   0.0800 
 30 H        7.8100     0.8660    -0.9400 H     1 <1>   0.0800 
 31 H        5.7400    -2.1810     1.0530 H     1 <1>   0.0800 
 32 H        6.4970    -0.9550     2.0210 H     1 <1>   0.0800 
 33 H        9.5840    -0.2550     1.0190 H     1 <1>   0.0800 
 34 H        9.7490    -0.2450    -0.7140 H     1 <1>   0.0800 
 35 H        7.5840    -3.4150     1.0440 H     1 <1>   0.0800 
 36 H        8.3360    -2.2730     2.1200 H     1 <1>   0.0800 
 37 H        8.2690    -2.1270    -0.7960 H     1 <1>   0.4500 
 38 H       10.5650    -2.8110     0.9540 H     1 <1>   0.0800 
 39 H       10.7350    -2.3940    -0.7340 H     1 <1>   0.0800 
 40 H        9.1840    -4.2480    -1.3370 H     1 <1>   0.0800 
 41 H        9.1380    -4.7300     0.3440 H     1 <1>   0.0800 
 42 H       11.6300    -4.6460    -1.3800 H     1 <1>   0.0800 
 43 H       10.7620    -6.0800    -0.8980 H     1 <1>   0.0800 
 44 H       11.5830    -5.1200     0.3050 H     1 <1>   0.0800 
@<TRIPOS>BOND
  1   1   2  1   
  2   1   3  1   
  3   2   4  2   
  4   2   5  1   
  5   3   6  2   
  6   3   7  1   
  7   4   6  1   
  8   5   8  am  
  9   5  21  1   
 10   7   9  1   
 11   7  22  1   
 12   7  23  1   
 13   8  10  2   
 14   8  11  1   
 15   9  24  1   
 16   9  25  1   
 17   9  26  1   
 18  11  12  1   
 19  11  27  1   
 20  11  28  1   
 21  12  13  1   
 22  12  14  1   
 23  13  15  1   
 24  13  29  1   
 25  13  30  1   
 26  14  16  1   
 27  14  31  1   
 28  14  32  1   
 29  15  17  1   
 30  15  33  1   
 31  15  34  1   
 32  16  17  1   
 33  16  35  1   
 34  16  36  1   
 35  17  18  1   
 36  17  37  1   
 37  18  19  1   
 38  18  38  1   
 39  18  39  1   
 40  19  20  1   
 41  19  40  1   
 42  19  41  1   
 43  20  42  1   
 44  20  43  1   
 45  20  44  1   
@<TRIPOS>SUBSTRUCTURE
  1 ****  10 GROUP 4 **** **** 0

# MOE 2024.06 (io_trps.svl 2023.06)
