@<TRIPOS>MOLECULE
NONAME
50 51 1 0 0 
SMALL
USER_CHARGES


@<TRIPOS>ATOM
  1 S       -2.5330    -0.3320     0.3500 S.o2  1 <1>   1.3330 
  2 O       -1.1810     0.1530     0.4650 O.2   1 <1>  -0.6500 
  3 O       -3.6080     0.3670     1.0170 O.2   1 <1>  -0.6500 
  4 N       -2.5630    -1.9850     0.8740 N.am  1 <1>  -0.6930 
  5 C       -2.9490    -0.4850    -1.3750 C.3   1 <1>  -0.1350 
  6 C       -1.5970    -2.8750     0.4110 C.ar  1 <1>   0.1990 
  7 C       -3.7850    -2.5610     1.5220 C.3   1 <1>   0.3370 
  8 C       -1.9340    -3.9040    -0.4640 C.ar  1 <1>  -0.1500 
  9 C       -0.2730    -2.7520     0.8120 C.ar  1 <1>  -0.1500 
 10 C       -5.0810    -2.4260     0.6910 C.2   1 <1>   0.5690 
 11 C       -3.8990    -2.0630     2.9700 C.3   1 <1>  -0.2400 
 12 C       -0.9760    -4.7900    -0.9240 C.ar  1 <1>  -0.1440 
 13 C        0.6960    -3.6270     0.3560 C.ar  1 <1>  -0.1440 
 14 O       -5.4170    -3.3710     0.0160 O.2   1 <1>  -0.5700 
 15 N       -5.7890    -1.2530     0.7180 N.am  1 <1>  -0.5470 
 16 C        0.3380    -4.6470    -0.5110 C.ar  1 <1>  -0.1500 
 17 C       -1.3510    -5.9120    -1.8750 C.3   1 <1>  -0.0970 
 18 C        2.1400    -3.4780     0.7980 C.3   1 <1>  -0.0970 
 19 C       -6.9720    -0.8710     0.0710 C.ar  1 <1>   0.1170 
 20 C       -7.1910     0.4790    -0.1660 C.ar  1 <1>  -0.1500 
 21 C       -7.9430    -1.7820    -0.3340 C.ar  1 <1>  -0.1500 
 22 C       -8.3410     0.9210    -0.7960 C.ar  1 <1>   0.0820 
 23 C       -9.0970    -1.3520    -0.9650 C.ar  1 <1>  -0.1500 
 24 O       -8.4600     2.2600    -0.9830 O.3   1 <1>  -0.3630 
 25 C       -9.3010    -0.0040    -1.1990 C.ar  1 <1>  -0.1500 
 26 C       -9.6090     2.8160    -1.5820 C.3   1 <1>   0.0400 
 27 H       -2.9710     0.4830    -1.8340 H     1 <1>   0.0800 
 28 H       -3.9110    -0.9430    -1.4930 H     1 <1>   0.0800 
 29 H       -2.2170    -1.0860    -1.8780 H     1 <1>   0.0800 
 30 H       -3.6220    -3.6220     1.6050 H     1 <1>   0.0800 
 31 H       -2.9530    -4.0070    -0.7880 H     1 <1>   0.1500 
 32 H       -0.0090    -1.9570     1.4860 H     1 <1>   0.1500 
 33 H       -4.1080    -1.0120     3.0220 H     1 <1>   0.0800 
 34 H       -2.9830    -2.2640     3.4970 H     1 <1>   0.0800 
 35 H       -4.6960    -2.5860     3.4670 H     1 <1>   0.0800 
 36 H       -5.2830    -0.4720     1.1600 H     1 <1>   0.3700 
 37 H        1.0870    -5.3330    -0.8670 H     1 <1>   0.1500 
 38 H       -2.4190    -5.9930    -1.9740 H     1 <1>   0.0800 
 39 H       -0.9720    -6.8490    -1.5070 H     1 <1>   0.0800 
 40 H       -0.9290    -5.7240    -2.8460 H     1 <1>   0.0800 
 41 H        2.3150    -2.4960     1.2000 H     1 <1>   0.0800 
 42 H        2.8010    -3.6250    -0.0370 H     1 <1>   0.0800 
 43 H        2.3670    -4.2070     1.5550 H     1 <1>   0.0800 
 44 H       -6.4590     1.2040     0.1400 H     1 <1>   0.1500 
 45 H       -7.8030    -2.8320    -0.1550 H     1 <1>   0.1500 
 46 H       -9.8370    -2.0710    -1.2730 H     1 <1>   0.1500 
 47 H      -10.2040     0.3030    -1.6910 H     1 <1>   0.1500 
 48 H       -9.4860     3.8840    -1.6120 H     1 <1>   0.0800 
 49 H      -10.4700     2.5640    -0.9870 H     1 <1>   0.0800 
 50 H       -9.7040     2.4320    -2.5820 H     1 <1>   0.0800 
@<TRIPOS>BOND
  1   1   2  2   
  2   1   3  2   
  3   1   4  am  
  4   1   5  1   
  5   4   6  1   
  6   4   7  1   
  7   5  27  1   
  8   5  28  1   
  9   5  29  1   
 10   6   8  ar  
 11   6   9  ar  
 12   7  10  1   
 13   7  11  1   
 14   7  30  1   
 15   8  12  ar  
 16   8  31  1   
 17   9  13  ar  
 18   9  32  1   
 19  10  14  2   
 20  10  15  am  
 21  11  33  1   
 22  11  34  1   
 23  11  35  1   
 24  12  16  ar  
 25  12  17  1   
 26  13  16  ar  
 27  13  18  1   
 28  15  19  1   
 29  15  36  1   
 30  16  37  1   
 31  17  38  1   
 32  17  39  1   
 33  17  40  1   
 34  18  41  1   
 35  18  42  1   
 36  18  43  1   
 37  19  20  ar  
 38  19  21  ar  
 39  20  22  ar  
 40  20  44  1   
 41  21  23  ar  
 42  21  45  1   
 43  22  24  1   
 44  22  25  ar  
 45  23  25  ar  
 46  23  46  1   
 47  24  26  1   
 48  25  47  1   
 49  26  48  1   
 50  26  49  1   
 51  26  50  1   
@<TRIPOS>SUBSTRUCTURE
  1 ****  10 GROUP 4 **** **** 0

# MOE 2024.06 (io_trps.svl 2023.06)
