@<TRIPOS>MOLECULE
NONAME
38 40 1 0 0 
SMALL
USER_CHARGES


@<TRIPOS>ATOM
  1 O       -0.4030    -1.8920     2.3330 O.2   1 <1>  -0.5700 
  2 C       -0.6480    -1.8710     1.1520 C.2   1 <1>   0.6590 
  3 O        0.2980    -2.1200     0.2490 O.3   1 <1>  -0.4300 
  4 C       -2.0520    -1.5600     0.5960 C.3   1 <1>   0.0610 
  5 C        1.6260    -2.4190     0.6270 C.3   1 <1>   0.0400 
  6 C       -2.5760    -2.7580    -0.2350 C.3   1 <1>  -0.1600 
  7 C       -3.0680    -1.2830     1.7340 C.3   1 <1>  -0.1600 
  8 C       -2.0030    -0.3120    -0.3190 C.3   1 <1>  -0.1600 
  9 C       -3.9730    -2.4640    -0.8200 C.3   1 <1>   0.0000 
 10 C       -4.4710    -0.9740     1.1740 C.3   1 <1>   0.0000 
 11 C       -3.3950    -0.0020    -0.8980 C.3   1 <1>  -0.0800 
 12 C       -4.9490    -2.1800     0.3410 C.3   1 <1>  -0.1600 
 13 C       -3.8850    -1.2110    -1.7140 C.3   1 <1>  -0.1600 
 14 C       -4.4640    -3.6640    -1.6390 C.3   1 <1>  -0.2400 
 15 C       -4.3780     0.2620     0.2570 C.3   1 <1>  -0.1600 
 16 C       -5.4500    -0.7050     2.3230 C.3   1 <1>  -0.2400 
 17 H        1.6220    -3.3060     1.2360 H     1 <1>   0.0800 
 18 H        2.0240    -1.5890     1.1840 H     1 <1>   0.0800 
 19 H        2.2050    -2.5820    -0.2640 H     1 <1>   0.0800 
 20 H       -2.6200    -3.6330     0.3900 H     1 <1>   0.0800 
 21 H       -1.8910    -2.9670    -1.0370 H     1 <1>   0.0800 
 22 H       -3.1200    -2.1400     2.3840 H     1 <1>   0.0800 
 23 H       -2.7240    -0.4530     2.3260 H     1 <1>   0.0800 
 24 H       -1.3120    -0.4770    -1.1270 H     1 <1>   0.0800 
 25 H       -1.6490     0.5350     0.2430 H     1 <1>   0.0800 
 26 H       -3.3400     0.8660    -1.5330 H     1 <1>   0.0800 
 27 H       -5.0230    -3.0480     0.9720 H     1 <1>   0.0800 
 28 H       -5.9290    -1.9800    -0.0540 H     1 <1>   0.0800 
 29 H       -3.2080    -1.3910    -2.5320 H     1 <1>   0.0800 
 30 H       -4.8510    -0.9930    -2.1340 H     1 <1>   0.0800 
 31 H       -3.7880    -3.8680    -2.4510 H     1 <1>   0.0800 
 32 H       -5.4380    -3.4660    -2.0500 H     1 <1>   0.0800 
 33 H       -4.5280    -4.5420    -1.0210 H     1 <1>   0.0800 
 34 H       -4.0470     1.1150     0.8230 H     1 <1>   0.0800 
 35 H       -5.3490     0.4940    -0.1440 H     1 <1>   0.0800 
 36 H       -5.5190    -1.5630     2.9680 H     1 <1>   0.0800 
 37 H       -6.4310    -0.4880     1.9390 H     1 <1>   0.0800 
 38 H       -5.1210     0.1350     2.9090 H     1 <1>   0.0800 
@<TRIPOS>BOND
  1   1   2  2   
  2   2   3  1   
  3   2   4  1   
  4   3   5  1   
  5   4   6  1   
  6   4   7  1   
  7   4   8  1   
  8   5  17  1   
  9   5  18  1   
 10   5  19  1   
 11   6   9  1   
 12   6  20  1   
 13   6  21  1   
 14   7  10  1   
 15   7  22  1   
 16   7  23  1   
 17   8  11  1   
 18   8  24  1   
 19   8  25  1   
 20   9  12  1   
 21   9  13  1   
 22   9  14  1   
 23  10  12  1   
 24  10  15  1   
 25  10  16  1   
 26  11  13  1   
 27  11  15  1   
 28  11  26  1   
 29  12  27  1   
 30  12  28  1   
 31  13  29  1   
 32  13  30  1   
 33  14  31  1   
 34  14  32  1   
 35  14  33  1   
 36  15  34  1   
 37  15  35  1   
 38  16  36  1   
 39  16  37  1   
 40  16  38  1   
@<TRIPOS>SUBSTRUCTURE
  1 ****   4 GROUP 4 **** **** 0

# MOE 2024.06 (io_trps.svl 2023.06)
