@<TRIPOS>MOLECULE
NONAME
50 51 1 0 0 
SMALL
USER_CHARGES


@<TRIPOS>ATOM
  1 O        0.5920    -0.5960    -1.1810 O.2   1 <1>  -0.5700 
  2 C        0.5270    -1.7900    -0.9690 C.2   1 <1>   0.7800 
  3 O       -0.6500    -2.3660    -0.7360 O.3   1 <1>  -0.4300 
  4 N        1.6440    -2.5830    -0.9280 N.am  1 <1>  -0.6600 
  5 C       -1.8430    -1.6150    -0.7750 C.3   1 <1>   0.1200 
  6 C        3.0060    -2.0190    -1.1600 C.3   1 <1>   0.1400 
  7 C        1.6180    -4.0110    -0.4950 C.3   1 <1>   0.1400 
  8 C       -3.0050    -2.5540    -0.4680 C.3   1 <1>  -0.2400 
  9 C        3.8880    -2.2250     0.0840 C.3   1 <1>   0.3430 
 10 C        2.5150    -4.2100     0.7430 C.3   1 <1>   0.3430 
 11 N        3.9030    -3.6680     0.5320 N.4   1 <1>  -0.9590 
 12 C        4.7630    -3.8540     1.7320 C.3   1 <1>   0.4860 
 13 C        6.1840    -3.4880     1.3530 C.ar  1 <1>  -0.1440 
 14 C        6.8660    -4.2440     0.4140 C.ar  1 <1>  -0.1500 
 15 C        6.8130    -2.3930     1.9220 C.ar  1 <1>  -0.1500 
 16 C        8.1490    -3.9150     0.0130 C.ar  1 <1>   0.0820 
 17 C        8.0990    -2.0540     1.5410 C.ar  1 <1>  -0.1500 
 18 O        8.6520    -4.7560    -0.9350 O.3   1 <1>  -0.3620 
 19 C        8.7850    -2.7970     0.5830 C.ar  1 <1>   0.0820 
 20 C       10.0090    -4.7770    -1.3100 C.3   1 <1>   0.1200 
 21 O       10.0450    -2.4480     0.1920 O.3   1 <1>  -0.3630 
 22 C       10.2270    -5.9790    -2.2240 C.3   1 <1>  -0.2400 
 23 C       10.7800    -1.4170     0.8180 C.3   1 <1>   0.0400 
 24 H       -1.9440    -1.1840    -1.7580 H     1 <1>   0.0800 
 25 H       -1.7780    -0.8280    -0.0420 H     1 <1>   0.0800 
 26 H        2.9500    -0.9660    -1.3810 H     1 <1>   0.0800 
 27 H        3.4520    -2.5030    -2.0110 H     1 <1>   0.0800 
 28 H        1.9660    -4.6320    -1.3030 H     1 <1>   0.0800 
 29 H        0.6160    -4.3230    -0.2560 H     1 <1>   0.0800 
 30 H       -3.0550    -3.3370    -1.2040 H     1 <1>   0.0800 
 31 H       -3.9290    -2.0040    -0.4940 H     1 <1>   0.0800 
 32 H       -2.8900    -2.9820     0.5110 H     1 <1>   0.0800 
 33 H        3.5080    -1.6010     0.8760 H     1 <1>   0.0800 
 34 H        4.8910    -1.8980    -0.1420 H     1 <1>   0.0800 
 35 H        2.5620    -5.2620     0.9770 H     1 <1>   0.0800 
 36 H        2.0530    -3.7070     1.5770 H     1 <1>   0.0800 
 37 H        4.3500    -4.2000    -0.2260 H     1 <1>   0.4500 
 38 H        4.7360    -4.8820     2.0560 H     1 <1>   0.0800 
 39 H        4.4210    -3.2290     2.5410 H     1 <1>   0.0800 
 40 H        6.4190    -5.1140    -0.0330 H     1 <1>   0.1500 
 41 H        6.3160    -1.7920     2.6660 H     1 <1>   0.1500 
 42 H        8.5500    -1.1970     2.0060 H     1 <1>   0.1500 
 43 H       10.6100    -4.8610    -0.4200 H     1 <1>   0.0800 
 44 H       10.2350    -3.8610    -1.8280 H     1 <1>   0.0800 
 45 H        9.9880    -6.8880    -1.7030 H     1 <1>   0.0800 
 46 H       11.2560    -6.0190    -2.5300 H     1 <1>   0.0800 
 47 H        9.6120    -5.8930    -3.1020 H     1 <1>   0.0800 
 48 H       11.7550    -1.3820     0.3670 H     1 <1>   0.0800 
 49 H       10.8730    -1.6400     1.8670 H     1 <1>   0.0800 
 50 H       10.2740    -0.4810     0.6630 H     1 <1>   0.0800 
@<TRIPOS>BOND
  1   1   2  2   
  2   2   3  1   
  3   2   4  am  
  4   3   5  1   
  5   4   6  1   
  6   4   7  1   
  7   5   8  1   
  8   5  24  1   
  9   5  25  1   
 10   6   9  1   
 11   6  26  1   
 12   6  27  1   
 13   7  10  1   
 14   7  28  1   
 15   7  29  1   
 16   8  30  1   
 17   8  31  1   
 18   8  32  1   
 19   9  11  1   
 20   9  33  1   
 21   9  34  1   
 22  10  11  1   
 23  10  35  1   
 24  10  36  1   
 25  11  12  1   
 26  11  37  1   
 27  12  13  1   
 28  12  38  1   
 29  12  39  1   
 30  13  14  ar  
 31  13  15  ar  
 32  14  16  ar  
 33  14  40  1   
 34  15  17  ar  
 35  15  41  1   
 36  16  18  1   
 37  16  19  ar  
 38  17  19  ar  
 39  17  42  1   
 40  18  20  1   
 41  19  21  1   
 42  20  22  1   
 43  20  43  1   
 44  20  44  1   
 45  21  23  1   
 46  22  45  1   
 47  22  46  1   
 48  22  47  1   
 49  23  48  1   
 50  23  49  1   
 51  23  50  1   
@<TRIPOS>SUBSTRUCTURE
  1 ****   9 GROUP 4 **** **** 0

# MOE 2024.06 (io_trps.svl 2023.06)
