@<TRIPOS>MOLECULE
NONAME
39 40 1 0 0 
SMALL
USER_CHARGES


@<TRIPOS>ATOM
  1 CL      -0.0540    -0.6300    -2.2330 Cl    1 <1>  -0.1770 
  2 C       -0.1830    -2.0420    -1.2200 C.ar  1 <1>   0.1770 
  3 C        0.4460    -3.2110    -1.6010 C.ar  1 <1>  -0.1500 
  4 C       -0.9130    -1.9730    -0.0490 C.ar  1 <1>  -0.1500 
  5 C        0.3400    -4.3340    -0.7970 C.ar  1 <1>  -0.1500 
  6 C       -1.0190    -3.0970     0.7530 C.ar  1 <1>  -0.1500 
  7 C       -0.3990    -4.2840     0.3800 C.ar  1 <1>  -0.1430 
  8 C       -0.5310    -5.5180     1.2530 C.3   1 <1>   0.4870 
  9 N       -1.4690    -6.4690     0.5940 N.4   1 <1>  -0.9590 
 10 C       -2.8490    -5.8830     0.4390 C.3   1 <1>   0.3430 
 11 C       -1.5270    -7.7880     1.3160 C.3   1 <1>   0.3430 
 12 C       -3.8340    -6.8860    -0.1980 C.3   1 <1>   0.1960 
 13 C       -2.5460    -8.7580     0.6810 C.3   1 <1>   0.1960 
 14 N       -3.8900    -8.1580     0.5530 N.am  1 <1>  -0.8490 
 15 S       -4.9770    -9.2690    -0.1360 S.o2  1 <1>   1.3330 
 16 O       -4.9110    -9.0470    -1.5620 O.2   1 <1>  -0.6500 
 17 O       -4.6410   -10.5630     0.4080 O.2   1 <1>  -0.6500 
 18 C       -6.5800    -8.7630     0.5060 C.3   1 <1>  -0.0550 
 19 C       -7.7560    -9.6300     0.0250 C.3   1 <1>  -0.2400 
 20 H        1.0140    -3.2320    -2.5160 H     1 <1>   0.1500 
 21 H       -1.3860    -1.0450     0.2250 H     1 <1>   0.1500 
 22 H        0.8450    -5.2360    -1.1030 H     1 <1>   0.1500 
 23 H       -1.5840    -3.0270     1.6680 H     1 <1>   0.1500 
 24 H       -0.9010    -5.2420     2.2270 H     1 <1>   0.0800 
 25 H        0.4390    -5.9730     1.3730 H     1 <1>   0.0800 
 26 H       -1.1070    -6.6320    -0.3540 H     1 <1>   0.4500 
 27 H       -2.8050    -4.9970    -0.1750 H     1 <1>   0.0800 
 28 H       -3.2340    -5.5960     1.4040 H     1 <1>   0.0800 
 29 H       -1.8150    -7.6280     2.3420 H     1 <1>   0.0800 
 30 H       -0.5550    -8.2530     1.3150 H     1 <1>   0.0800 
 31 H       -3.5310    -7.0650    -1.2170 H     1 <1>   0.0800 
 32 H       -4.8140    -6.4400    -0.2250 H     1 <1>   0.0800 
 33 H       -2.6020    -9.6330     1.3080 H     1 <1>   0.0800 
 34 H       -2.1940    -9.0770    -0.2870 H     1 <1>   0.0800 
 35 H       -6.7720    -7.7480     0.2200 H     1 <1>   0.0800 
 36 H       -6.5490    -8.7990     1.5780 H     1 <1>   0.0800 
 37 H       -7.8300    -9.5960    -1.0480 H     1 <1>   0.0800 
 38 H       -8.6790    -9.2760     0.4480 H     1 <1>   0.0800 
 39 H       -7.6090   -10.6540     0.3260 H     1 <1>   0.0800 
@<TRIPOS>BOND
  1   1   2  1   
  2   2   3  ar  
  3   2   4  ar  
  4   3   5  ar  
  5   3  20  1   
  6   4   6  ar  
  7   4  21  1   
  8   5   7  ar  
  9   5  22  1   
 10   6   7  ar  
 11   6  23  1   
 12   7   8  1   
 13   8   9  1   
 14   8  24  1   
 15   8  25  1   
 16   9  10  1   
 17   9  11  1   
 18   9  26  1   
 19  10  12  1   
 20  10  27  1   
 21  10  28  1   
 22  11  13  1   
 23  11  29  1   
 24  11  30  1   
 25  12  14  1   
 26  12  31  1   
 27  12  32  1   
 28  13  14  1   
 29  13  33  1   
 30  13  34  1   
 31  14  15  am  
 32  15  16  2   
 33  15  17  2   
 34  15  18  1   
 35  18  19  1   
 36  18  35  1   
 37  18  36  1   
 38  19  37  1   
 39  19  38  1   
 40  19  39  1   
@<TRIPOS>SUBSTRUCTURE
  1 ****  10 GROUP 4 **** **** 0

# MOE 2024.06 (io_trps.svl 2023.06)
