@<TRIPOS>MOLECULE
NONAME
40 41 1 0 0 
SMALL
USER_CHARGES


@<TRIPOS>ATOM
  1 O       -0.8780    -1.0880    -0.9240 O.2   1 <1>  -0.5700 
  2 C       -1.5130    -1.8750    -0.2610 C.2   1 <1>   0.5690 
  3 N       -1.0990    -3.1810    -0.1070 N.am  1 <1>  -0.6600 
  4 C       -2.7470    -1.3260     0.4130 C.3   1 <1>   0.1570 
  5 C       -1.7690    -4.1970     0.7570 C.3   1 <1>   0.1400 
  6 C        0.0110    -3.7060    -0.9550 C.3   1 <1>   0.1400 
  7 N       -3.9470    -1.8410    -0.2440 N.pl3 1 <1>   0.5800 
  8 C       -1.3230    -4.0440     2.2110 C.3   1 <1>  -0.2400 
  9 C        1.3230    -3.6990    -0.1770 C.3   1 <1>  -0.2400 
 10 N       -4.2670    -1.6020    -1.5020 N.2   1 <1>  -0.4180 
 11 N       -4.8490    -2.5580     0.3950 N.2   1 <1>  -0.7070 
 12 N       -5.3810    -2.1830    -1.6940 N.2   1 <1>  -0.2270 
 13 C       -5.7240    -2.7600    -0.5360 C.2   1 <1>   0.4620 
 14 C       -6.9480    -3.5280    -0.3710 C.ar  1 <1>   0.0540 
 15 C       -7.2990    -4.0710     0.8670 C.ar  1 <1>  -0.1500 
 16 C       -7.8230    -3.7610    -1.4360 C.ar  1 <1>  -0.1500 
 17 C       -8.4580    -4.8070     1.0330 C.ar  1 <1>  -0.1500 
 18 C       -8.9840    -4.4960    -1.2780 C.ar  1 <1>  -0.1500 
 19 C       -9.3100    -5.0270    -0.0350 C.ar  1 <1>   0.0820 
 20 O      -10.4240    -5.7590     0.2090 O.3   1 <1>  -0.3630 
 21 C      -11.3570    -6.0370    -0.8110 C.3   1 <1>   0.0400 
 22 H       -2.7540    -0.2570     0.3320 H     1 <1>   0.0800 
 23 H       -2.7670    -1.5970     1.4480 H     1 <1>   0.0800 
 24 H       -1.5220    -5.1870     0.4140 H     1 <1>   0.0800 
 25 H       -2.8370    -4.1010     0.6910 H     1 <1>   0.0800 
 26 H        0.1190    -3.0910    -1.8340 H     1 <1>   0.0800 
 27 H       -0.2190    -4.7030    -1.2900 H     1 <1>   0.0800 
 28 H       -1.8270    -4.7750     2.8170 H     1 <1>   0.0800 
 29 H       -0.2650    -4.2060     2.3020 H     1 <1>   0.0800 
 30 H       -1.5610    -3.0700     2.5930 H     1 <1>   0.0800 
 31 H        2.1290    -3.9770    -0.8320 H     1 <1>   0.0800 
 32 H        1.5210    -2.7120     0.2030 H     1 <1>   0.0800 
 33 H        1.2910    -4.4020     0.6330 H     1 <1>   0.0800 
 34 H       -6.6530    -3.9130     1.7130 H     1 <1>   0.1500 
 35 H       -7.5910    -3.3600    -2.4070 H     1 <1>   0.1500 
 36 H       -8.7110    -5.2170     1.9950 H     1 <1>   0.1500 
 37 H       -9.6200    -4.6440    -2.1300 H     1 <1>   0.1500 
 38 H      -12.1500    -6.6260    -0.3860 H     1 <1>   0.0800 
 39 H      -10.8660    -6.5930    -1.5900 H     1 <1>   0.0800 
 40 H      -11.7510    -5.1100    -1.1860 H     1 <1>   0.0800 
@<TRIPOS>BOND
  1   1   2  2   
  2   2   3  am  
  3   2   4  1   
  4   3   5  1   
  5   3   6  1   
  6   4   7  1   
  7   4  22  1   
  8   4  23  1   
  9   5   8  1   
 10   5  24  1   
 11   5  25  1   
 12   6   9  1   
 13   6  26  1   
 14   6  27  1   
 15   7  10  1   
 16   7  11  1   
 17   8  28  1   
 18   8  29  1   
 19   8  30  1   
 20   9  31  1   
 21   9  32  1   
 22   9  33  1   
 23  10  12  2   
 24  11  13  2   
 25  12  13  1   
 26  13  14  1   
 27  14  15  ar  
 28  14  16  ar  
 29  15  17  ar  
 30  15  34  1   
 31  16  18  ar  
 32  16  35  1   
 33  17  19  ar  
 34  17  36  1   
 35  18  19  ar  
 36  18  37  1   
 37  19  20  1   
 38  20  21  1   
 39  21  38  1   
 40  21  39  1   
 41  21  40  1   
@<TRIPOS>SUBSTRUCTURE
  1 ****  11 GROUP 4 **** **** 0

# MOE 2024.06 (io_trps.svl 2023.06)
