@<TRIPOS>MOLECULE
NONAME
50 52 1 0 0 
SMALL
USER_CHARGES


@<TRIPOS>ATOM
  1 O       -6.6760     4.7760     0.7730 O.3   1 <1>  -0.3630 
  2 C       -5.6100     4.3780     0.0700 C.ar  1 <1>   0.0830 
  3 C       -7.0990     6.0150     0.2060 C.3   1 <1>   0.4000 
  4 C       -5.3320     5.2820    -0.9130 C.ar  1 <1>   0.0830 
  5 C       -4.8470     3.2410     0.2430 C.ar  1 <1>  -0.1500 
  6 O       -6.2100     6.2900    -0.8740 O.3   1 <1>  -0.3630 
  7 C       -4.2730     5.1000    -1.7790 C.ar  1 <1>  -0.1500 
  8 C       -3.7740     3.0310    -0.6190 C.ar  1 <1>  -0.1440 
  9 C       -3.4940     3.9610    -1.6200 C.ar  1 <1>  -0.1500 
 10 C       -2.9100     1.7890    -0.4750 C.3   1 <1>   0.2640 
 11 O       -1.6270     2.1860    -0.1070 O.3   1 <1>  -0.5600 
 12 C       -0.7120     1.1370     0.0240 C.3   1 <1>   0.1200 
 13 C        0.6650     1.7210     0.3700 C.3   1 <1>   0.2000 
 14 O        0.9070     2.7760    -0.5010 O.3   1 <1>  -0.6800 
 15 C        1.7920     0.6610     0.2960 C.3   1 <1>   0.1100 
 16 N        3.1610     1.2250     0.2720 N.3   1 <1>  -0.8100 
 17 C        3.5070     2.0580     1.4490 C.3   1 <1>   0.1100 
 18 C        4.2120     0.2260    -0.0110 C.3   1 <1>   0.1100 
 19 C        4.9060     2.7040     1.3040 C.3   1 <1>   0.3430 
 20 C        5.5910     0.9010    -0.2240 C.3   1 <1>   0.3430 
 21 N        5.4970     2.3880    -0.0390 N.4   1 <1>  -0.9590 
 22 C        6.7490     3.1060    -0.3720 C.3   1 <1>   0.3430 
 23 C        6.4600     4.5920    -0.5470 C.3   1 <1>  -0.2400 
 24 H       -7.0220     6.7930     0.9430 H     1 <1>   0.0800 
 25 H       -8.1020     5.9160    -0.1680 H     1 <1>   0.0800 
 26 H       -5.0900     2.5510     1.0300 H     1 <1>   0.1500 
 27 H       -4.0660     5.8240    -2.5460 H     1 <1>   0.1500 
 28 H       -2.6570     3.7980    -2.2780 H     1 <1>   0.1500 
 29 H       -2.8570     1.2660    -1.4150 H     1 <1>   0.0800 
 30 H       -3.3020     1.1360     0.2850 H     1 <1>   0.0800 
 31 H       -0.6630     0.6020    -0.9090 H     1 <1>   0.0800 
 32 H       -1.0470     0.4760     0.8040 H     1 <1>   0.0800 
 33 H        0.6190     2.1280     1.3640 H     1 <1>   0.0800 
 34 H        0.0460     3.2360    -0.6260 H     1 <1>   0.4000 
 35 H        1.6460     0.0900    -0.6050 H     1 <1>   0.0800 
 36 H        1.6930    -0.0160     1.1270 H     1 <1>   0.0800 
 37 H        3.4730     1.4640     2.3470 H     1 <1>   0.0800 
 38 H        2.7860     2.8500     1.5530 H     1 <1>   0.0800 
 39 H        3.9550    -0.3220    -0.9020 H     1 <1>   0.0800 
 40 H        4.2760    -0.4800     0.7990 H     1 <1>   0.0800 
 41 H        5.5520     2.3420     2.0860 H     1 <1>   0.0800 
 42 H        4.8060     3.7700     1.4250 H     1 <1>   0.0800 
 43 H        5.9350     0.6780    -1.2200 H     1 <1>   0.0800 
 44 H        6.3020     0.4860     0.4710 H     1 <1>   0.0800 
 45 H        4.7400     2.6600    -0.6920 H     1 <1>   0.4500 
 46 H        7.1500     2.7190    -1.2960 H     1 <1>   0.0800 
 47 H        7.4820     2.9580     0.4050 H     1 <1>   0.0800 
 48 H        5.7030     4.7470    -1.2960 H     1 <1>   0.0800 
 49 H        7.3560     5.0880    -0.8740 H     1 <1>   0.0800 
 50 H        6.1540     5.0450     0.3780 H     1 <1>   0.0800 
@<TRIPOS>BOND
  1   1   2  1   
  2   1   3  1   
  3   2   4  ar  
  4   2   5  ar  
  5   3   6  1   
  6   3  24  1   
  7   3  25  1   
  8   4   6  1   
  9   4   7  ar  
 10   5   8  ar  
 11   5  26  1   
 12   7   9  ar  
 13   7  27  1   
 14   8   9  ar  
 15   8  10  1   
 16   9  28  1   
 17  10  11  1   
 18  10  29  1   
 19  10  30  1   
 20  11  12  1   
 21  12  13  1   
 22  12  31  1   
 23  12  32  1   
 24  13  14  1   
 25  13  15  1   
 26  13  33  1   
 27  14  34  1   
 28  15  16  1   
 29  15  35  1   
 30  15  36  1   
 31  16  17  1   
 32  16  18  1   
 33  17  19  1   
 34  17  37  1   
 35  17  38  1   
 36  18  20  1   
 37  18  39  1   
 38  18  40  1   
 39  19  21  1   
 40  19  41  1   
 41  19  42  1   
 42  20  21  1   
 43  20  43  1   
 44  20  44  1   
 45  21  22  1   
 46  21  45  1   
 47  22  23  1   
 48  22  46  1   
 49  22  47  1   
 50  23  48  1   
 51  23  49  1   
 52  23  50  1   
@<TRIPOS>SUBSTRUCTURE
  1 ****  14 GROUP 4 **** **** 0

# MOE 2024.06 (io_trps.svl 2023.06)
