@<TRIPOS>MOLECULE
NONAME
35 37 1 0 0 
SMALL
USER_CHARGES


@<TRIPOS>ATOM
  1 BR       0.0950     0.3650     1.5620 Br    1 <1>  -0.1110 
  2 C       -1.6040     1.0250     0.9360 C.ar  1 <1>   0.1110 
  3 C       -1.7900     2.3900     0.8250 C.ar  1 <1>  -0.1500 
  4 C       -2.5950     0.1160     0.6150 C.ar  1 <1>  -0.1500 
  5 C       -3.0140     2.8540     0.3750 C.ar  1 <1>  -0.1500 
  6 C       -3.8130     0.5980     0.1650 C.ar  1 <1>  -0.1500 
  7 C       -4.0340     1.9680     0.0410 C.ar  1 <1>   0.1170 
  8 N       -5.2380     2.5070    -0.4210 N.am  1 <1>  -0.5470 
  9 C       -6.5280     2.0770    -0.3010 C.2   1 <1>   0.5690 
 10 O       -6.8010     1.0030     0.1860 O.2   1 <1>  -0.5700 
 11 C       -7.6720     2.9360    -0.8790 C.3   1 <1>  -0.0190 
 12 C       -7.6740     4.6070    -0.5990 C.3   1 <1>  -0.1860 
 13 C       -9.1350     2.3710    -0.3840 C.3   1 <1>  -0.0800 
 14 C       -6.3650     5.1840    -0.0780 C.2   1 <1>   0.9060 
 15 C       -9.0330     4.9670     0.2510 C.3   1 <1>  -0.0800 
 16 C       -9.0880     3.6720    -0.0850 C.3   1 <1>  -0.1600 
 17 C      -10.5000     2.7450     0.4330 C.3   1 <1>  -0.1600 
 18 O       -6.2420     5.5600     1.0880 O.co2 1 <1>  -0.9000 
 19 O       -5.4100     5.1930    -0.8650 O.co2 1 <1>  -0.9000 
 20 C      -10.4880     4.3920     0.7160 C.3   1 <1>  -0.1600 
 21 H       -1.0030     3.0740     1.0850 H     1 <1>   0.1500 
 22 H       -2.4200    -0.9390     0.7150 H     1 <1>   0.1500 
 23 H       -3.1970     3.9130     0.2830 H     1 <1>   0.1500 
 24 H       -4.5990    -0.0890    -0.0920 H     1 <1>   0.1500 
 25 H       -5.1550     3.5030    -0.7040 H     1 <1>   0.3700 
 26 H       -7.5950     2.7980    -1.9450 H     1 <1>   0.0800 
 27 H       -7.7730     5.0850    -1.5610 H     1 <1>   0.0800 
 28 H       -9.5440     2.0150    -1.3190 H     1 <1>   0.0800 
 29 H       -8.6340     5.2870     1.2050 H     1 <1>   0.0800 
 30 H       -9.5850     3.9270    -1.1180 H     1 <1>   0.0800 
 31 H       -8.5810     3.4070     0.9440 H     1 <1>   0.0800 
 32 H      -10.5220     2.2090     1.3700 H     1 <1>   0.0800 
 33 H      -11.3780     2.4630    -0.1260 H     1 <1>   0.0800 
 34 H      -11.2730     4.8740     0.1540 H     1 <1>   0.0800 
 35 H      -10.6630     4.5950     1.7610 H     1 <1>   0.0800 
@<TRIPOS>BOND
  1   1   2  1   
  2   2   3  ar  
  3   2   4  ar  
  4   3   5  ar  
  5   3  21  1   
  6   4   6  ar  
  7   4  22  1   
  8   5   7  ar  
  9   5  23  1   
 10   6   7  ar  
 11   6  24  1   
 12   7   8  1   
 13   8   9  am  
 14   8  25  1   
 15   9  10  2   
 16   9  11  1   
 17  11  12  1   
 18  11  13  1   
 19  11  26  1   
 20  12  14  1   
 21  12  15  1   
 22  12  27  1   
 23  13  16  1   
 24  13  17  1   
 25  13  28  1   
 26  14  18  ar  
 27  14  19  ar  
 28  15  16  1   
 29  15  20  1   
 30  15  29  1   
 31  16  30  1   
 32  16  31  1   
 33  17  20  1   
 34  17  32  1   
 35  17  33  1   
 36  20  34  1   
 37  20  35  1   
@<TRIPOS>SUBSTRUCTURE
  1 ****   8 GROUP 4 **** **** 0

# MOE 2024.06 (io_trps.svl 2023.06)
