@<TRIPOS>MOLECULE
NONAME
29 30 1 0 0 
SMALL
USER_CHARGES


@<TRIPOS>ATOM
  1 S       -0.2680    -0.4110     0.4730 S.o2  1 <1>   1.5510 
  2 O       -0.9040    -0.4850     1.7730 O.2   1 <1>  -0.6500 
  3 O       -0.3980    -1.5300    -0.4390 O.2   1 <1>  -0.6500 
  4 N       -0.8480     0.9500    -0.3000 N.2   1 <1>  -0.6380 
  5 C        1.4750    -0.0260     0.6960 C.2   1 <1>  -0.0630 
  6 C       -2.0870     0.9190    -0.5930 C.2   1 <1>   0.4860 
  7 C        2.0520     0.2840     1.9200 C.2   1 <1>   0.1390 
  8 C        2.5100     0.0630    -0.1780 C.2   1 <1>  -0.3020 
  9 N       -2.6960     1.9680    -1.2050 N.pl3 1 <1>  -0.4710 
 10 C       -3.1380    -0.0190    -0.3950 C.2   1 <1>  -0.1360 
 11 N        3.3220     0.5390     1.8280 N.2   1 <1>  -0.7070 
 12 N        3.6070     0.4020     0.5230 N.pl3 1 <1>   0.3140 
 13 O       -4.0480     1.7430    -1.3360 O.3   1 <1>  -0.0560 
 14 C       -4.2770     0.5350    -0.8480 C.2   1 <1>  -0.0620 
 15 C        4.9700     0.6090    -0.0080 C.3   1 <1>   0.0960 
 16 C       -5.6930     0.0010    -0.8810 C.3   1 <1>  -0.1020 
 17 C        5.1010     1.9820    -0.6790 C.3   1 <1>  -0.2400 
 18 H        1.5090     0.3130     2.8510 H     1 <1>   0.1500 
 19 H        2.5140    -0.0950    -1.2410 H     1 <1>   0.1500 
 20 H       -2.3710     2.9310    -1.1060 H     1 <1>   0.4000 
 21 H       -3.0130    -0.9890     0.0490 H     1 <1>   0.1500 
 22 H        5.1850    -0.1740    -0.7120 H     1 <1>   0.0800 
 23 H        5.6630     0.5330     0.8110 H     1 <1>   0.0800 
 24 H       -6.3410     0.6470    -0.3170 H     1 <1>   0.0800 
 25 H       -5.7290    -0.9860    -0.4560 H     1 <1>   0.0800 
 26 H       -6.0420    -0.0440    -1.8970 H     1 <1>   0.0800 
 27 H        4.4220     2.0620    -1.5090 H     1 <1>   0.0800 
 28 H        6.1040     2.1160    -1.0410 H     1 <1>   0.0800 
 29 H        4.8880     2.7600     0.0330 H     1 <1>   0.0800 
@<TRIPOS>BOND
  1   1   2  2   
  2   1   3  2   
  3   1   4  1   
  4   1   5  1   
  5   4   6  2   
  6   5   7  1   
  7   5   8  2   
  8   6   9  1   
  9   6  10  1   
 10   7  11  2   
 11   7  18  1   
 12   8  12  1   
 13   8  19  1   
 14   9  13  1   
 15   9  20  1   
 16  10  14  2   
 17  10  21  1   
 18  11  12  1   
 19  12  15  1   
 20  13  14  1   
 21  14  16  1   
 22  15  17  1   
 23  15  22  1   
 24  15  23  1   
 25  16  24  1   
 26  16  25  1   
 27  16  26  1   
 28  17  27  1   
 29  17  28  1   
 30  17  29  1   
@<TRIPOS>SUBSTRUCTURE
  1 ****   4 GROUP 4 **** **** 0

# MOE 2024.06 (io_trps.svl 2023.06)
