@<TRIPOS>MOLECULE
NONAME
41 43 1 0 0 
SMALL
USER_CHARGES


@<TRIPOS>ATOM
  1 O       -0.8710     1.7570    -1.5520 O.2   1 <1>  -0.5700 
  2 C       -0.5540     2.0990    -0.4250 C.2   1 <1>   0.4690 
  3 C        0.6870     2.7800    -0.1580 C.ar  1 <1>   0.0860 
  4 C       -1.4130     1.8630     0.6950 C.2   1 <1>  -0.1240 
  5 C        0.9640     3.1920     1.1520 C.ar  1 <1>   0.0830 
  6 C        1.6380     3.0570    -1.1440 C.ar  1 <1>  -0.1500 
  7 C       -1.0570     2.2960     1.9240 C.2   1 <1>  -0.0730 
  8 C       -2.7150     1.1100     0.4680 C.3   1 <1>   0.2480 
  9 O        0.0860     2.9470     2.1480 O.3   1 <1>  -0.1590 
 10 C        2.1430     3.8590     1.4550 C.ar  1 <1>  -0.1500 
 11 C        2.8110     3.7200    -0.8400 C.ar  1 <1>  -0.1500 
 12 N       -3.8480     2.0420     0.2870 N.3   1 <1>  -0.8100 
 13 C        3.0650     4.1230     0.4620 C.ar  1 <1>  -0.1500 
 14 C       -3.7140     2.8230    -0.9740 C.3   1 <1>   0.1100 
 15 C       -5.1380     1.3130     0.2960 C.3   1 <1>   0.1100 
 16 C       -4.9680     3.6660    -1.3050 C.3   1 <1>   0.3430 
 17 C       -6.3530     2.2670     0.1700 C.3   1 <1>   0.3430 
 18 N       -5.9250     3.6720    -0.1530 N.4   1 <1>  -0.9590 
 19 C       -7.0370     4.6370    -0.3280 C.3   1 <1>   0.3430 
 20 C       -7.7400     4.8600     1.0060 C.3   1 <1>  -0.2400 
 21 H        1.4460     2.7460    -2.1570 H     1 <1>   0.1500 
 22 H       -1.6540     2.1560     2.8090 H     1 <1>   0.1500 
 23 H       -2.9010     0.5000     1.3360 H     1 <1>   0.0800 
 24 H       -2.6290     0.4480    -0.3790 H     1 <1>   0.0800 
 25 H        2.3310     4.1670     2.4690 H     1 <1>   0.1500 
 26 H        3.5330     3.9250    -1.6130 H     1 <1>   0.1500 
 27 H        3.9810     4.6400     0.6950 H     1 <1>   0.1500 
 28 H       -3.5090     2.1640    -1.8010 H     1 <1>   0.0800 
 29 H       -2.8760     3.4930    -0.8870 H     1 <1>   0.0800 
 30 H       -5.2330     0.7550     1.2130 H     1 <1>   0.0800 
 31 H       -5.1610     0.6060    -0.5170 H     1 <1>   0.0800 
 32 H       -5.4490     3.2560    -2.1780 H     1 <1>   0.0800 
 33 H       -4.6600     4.6720    -1.5410 H     1 <1>   0.0800 
 34 H       -6.8920     2.2590     1.1020 H     1 <1>   0.0800 
 35 H       -7.0150     1.8950    -0.5940 H     1 <1>   0.0800 
 36 H       -5.3390     3.9480     0.6510 H     1 <1>   0.4500 
 37 H       -7.7380     4.2690    -1.0610 H     1 <1>   0.0800 
 38 H       -6.6460     5.5790    -0.6770 H     1 <1>   0.0800 
 39 H       -8.2320     3.9670     1.3460 H     1 <1>   0.0800 
 40 H       -8.4910     5.6200     0.8840 H     1 <1>   0.0800 
 41 H       -7.0440     5.1990     1.7530 H     1 <1>   0.0800 
@<TRIPOS>BOND
  1   1   2  2   
  2   2   3  1   
  3   2   4  1   
  4   3   5  ar  
  5   3   6  ar  
  6   4   7  2   
  7   4   8  1   
  8   5   9  1   
  9   5  10  ar  
 10   6  11  ar  
 11   6  21  1   
 12   7   9  1   
 13   7  22  1   
 14   8  12  1   
 15   8  23  1   
 16   8  24  1   
 17  10  13  ar  
 18  10  25  1   
 19  11  13  ar  
 20  11  26  1   
 21  12  14  1   
 22  12  15  1   
 23  13  27  1   
 24  14  16  1   
 25  14  28  1   
 26  14  29  1   
 27  15  17  1   
 28  15  30  1   
 29  15  31  1   
 30  16  18  1   
 31  16  32  1   
 32  16  33  1   
 33  17  18  1   
 34  17  34  1   
 35  17  35  1   
 36  18  19  1   
 37  18  36  1   
 38  19  20  1   
 39  19  37  1   
 40  19  38  1   
 41  20  39  1   
 42  20  40  1   
 43  20  41  1   
@<TRIPOS>SUBSTRUCTURE
  1 ****   4 GROUP 4 **** **** 0

# MOE 2024.06 (io_trps.svl 2023.06)
