@<TRIPOS>MOLECULE
NONAME
41 43 1 0 0 
SMALL
USER_CHARGES


@<TRIPOS>ATOM
  1 O        0.0670     0.5180     0.4330 O.2   1 <1>  -0.5700 
  2 C        0.2930     1.6190    -0.0110 C.2   1 <1>   0.5690 
  3 N       -0.6390     2.3000    -0.7490 N.am  1 <1>  -0.6600 
  4 C        1.6500     2.2430     0.2740 C.3   1 <1>  -0.0990 
  5 C       -1.9620     1.6890    -1.0850 C.3   1 <1>   0.1400 
  6 C       -0.4940     3.6900    -1.2830 C.3   1 <1>   0.1400 
  7 C        2.6370     1.2780     0.9530 C.3   1 <1>   0.0200 
  8 C       -3.1110     2.6540    -0.7470 C.3   1 <1>   0.1200 
  9 C       -1.7280     4.5390    -0.9330 C.3   1 <1>   0.1200 
 10 C        3.9720     1.9510     1.2010 C.2   1 <1>   0.2980 
 11 O       -2.9020     3.9010    -1.3480 O.3   1 <1>  -0.5600 
 12 O        4.0440     2.8870     2.1100 O.3   1 <1>  -0.0190 
 13 N        5.0540     1.6950     0.5940 N.2   1 <1>  -0.5650 
 14 N        5.2830     3.2620     2.0770 N.2   1 <1>  -0.4100 
 15 C        5.8880     2.5590     1.1850 C.2   1 <1>   0.4620 
 16 C        7.2950     2.6620     0.8330 C.ar  1 <1>   0.0540 
 17 C        7.8700     1.8460    -0.1440 C.ar  1 <1>  -0.1500 
 18 C        8.1310     3.5870     1.4610 C.ar  1 <1>  -0.1500 
 19 C        9.2090     1.9420    -0.4830 C.ar  1 <1>  -0.1440 
 20 C        9.4700     3.6920     1.1310 C.ar  1 <1>  -0.1500 
 21 C       10.0100     2.8700     0.1600 C.ar  1 <1>  -0.1500 
 22 C        9.8070     1.0400    -1.5490 C.3   1 <1>  -0.0970 
 23 H        1.5020     3.0990     0.9070 H     1 <1>   0.0800 
 24 H        2.0790     2.5710    -0.6550 H     1 <1>   0.0800 
 25 H       -2.1060     0.7690    -0.5460 H     1 <1>   0.0800 
 26 H       -1.9900     1.4620    -2.1370 H     1 <1>   0.0800 
 27 H       -0.3920     3.6460    -2.3540 H     1 <1>   0.0800 
 28 H        0.3810     4.1710    -0.8860 H     1 <1>   0.0800 
 29 H        2.7890     0.4180     0.3250 H     1 <1>   0.0800 
 30 H        2.2380     0.9380     1.8920 H     1 <1>   0.0800 
 31 H       -3.1880     2.7890     0.3170 H     1 <1>   0.0800 
 32 H       -4.0430     2.2630    -1.1150 H     1 <1>   0.0800 
 33 H       -1.6790     5.4900    -1.4330 H     1 <1>   0.0800 
 34 H       -1.7850     4.7090     0.1280 H     1 <1>   0.0800 
 35 H        7.2520     1.1210    -0.6440 H     1 <1>   0.1500 
 36 H        7.7270     4.2340     2.2190 H     1 <1>   0.1500 
 37 H       10.0930     4.4130     1.6310 H     1 <1>   0.1500 
 38 H       11.0520     2.9540    -0.0930 H     1 <1>   0.1500 
 39 H        9.0350     0.5320    -2.0990 H     1 <1>   0.0800 
 40 H       10.4430     0.3050    -1.0880 H     1 <1>   0.0800 
 41 H       10.3900     1.6220    -2.2390 H     1 <1>   0.0800 
@<TRIPOS>BOND
  1   1   2  2   
  2   2   3  am  
  3   2   4  1   
  4   3   5  1   
  5   3   6  1   
  6   4   7  1   
  7   4  23  1   
  8   4  24  1   
  9   5   8  1   
 10   5  25  1   
 11   5  26  1   
 12   6   9  1   
 13   6  27  1   
 14   6  28  1   
 15   7  10  1   
 16   7  29  1   
 17   7  30  1   
 18   8  11  1   
 19   8  31  1   
 20   8  32  1   
 21   9  11  1   
 22   9  33  1   
 23   9  34  1   
 24  10  12  1   
 25  10  13  2   
 26  12  14  1   
 27  13  15  1   
 28  14  15  2   
 29  15  16  1   
 30  16  17  ar  
 31  16  18  ar  
 32  17  19  ar  
 33  17  35  1   
 34  18  20  ar  
 35  18  36  1   
 36  19  21  ar  
 37  19  22  1   
 38  20  21  ar  
 39  20  37  1   
 40  21  38  1   
 41  22  39  1   
 42  22  40  1   
 43  22  41  1   
@<TRIPOS>SUBSTRUCTURE
  1 ****  10 GROUP 4 **** **** 0

# MOE 2024.06 (io_trps.svl 2023.06)
