@<TRIPOS>MOLECULE
NONAME
43 45 1 0 0 
SMALL
USER_CHARGES


@<TRIPOS>ATOM
  1 F       -0.8070     0.1200     0.5510 F     1 <1>  -0.1900 
  2 C       -1.8990    -0.5830     0.4240 C.ar  1 <1>   0.1900 
  3 C       -2.3050    -0.9620    -0.8400 C.ar  1 <1>  -0.1500 
  4 C       -2.6080    -0.9240     1.5590 C.ar  1 <1>  -0.1500 
  5 C       -3.4670    -1.7050    -0.9700 C.ar  1 <1>  -0.1500 
  6 C       -3.7680    -1.6670     1.4200 C.ar  1 <1>  -0.1500 
  7 C       -4.2050    -2.0540     0.1570 C.ar  1 <1>  -0.1430 
  8 C       -5.4850    -2.8570     0.0110 C.3   1 <1>   0.4870 
  9 N       -6.5570    -1.9590    -0.4990 N.4   1 <1>  -0.9590 
 10 C       -6.8620    -0.8440     0.4790 C.3   1 <1>   0.3430 
 11 C       -7.8070    -2.7300    -0.8510 C.3   1 <1>   0.3430 
 12 C       -8.0050     0.0760    -0.0010 C.3   1 <1>   0.2090 
 13 C       -8.9540    -1.8190    -1.3400 C.3   1 <1>   0.2090 
 14 N       -9.2100    -0.7250    -0.3610 N.pl3 1 <1>  -0.8380 
 15 C      -10.3950    -0.0160    -0.5200 C.ar  1 <1>   0.1000 
 16 C      -11.3950    -0.1330     0.4350 C.ar  1 <1>  -0.1500 
 17 C      -10.6060     0.8130    -1.6140 C.ar  1 <1>  -0.1500 
 18 C      -12.5950     0.5590     0.3190 C.ar  1 <1>  -0.1430 
 19 C      -11.7920     1.5060    -1.7490 C.ar  1 <1>  -0.1500 
 20 C      -12.7820     1.3810    -0.7890 C.ar  1 <1>  -0.1500 
 21 C      -13.7050     0.4300     1.3740 C.3   1 <1>   1.1630 
 22 F      -14.2010     1.6090     1.7320 F     1 <1>  -0.3400 
 23 F      -13.2980    -0.1560     2.4950 F     1 <1>  -0.3400 
 24 F      -14.7310    -0.2850     0.9310 F     1 <1>  -0.3400 
 25 H       -1.7170    -0.6810    -1.6960 H     1 <1>   0.1500 
 26 H       -2.2500    -0.6130     2.5260 H     1 <1>   0.1500 
 27 H       -3.7770    -2.0080    -1.9560 H     1 <1>   0.1500 
 28 H       -4.3170    -1.9380     2.3070 H     1 <1>   0.1500 
 29 H       -5.7690    -3.2740     0.9640 H     1 <1>   0.0800 
 30 H       -5.3190    -3.6670    -0.6800 H     1 <1>   0.0800 
 31 H       -6.1960    -1.5150    -1.3510 H     1 <1>   0.4500 
 32 H       -5.9800    -0.2470     0.6420 H     1 <1>   0.0800 
 33 H       -7.1540    -1.2660     1.4260 H     1 <1>   0.0800 
 34 H       -8.1580    -3.2610     0.0190 H     1 <1>   0.0800 
 35 H       -7.5890    -3.4580    -1.6150 H     1 <1>   0.0800 
 36 H       -7.6810     0.6500    -0.8520 H     1 <1>   0.0800 
 37 H       -8.2610     0.7670     0.7850 H     1 <1>   0.0800 
 38 H       -9.8500    -2.4050    -1.4580 H     1 <1>   0.0800 
 39 H       -8.7060    -1.3990    -2.2990 H     1 <1>   0.0800 
 40 H      -11.2120    -0.7820     1.2740 H     1 <1>   0.1500 
 41 H       -9.8420     0.9160    -2.3620 H     1 <1>   0.1500 
 42 H      -11.9510     2.1470    -2.6000 H     1 <1>   0.1500 
 43 H      -13.7020     1.9290    -0.9090 H     1 <1>   0.1500 
@<TRIPOS>BOND
  1   1   2  1   
  2   2   3  ar  
  3   2   4  ar  
  4   3   5  ar  
  5   3  25  1   
  6   4   6  ar  
  7   4  26  1   
  8   5   7  ar  
  9   5  27  1   
 10   6   7  ar  
 11   6  28  1   
 12   7   8  1   
 13   8   9  1   
 14   8  29  1   
 15   8  30  1   
 16   9  10  1   
 17   9  11  1   
 18   9  31  1   
 19  10  12  1   
 20  10  32  1   
 21  10  33  1   
 22  11  13  1   
 23  11  34  1   
 24  11  35  1   
 25  12  14  1   
 26  12  36  1   
 27  12  37  1   
 28  13  14  1   
 29  13  38  1   
 30  13  39  1   
 31  14  15  1   
 32  15  16  ar  
 33  15  17  ar  
 34  16  18  ar  
 35  16  40  1   
 36  17  19  ar  
 37  17  41  1   
 38  18  20  ar  
 39  18  21  1   
 40  19  20  ar  
 41  19  42  1   
 42  20  43  1   
 43  21  22  1   
 44  21  23  1   
 45  21  24  1   
@<TRIPOS>SUBSTRUCTURE
  1 ****  12 GROUP 4 **** **** 0

# MOE 2024.06 (io_trps.svl 2023.06)
