@<TRIPOS>MOLECULE
NONAME
53 55 1 0 0 
SMALL
USER_CHARGES


@<TRIPOS>ATOM
  1 O       -0.6110     1.6090    -1.6310 O.2   1 <1>  -0.5700 
  2 C       -0.6250     2.4300    -0.7430 C.2   1 <1>   0.5690 
  3 N       -1.7850     3.0520    -0.3600 N.am  1 <1>  -0.6600 
  4 C        0.6870     2.7750    -0.0530 C.3   1 <1>  -0.0990 
  5 C       -1.9050     4.1620     0.6380 C.3   1 <1>   0.1400 
  6 C       -3.1060     2.7040    -0.9730 C.3   1 <1>   0.1400 
  7 C        1.8580     1.8470    -0.4340 C.3   1 <1>  -0.0990 
  8 C       -2.5440     5.4120     0.0050 C.3   1 <1>   0.2090 
  9 C       -3.7790     3.9390    -1.6000 C.3   1 <1>   0.2090 
 10 C        3.1630     2.1980     0.2640 C.2   1 <1>   0.5690 
 11 N       -3.8480     5.0980    -0.6500 N.pl3 1 <1>  -0.8380 
 12 O        3.2420     3.1990     0.9320 O.2   1 <1>  -0.5700 
 13 N        4.2460     1.4020     0.1390 N.am  1 <1>  -0.7300 
 14 C       -4.9870     5.2610     0.1120 C.ar  1 <1>   0.4100 
 15 C        4.3560     0.1260    -0.5790 C.3   1 <1>   0.3640 
 16 N       -5.5430     4.1690     0.6230 N.ar  1 <1>  -0.6200 
 17 C       -5.4870     6.5440     0.3240 C.ar  1 <1>  -0.1500 
 18 C        3.6660    -0.9880     0.2040 C.ar  1 <1>  -0.1440 
 19 C        5.8350    -0.1830    -0.7780 C.3   1 <1>  -0.2400 
 20 C       -6.6240     4.3630     1.3610 C.ar  1 <1>   0.1600 
 21 C       -6.6100     6.7320     1.0950 C.ar  1 <1>  -0.1500 
 22 C        2.8160    -1.8640    -0.4560 C.ar  1 <1>  -0.1500 
 23 C        3.8650    -1.1450     1.5700 C.ar  1 <1>  -0.1500 
 24 C       -7.1900     5.5980     1.6260 C.ar  1 <1>  -0.1500 
 25 C        2.1770    -2.8790     0.2350 C.ar  1 <1>  -0.1500 
 26 C        3.2270    -2.1600     2.2620 C.ar  1 <1>  -0.1500 
 27 C        2.3820    -3.0280     1.5950 C.ar  1 <1>  -0.1500 
 28 H        0.5410     2.7130     1.0100 H     1 <1>   0.0800 
 29 H        0.9440     3.7870    -0.3040 H     1 <1>   0.0800 
 30 H       -0.9470     4.4300     1.0430 H     1 <1>   0.0800 
 31 H       -2.5280     3.8320     1.4520 H     1 <1>   0.0800 
 32 H       -3.7510     2.3060    -0.2100 H     1 <1>   0.0800 
 33 H       -2.9880     1.9470    -1.7270 H     1 <1>   0.0800 
 34 H        2.0180     1.8960    -1.4950 H     1 <1>   0.0800 
 35 H        1.5890     0.8390    -0.1790 H     1 <1>   0.0800 
 36 H       -1.8730     5.8220    -0.7290 H     1 <1>   0.0800 
 37 H       -2.6930     6.1550     0.7680 H     1 <1>   0.0800 
 38 H       -4.7730     3.6760    -1.9180 H     1 <1>   0.0800 
 39 H       -3.2240     4.2340    -2.4730 H     1 <1>   0.0800 
 40 H        5.0680     1.6780     0.6740 H     1 <1>   0.3700 
 41 H        3.8880     0.2290    -1.5440 H     1 <1>   0.0800 
 42 H       -4.9810     7.3740    -0.1290 H     1 <1>   0.1500 
 43 H        6.3320    -0.2860     0.1690 H     1 <1>   0.0800 
 44 H        6.3040     0.5960    -1.3510 H     1 <1>   0.0800 
 45 H        5.9370    -1.1090    -1.3150 H     1 <1>   0.0800 
 46 H       -7.0860     3.4860     1.7790 H     1 <1>   0.1500 
 47 H       -7.0180     7.7110     1.2740 H     1 <1>   0.1500 
 48 H        2.6430    -1.7630    -1.5130 H     1 <1>   0.1500 
 49 H        4.5160    -0.4750     2.1030 H     1 <1>   0.1500 
 50 H       -8.0710     5.6700     2.2370 H     1 <1>   0.1500 
 51 H        1.5180    -3.5520    -0.2860 H     1 <1>   0.1500 
 52 H        3.3870    -2.2720     3.3200 H     1 <1>   0.1500 
 53 H        1.8840    -3.8160     2.1320 H     1 <1>   0.1500 
@<TRIPOS>BOND
  1   1   2  2   
  2   2   3  am  
  3   2   4  1   
  4   3   5  1   
  5   3   6  1   
  6   4   7  1   
  7   4  28  1   
  8   4  29  1   
  9   5   8  1   
 10   5  30  1   
 11   5  31  1   
 12   6   9  1   
 13   6  32  1   
 14   6  33  1   
 15   7  10  1   
 16   7  34  1   
 17   7  35  1   
 18   8  11  1   
 19   8  36  1   
 20   8  37  1   
 21   9  11  1   
 22   9  38  1   
 23   9  39  1   
 24  10  12  2   
 25  10  13  am  
 26  11  14  1   
 27  13  15  1   
 28  13  40  1   
 29  14  16  ar  
 30  14  17  ar  
 31  15  18  1   
 32  15  19  1   
 33  15  41  1   
 34  16  20  ar  
 35  17  21  ar  
 36  17  42  1   
 37  18  22  ar  
 38  18  23  ar  
 39  19  43  1   
 40  19  44  1   
 41  19  45  1   
 42  20  24  ar  
 43  20  46  1   
 44  21  24  ar  
 45  21  47  1   
 46  22  25  ar  
 47  22  48  1   
 48  23  26  ar  
 49  23  49  1   
 50  24  50  1   
 51  25  27  ar  
 52  25  51  1   
 53  26  27  ar  
 54  26  52  1   
 55  27  53  1   
@<TRIPOS>SUBSTRUCTURE
  1 ****   2 GROUP 4 **** **** 0

# MOE 2024.06 (io_trps.svl 2023.06)
