@<TRIPOS>MOLECULE
NONAME
39 41 1 0 0 
SMALL
USER_CHARGES


@<TRIPOS>ATOM
  1 S        0.2080     0.1510     0.1260 S.o2  1 <1>   1.3330 
  2 O        0.2410     0.0860     1.5710 O.2   1 <1>  -0.6500 
  3 O       -0.3530    -0.9480    -0.6310 O.2   1 <1>  -0.6500 
  4 N        1.8120     0.3590    -0.3940 N.am  1 <1>  -0.8490 
  5 C       -0.5770     1.6770    -0.4160 C.3   1 <1>   0.0890 
  6 C        2.6100     1.1460     0.5570 C.3   1 <1>   0.1960 
  7 C        2.4700    -0.9270    -0.6640 C.3   1 <1>   0.1960 
  8 C       -2.0560     1.7830    -0.0640 C.ar  1 <1>  -0.1440 
  9 C        3.9660     1.4850    -0.0550 C.3   1 <1>  -0.1600 
 10 C        3.8320    -0.6940    -1.3170 C.3   1 <1>  -0.1600 
 11 C       -2.4760     2.6000     0.9750 C.ar  1 <1>  -0.1500 
 12 C       -2.9940     1.0560    -0.7800 C.ar  1 <1>  -0.1500 
 13 C        4.6940     0.2050    -0.4350 C.3   1 <1>   0.5600 
 14 C       -3.8210     2.6960     1.2870 C.ar  1 <1>  -0.1500 
 15 C       -4.3380     1.1510    -0.4680 C.ar  1 <1>  -0.1500 
 16 O        5.8810     0.5280    -1.0720 O.3   1 <1>  -0.5600 
 17 O        5.0660    -0.4660     0.7230 O.3   1 <1>  -0.5600 
 18 C       -4.7530     1.9730     0.5650 C.ar  1 <1>  -0.1500 
 19 C        6.8430    -0.4020    -0.7290 C.3   1 <1>   0.1200 
 20 C        6.3090    -1.0420     0.5380 C.3   1 <1>   0.1200 
 21 H       -0.4760     1.7570    -1.4800 H     1 <1>   0.0800 
 22 H       -0.0600     2.5100     0.0160 H     1 <1>   0.0800 
 23 H        2.7500     0.5900     1.4720 H     1 <1>   0.0800 
 24 H        2.0980     2.0620     0.8000 H     1 <1>   0.0800 
 25 H        1.8720    -1.5160    -1.3390 H     1 <1>   0.0800 
 26 H        2.5840    -1.4810     0.2550 H     1 <1>   0.0800 
 27 H        4.5610     2.0400     0.6450 H     1 <1>   0.0800 
 28 H        3.8150     2.0850    -0.9330 H     1 <1>   0.0800 
 29 H        3.6790    -0.2160    -2.2660 H     1 <1>   0.0800 
 30 H        4.3200    -1.6350    -1.4840 H     1 <1>   0.0800 
 31 H       -1.7620     3.1640     1.5500 H     1 <1>   0.1500 
 32 H       -2.6820     0.4050    -1.5810 H     1 <1>   0.1500 
 33 H       -4.1420     3.3310     2.0940 H     1 <1>   0.1500 
 34 H       -5.0610     0.5830    -1.0280 H     1 <1>   0.1500 
 35 H       -5.7990     2.0460     0.8080 H     1 <1>   0.1500 
 36 H        7.7790     0.1020    -0.5680 H     1 <1>   0.0800 
 37 H        6.9370    -1.1190    -1.5250 H     1 <1>   0.0800 
 38 H        6.1950    -2.1060     0.4290 H     1 <1>   0.0800 
 39 H        6.9260    -0.8190     1.3910 H     1 <1>   0.0800 
@<TRIPOS>BOND
  1   1   2  2   
  2   1   3  2   
  3   1   4  am  
  4   1   5  1   
  5   4   6  1   
  6   4   7  1   
  7   5   8  1   
  8   5  21  1   
  9   5  22  1   
 10   6   9  1   
 11   6  23  1   
 12   6  24  1   
 13   7  10  1   
 14   7  25  1   
 15   7  26  1   
 16   8  11  ar  
 17   8  12  ar  
 18   9  13  1   
 19   9  27  1   
 20   9  28  1   
 21  10  13  1   
 22  10  29  1   
 23  10  30  1   
 24  11  14  ar  
 25  11  31  1   
 26  12  15  ar  
 27  12  32  1   
 28  13  16  1   
 29  13  17  1   
 30  14  18  ar  
 31  14  33  1   
 32  15  18  ar  
 33  15  34  1   
 34  16  19  1   
 35  17  20  1   
 36  18  35  1   
 37  19  20  1   
 38  19  36  1   
 39  19  37  1   
 40  20  38  1   
 41  20  39  1   
@<TRIPOS>SUBSTRUCTURE
  1 ****   4 GROUP 4 **** **** 0

# MOE 2024.06 (io_trps.svl 2023.06)
