@<TRIPOS>MOLECULE
NONAME
47 49 1 0 0 
SMALL
USER_CHARGES


@<TRIPOS>ATOM
  1 O       -0.0540     0.8660     1.1730 O.2   1 <1>  -0.5700 
  2 C        0.1200    -0.2810     0.8340 C.2   1 <1>   0.5690 
  3 N       -0.8910    -1.1580     0.5730 N.am  1 <1>  -0.5470 
  4 C        1.5540    -0.7770     0.6900 C.3   1 <1>   0.1810 
  5 C       -2.2930    -1.0930     0.5900 C.ar  1 <1>   0.1170 
  6 O        1.5930    -2.1410     0.2860 O.3   1 <1>  -0.3630 
  7 C       -2.9780    -2.2660     0.2400 C.ar  1 <1>   0.1000 
  8 C       -3.0100     0.0470     0.9260 C.ar  1 <1>  -0.1500 
  9 C        2.7730    -2.7850     0.0980 C.ar  1 <1>   0.0830 
 10 N       -2.2550    -3.4250    -0.1020 N.pl3 1 <1>  -0.8380 
 11 C       -4.3660    -2.2620     0.2390 C.ar  1 <1>  -0.1500 
 12 C       -4.3940     0.0350     0.9200 C.ar  1 <1>  -0.1500 
 13 C        4.0190    -2.1890     0.2770 C.ar  1 <1>  -0.1500 
 14 C        2.7010    -4.1120    -0.2950 C.ar  1 <1>  -0.1500 
 15 C       -2.2640    -4.5630     0.8670 C.3   1 <1>   0.2090 
 16 C       -2.2550    -3.8470    -1.5360 C.3   1 <1>   0.2090 
 17 C       -5.0730    -1.1210     0.5760 C.ar  1 <1>  -0.1500 
 18 C        5.1710    -2.9260     0.0620 C.ar  1 <1>  -0.1500 
 19 C        3.8530    -4.8480    -0.5100 C.ar  1 <1>  -0.1500 
 20 C       -3.2290    -5.6850     0.4420 C.3   1 <1>   0.1200 
 21 C       -3.2220    -5.0170    -1.8010 C.3   1 <1>   0.1200 
 22 C        5.0990    -4.2530    -0.3310 C.ar  1 <1>   0.0830 
 23 O       -3.0180    -6.0600    -0.8900 O.3   1 <1>  -0.5600 
 24 O        6.2800    -4.8980    -0.5190 O.3   1 <1>  -0.3630 
 25 C        6.3150    -6.2500    -0.9190 C.3   1 <1>   0.0400 
 26 H       -0.5900    -2.0990     0.2950 H     1 <1>   0.3700 
 27 H        2.0540    -0.6880     1.6370 H     1 <1>   0.0800 
 28 H        2.0580    -0.1870    -0.0520 H     1 <1>   0.0800 
 29 H       -2.4920     0.9490     1.1950 H     1 <1>   0.1500 
 30 H       -4.8970    -3.1550    -0.0270 H     1 <1>   0.1500 
 31 H       -4.9390     0.9250     1.1830 H     1 <1>   0.1500 
 32 H        4.1170    -1.1650     0.5810 H     1 <1>   0.1500 
 33 H        1.7350    -4.5650    -0.4320 H     1 <1>   0.1500 
 34 H       -2.5410    -4.2030     1.8430 H     1 <1>   0.0800 
 35 H       -1.2690    -4.9660     0.9380 H     1 <1>   0.0800 
 36 H       -1.2590    -4.1480    -1.8100 H     1 <1>   0.0800 
 37 H       -2.5260    -3.0110    -2.1580 H     1 <1>   0.0800 
 38 H       -6.1490    -1.1310     0.5710 H     1 <1>   0.1500 
 39 H        6.1380    -2.4770     0.1970 H     1 <1>   0.1500 
 40 H        3.7600    -5.8730    -0.8140 H     1 <1>   0.1500 
 41 H       -4.2500    -5.3660     0.5520 H     1 <1>   0.0800 
 42 H       -3.0750    -6.5540     1.0560 H     1 <1>   0.0800 
 43 H       -3.0620    -5.4080    -2.7900 H     1 <1>   0.0800 
 44 H       -4.2420    -4.6870    -1.7250 H     1 <1>   0.0800 
 45 H        7.3450    -6.5460    -1.0040 H     1 <1>   0.0800 
 46 H        5.8280    -6.3450    -1.8730 H     1 <1>   0.0800 
 47 H        5.8240    -6.8480    -0.1720 H     1 <1>   0.0800 
@<TRIPOS>BOND
  1   1   2  2   
  2   2   3  am  
  3   2   4  1   
  4   3   5  1   
  5   3  26  1   
  6   4   6  1   
  7   4  27  1   
  8   4  28  1   
  9   5   7  ar  
 10   5   8  ar  
 11   6   9  1   
 12   7  10  1   
 13   7  11  ar  
 14   8  12  ar  
 15   8  29  1   
 16   9  13  ar  
 17   9  14  ar  
 18  10  15  1   
 19  10  16  1   
 20  11  17  ar  
 21  11  30  1   
 22  12  17  ar  
 23  12  31  1   
 24  13  18  ar  
 25  13  32  1   
 26  14  19  ar  
 27  14  33  1   
 28  15  20  1   
 29  15  34  1   
 30  15  35  1   
 31  16  21  1   
 32  16  36  1   
 33  16  37  1   
 34  17  38  1   
 35  18  22  ar  
 36  18  39  1   
 37  19  22  ar  
 38  19  40  1   
 39  20  23  1   
 40  20  41  1   
 41  20  42  1   
 42  21  23  1   
 43  21  43  1   
 44  21  44  1   
 45  22  24  1   
 46  24  25  1   
 47  25  45  1   
 48  25  46  1   
 49  25  47  1   
@<TRIPOS>SUBSTRUCTURE
  1 ****   6 GROUP 4 **** **** 0

# MOE 2024.06 (io_trps.svl 2023.06)
