@<TRIPOS>MOLECULE
NONAME
31 31 1 0 0 
SMALL
USER_CHARGES


@<TRIPOS>ATOM
  1 BR      -1.3960    -0.9440    -0.4150 Br    1 <1>  -0.1110 
  2 C        0.1010    -2.1340    -0.1360 C.ar  1 <1>   0.1110 
  3 C       -0.1100    -3.4240     0.3390 C.ar  1 <1>   0.0820 
  4 C        1.3630    -1.6520    -0.4200 C.ar  1 <1>  -0.1500 
  5 O       -1.3580    -3.8820     0.6040 O.3   1 <1>  -0.3630 
  6 C        0.9900    -4.2460     0.5570 C.ar  1 <1>  -0.1440 
  7 C        2.4550    -2.4810    -0.2190 C.ar  1 <1>  -0.1430 
  8 C       -2.1680    -4.1960    -0.5020 C.3   1 <1>   0.1200 
  9 C        2.2610    -3.7650     0.2700 C.ar  1 <1>  -0.1500 
 10 C        0.8210    -5.6560     1.1060 C.3   1 <1>  -0.0960 
 11 C        3.8600    -1.9870    -0.5200 C.3   1 <1>  -0.0970 
 12 C       -3.5880    -3.7380    -0.1630 C.3   1 <1>   0.3430 
 13 N       -4.5030    -3.8400    -1.3410 N.4   1 <1>  -0.9060 
 14 C       -5.8820    -3.3690    -1.0150 C.3   1 <1>   0.2630 
 15 H        1.4870    -0.6490    -0.7880 H     1 <1>   0.1500 
 16 H       -2.1180    -5.2600    -0.6520 H     1 <1>   0.0800 
 17 H       -1.7930    -3.6820    -1.3700 H     1 <1>   0.0800 
 18 H        3.1170    -4.3970     0.4330 H     1 <1>   0.1500 
 19 H        0.3440    -6.2810     0.3730 H     1 <1>   0.0800 
 20 H        0.2150    -5.6340     1.9940 H     1 <1>   0.0800 
 21 H        1.7720    -6.0880     1.3590 H     1 <1>   0.0800 
 22 H        3.8340    -1.1570    -1.2020 H     1 <1>   0.0800 
 23 H        4.4440    -2.7730    -0.9640 H     1 <1>   0.0800 
 24 H        4.3370    -1.6720     0.3910 H     1 <1>   0.0800 
 25 H       -3.5450    -2.7130     0.1680 H     1 <1>   0.0800 
 26 H       -3.9650    -4.3410     0.6480 H     1 <1>   0.0800 
 27 H       -4.5390    -4.8140    -1.6740 H     1 <1>   0.4500 
 28 H       -4.1240    -3.2740    -2.1140 H     1 <1>   0.4500 
 29 H       -6.3060    -3.9660    -0.2230 H     1 <1>   0.0800 
 30 H       -6.5190    -3.4450    -1.8820 H     1 <1>   0.0800 
 31 H       -5.8600    -2.3390    -0.6960 H     1 <1>   0.0800 
@<TRIPOS>BOND
  1   1   2  1   
  2   2   3  ar  
  3   2   4  ar  
  4   3   5  1   
  5   3   6  ar  
  6   4   7  ar  
  7   4  15  1   
  8   5   8  1   
  9   6   9  ar  
 10   6  10  1   
 11   7   9  ar  
 12   7  11  1   
 13   8  12  1   
 14   8  16  1   
 15   8  17  1   
 16   9  18  1   
 17  10  19  1   
 18  10  20  1   
 19  10  21  1   
 20  11  22  1   
 21  11  23  1   
 22  11  24  1   
 23  12  13  1   
 24  12  25  1   
 25  12  26  1   
 26  13  14  1   
 27  13  27  1   
 28  13  28  1   
 29  14  29  1   
 30  14  30  1   
 31  14  31  1   
@<TRIPOS>SUBSTRUCTURE
  1 ****   3 GROUP 4 **** **** 0

# MOE 2024.06 (io_trps.svl 2023.06)
