@<TRIPOS>MOLECULE
NONAME
39 40 1 0 0 
SMALL
USER_CHARGES


@<TRIPOS>ATOM
  1 O        0.1570     1.2340    -1.5750 O.2   1 <1>  -0.5700 
  2 C        0.0920     1.7600    -0.4790 C.2   1 <1>   0.7150 
  3 N       -1.0750     1.6540     0.2270 N.am  1 <1>  -0.7300 
  4 C        1.2040     2.4930     0.0900 C.2   1 <1>   0.0550 
  5 C       -2.2870     0.9520    -0.2100 C.3   1 <1>   0.2200 
  6 O        2.4040     2.4860    -0.4840 O.3   1 <1>  -0.2800 
  7 C        1.2780     3.2680     1.2110 C.2   1 <1>  -0.1500 
  8 C       -3.4370     1.9530    -0.2230 C.3   1 <1>  -0.2400 
  9 C       -2.5540    -0.1880     0.7650 C.3   1 <1>  -0.2400 
 10 C        3.2300     3.2200     0.2270 C.2   1 <1>  -0.0400 
 11 C        2.5880     3.7380     1.2960 C.2   1 <1>  -0.1500 
 12 C        4.6700     3.3730    -0.2290 C.3   1 <1>   0.3000 
 13 O        5.3950     2.2180     0.1300 O.3   1 <1>  -0.3630 
 14 C        6.7190     2.0900    -0.1500 C.ar  1 <1>   0.0820 
 15 C        7.3450     0.9080     0.2380 C.ar  1 <1>  -0.1440 
 16 C        7.4580     3.0800    -0.7960 C.ar  1 <1>  -0.1500 
 17 C        8.6950     0.7300    -0.0180 C.ar  1 <1>  -0.1500 
 18 C        6.5560    -0.1890     0.9390 C.3   1 <1>  -0.0970 
 19 C        8.8050     2.8910    -1.0470 C.ar  1 <1>  -0.1500 
 20 C        9.4240     1.7170    -0.6580 C.ar  1 <1>  -0.1500 
 21 H       -1.1180     2.0520     1.1610 H     1 <1>   0.3700 
 22 H       -2.1470     0.5520    -1.2030 H     1 <1>   0.0800 
 23 H        0.4980     3.4970     1.9140 H     1 <1>   0.1500 
 24 H       -3.6030     2.3610     0.7570 H     1 <1>   0.0800 
 25 H       -4.3390     1.4660    -0.5480 H     1 <1>   0.0800 
 26 H       -3.2200     2.7500    -0.9110 H     1 <1>   0.0800 
 27 H       -2.7040     0.1840     1.7620 H     1 <1>   0.0800 
 28 H       -1.7260    -0.8740     0.7590 H     1 <1>   0.0800 
 29 H       -3.4350    -0.7250     0.4640 H     1 <1>   0.0800 
 30 H        2.9790     4.3770     2.0680 H     1 <1>   0.1500 
 31 H        5.1240     4.2160     0.2590 H     1 <1>   0.0800 
 32 H        4.7110     3.4890    -1.2970 H     1 <1>   0.0800 
 33 H        7.0090     4.0010    -1.1120 H     1 <1>   0.1500 
 34 H        9.1870    -0.1800     0.2780 H     1 <1>   0.1500 
 35 H        5.7390    -0.5040     0.3140 H     1 <1>   0.0800 
 36 H        6.1560     0.1850     1.8640 H     1 <1>   0.0800 
 37 H        7.1740    -1.0420     1.1500 H     1 <1>   0.0800 
 38 H        9.3740     3.6560    -1.5450 H     1 <1>   0.1500 
 39 H       10.4720     1.5690    -0.8530 H     1 <1>   0.1500 
@<TRIPOS>BOND
  1   1   2  2   
  2   2   3  am  
  3   2   4  1   
  4   3   5  1   
  5   3  21  1   
  6   4   6  1   
  7   4   7  2   
  8   5   8  1   
  9   5   9  1   
 10   5  22  1   
 11   6  10  1   
 12   7  11  1   
 13   7  23  1   
 14   8  24  1   
 15   8  25  1   
 16   8  26  1   
 17   9  27  1   
 18   9  28  1   
 19   9  29  1   
 20  10  11  2   
 21  10  12  1   
 22  11  30  1   
 23  12  13  1   
 24  12  31  1   
 25  12  32  1   
 26  13  14  1   
 27  14  15  ar  
 28  14  16  ar  
 29  15  17  ar  
 30  15  18  1   
 31  16  19  ar  
 32  16  33  1   
 33  17  20  ar  
 34  17  34  1   
 35  18  35  1   
 36  18  36  1   
 37  18  37  1   
 38  19  20  ar  
 39  19  38  1   
 40  20  39  1   
@<TRIPOS>SUBSTRUCTURE
  1 ****   6 GROUP 4 **** **** 0

# MOE 2024.06 (io_trps.svl 2023.06)
