@<TRIPOS>MOLECULE
NONAME
57 59 1 0 0 
SMALL
USER_CHARGES


@<TRIPOS>ATOM
  1 O       -1.9270    -0.1280    -0.7850 O.3   1 <1>  -0.3630 
  2 C       -2.3570     0.8890     0.0150 C.ar  1 <1>   0.0830 
  3 C       -0.6480    -0.1680    -1.3730 C.3   1 <1>   0.1200 
  4 C       -1.7250     2.1270     0.2340 C.ar  1 <1>   0.0830 
  5 C       -3.5550     0.6170     0.6520 C.ar  1 <1>  -0.1500 
  6 C       -0.4810    -1.5260    -2.0460 C.3   1 <1>  -0.2400 
  7 O       -0.5480     2.4210    -0.3910 O.3   1 <1>  -0.3620 
  8 C       -2.3290     3.0450     1.0900 C.ar  1 <1>  -0.1500 
  9 C       -4.1580     1.5420     1.4890 C.ar  1 <1>  -0.1440 
 10 C        0.2130     3.5690    -0.0830 C.3   1 <1>   0.0400 
 11 C       -3.5320     2.7580     1.7110 C.ar  1 <1>  -0.1500 
 12 C       -5.4920     1.2250     2.1360 C.3   1 <1>   0.4860 
 13 N       -6.5150     1.1100     1.0630 N.4   1 <1>  -0.9590 
 14 C       -6.6580     2.3950     0.2800 C.3   1 <1>   0.3430 
 15 C       -7.8470     0.6470     1.5950 C.3   1 <1>   0.3430 
 16 C       -7.7070     2.2970    -0.8480 C.3   1 <1>   0.2090 
 17 C       -8.9010     0.4830     0.4820 C.3   1 <1>   0.2090 
 18 N       -8.9910     1.7050    -0.3650 N.pl3 1 <1>  -0.8380 
 19 C      -10.0890     2.5430    -0.1590 C.ar  1 <1>   0.1000 
 20 C      -11.2900     2.3550    -0.8520 C.ar  1 <1>  -0.1430 
 21 C       -9.9960     3.5720     0.7720 C.ar  1 <1>  -0.1500 
 22 C      -12.3780     3.1820    -0.5840 C.ar  1 <1>  -0.1430 
 23 C      -11.4060     1.2430    -1.8970 C.3   1 <1>  -0.0970 
 24 C      -11.0700     4.3980     1.0250 C.ar  1 <1>  -0.1500 
 25 C      -12.2590     4.2000     0.3490 C.ar  1 <1>  -0.1500 
 26 C      -13.7200     3.0120    -1.2860 C.3   1 <1>  -0.0970 
 27 H        0.0890    -0.0320    -0.6000 H     1 <1>   0.0800 
 28 H       -0.5810     0.6250    -2.0970 H     1 <1>   0.0800 
 29 H       -4.0010    -0.3450     0.4730 H     1 <1>   0.1500 
 30 H       -0.5610    -2.3130    -1.3170 H     1 <1>   0.0800 
 31 H        0.4870    -1.5840    -2.5080 H     1 <1>   0.0800 
 32 H       -1.2310    -1.6580    -2.8050 H     1 <1>   0.0800 
 33 H       -1.8780     3.9990     1.2880 H     1 <1>   0.1500 
 34 H        1.1240     3.5280    -0.6530 H     1 <1>   0.0800 
 35 H        0.4420     3.5680     0.9680 H     1 <1>   0.0800 
 36 H       -0.3470     4.4460    -0.3580 H     1 <1>   0.0800 
 37 H       -3.9670     3.4950     2.3650 H     1 <1>   0.1500 
 38 H       -5.7620     2.0060     2.8280 H     1 <1>   0.0800 
 39 H       -5.4120     0.2970     2.6780 H     1 <1>   0.0800 
 40 H       -6.1730     0.4070     0.3970 H     1 <1>   0.4500 
 41 H       -5.7110     2.6700    -0.1540 H     1 <1>   0.0800 
 42 H       -6.9550     3.1890     0.9450 H     1 <1>   0.0800 
 43 H       -8.2230     1.3660     2.3040 H     1 <1>   0.0800 
 44 H       -7.7330    -0.2940     2.1070 H     1 <1>   0.0800 
 45 H       -7.3220     1.6890    -1.6480 H     1 <1>   0.0800 
 46 H       -7.8940     3.2780    -1.2510 H     1 <1>   0.0800 
 47 H       -9.8620     0.2850     0.9260 H     1 <1>   0.0800 
 48 H       -8.6520    -0.3590    -0.1400 H     1 <1>   0.0800 
 49 H       -9.0830     3.7290     1.3080 H     1 <1>   0.1500 
 50 H      -10.4470     0.9910    -2.3100 H     1 <1>   0.0800 
 51 H      -12.0270     1.5480    -2.7190 H     1 <1>   0.0800 
 52 H      -11.8290     0.3650    -1.4460 H     1 <1>   0.0800 
 53 H      -10.9910     5.1930     1.7450 H     1 <1>   0.1500 
 54 H      -13.0930     4.8480     0.5560 H     1 <1>   0.1500 
 55 H      -14.0350     1.9850    -1.2440 H     1 <1>   0.0800 
 56 H      -13.6350     3.3140    -2.3150 H     1 <1>   0.0800 
 57 H      -14.4790     3.6120    -0.8190 H     1 <1>   0.0800 
@<TRIPOS>BOND
  1   1   2  1   
  2   1   3  1   
  3   2   4  ar  
  4   2   5  ar  
  5   3   6  1   
  6   3  27  1   
  7   3  28  1   
  8   4   7  1   
  9   4   8  ar  
 10   5   9  ar  
 11   5  29  1   
 12   6  30  1   
 13   6  31  1   
 14   6  32  1   
 15   7  10  1   
 16   8  11  ar  
 17   8  33  1   
 18   9  11  ar  
 19   9  12  1   
 20  10  34  1   
 21  10  35  1   
 22  10  36  1   
 23  11  37  1   
 24  12  13  1   
 25  12  38  1   
 26  12  39  1   
 27  13  14  1   
 28  13  15  1   
 29  13  40  1   
 30  14  16  1   
 31  14  41  1   
 32  14  42  1   
 33  15  17  1   
 34  15  43  1   
 35  15  44  1   
 36  16  18  1   
 37  16  45  1   
 38  16  46  1   
 39  17  18  1   
 40  17  47  1   
 41  17  48  1   
 42  18  19  1   
 43  19  20  ar  
 44  19  21  ar  
 45  20  22  ar  
 46  20  23  1   
 47  21  24  ar  
 48  21  49  1   
 49  22  25  ar  
 50  22  26  1   
 51  23  50  1   
 52  23  51  1   
 53  23  52  1   
 54  24  25  ar  
 55  24  53  1   
 56  25  54  1   
 57  26  55  1   
 58  26  56  1   
 59  26  57  1   
@<TRIPOS>SUBSTRUCTURE
  1 ****  14 GROUP 4 **** **** 0

# MOE 2024.06 (io_trps.svl 2023.06)
