@<TRIPOS>MOLECULE
NONAME
29 28 1 0 0 
SMALL
USER_CHARGES


@<TRIPOS>ATOM
  1 O       -0.0780    -0.3980    -1.6920 O.2   1 <1>  -0.5700 
  2 C       -0.1430    -1.5560    -1.3480 C.2   1 <1>   0.7800 
  3 O       -1.1250    -1.9950    -0.5650 O.3   1 <1>  -0.4300 
  4 N        0.7910    -2.4430    -1.7440 N.am  1 <1>  -0.7300 
  5 C       -2.1990    -1.1980    -0.1030 C.3   1 <1>   0.4800 
  6 C        0.8600    -3.8840    -1.4300 C.3   1 <1>   0.1400 
  7 C       -2.9890    -0.6120    -1.2500 C.1   1 <1>   0.3570 
  8 C       -1.6730    -0.1260     0.8670 C.3   1 <1>  -0.2400 
  9 C       -3.0950    -2.1670     0.6780 C.3   1 <1>  -0.2400 
 10 C        2.0920    -4.1480    -0.5660 C.3   1 <1>  -0.1600 
 11 N       -3.6390    -0.1870    -2.0860 N.1   1 <1>  -0.5570 
 12 C        2.2050    -5.6330    -0.2000 C.3   1 <1>  -0.1600 
 13 C        3.4380    -5.8930     0.6700 C.3   1 <1>  -0.2400 
 14 H        1.5310    -2.0630    -2.3340 H     1 <1>   0.3700 
 15 H        0.9220    -4.4440    -2.3480 H     1 <1>   0.0800 
 16 H       -0.0290    -4.1940    -0.9050 H     1 <1>   0.0800 
 17 H       -1.0630    -0.5760     1.6290 H     1 <1>   0.0800 
 18 H       -2.4980     0.3750     1.3410 H     1 <1>   0.0800 
 19 H       -1.1000     0.6200     0.3480 H     1 <1>   0.0800 
 20 H       -2.5490    -2.6090     1.4920 H     1 <1>   0.0800 
 21 H       -3.4530    -2.9460     0.0290 H     1 <1>   0.0800 
 22 H       -3.9460    -1.6460     1.0800 H     1 <1>   0.0800 
 23 H        2.0200    -3.5650     0.3360 H     1 <1>   0.0800 
 24 H        2.9750    -3.8460    -1.1020 H     1 <1>   0.0800 
 25 H        2.2750    -6.2250    -1.0980 H     1 <1>   0.0800 
 26 H        1.3240    -5.9440     0.3360 H     1 <1>   0.0800 
 27 H        4.3350    -5.6130     0.1460 H     1 <1>   0.0800 
 28 H        3.5000    -6.9380     0.9170 H     1 <1>   0.0800 
 29 H        3.3800    -5.3290     1.5840 H     1 <1>   0.0800 
@<TRIPOS>BOND
  1   1   2  2   
  2   2   3  1   
  3   2   4  am  
  4   3   5  1   
  5   4   6  1   
  6   4  14  1   
  7   5   7  1   
  8   5   8  1   
  9   5   9  1   
 10   6  10  1   
 11   6  15  1   
 12   6  16  1   
 13   7  11  3   
 14   8  17  1   
 15   8  18  1   
 16   8  19  1   
 17   9  20  1   
 18   9  21  1   
 19   9  22  1   
 20  10  12  1   
 21  10  23  1   
 22  10  24  1   
 23  12  13  1   
 24  12  25  1   
 25  12  26  1   
 26  13  27  1   
 27  13  28  1   
 28  13  29  1   
@<TRIPOS>SUBSTRUCTURE
  1 ****   3 GROUP 4 **** **** 0

# MOE 2024.06 (io_trps.svl 2023.06)
