@<TRIPOS>MOLECULE
NONAME
31 32 1 0 0 
SMALL
USER_CHARGES


@<TRIPOS>ATOM
  1 O       -0.0840    -0.0770     0.4310 O.2   1 <1>  -0.5700 
  2 C        0.1660    -1.2480     0.5700 C.2   1 <1>   0.5690 
  3 N        1.3040    -1.8520     0.1340 N.am  1 <1>  -0.5470 
  4 C       -0.8420    -2.1180     1.2770 C.3   1 <1>  -0.1790 
  5 C        2.4470    -1.4040    -0.5470 C.ar  1 <1>   0.1170 
  6 C        3.4340    -2.3660    -0.8070 C.ar  1 <1>   0.1000 
  7 C        2.6380    -0.0940    -0.9650 C.ar  1 <1>  -0.1500 
  8 N        3.2480    -3.6980    -0.3840 N.pl3 1 <1>  -0.8380 
  9 C        4.5870    -1.9830    -1.4810 C.ar  1 <1>  -0.1500 
 10 C        3.7930     0.2710    -1.6350 C.ar  1 <1>  -0.1500 
 11 C        3.2050    -4.7180    -1.4650 C.3   1 <1>   0.2090 
 12 C        4.1660    -4.1620     0.6910 C.3   1 <1>   0.2090 
 13 C        4.7690    -0.6740    -1.8940 C.ar  1 <1>  -0.1500 
 14 C        4.3350    -5.6910    -1.1590 C.3   1 <1>  -0.1600 
 15 C        4.5040    -5.6070     0.3510 C.3   1 <1>  -0.1600 
 16 H        1.4040    -2.8540     0.3150 H     1 <1>   0.3700 
 17 H       -1.1700    -2.9000     0.6190 H     1 <1>   0.0800 
 18 H       -1.6910    -1.5270     1.5670 H     1 <1>   0.0800 
 19 H       -0.3980    -2.5460     2.1560 H     1 <1>   0.0800 
 20 H        1.8870     0.6490    -0.7700 H     1 <1>   0.1500 
 21 H        5.3460    -2.7140    -1.6820 H     1 <1>   0.1500 
 22 H        3.9280     1.2910    -1.9530 H     1 <1>   0.1500 
 23 H        3.3200    -4.2710    -2.4390 H     1 <1>   0.0800 
 24 H        2.2560    -5.2250    -1.4220 H     1 <1>   0.0800 
 25 H        3.6860    -4.0880     1.6520 H     1 <1>   0.0800 
 26 H        5.0600    -3.5610     0.6980 H     1 <1>   0.0800 
 27 H        5.6670    -0.3920    -2.4150 H     1 <1>   0.1500 
 28 H        5.2300    -5.3520    -1.6490 H     1 <1>   0.0800 
 29 H        4.1060    -6.6870    -1.4940 H     1 <1>   0.0800 
 30 H        3.7930    -6.2540     0.8360 H     1 <1>   0.0800 
 31 H        5.4960    -5.8720     0.6710 H     1 <1>   0.0800 
@<TRIPOS>BOND
  1   1   2  2   
  2   2   3  am  
  3   2   4  1   
  4   3   5  1   
  5   3  16  1   
  6   4  17  1   
  7   4  18  1   
  8   4  19  1   
  9   5   6  ar  
 10   5   7  ar  
 11   6   8  1   
 12   6   9  ar  
 13   7  10  ar  
 14   7  20  1   
 15   8  11  1   
 16   8  12  1   
 17   9  13  ar  
 18   9  21  1   
 19  10  13  ar  
 20  10  22  1   
 21  11  14  1   
 22  11  23  1   
 23  11  24  1   
 24  12  15  1   
 25  12  25  1   
 26  12  26  1   
 27  13  27  1   
 28  14  15  1   
 29  14  28  1   
 30  14  29  1   
 31  15  30  1   
 32  15  31  1   
@<TRIPOS>SUBSTRUCTURE
  1 ****   6 GROUP 4 **** **** 0

# MOE 2024.06 (io_trps.svl 2023.06)
