@<TRIPOS>MOLECULE
NONAME
27 28 1 0 0 
SMALL
USER_CHARGES


@<TRIPOS>ATOM
  1 S        0.1240     0.6380    -0.1320 S.o2  1 <1>   1.5010 
  2 O        0.0870     1.4270    -1.3420 O.2   1 <1>  -0.6500 
  3 O        0.9050     1.0710     1.0050 O.2   1 <1>  -0.6500 
  4 N        0.7080    -0.8500    -0.6420 N.am  1 <1>  -0.7890 
  5 C       -1.5460     0.2440     0.3970 C.2   1 <1>  -0.0630 
  6 C        2.1460    -0.9360    -0.6500 C.3   1 <1>   0.1310 
  7 C       -1.8950    -0.0420     1.7100 C.2   1 <1>   0.1390 
  8 C       -2.7130     0.1140    -0.2820 C.2   1 <1>  -0.3020 
  9 C        2.7550    -2.2890    -0.7790 C.3   1 <1>  -0.2000 
 10 C        2.8200    -1.5520     0.5270 C.3   1 <1>  -0.2000 
 11 N       -3.1560    -0.3190     1.8450 N.2   1 <1>  -0.7070 
 12 N       -3.6660    -0.2220     0.6070 N.pl3 1 <1>   0.3140 
 13 C       -5.0970    -0.4600     0.3280 C.3   1 <1>   0.0960 
 14 C       -5.3200    -1.8520    -0.2780 C.3   1 <1>  -0.2400 
 15 H        0.4060    -0.8980    -1.6110 H     1 <1>   0.4200 
 16 H        2.6280    -0.1040    -1.1440 H     1 <1>   0.1000 
 17 H       -1.1970    -0.0360     2.5320 H     1 <1>   0.1500 
 18 H       -2.9070     0.2430    -1.3320 H     1 <1>   0.1500 
 19 H        3.6660    -2.4030    -1.3390 H     1 <1>   0.1000 
 20 H        2.1110    -3.1480    -0.8500 H     1 <1>   0.1000 
 21 H        2.2070    -1.8760     1.3490 H     1 <1>   0.1000 
 22 H        3.7640    -1.1480     0.8460 H     1 <1>   0.1000 
 23 H       -5.4460     0.3010    -0.3440 H     1 <1>   0.0800 
 24 H       -5.6370    -0.3730     1.2540 H     1 <1>   0.0800 
 25 H       -4.7970    -1.9450    -1.2130 H     1 <1>   0.0800 
 26 H       -6.3690    -2.0090    -0.4530 H     1 <1>   0.0800 
 27 H       -4.9700    -2.6090     0.4030 H     1 <1>   0.0800 
@<TRIPOS>BOND
  1   1   2  2   
  2   1   3  2   
  3   1   4  am  
  4   1   5  1   
  5   4   6  1   
  6   4  15  1   
  7   5   7  1   
  8   5   8  2   
  9   6   9  1   
 10   6  10  1   
 11   6  16  1   
 12   7  11  2   
 13   7  17  1   
 14   8  12  1   
 15   8  18  1   
 16   9  10  1   
 17   9  19  1   
 18   9  20  1   
 19  10  21  1   
 20  10  22  1   
 21  11  12  1   
 22  12  13  1   
 23  13  14  1   
 24  13  23  1   
 25  13  24  1   
 26  14  25  1   
 27  14  26  1   
 28  14  27  1   
@<TRIPOS>SUBSTRUCTURE
  1 ****   5 GROUP 4 **** **** 0

# MOE 2024.06 (io_trps.svl 2023.06)
