@<TRIPOS>MOLECULE
NONAME
53 55 1 0 0 
SMALL
USER_CHARGES


@<TRIPOS>ATOM
  1 S       -0.1260     0.1020     1.5560 S.o2  1 <1>   1.4470 
  2 O        0.5470    -0.9650     0.8500 O.2   1 <1>  -0.6500 
  3 O       -0.7060    -0.1740     2.8500 O.2   1 <1>  -0.6500 
  4 N       -1.4300     0.5170     0.5470 N.am  1 <1>  -0.8490 
  5 C        0.8940     1.6150     1.5660 C.ar  1 <1>  -0.0090 
  6 C       -1.0240     0.6570    -0.8720 C.3   1 <1>   0.1960 
  7 C       -2.5100    -0.4890     0.6670 C.3   1 <1>   0.1960 
  8 C        0.6330     2.7300     2.3670 C.ar  1 <1>  -0.1440 
  9 C        1.9710     1.6900     0.6910 C.ar  1 <1>  -0.1500 
 10 C       -2.2040     1.0620    -1.7920 C.3   1 <1>   0.3430 
 11 C       -3.6960    -0.2310    -0.2980 C.3   1 <1>   0.3430 
 12 C        1.4390     3.8550     2.2750 C.ar  1 <1>  -0.1500 
 13 C       -0.5250     2.7630     3.3580 C.3   1 <1>  -0.0970 
 14 C        2.7840     2.8120     0.5680 C.ar  1 <1>   0.0860 
 15 N       -3.5240     1.0510    -1.0670 N.4   1 <1>  -0.9590 
 16 C        2.4950     3.8980     1.3880 C.ar  1 <1>  -0.1500 
 17 C        3.8610     2.8310    -0.4010 C.2   1 <1>   0.5440 
 18 C       -4.6810     1.3570    -1.9600 C.3   1 <1>   0.2630 
 19 O        3.6990     2.3090    -1.4850 O.2   1 <1>  -0.5700 
 20 N        5.0560     3.4350    -0.0920 N.am  1 <1>  -0.5470 
 21 C        6.1910     3.5820    -0.8990 C.ar  1 <1>   0.1170 
 22 C        6.9830     2.4990    -1.2900 C.ar  1 <1>  -0.1440 
 23 C        6.5530     4.8620    -1.3000 C.ar  1 <1>  -0.1500 
 24 C        8.1060     2.7190    -2.0730 C.ar  1 <1>  -0.1500 
 25 C        6.6460     1.0710    -0.8780 C.3   1 <1>  -0.0970 
 26 C        7.6750     5.0740    -2.0780 C.ar  1 <1>  -0.1500 
 27 C        8.4540     3.9990    -2.4660 C.ar  1 <1>  -0.1500 
 28 H       -0.6120    -0.2710    -1.2330 H     1 <1>   0.0800 
 29 H       -0.2520     1.4030    -0.9620 H     1 <1>   0.0800 
 30 H       -2.8880    -0.4860     1.6770 H     1 <1>   0.0800 
 31 H       -2.1170    -1.4760     0.4820 H     1 <1>   0.0800 
 32 H        2.1980     0.8420     0.0630 H     1 <1>   0.1500 
 33 H       -2.2370     0.3850    -2.6300 H     1 <1>   0.0800 
 34 H       -2.0150     2.0490    -2.1830 H     1 <1>   0.0800 
 35 H       -4.6080    -0.1980     0.2750 H     1 <1>   0.0800 
 36 H       -3.7730    -1.0600    -0.9820 H     1 <1>   0.0800 
 37 H        1.2440     4.7130     2.8970 H     1 <1>   0.1500 
 38 H       -0.3300     2.0920     4.1760 H     1 <1>   0.0800 
 39 H       -1.4430     2.4720     2.8810 H     1 <1>   0.0800 
 40 H       -0.6630     3.7500     3.7640 H     1 <1>   0.0800 
 41 H       -3.4330     1.7820    -0.3420 H     1 <1>   0.4500 
 42 H        3.0920     4.7920     1.3250 H     1 <1>   0.1500 
 43 H       -4.7820     0.5990    -2.7190 H     1 <1>   0.0800 
 44 H       -4.5390     2.3110    -2.4420 H     1 <1>   0.0800 
 45 H       -5.5950     1.3970    -1.3880 H     1 <1>   0.0800 
 46 H        5.1290     3.8520     0.8330 H     1 <1>   0.3700 
 47 H        5.9470     5.6990    -1.0070 H     1 <1>   0.1500 
 48 H        8.7180     1.8910    -2.3840 H     1 <1>   0.1500 
 49 H        6.3680     1.0350     0.1590 H     1 <1>   0.0800 
 50 H        7.4890     0.4200    -1.0230 H     1 <1>   0.0800 
 51 H        5.8270     0.7070    -1.4720 H     1 <1>   0.0800 
 52 H        7.9420     6.0700    -2.3840 H     1 <1>   0.1500 
 53 H        9.3280     4.1570    -3.0740 H     1 <1>   0.1500 
@<TRIPOS>BOND
  1   1   2  2   
  2   1   3  2   
  3   1   4  am  
  4   1   5  1   
  5   4   6  1   
  6   4   7  1   
  7   5   8  ar  
  8   5   9  ar  
  9   6  10  1   
 10   6  28  1   
 11   6  29  1   
 12   7  11  1   
 13   7  30  1   
 14   7  31  1   
 15   8  12  ar  
 16   8  13  1   
 17   9  14  ar  
 18   9  32  1   
 19  10  15  1   
 20  10  33  1   
 21  10  34  1   
 22  11  15  1   
 23  11  35  1   
 24  11  36  1   
 25  12  16  ar  
 26  12  37  1   
 27  13  38  1   
 28  13  39  1   
 29  13  40  1   
 30  14  16  ar  
 31  14  17  1   
 32  15  18  1   
 33  15  41  1   
 34  16  42  1   
 35  17  19  2   
 36  17  20  am  
 37  18  43  1   
 38  18  44  1   
 39  18  45  1   
 40  20  21  1   
 41  20  46  1   
 42  21  22  ar  
 43  21  23  ar  
 44  22  24  ar  
 45  22  25  1   
 46  23  26  ar  
 47  23  47  1   
 48  24  27  ar  
 49  24  48  1   
 50  25  49  1   
 51  25  50  1   
 52  25  51  1   
 53  26  27  ar  
 54  26  52  1   
 55  27  53  1   
@<TRIPOS>SUBSTRUCTURE
  1 ****   9 GROUP 4 **** **** 0

# MOE 2024.06 (io_trps.svl 2023.06)
