@<TRIPOS>MOLECULE
NONAME
34 35 1 0 0 
SMALL
USER_CHARGES


@<TRIPOS>ATOM
  1 F        0.6470     0.5740    -1.0380 F     1 <1>  -0.3400 
  2 C        1.5030     1.5630    -1.2670 C.3   1 <1>   1.1640 
  3 F        0.7650     2.6570    -1.4120 F     1 <1>  -0.3400 
  4 F        2.0400     1.3190    -2.4530 F     1 <1>  -0.3400 
  5 C        2.5680     1.6630    -0.1540 C.ar  1 <1>  -0.1440 
  6 C        3.3540     0.5680     0.2410 C.ar  1 <1>  -0.1440 
  7 C        2.7490     2.8830     0.4950 C.ar  1 <1>  -0.1500 
  8 C        4.2590     0.7250     1.2860 C.ar  1 <1>  -0.1500 
  9 C        3.2620    -0.8180    -0.4210 C.3   1 <1>   0.5020 
 10 C        3.6650     3.0250     1.5190 C.ar  1 <1>  -0.1500 
 11 C        4.4190     1.9410     1.9190 C.ar  1 <1>  -0.1500 
 12 N        2.4430    -1.6640     0.4540 N.am  1 <1>  -0.7300 
 13 C        4.6330    -1.4320    -0.6740 C.2   1 <1>   0.0660 
 14 C        2.8830    -2.7580     1.1020 C.2   1 <1>   0.6900 
 15 N        5.3770    -0.6630    -1.5840 N.pl3 1 <1>   0.8360 
 16 C        5.0190    -2.5790    -0.0560 C.2   1 <1>  -0.0290 
 17 O        2.1230    -3.2950     1.8800 O.2   1 <1>  -0.5700 
 18 N        4.1690    -3.2220     0.8660 N.am  1 <1>  -0.4690 
 19 O        4.8530    -0.2860    -2.6460 O.2   1 <1>  -0.5200 
 20 O        6.5450    -0.3280    -1.3240 O.2   1 <1>  -0.5200 
 21 C        6.3720    -3.2490    -0.3170 C.3   1 <1>  -0.1020 
 22 C        4.6290    -4.4270     1.6280 C.3   1 <1>   0.0600 
 23 H        2.1740     3.7510     0.2160 H     1 <1>   0.1500 
 24 H        4.8550    -0.1040     1.6300 H     1 <1>   0.1500 
 25 H        2.7580    -0.7630    -1.3690 H     1 <1>   0.0800 
 26 H        3.7900     3.9770     2.0070 H     1 <1>   0.1500 
 27 H        5.1290     2.0450     2.7220 H     1 <1>   0.1500 
 28 H        1.5260    -1.3130     0.7270 H     1 <1>   0.3700 
 29 H        6.2330    -4.2820    -0.5800 H     1 <1>   0.0800 
 30 H        6.9910    -3.1890     0.5600 H     1 <1>   0.0800 
 31 H        6.9090    -2.7930    -1.1270 H     1 <1>   0.0800 
 32 H        3.9390    -4.6850     2.4130 H     1 <1>   0.0800 
 33 H        5.5830    -4.2340     2.0830 H     1 <1>   0.0800 
 34 H        4.7090    -5.2670     0.9610 H     1 <1>   0.0800 
@<TRIPOS>BOND
  1   1   2  1   
  2   2   3  1   
  3   2   4  1   
  4   2   5  1   
  5   5   6  ar  
  6   5   7  ar  
  7   6   8  ar  
  8   6   9  1   
  9   7  10  ar  
 10   7  23  1   
 11   8  11  ar  
 12   8  24  1   
 13   9  12  1   
 14   9  13  1   
 15   9  25  1   
 16  10  11  ar  
 17  10  26  1   
 18  11  27  1   
 19  12  14  am  
 20  12  28  1   
 21  13  15  1   
 22  13  16  2   
 23  14  17  2   
 24  14  18  am  
 25  15  19  2   
 26  15  20  2   
 27  16  18  1   
 28  16  21  1   
 29  18  22  1   
 30  21  29  1   
 31  21  30  1   
 32  21  31  1   
 33  22  32  1   
 34  22  33  1   
 35  22  34  1   
@<TRIPOS>SUBSTRUCTURE
  1 ****   9 GROUP 4 **** **** 0

# MOE 2024.06 (io_trps.svl 2023.06)
