@<TRIPOS>MOLECULE
NONAME
44 44 1 0 0 
SMALL
USER_CHARGES


@<TRIPOS>ATOM
  1 BR      -1.2110     0.0040     0.3570 Br    1 <1>  -0.1110 
  2 C       -0.6790     1.8320     0.0440 C.ar  1 <1>   0.1110 
  3 C       -1.6290     2.7480    -0.3720 C.ar  1 <1>  -0.1440 
  4 C        0.6410     2.1690     0.2610 C.ar  1 <1>  -0.1500 
  5 C       -1.2130     4.0530    -0.5850 C.ar  1 <1>  -0.1500 
  6 C       -3.0710     2.3450    -0.5840 C.3   1 <1>   0.4870 
  7 C        1.0510     3.4850     0.0610 C.ar  1 <1>   0.0820 
  8 C        0.1040     4.4330    -0.3750 C.ar  1 <1>   0.0820 
  9 N       -3.7210     2.1910     0.7580 N.4   1 <1>  -0.9590 
 10 O        2.3400     3.8610     0.2980 O.3   1 <1>  -0.3620 
 11 O        0.3350     5.7540    -0.6230 O.3   1 <1>  -0.3620 
 12 C       -5.0000     1.3890     0.7460 C.3   1 <1>   0.3430 
 13 C       -3.8140     3.5040     1.4870 C.3   1 <1>   0.2630 
 14 C        3.3350     2.9520     0.7200 C.3   1 <1>   0.0400 
 15 C        1.6200     6.2590    -0.9170 C.3   1 <1>   0.0400 
 16 C       -6.1990     2.0450    -0.0010 C.3   1 <1>   0.3430 
 17 N       -7.4900     1.2610     0.0770 N.4   1 <1>  -0.9590 
 18 C       -7.4300    -0.0810    -0.5990 C.3   1 <1>   0.2630 
 19 C       -8.6200     2.0520    -0.5220 C.3   1 <1>   0.2630 
 20 H        1.3180     1.4020     0.5850 H     1 <1>   0.1500 
 21 H       -1.9000     4.8100    -0.9220 H     1 <1>   0.1500 
 22 H       -3.0950     1.4120    -1.1240 H     1 <1>   0.0800 
 23 H       -3.5780     3.0950    -1.1700 H     1 <1>   0.0800 
 24 H       -3.0260     1.6340     1.2890 H     1 <1>   0.4500 
 25 H       -5.2970     1.2130     1.7680 H     1 <1>   0.0800 
 26 H       -4.7990     0.4300     0.2960 H     1 <1>   0.0800 
 27 H       -4.4530     4.1930     0.9600 H     1 <1>   0.0800 
 28 H       -2.8350     3.9520     1.5750 H     1 <1>   0.0800 
 29 H       -4.2020     3.3580     2.4820 H     1 <1>   0.0800 
 30 H        4.2580     3.4940     0.8230 H     1 <1>   0.0800 
 31 H        3.4470     2.1830    -0.0240 H     1 <1>   0.0800 
 32 H        3.0510     2.5360     1.6700 H     1 <1>   0.0800 
 33 H        1.5070     7.2470    -1.3250 H     1 <1>   0.0800 
 34 H        2.0960     5.6170    -1.6370 H     1 <1>   0.0800 
 35 H        2.1920     6.3070    -0.0080 H     1 <1>   0.0800 
 36 H       -5.9360     2.1760    -1.0380 H     1 <1>   0.0800 
 37 H       -6.3670     3.0210     0.4240 H     1 <1>   0.0800 
 38 H       -7.7500     1.1030     1.0680 H     1 <1>   0.4500 
 39 H       -7.1950     0.0320    -1.6460 H     1 <1>   0.0800 
 40 H       -8.3840    -0.5800    -0.5210 H     1 <1>   0.0800 
 41 H       -6.6850    -0.7100    -0.1400 H     1 <1>   0.0800 
 42 H       -8.4390     2.2390    -1.5690 H     1 <1>   0.0800 
 43 H       -8.7320     2.9980    -0.0170 H     1 <1>   0.0800 
 44 H       -9.5480     1.5080    -0.4300 H     1 <1>   0.0800 
@<TRIPOS>BOND
  1   1   2  1   
  2   2   3  ar  
  3   2   4  ar  
  4   3   5  ar  
  5   3   6  1   
  6   4   7  ar  
  7   4  20  1   
  8   5   8  ar  
  9   5  21  1   
 10   6   9  1   
 11   6  22  1   
 12   6  23  1   
 13   7   8  ar  
 14   7  10  1   
 15   8  11  1   
 16   9  12  1   
 17   9  13  1   
 18   9  24  1   
 19  10  14  1   
 20  11  15  1   
 21  12  16  1   
 22  12  25  1   
 23  12  26  1   
 24  13  27  1   
 25  13  28  1   
 26  13  29  1   
 27  14  30  1   
 28  14  31  1   
 29  14  32  1   
 30  15  33  1   
 31  15  34  1   
 32  15  35  1   
 33  16  17  1   
 34  16  36  1   
 35  16  37  1   
 36  17  18  1   
 37  17  19  1   
 38  17  38  1   
 39  18  39  1   
 40  18  40  1   
 41  18  41  1   
 42  19  42  1   
 43  19  43  1   
 44  19  44  1   
@<TRIPOS>SUBSTRUCTURE
  1 ****   3 GROUP 4 **** **** 0

# MOE 2024.06 (io_trps.svl 2023.06)
