@<TRIPOS>MOLECULE
NONAME
33 34 1 0 0 
SMALL
USER_CHARGES


@<TRIPOS>ATOM
  1 S       -0.1470    -0.5840     0.1950 S.o2  1 <1>   1.4470 
  2 O       -0.3950    -1.1620     1.4970 O.2   1 <1>  -0.6500 
  3 O        0.0290    -1.4400    -0.9560 O.2   1 <1>  -0.6500 
  4 N        1.3230     0.3130     0.4280 N.am  1 <1>  -0.5780 
  5 C       -1.3650     0.7180    -0.1390 C.ar  1 <1>  -0.0090 
  6 N        2.0670     1.0250    -0.5050 N.2   1 <1>  -0.4300 
  7 C       -1.2410     1.5410    -1.2510 C.ar  1 <1>  -0.1500 
  8 C       -2.4510     0.9290     0.7030 C.ar  1 <1>  -0.1500 
  9 C        3.1640     1.5760    -0.1870 C.2   1 <1>   0.3280 
 10 C       -2.1630     2.5400    -1.5150 C.ar  1 <1>  -0.1500 
 11 C       -3.3770     1.9260     0.4460 C.ar  1 <1>  -0.1500 
 12 C        4.0240     2.3540    -1.1570 C.3   1 <1>  -0.0990 
 13 C        3.8370     1.5690     1.1740 C.3   1 <1>  -0.0990 
 14 C       -3.2370     2.7380    -0.6660 C.ar  1 <1>  -0.1430 
 15 C        5.3670     2.5350    -0.4450 C.3   1 <1>  -0.1600 
 16 C        5.0230     2.5300     1.0440 C.3   1 <1>  -0.1600 
 17 C       -4.2510     3.8300    -0.9530 C.3   1 <1>  -0.0970 
 18 H        1.6260     0.2400     1.3970 H     1 <1>   0.4200 
 19 H       -0.4070     1.3970    -1.9190 H     1 <1>   0.1500 
 20 H       -2.5760     0.3060     1.5730 H     1 <1>   0.1500 
 21 H       -2.0380     3.1590    -2.3860 H     1 <1>   0.1500 
 22 H       -4.2090     2.0640     1.1150 H     1 <1>   0.1500 
 23 H        4.1320     1.8290    -2.0890 H     1 <1>   0.0800 
 24 H        3.5650     3.3100    -1.3350 H     1 <1>   0.0800 
 25 H        3.1630     1.8860     1.9490 H     1 <1>   0.0800 
 26 H        4.1900     0.5740     1.3810 H     1 <1>   0.0800 
 27 H        6.0030     1.6940    -0.6670 H     1 <1>   0.0800 
 28 H        5.8650     3.4420    -0.7450 H     1 <1>   0.0800 
 29 H        4.7130     3.5190     1.3390 H     1 <1>   0.0800 
 30 H        5.8580     2.2290     1.6520 H     1 <1>   0.0800 
 31 H       -3.7840     4.6530    -1.4640 H     1 <1>   0.0800 
 32 H       -4.6770     4.2000    -0.0370 H     1 <1>   0.0800 
 33 H       -5.0400     3.4400    -1.5700 H     1 <1>   0.0800 
@<TRIPOS>BOND
  1   1   2  2   
  2   1   3  2   
  3   1   4  am  
  4   1   5  1   
  5   4   6  1   
  6   4  18  1   
  7   5   7  ar  
  8   5   8  ar  
  9   6   9  2   
 10   7  10  ar  
 11   7  19  1   
 12   8  11  ar  
 13   8  20  1   
 14   9  12  1   
 15   9  13  1   
 16  10  14  ar  
 17  10  21  1   
 18  11  14  ar  
 19  11  22  1   
 20  12  15  1   
 21  12  23  1   
 22  12  24  1   
 23  13  16  1   
 24  13  25  1   
 25  13  26  1   
 26  14  17  1   
 27  15  16  1   
 28  15  27  1   
 29  15  28  1   
 30  16  29  1   
 31  16  30  1   
 32  17  31  1   
 33  17  32  1   
 34  17  33  1   
@<TRIPOS>SUBSTRUCTURE
  1 ****   4 GROUP 4 **** **** 0

# MOE 2024.06 (io_trps.svl 2023.06)
