@<TRIPOS>MOLECULE
NONAME
49 51 1 0 0 
SMALL
USER_CHARGES


@<TRIPOS>ATOM
  1 S        0.1270    -0.8000    -1.1660 S.o2  1 <1>   1.4470 
  2 O        0.4800    -1.6800    -2.2600 O.2   1 <1>  -0.6500 
  3 O        0.0750     0.6250    -1.4170 O.2   1 <1>  -0.6500 
  4 N        1.3170    -1.0360     0.0190 N.am  1 <1>  -0.8490 
  5 C       -1.4090    -1.3690    -0.3640 C.ar  1 <1>  -0.0090 
  6 C        1.5320    -2.4650     0.3170 C.3   1 <1>   0.1960 
  7 C        2.5890    -0.4140    -0.3820 C.3   1 <1>   0.1960 
  8 C       -1.9740    -0.7400     0.7490 C.ar  1 <1>  -0.1440 
  9 C       -2.0490    -2.4990    -0.8660 C.ar  1 <1>  -0.1500 
 10 C        2.5510    -2.6500     1.4530 C.3   1 <1>   0.1400 
 11 C        3.6640    -0.5450     0.7140 C.3   1 <1>   0.1400 
 12 C       -3.1330    -1.2450     1.3210 C.ar  1 <1>  -0.1500 
 13 C       -1.3550     0.5080     1.3680 C.3   1 <1>  -0.0960 
 14 C       -3.2030    -3.0060    -0.2960 C.ar  1 <1>  -0.1440 
 15 N        3.8420    -1.9720     1.1220 N.am  1 <1>  -0.6600 
 16 C       -3.7440    -2.3700     0.8040 C.ar  1 <1>  -0.1500 
 17 C       -3.8750    -4.2390    -0.8720 C.3   1 <1>  -0.0970 
 18 C        4.9480    -2.7060     0.7870 C.2   1 <1>   0.6900 
 19 O        4.8370    -3.8810     0.4930 O.2   1 <1>  -0.5700 
 20 N        6.1660    -2.0900     0.8170 N.am  1 <1>  -0.5470 
 21 C        7.4280    -2.5150     0.3800 C.ar  1 <1>   0.1170 
 22 C        8.5640    -1.9480     0.9480 C.ar  1 <1>  -0.1500 
 23 C        7.5960    -3.4700    -0.6180 C.ar  1 <1>  -0.1500 
 24 C        9.8300    -2.3230     0.5350 C.ar  1 <1>  -0.1500 
 25 C        8.8600    -3.8490    -1.0340 C.ar  1 <1>  -0.1500 
 26 C        9.9800    -3.2750    -0.4580 C.ar  1 <1>  -0.1500 
 27 H        1.8900    -2.9820    -0.5590 H     1 <1>   0.0800 
 28 H        0.6030    -2.9190     0.6150 H     1 <1>   0.0800 
 29 H        2.4320     0.6330    -0.5800 H     1 <1>   0.0800 
 30 H        2.9500    -0.8710    -1.2900 H     1 <1>   0.0800 
 31 H       -1.6330    -2.9940    -1.7270 H     1 <1>   0.1500 
 32 H        2.7100    -3.7010     1.6240 H     1 <1>   0.0800 
 33 H        2.1520    -2.2280     2.3590 H     1 <1>   0.0800 
 34 H        3.3640     0.0320     1.5710 H     1 <1>   0.0800 
 35 H        4.5860    -0.1380     0.3410 H     1 <1>   0.0800 
 36 H       -3.5720    -0.7620     2.1770 H     1 <1>   0.1500 
 37 H       -0.3410     0.3170     1.6710 H     1 <1>   0.0800 
 38 H       -1.9040     0.8240     2.2360 H     1 <1>   0.0800 
 39 H       -1.3630     1.3160     0.6600 H     1 <1>   0.0800 
 40 H       -4.6430    -2.7460     1.2610 H     1 <1>   0.1500 
 41 H       -3.1790    -4.8180    -1.4510 H     1 <1>   0.0800 
 42 H       -4.6920    -3.9450    -1.5060 H     1 <1>   0.0800 
 43 H       -4.2560    -4.8600    -0.0800 H     1 <1>   0.0800 
 44 H        6.1570    -1.2440     1.3730 H     1 <1>   0.3700 
 45 H        8.4610    -1.2100     1.7210 H     1 <1>   0.1500 
 46 H        6.7350    -3.9220    -1.0770 H     1 <1>   0.1500 
 47 H       10.7000    -1.8770     0.9850 H     1 <1>   0.1500 
 48 H        8.9690    -4.5910    -1.8050 H     1 <1>   0.1500 
 49 H       10.9630    -3.5700    -0.7800 H     1 <1>   0.1500 
@<TRIPOS>BOND
  1   1   2  2   
  2   1   3  2   
  3   1   4  am  
  4   1   5  1   
  5   4   6  1   
  6   4   7  1   
  7   5   8  ar  
  8   5   9  ar  
  9   6  10  1   
 10   6  27  1   
 11   6  28  1   
 12   7  11  1   
 13   7  29  1   
 14   7  30  1   
 15   8  12  ar  
 16   8  13  1   
 17   9  14  ar  
 18   9  31  1   
 19  10  15  1   
 20  10  32  1   
 21  10  33  1   
 22  11  15  1   
 23  11  34  1   
 24  11  35  1   
 25  12  16  ar  
 26  12  36  1   
 27  13  37  1   
 28  13  38  1   
 29  13  39  1   
 30  14  16  ar  
 31  14  17  1   
 32  15  18  am  
 33  16  40  1   
 34  17  41  1   
 35  17  42  1   
 36  17  43  1   
 37  18  19  2   
 38  18  20  am  
 39  20  21  1   
 40  20  44  1   
 41  21  22  ar  
 42  21  23  ar  
 43  22  24  ar  
 44  22  45  1   
 45  23  25  ar  
 46  23  46  1   
 47  24  26  ar  
 48  24  47  1   
 49  25  26  ar  
 50  25  48  1   
 51  26  49  1   
@<TRIPOS>SUBSTRUCTURE
  1 ****   6 GROUP 4 **** **** 0

# MOE 2024.06 (io_trps.svl 2023.06)
