@<TRIPOS>MOLECULE
NONAME
43 44 1 0 0 
SMALL
USER_CHARGES


@<TRIPOS>ATOM
  1 S        0.7880     0.1370    -1.1000 S.o2  1 <1>   1.3330 
  2 O        1.8420     0.3230    -2.0690 O.2   1 <1>  -0.6500 
  3 O        1.0580    -0.5440     0.1410 O.2   1 <1>  -0.6500 
  4 N        0.1820     1.7140    -0.7260 N.am  1 <1>  -0.6930 
  5 C       -0.6030    -0.6160    -1.9140 C.3   1 <1>  -0.1350 
  6 C       -0.7910     1.8850     0.2490 C.ar  1 <1>   0.1990 
  7 C        1.1300     2.8550    -0.9390 C.3   1 <1>   0.2570 
  8 C       -2.0850     2.2250    -0.1200 C.ar  1 <1>  -0.1500 
  9 C       -0.4950     1.7290     1.6010 C.ar  1 <1>  -0.1500 
 10 C        2.3600     2.8290    -0.0250 C.2   1 <1>   0.5690 
 11 C       -3.0390     2.3900     0.8630 C.ar  1 <1>   0.1900 
 12 C       -1.4660     1.9000     2.5750 C.ar  1 <1>  -0.1500 
 13 O        2.4020     3.5830     0.9190 O.2   1 <1>  -0.5700 
 14 N        3.3690     1.9600    -0.2980 N.am  1 <1>  -0.7300 
 15 F       -4.2560     2.7050     0.5080 F     1 <1>  -0.1900 
 16 C       -2.7580     2.2340     2.2070 C.ar  1 <1>  -0.1500 
 17 C        4.5150     1.6820     0.5740 C.3   1 <1>   0.2200 
 18 C        5.7980     1.7310    -0.2610 C.3   1 <1>  -0.1600 
 19 C        4.3160     0.3010     1.2080 C.3   1 <1>  -0.1600 
 20 C        7.0210     1.3270     0.5750 C.3   1 <1>  -0.1600 
 21 C        5.5360    -0.1060     2.0480 C.3   1 <1>  -0.1600 
 22 C        6.8240    -0.0540     1.2150 C.3   1 <1>  -0.1600 
 23 H       -0.3500    -1.6100    -2.2290 H     1 <1>   0.0800 
 24 H       -0.8840    -0.0430    -2.7750 H     1 <1>   0.0800 
 25 H       -1.4390    -0.6710    -1.2440 H     1 <1>   0.0800 
 26 H        0.6080     3.7800    -0.7650 H     1 <1>   0.0800 
 27 H        1.4610     2.8570    -1.9610 H     1 <1>   0.0800 
 28 H       -2.3420     2.3600    -1.1530 H     1 <1>   0.1500 
 29 H        0.5100     1.4710     1.8900 H     1 <1>   0.1500 
 30 H       -1.2130     1.7750     3.6140 H     1 <1>   0.1500 
 31 H        3.2410     1.2830    -1.0620 H     1 <1>   0.3700 
 32 H       -3.5310     2.3730     2.9420 H     1 <1>   0.1500 
 33 H        4.5700     2.4250     1.3540 H     1 <1>   0.0800 
 34 H        5.9370     2.7280    -0.6390 H     1 <1>   0.0800 
 35 H        5.7080     1.0580    -1.0960 H     1 <1>   0.0800 
 36 H        4.1610    -0.4320     0.4350 H     1 <1>   0.0800 
 37 H        3.4410     0.3200     1.8340 H     1 <1>   0.0800 
 38 H        7.1780     2.0590     1.3500 H     1 <1>   0.0800 
 39 H        7.8970     1.3150    -0.0490 H     1 <1>   0.0800 
 40 H        5.3920    -1.1020     2.4300 H     1 <1>   0.0800 
 41 H        5.6270     0.5610     2.8880 H     1 <1>   0.0800 
 42 H        7.6680    -0.2850     1.8420 H     1 <1>   0.0800 
 43 H        6.7760    -0.8010     0.4400 H     1 <1>   0.0800 
@<TRIPOS>BOND
  1   1   2  2   
  2   1   3  2   
  3   1   4  am  
  4   1   5  1   
  5   4   6  1   
  6   4   7  1   
  7   5  23  1   
  8   5  24  1   
  9   5  25  1   
 10   6   8  ar  
 11   6   9  ar  
 12   7  10  1   
 13   7  26  1   
 14   7  27  1   
 15   8  11  ar  
 16   8  28  1   
 17   9  12  ar  
 18   9  29  1   
 19  10  13  2   
 20  10  14  am  
 21  11  15  1   
 22  11  16  ar  
 23  12  16  ar  
 24  12  30  1   
 25  14  17  1   
 26  14  31  1   
 27  16  32  1   
 28  17  18  1   
 29  17  19  1   
 30  17  33  1   
 31  18  20  1   
 32  18  34  1   
 33  18  35  1   
 34  19  21  1   
 35  19  36  1   
 36  19  37  1   
 37  20  22  1   
 38  20  38  1   
 39  20  39  1   
 40  21  22  1   
 41  21  40  1   
 42  21  41  1   
 43  22  42  1   
 44  22  43  1   
@<TRIPOS>SUBSTRUCTURE
  1 ****   4 GROUP 4 **** **** 0

# MOE 2024.06 (io_trps.svl 2023.06)
