@<TRIPOS>MOLECULE
NONAME
37 38 1 0 0 
SMALL
USER_CHARGES


@<TRIPOS>ATOM
  1 CL       0.9930     0.8660     2.4570 Cl    1 <1>  -0.1770 
  2 C        2.0180     1.4480     1.1630 C.ar  1 <1>   0.1770 
  3 C        1.7130     2.6350     0.5110 C.ar  1 <1>   0.0830 
  4 C        3.1180     0.6930     0.8110 C.ar  1 <1>  -0.1500 
  5 O        0.6070     3.3290     0.8730 O.3   1 <1>  -0.3630 
  6 C        2.5650     3.0680    -0.5100 C.ar  1 <1>   0.0830 
  7 C        3.9660     1.1040    -0.2170 C.ar  1 <1>   0.0860 
  8 C       -0.4760     3.2970    -0.0290 C.3   1 <1>   0.0400 
  9 O        2.3780     4.2270    -1.1890 O.3   1 <1>  -0.3630 
 10 C        3.6560     2.2970    -0.8710 C.ar  1 <1>  -0.1500 
 11 C        5.1160     0.3070    -0.5910 C.2   1 <1>   0.5440 
 12 C        2.4050     5.4270    -0.4440 C.3   1 <1>   0.0400 
 13 O        4.9530    -0.8750    -0.8310 O.2   1 <1>  -0.5700 
 14 N        6.3870     0.8420    -0.6750 N.am  1 <1>  -0.6600 
 15 C        7.5170     0.0770    -1.2760 C.3   1 <1>   0.1400 
 16 C        6.7910     2.1330    -0.0480 C.3   1 <1>   0.1400 
 17 C        8.5840    -0.1960    -0.2110 C.3   1 <1>  -0.1600 
 18 C        7.8580     1.8790     1.0220 C.3   1 <1>  -0.1600 
 19 C        9.0560     1.1010     0.4600 C.3   1 <1>  -0.1600 
 20 H        3.3230    -0.2280     1.3280 H     1 <1>   0.1500 
 21 H       -1.2850     3.8630     0.3960 H     1 <1>   0.0800 
 22 H       -0.7780     2.2740    -0.1710 H     1 <1>   0.0800 
 23 H       -0.1720     3.7320    -0.9650 H     1 <1>   0.0800 
 24 H        4.2840     2.6300    -1.6790 H     1 <1>   0.1500 
 25 H        2.4620     6.2490    -1.1340 H     1 <1>   0.0800 
 26 H        3.2700     5.4230     0.1970 H     1 <1>   0.0800 
 27 H        1.5070     5.5060     0.1400 H     1 <1>   0.0800 
 28 H        7.9410     0.6560    -2.0780 H     1 <1>   0.0800 
 29 H        7.1720    -0.8550    -1.6900 H     1 <1>   0.0800 
 30 H        5.9500     2.6220     0.4090 H     1 <1>   0.0800 
 31 H        7.1850     2.7820    -0.8100 H     1 <1>   0.0800 
 32 H        9.4210    -0.6940    -0.6670 H     1 <1>   0.0800 
 33 H        8.1690    -0.8600     0.5270 H     1 <1>   0.0800 
 34 H        7.4130     1.3220     1.8290 H     1 <1>   0.0800 
 35 H        8.1940     2.8200     1.4210 H     1 <1>   0.0800 
 36 H        9.5720     1.7100    -0.2630 H     1 <1>   0.0800 
 37 H        9.7460     0.8700     1.2540 H     1 <1>   0.0800 
@<TRIPOS>BOND
  1   1   2  1   
  2   2   3  ar  
  3   2   4  ar  
  4   3   5  1   
  5   3   6  ar  
  6   4   7  ar  
  7   4  20  1   
  8   5   8  1   
  9   6   9  1   
 10   6  10  ar  
 11   7  10  ar  
 12   7  11  1   
 13   8  21  1   
 14   8  22  1   
 15   8  23  1   
 16   9  12  1   
 17  10  24  1   
 18  11  13  2   
 19  11  14  am  
 20  12  25  1   
 21  12  26  1   
 22  12  27  1   
 23  14  15  1   
 24  14  16  1   
 25  15  17  1   
 26  15  28  1   
 27  15  29  1   
 28  16  18  1   
 29  16  30  1   
 30  16  31  1   
 31  17  19  1   
 32  17  32  1   
 33  17  33  1   
 34  18  19  1   
 35  18  34  1   
 36  18  35  1   
 37  19  36  1   
 38  19  37  1   
@<TRIPOS>SUBSTRUCTURE
  1 ****   7 GROUP 4 **** **** 0

# MOE 2024.06 (io_trps.svl 2023.06)
