@<TRIPOS>MOLECULE
NONAME
47 49 1 0 0 
SMALL
USER_CHARGES


@<TRIPOS>ATOM
  1 CL      -1.1150    -2.0420     2.2000 Cl    1 <1>  -0.1770 
  2 C        0.3730    -2.3200     1.3320 C.ar  1 <1>   0.1770 
  3 C        0.3760    -2.7720     0.0190 C.ar  1 <1>  -0.0090 
  4 C        1.5500    -2.0720     2.0140 C.ar  1 <1>  -0.1500 
  5 S       -1.1630    -3.1020    -0.8680 S.o2  1 <1>   1.4470 
  6 C        1.6110    -2.9680    -0.5870 C.ar  1 <1>  -0.1500 
  7 C        2.7630    -2.2790     1.3860 C.ar  1 <1>  -0.1500 
  8 O       -2.0120    -1.9320    -0.8190 O.2   1 <1>  -0.6500 
  9 O       -0.8560    -3.6760    -2.1620 O.2   1 <1>  -0.6500 
 10 N       -1.8840    -4.3370     0.0450 N.am  1 <1>  -0.8490 
 11 C        2.8180    -2.7400     0.0720 C.ar  1 <1>   0.0860 
 12 C       -1.3010    -5.6530    -0.2320 C.3   1 <1>   0.1960 
 13 C       -3.3410    -4.3550    -0.1110 C.3   1 <1>   0.1960 
 14 C        4.0830    -2.9660    -0.5990 C.2   1 <1>   0.5440 
 15 C       -1.8450    -6.6900     0.7540 C.3   1 <1>  -0.1600 
 16 C       -3.9660    -5.3600     0.8630 C.3   1 <1>  -0.1600 
 17 O        4.3070    -2.3630    -1.6310 O.2   1 <1>  -0.5700 
 18 N        5.0270    -3.8470    -0.1090 N.am  1 <1>  -0.6600 
 19 C       -3.3750    -6.7640     0.6900 C.3   1 <1>  -0.1600 
 20 C        6.3790    -3.9640    -0.7270 C.3   1 <1>   0.1400 
 21 C        4.7550    -4.8610     0.9490 C.3   1 <1>   0.1400 
 22 C        6.5530    -5.3640    -1.3260 C.3   1 <1>  -0.1600 
 23 C        4.9180    -6.2700     0.3670 C.3   1 <1>  -0.1600 
 24 C        6.2950    -6.4610    -0.2830 C.3   1 <1>  -0.1600 
 25 H        1.5100    -1.7160     3.0290 H     1 <1>   0.1500 
 26 H        1.6520    -3.3070    -1.6100 H     1 <1>   0.1500 
 27 H        3.6830    -2.0790     1.9090 H     1 <1>   0.1500 
 28 H       -0.2290    -5.6050    -0.1340 H     1 <1>   0.0800 
 29 H       -1.5330    -5.9540    -1.2410 H     1 <1>   0.0800 
 30 H       -3.5960    -4.6100    -1.1270 H     1 <1>   0.0800 
 31 H       -3.7450    -3.3800     0.1040 H     1 <1>   0.0800 
 32 H       -1.5350    -6.4210     1.7490 H     1 <1>   0.0800 
 33 H       -1.4270    -7.6550     0.5270 H     1 <1>   0.0800 
 34 H       -5.0300    -5.3920     0.7070 H     1 <1>   0.0800 
 35 H       -3.7940    -5.0140     1.8680 H     1 <1>   0.0800 
 36 H       -3.7470    -7.4180     1.4600 H     1 <1>   0.0800 
 37 H       -3.6760    -7.1630    -0.2640 H     1 <1>   0.0800 
 38 H        7.1250    -3.7960     0.0300 H     1 <1>   0.0800 
 39 H        6.5160    -3.2230    -1.4960 H     1 <1>   0.0800 
 40 H        3.7600    -4.7570     1.3410 H     1 <1>   0.0800 
 41 H        5.4520    -4.7180     1.7570 H     1 <1>   0.0800 
 42 H        7.5500    -5.4610    -1.7170 H     1 <1>   0.0800 
 43 H        5.8670    -5.4720    -2.1480 H     1 <1>   0.0800 
 44 H        4.1480    -6.4330    -0.3660 H     1 <1>   0.0800 
 45 H        4.7850    -6.9960     1.1500 H     1 <1>   0.0800 
 46 H        7.0590    -6.4180     0.4750 H     1 <1>   0.0800 
 47 H        6.3470    -7.4280    -0.7530 H     1 <1>   0.0800 
@<TRIPOS>BOND
  1   1   2  1   
  2   2   3  ar  
  3   2   4  ar  
  4   3   5  1   
  5   3   6  ar  
  6   4   7  ar  
  7   4  25  1   
  8   5   8  2   
  9   5   9  2   
 10   5  10  am  
 11   6  11  ar  
 12   6  26  1   
 13   7  11  ar  
 14   7  27  1   
 15  10  12  1   
 16  10  13  1   
 17  11  14  1   
 18  12  15  1   
 19  12  28  1   
 20  12  29  1   
 21  13  16  1   
 22  13  30  1   
 23  13  31  1   
 24  14  17  2   
 25  14  18  am  
 26  15  19  1   
 27  15  32  1   
 28  15  33  1   
 29  16  19  1   
 30  16  34  1   
 31  16  35  1   
 32  18  20  1   
 33  18  21  1   
 34  19  36  1   
 35  19  37  1   
 36  20  22  1   
 37  20  38  1   
 38  20  39  1   
 39  21  23  1   
 40  21  40  1   
 41  21  41  1   
 42  22  24  1   
 43  22  42  1   
 44  22  43  1   
 45  23  24  1   
 46  23  44  1   
 47  23  45  1   
 48  24  46  1   
 49  24  47  1   
@<TRIPOS>SUBSTRUCTURE
  1 ****   6 GROUP 4 **** **** 0

# MOE 2024.06 (io_trps.svl 2023.06)
