@<TRIPOS>MOLECULE
NONAME
45 46 1 0 0 
SMALL
USER_CHARGES


@<TRIPOS>ATOM
  1 O       -1.6050     0.0290     1.5080 O.3   1 <1>  -0.3630 
  2 C       -2.1030     0.7560     0.4660 C.ar  1 <1>   0.0830 
  3 C       -0.2510     0.0720     1.8990 C.3   1 <1>   0.0400 
  4 C       -1.4900     1.8480    -0.1750 C.ar  1 <1>   0.0830 
  5 C       -3.3490     0.3300     0.0400 C.ar  1 <1>  -0.1500 
  6 O       -0.2720     2.2980     0.2450 O.3   1 <1>  -0.3630 
  7 C       -2.1570     2.4630    -1.2330 C.ar  1 <1>  -0.1500 
  8 C       -4.0130     0.9580    -1.0010 C.ar  1 <1>  -0.1430 
  9 C        0.4130     3.3550    -0.3930 C.3   1 <1>   0.0400 
 10 C       -3.4040     2.0240    -1.6430 C.ar  1 <1>  -0.1500 
 11 C       -5.3910     0.4830    -1.4180 C.3   1 <1>   0.4860 
 12 N       -6.3550     0.7570    -0.3090 N.4   1 <1>  -0.9590 
 13 C       -7.7120     0.1570    -0.5070 C.3   1 <1>   0.4230 
 14 C       -6.4100     2.2280    -0.0400 C.3   1 <1>   0.3430 
 15 C       -8.5730     0.4410     0.7390 C.3   1 <1>  -0.1600 
 16 C       -7.6040    -1.3610    -0.7760 C.3   1 <1>  -0.1600 
 17 C       -7.2250     2.5030     1.2200 C.3   1 <1>  -0.1600 
 18 C       -8.6370     1.9290     1.0970 C.3   1 <1>  -0.1600 
 19 C       -8.9550    -2.0790    -0.9250 C.3   1 <1>  -0.2400 
 20 H       -0.0810    -0.7170     2.6100 H     1 <1>   0.0800 
 21 H       -0.0510     1.0230     2.3590 H     1 <1>   0.0800 
 22 H        0.3700    -0.0750     1.0330 H     1 <1>   0.0800 
 23 H       -3.7840    -0.5130     0.5480 H     1 <1>   0.1500 
 24 H       -1.7220     3.2940    -1.7560 H     1 <1>   0.1500 
 25 H        1.3520     3.4950     0.1110 H     1 <1>   0.0800 
 26 H       -0.1760     4.2510    -0.3180 H     1 <1>   0.0800 
 27 H        0.5890     3.0890    -1.4210 H     1 <1>   0.0800 
 28 H       -3.8860     2.5260    -2.4650 H     1 <1>   0.1500 
 29 H       -5.3350    -0.5720    -1.6210 H     1 <1>   0.0800 
 30 H       -5.7030     0.9890    -2.3170 H     1 <1>   0.0800 
 31 H       -5.9560     0.3290     0.5330 H     1 <1>   0.4500 
 32 H       -8.1830     0.6240    -1.3570 H     1 <1>   0.0800 
 33 H       -6.8590     2.7370    -0.8770 H     1 <1>   0.0800 
 34 H       -5.4140     2.6190     0.1000 H     1 <1>   0.0800 
 35 H       -8.1880    -0.1150     1.5760 H     1 <1>   0.0800 
 36 H       -9.5800     0.1040     0.5670 H     1 <1>   0.0800 
 37 H       -7.0550    -1.8340     0.0200 H     1 <1>   0.0800 
 38 H       -7.0780    -1.5300    -1.6970 H     1 <1>   0.0800 
 39 H       -7.2840     3.5670     1.3750 H     1 <1>   0.0800 
 40 H       -6.7230     2.0810     2.0730 H     1 <1>   0.0800 
 41 H       -9.1670     2.0600     2.0260 H     1 <1>   0.0800 
 42 H       -9.1790     2.4620     0.3320 H     1 <1>   0.0800 
 43 H       -9.4870    -2.1170     0.0100 H     1 <1>   0.0800 
 44 H       -8.7950    -3.0940    -1.2460 H     1 <1>   0.0800 
 45 H       -9.5720    -1.5900    -1.6590 H     1 <1>   0.0800 
@<TRIPOS>BOND
  1   1   2  1   
  2   1   3  1   
  3   2   4  ar  
  4   2   5  ar  
  5   3  20  1   
  6   3  21  1   
  7   3  22  1   
  8   4   6  1   
  9   4   7  ar  
 10   5   8  ar  
 11   5  23  1   
 12   6   9  1   
 13   7  10  ar  
 14   7  24  1   
 15   8  10  ar  
 16   8  11  1   
 17   9  25  1   
 18   9  26  1   
 19   9  27  1   
 20  10  28  1   
 21  11  12  1   
 22  11  29  1   
 23  11  30  1   
 24  12  13  1   
 25  12  14  1   
 26  12  31  1   
 27  13  15  1   
 28  13  16  1   
 29  13  32  1   
 30  14  17  1   
 31  14  33  1   
 32  14  34  1   
 33  15  18  1   
 34  15  35  1   
 35  15  36  1   
 36  16  19  1   
 37  16  37  1   
 38  16  38  1   
 39  17  18  1   
 40  17  39  1   
 41  17  40  1   
 42  18  41  1   
 43  18  42  1   
 44  19  43  1   
 45  19  44  1   
 46  19  45  1   
@<TRIPOS>SUBSTRUCTURE
  1 ****   8 GROUP 4 **** **** 0

# MOE 2024.06 (io_trps.svl 2023.06)
