@<TRIPOS>MOLECULE
NONAME
35 35 1 0 0 
SMALL
USER_CHARGES


@<TRIPOS>ATOM
  1 O       -1.0870     0.0510     0.7890 O.2   1 <1>  -0.5700 
  2 C       -1.6030     0.5750    -0.1830 C.2   1 <1>   0.6900 
  3 N       -2.4800    -0.1380    -1.0160 N.am  1 <1>  -0.2980 
  4 N       -1.3350     1.8950    -0.4920 N.am  1 <1>  -0.4200 
  5 N       -3.0900     0.3870    -2.1360 N.2   1 <1>  -0.5120 
  6 C       -2.7940    -1.5620    -0.7160 C.3   1 <1>   0.1400 
  7 C       -1.9640     2.4520    -1.5930 C.2   1 <1>   0.6300 
  8 C       -0.3970     2.7060     0.3390 C.3   1 <1>   0.1400 
  9 C       -2.8280     1.6230    -2.3840 C.2   1 <1>   0.3900 
 10 C       -4.1740    -1.7170    -0.0440 C.3   1 <1>  -0.0800 
 11 O       -1.7760     3.6290    -1.8690 O.2   1 <1>  -0.5700 
 12 C        0.9940     2.8300    -0.3150 C.3   1 <1>  -0.0800 
 13 C       -4.2500    -0.9980     1.3110 C.3   1 <1>  -0.2400 
 14 C       -4.4970    -3.2040     0.1490 C.3   1 <1>  -0.2400 
 15 C        1.6680     1.4650    -0.5280 C.3   1 <1>  -0.2400 
 16 C        1.8980     3.7150     0.5520 C.3   1 <1>  -0.2400 
 17 H       -2.0320    -1.9860    -0.0860 H     1 <1>   0.0800 
 18 H       -2.7890    -2.1070    -1.6430 H     1 <1>   0.0800 
 19 H       -0.2970     2.2640     1.3160 H     1 <1>   0.0800 
 20 H       -0.8150     3.6880     0.4750 H     1 <1>   0.0800 
 21 H       -3.2770     2.0920    -3.2390 H     1 <1>   0.0600 
 22 H       -4.9170    -1.2980    -0.7020 H     1 <1>   0.0800 
 23 H        0.8810     3.3140    -1.2710 H     1 <1>   0.0800 
 24 H       -3.4790    -1.3520     1.9720 H     1 <1>   0.0800 
 25 H       -5.2060    -1.1680     1.7730 H     1 <1>   0.0800 
 26 H       -4.1290     0.0630     1.1830 H     1 <1>   0.0800 
 27 H       -3.7800    -3.6670     0.8040 H     1 <1>   0.0800 
 28 H       -4.4810    -3.7170    -0.7970 H     1 <1>   0.0800 
 29 H       -5.4770    -3.3200     0.5770 H     1 <1>   0.0800 
 30 H        1.7430     0.9320     0.4040 H     1 <1>   0.0800 
 31 H        2.6570     1.5940    -0.9310 H     1 <1>   0.0800 
 32 H        1.1050     0.8650    -1.2190 H     1 <1>   0.0800 
 33 H        2.0480     3.2710     1.5210 H     1 <1>   0.0800 
 34 H        1.4560     4.6870     0.6830 H     1 <1>   0.0800 
 35 H        2.8570     3.8430     0.0820 H     1 <1>   0.0800 
@<TRIPOS>BOND
  1   1   2  2   
  2   2   3  am  
  3   2   4  am  
  4   3   5  1   
  5   3   6  1   
  6   4   7  am  
  7   4   8  1   
  8   5   9  2   
  9   6  10  1   
 10   6  17  1   
 11   6  18  1   
 12   7   9  1   
 13   7  11  2   
 14   8  12  1   
 15   8  19  1   
 16   8  20  1   
 17   9  21  1   
 18  10  13  1   
 19  10  14  1   
 20  10  22  1   
 21  12  15  1   
 22  12  16  1   
 23  12  23  1   
 24  13  24  1   
 25  13  25  1   
 26  13  26  1   
 27  14  27  1   
 28  14  28  1   
 29  14  29  1   
 30  15  30  1   
 31  15  31  1   
 32  15  32  1   
 33  16  33  1   
 34  16  34  1   
 35  16  35  1   
@<TRIPOS>SUBSTRUCTURE
  1 ****   2 GROUP 4 **** **** 0

# MOE 2024.06 (io_trps.svl 2023.06)
