@<TRIPOS>MOLECULE
NONAME
27 27 1 0 0 
SMALL
USER_CHARGES


@<TRIPOS>ATOM
  1 O        0.2420     0.2770    -0.0430 O.2   1 <1>  -0.5700 
  2 C        0.2690     1.4860    -0.0700 C.2   1 <1>   0.7800 
  3 O        1.4140     2.1580    -0.0620 O.3   1 <1>  -0.4300 
  4 N       -0.8520     2.2120    -0.1090 N.am  1 <1>  -0.8000 
  5 C        2.6450     1.4640    -0.0220 C.3   1 <1>   0.1200 
  6 C        3.7800     2.4830    -0.0220 C.3   1 <1>   0.1200 
  7 O        5.0050     1.7850     0.0180 O.3   1 <1>  -0.3630 
  8 C        6.1910     2.4440     0.0280 C.ar  1 <1>   0.0820 
  9 C        6.3090     3.8310    -0.0010 C.ar  1 <1>  -0.1500 
 10 C        7.3370     1.6670     0.0690 C.ar  1 <1>  -0.1500 
 11 C        7.5620     4.4200     0.0120 C.ar  1 <1>  -0.1500 
 12 C        8.5870     2.2590     0.0820 C.ar  1 <1>  -0.1500 
 13 C        8.7060     3.6390     0.0550 C.ar  1 <1>  -0.1440 
 14 C       10.0780     4.2900     0.0670 C.3   1 <1>  -0.0970 
 15 H       -1.7560     1.7460    -0.1160 H     1 <1>   0.3700 
 16 H       -0.8290     3.2280    -0.1310 H     1 <1>   0.3700 
 17 H        2.7050     0.8300    -0.8890 H     1 <1>   0.0800 
 18 H        2.6700     0.8690     0.8750 H     1 <1>   0.0800 
 19 H        3.7210     3.1100     0.8500 H     1 <1>   0.0800 
 20 H        3.7560     3.0700    -0.9230 H     1 <1>   0.0800 
 21 H        5.4450     4.4660    -0.0340 H     1 <1>   0.1500 
 22 H        7.2420     0.5970     0.0910 H     1 <1>   0.1500 
 23 H        7.6440     5.4930    -0.0120 H     1 <1>   0.1500 
 24 H        9.4660     1.6400     0.1120 H     1 <1>   0.1500 
 25 H       10.0350     5.2480     0.5520 H     1 <1>   0.0800 
 26 H       10.4250     4.4250    -0.9410 H     1 <1>   0.0800 
 27 H       10.7810     3.6730     0.5970 H     1 <1>   0.0800 
@<TRIPOS>BOND
  1   1   2  2   
  2   2   3  1   
  3   2   4  am  
  4   3   5  1   
  5   4  15  1   
  6   4  16  1   
  7   5   6  1   
  8   5  17  1   
  9   5  18  1   
 10   6   7  1   
 11   6  19  1   
 12   6  20  1   
 13   7   8  1   
 14   8   9  ar  
 15   8  10  ar  
 16   9  11  ar  
 17   9  21  1   
 18  10  12  ar  
 19  10  22  1   
 20  11  13  ar  
 21  11  23  1   
 22  12  13  ar  
 23  12  24  1   
 24  13  14  1   
 25  14  25  1   
 26  14  26  1   
 27  14  27  1   
@<TRIPOS>SUBSTRUCTURE
  1 ****   7 GROUP 4 **** **** 0

# MOE 2024.06 (io_trps.svl 2023.06)
