@<TRIPOS>MOLECULE
NONAME
35 36 1 0 0 
SMALL
USER_CHARGES


@<TRIPOS>ATOM
  1 O        1.0720    -0.8940    -2.0230 O.3   1 <1>  -0.6800 
  2 C        1.7670    -0.9440    -0.8410 C.3   1 <1>   0.2000 
  3 C        3.1410    -0.3150    -1.0710 C.3   1 <1>  -0.1600 
  4 C        1.8790    -2.4160    -0.4510 C.3   1 <1>  -0.1600 
  5 C        4.0520    -0.5400     0.1330 C.3   1 <1>   0.3430 
  6 C        2.8090    -2.5990     0.7430 C.3   1 <1>   0.3430 
  7 N        4.1380    -2.0000     0.4380 N.4   1 <1>  -0.9590 
  8 C        5.1280    -2.2820     1.5130 C.3   1 <1>   0.4860 
  9 C        6.4960    -1.8450     1.0330 C.ar  1 <1>  -0.1440 
 10 C        7.1630    -2.5760     0.0600 C.ar  1 <1>  -0.1500 
 11 C        7.0870    -0.7040     1.5570 C.ar  1 <1>  -0.1500 
 12 C        8.4040    -2.1670    -0.3990 C.ar  1 <1>  -0.1440 
 13 C        8.3260    -0.2930     1.0990 C.ar  1 <1>  -0.1500 
 14 C        8.9800    -1.0210     0.1220 C.ar  1 <1>  -0.1500 
 15 C        9.1390    -2.9610    -1.4650 C.3   1 <1>  -0.0970 
 16 H        0.8730     0.0260    -2.2880 H     1 <1>   0.4000 
 17 H        1.2100    -0.3970    -0.0970 H     1 <1>   0.0800 
 18 H        3.0320     0.7420    -1.2320 H     1 <1>   0.0800 
 19 H        3.6030    -0.7440    -1.9430 H     1 <1>   0.0800 
 20 H        2.2510    -2.9910    -1.2810 H     1 <1>   0.0800 
 21 H        0.9030    -2.7900    -0.1970 H     1 <1>   0.0800 
 22 H        3.6630    -0.0100     0.9870 H     1 <1>   0.0800 
 23 H        5.0330    -0.1490    -0.0890 H     1 <1>   0.0800 
 24 H        2.9150    -3.6520     0.9540 H     1 <1>   0.0800 
 25 H        2.3810    -2.1200     1.6100 H     1 <1>   0.0800 
 26 H        4.5060    -2.4480    -0.4120 H     1 <1>   0.4500 
 27 H        5.1510    -3.3380     1.7310 H     1 <1>   0.0800 
 28 H        4.8660    -1.7520     2.4140 H     1 <1>   0.0800 
 29 H        6.7290    -3.4720    -0.3480 H     1 <1>   0.1500 
 30 H        6.6010    -0.1240     2.3230 H     1 <1>   0.1500 
 31 H        8.7880     0.5930     1.5030 H     1 <1>   0.1500 
 32 H        9.9440    -0.6930    -0.2290 H     1 <1>   0.1500 
 33 H        8.7760    -3.9720    -1.5110 H     1 <1>   0.0800 
 34 H       10.1910    -2.9920    -1.2460 H     1 <1>   0.0800 
 35 H        9.0010    -2.4990    -2.4270 H     1 <1>   0.0800 
@<TRIPOS>BOND
  1   1   2  1   
  2   1  16  1   
  3   2   3  1   
  4   2   4  1   
  5   2  17  1   
  6   3   5  1   
  7   3  18  1   
  8   3  19  1   
  9   4   6  1   
 10   4  20  1   
 11   4  21  1   
 12   5   7  1   
 13   5  22  1   
 14   5  23  1   
 15   6   7  1   
 16   6  24  1   
 17   6  25  1   
 18   7   8  1   
 19   7  26  1   
 20   8   9  1   
 21   8  27  1   
 22   8  28  1   
 23   9  10  ar  
 24   9  11  ar  
 25  10  12  ar  
 26  10  29  1   
 27  11  13  ar  
 28  11  30  1   
 29  12  14  ar  
 30  12  15  1   
 31  13  14  ar  
 32  13  31  1   
 33  14  32  1   
 34  15  33  1   
 35  15  34  1   
 36  15  35  1   
@<TRIPOS>SUBSTRUCTURE
  1 ****   7 GROUP 4 **** **** 0

# MOE 2024.06 (io_trps.svl 2023.06)
