@<TRIPOS>MOLECULE
NONAME
29 29 1 0 0 
SMALL
USER_CHARGES


@<TRIPOS>ATOM
  1 S        0.0200     1.8770     0.2060 S.3   1 <1>  -0.4600 
  2 C       -1.2930     1.5030     1.4050 C.3   1 <1>   0.2140 
  3 C        0.4710     0.2270    -0.4640 C.3   1 <1>   0.1310 
  4 C       -2.2760     0.5320     0.7730 C.ar  1 <1>  -0.1440 
  5 C        1.7140     0.2840    -1.3440 C.2   1 <1>   0.5690 
  6 C       -3.0710     0.9370    -0.2880 C.ar  1 <1>  -0.1500 
  7 C       -2.3800    -0.7680     1.2450 C.ar  1 <1>  -0.1500 
  8 O        2.2620    -0.7410    -1.6610 O.2   1 <1>  -0.5700 
  9 N        2.2000     1.4670    -1.7670 N.am  1 <1>  -0.8000 
 10 C       -3.9610     0.0550    -0.8780 C.ar  1 <1>  -0.1430 
 11 C       -3.2660    -1.6580     0.6620 C.ar  1 <1>  -0.1430 
 12 C       -4.0550    -1.2400    -0.3970 C.ar  1 <1>  -0.1500 
 13 C       -4.8280     0.5070    -2.0390 C.3   1 <1>  -0.0970 
 14 C       -3.3750    -3.0800     1.1830 C.3   1 <1>  -0.0970 
 15 H       -1.7700     2.4330     1.6600 H     1 <1>   0.0800 
 16 H       -0.8210     1.0840     2.2760 H     1 <1>   0.0800 
 17 H       -0.3660    -0.1300    -1.0350 H     1 <1>   0.0800 
 18 H        0.6430    -0.4230     0.3730 H     1 <1>   0.0800 
 19 H       -2.9910     1.9440    -0.6580 H     1 <1>   0.1500 
 20 H       -1.7700    -1.0910     2.0690 H     1 <1>   0.1500 
 21 H        3.0390     1.5080    -2.3440 H     1 <1>   0.3700 
 22 H        1.7780     2.3500    -1.4720 H     1 <1>   0.3700 
 23 H       -4.7480    -1.9270    -0.8490 H     1 <1>   0.1500 
 24 H       -4.3210     1.2600    -2.6150 H     1 <1>   0.0800 
 25 H       -5.7500     0.9140    -1.6660 H     1 <1>   0.0800 
 26 H       -5.0500    -0.3220    -2.6860 H     1 <1>   0.0800 
 27 H       -2.4260    -3.4170     1.5580 H     1 <1>   0.0800 
 28 H       -3.6840    -3.7460     0.3970 H     1 <1>   0.0800 
 29 H       -4.0980    -3.1200     1.9770 H     1 <1>   0.0800 
@<TRIPOS>BOND
  1   1   2  1   
  2   1   3  1   
  3   2   4  1   
  4   2  15  1   
  5   2  16  1   
  6   3   5  1   
  7   3  17  1   
  8   3  18  1   
  9   4   6  ar  
 10   4   7  ar  
 11   5   8  2   
 12   5   9  am  
 13   6  10  ar  
 14   6  19  1   
 15   7  11  ar  
 16   7  20  1   
 17   9  21  1   
 18   9  22  1   
 19  10  12  ar  
 20  10  13  1   
 21  11  12  ar  
 22  11  14  1   
 23  12  23  1   
 24  13  24  1   
 25  13  25  1   
 26  13  26  1   
 27  14  27  1   
 28  14  28  1   
 29  14  29  1   
@<TRIPOS>SUBSTRUCTURE
  1 ****   4 GROUP 4 **** **** 0

# MOE 2024.06 (io_trps.svl 2023.06)
