@<TRIPOS>MOLECULE
NONAME
37 37 1 0 0 
SMALL
USER_CHARGES


@<TRIPOS>ATOM
  1 O       -2.4100    -0.5430     1.5090 O.2   1 <1>  -0.5700 
  2 C       -2.6180    -1.1050     0.4660 C.2   1 <1>   0.6590 
  3 O       -2.1700    -2.3240     0.2210 O.3   1 <1>  -0.4300 
  4 C       -3.4160    -0.4520    -0.6430 C.3   1 <1>  -0.0990 
  5 C       -1.4250    -3.0160     1.1940 C.3   1 <1>   0.3200 
  6 C       -4.8510    -0.9990    -0.7190 C.3   1 <1>  -0.1600 
  7 C       -1.0510    -4.3480     0.6380 C.1   1 <1>  -0.2000 
  8 C       -5.6700    -0.2930    -1.8130 C.3   1 <1>  -0.0990 
  9 C       -0.7520    -5.4100     0.1950 C.1   1 <1>  -0.1770 
 10 C       -7.0850    -0.8320    -1.9070 C.2   1 <1>   0.5690 
 11 O       -7.3790    -1.5040    -2.8630 O.2   1 <1>  -0.5700 
 12 N       -7.9390    -0.5190    -0.8890 N.am  1 <1>  -0.5470 
 13 C       -9.2810    -0.8440    -0.6160 C.ar  1 <1>   0.1170 
 14 C       -9.8190    -0.4250     0.6070 C.ar  1 <1>   0.0820 
 15 C      -10.0910    -1.5520    -1.4970 C.ar  1 <1>  -0.1500 
 16 O       -8.9910     0.2710     1.4460 O.3   1 <1>  -0.3630 
 17 C      -11.1410    -0.7210     0.9250 C.ar  1 <1>  -0.1500 
 18 C      -11.4040    -1.8430    -1.1750 C.ar  1 <1>  -0.1500 
 19 C       -9.4350     0.7090     2.7120 C.3   1 <1>   0.0400 
 20 C      -11.9300    -1.4290     0.0350 C.ar  1 <1>  -0.1500 
 21 H       -2.9080    -0.6210    -1.5750 H     1 <1>   0.0800 
 22 H       -3.4400     0.6080    -0.4620 H     1 <1>   0.0800 
 23 H       -2.0330    -3.1290     2.0760 H     1 <1>   0.0800 
 24 H       -0.5460    -2.4410     1.4280 H     1 <1>   0.0800 
 25 H       -5.3310    -0.8660     0.2370 H     1 <1>   0.0800 
 26 H       -4.8200    -2.0560    -0.9270 H     1 <1>   0.0800 
 27 H       -5.1910    -0.4330    -2.7670 H     1 <1>   0.0800 
 28 H       -5.7160     0.7630    -1.6200 H     1 <1>   0.0800 
 29 H       -0.4840    -6.3700    -0.2110 H     1 <1>   0.1770 
 30 H       -7.5380     0.0340    -0.1320 H     1 <1>   0.3700 
 31 H       -9.7040    -1.8830    -2.4430 H     1 <1>   0.1500 
 32 H      -11.5790    -0.4120     1.8550 H     1 <1>   0.1500 
 33 H      -12.0150    -2.3940    -1.8700 H     1 <1>   0.1500 
 34 H       -8.6210     1.2190     3.1950 H     1 <1>   0.0800 
 35 H       -9.7260    -0.1470     3.2960 H     1 <1>   0.0800 
 36 H      -10.2610     1.3850     2.5790 H     1 <1>   0.0800 
 37 H      -12.9520    -1.6570     0.2820 H     1 <1>   0.1500 
@<TRIPOS>BOND
  1   1   2  2   
  2   2   3  1   
  3   2   4  1   
  4   3   5  1   
  5   4   6  1   
  6   4  21  1   
  7   4  22  1   
  8   5   7  1   
  9   5  23  1   
 10   5  24  1   
 11   6   8  1   
 12   6  25  1   
 13   6  26  1   
 14   7   9  3   
 15   8  10  1   
 16   8  27  1   
 17   8  28  1   
 18   9  29  1   
 19  10  11  2   
 20  10  12  am  
 21  12  13  1   
 22  12  30  1   
 23  13  14  ar  
 24  13  15  ar  
 25  14  16  1   
 26  14  17  ar  
 27  15  18  ar  
 28  15  31  1   
 29  16  19  1   
 30  17  20  ar  
 31  17  32  1   
 32  18  20  ar  
 33  18  33  1   
 34  19  34  1   
 35  19  35  1   
 36  19  36  1   
 37  20  37  1   
@<TRIPOS>SUBSTRUCTURE
  1 ****   6 GROUP 4 **** **** 0

# MOE 2024.06 (io_trps.svl 2023.06)
