@<TRIPOS>MOLECULE
22455
37 38 1 0 0 
SMALL
USER_CHARGES


@<TRIPOS>ATOM
  1 N       -3.8730    -2.1950    -0.0540 N.4   1 <1>  -0.9060 
  2 C       -3.8150    -0.7350     0.1520 C.3   1 <1>   0.4230 
  3 C       -2.5720    -2.8610    -0.2650 C.3   1 <1>   0.4230 
  4 C       -5.1970    -0.2670     0.6190 C.3   1 <1>  -0.1600 
  5 C       -3.4030    -0.0310    -1.1480 C.3   1 <1>  -0.1600 
  6 C       -2.8450    -4.2970    -0.7250 C.3   1 <1>  -0.1600 
  7 C       -1.7490    -2.8430     1.0310 C.3   1 <1>  -0.1600 
  8 C       -5.2390     1.2580     0.7870 C.3   1 <1>  -0.1600 
  9 C       -3.4460     1.4960    -0.9890 C.3   1 <1>  -0.1600 
 10 C       -1.5370    -5.0820    -0.8980 C.3   1 <1>  -0.1600 
 11 C       -0.4400    -3.6290     0.8660 C.3   1 <1>  -0.1600 
 12 C       -4.8240     1.9680    -0.5080 C.3   1 <1>  -0.1600 
 13 C       -0.7070    -5.0630     0.3920 C.3   1 <1>  -0.1600 
 14 H       -4.4750    -2.3800    -0.8610 H     1 <1>   0.4500 
 15 H       -4.3240    -2.6270     0.7580 H     1 <1>   0.4500 
 16 H       -3.0980    -0.4970     0.9230 H     1 <1>   0.0800 
 17 H       -2.0190    -2.3560    -1.0400 H     1 <1>   0.0800 
 18 H       -5.4390    -0.7210     1.5640 H     1 <1>   0.0800 
 19 H       -5.9450    -0.5510    -0.1020 H     1 <1>   0.0800 
 20 H       -4.0710    -0.3090    -1.9450 H     1 <1>   0.0800 
 21 H       -2.4020    -0.3080    -1.4260 H     1 <1>   0.0800 
 22 H       -3.3650    -4.2890    -1.6670 H     1 <1>   0.0800 
 23 H       -3.4550    -4.8080     0.0010 H     1 <1>   0.0800 
 24 H       -2.3140    -3.2870     1.8320 H     1 <1>   0.0800 
 25 H       -1.4990    -1.8340     1.3040 H     1 <1>   0.0800 
 26 H       -4.5790     1.5570     1.5840 H     1 <1>   0.0800 
 27 H       -6.2360     1.5670     1.0580 H     1 <1>   0.0800 
 28 H       -3.2170     1.9670    -1.9310 H     1 <1>   0.0800 
 29 H       -2.6970     1.8100    -0.2810 H     1 <1>   0.0800 
 30 H       -0.9580    -4.6560    -1.7000 H     1 <1>   0.0800 
 31 H       -1.7580    -6.1030    -1.1640 H     1 <1>   0.0800 
 32 H        0.0880    -3.6570     1.8050 H     1 <1>   0.0800 
 33 H        0.1960    -3.1320     0.1520 H     1 <1>   0.0800 
 34 H       -4.8000     3.0330    -0.3420 H     1 <1>   0.0800 
 35 H       -5.5570     1.7780    -1.2740 H     1 <1>   0.0800 
 36 H        0.2310    -5.5650     0.2220 H     1 <1>   0.0800 
 37 H       -1.2270    -5.6070     1.1630 H     1 <1>   0.0800 
@<TRIPOS>BOND
  1   1   2  1   
  2   1   3  1   
  3   1  14  1   
  4   1  15  1   
  5   2   4  1   
  6   2   5  1   
  7   2  16  1   
  8   3   6  1   
  9   3   7  1   
 10   3  17  1   
 11   4   8  1   
 12   4  18  1   
 13   4  19  1   
 14   5   9  1   
 15   5  20  1   
 16   5  21  1   
 17   6  10  1   
 18   6  22  1   
 19   6  23  1   
 20   7  11  1   
 21   7  24  1   
 22   7  25  1   
 23   8  12  1   
 24   8  26  1   
 25   8  27  1   
 26   9  12  1   
 27   9  28  1   
 28   9  29  1   
 29  10  13  1   
 30  10  30  1   
 31  10  31  1   
 32  11  13  1   
 33  11  32  1   
 34  11  33  1   
 35  12  34  1   
 36  12  35  1   
 37  13  36  1   
 38  13  37  1   
@<TRIPOS>SUBSTRUCTURE
  1 ****   1 GROUP 4 **** **** 0

# MOE 2024.06 (io_trps.svl 2023.06)
