@<TRIPOS>MOLECULE
NONAME
35 36 1 0 0 
SMALL
USER_CHARGES


@<TRIPOS>ATOM
  1 O        1.1480    -3.5610    -0.5550 O.2   1 <1>  -0.5700 
  2 C        0.2890    -2.7480    -0.3060 C.2   1 <1>   0.5690 
  3 N        0.6070    -1.4960     0.1170 N.am  1 <1>  -0.7300 
  4 C       -1.1770    -3.1520    -0.4580 C.3   1 <1>   0.2610 
  5 C        1.9750    -0.9510     0.2260 C.3   1 <1>   0.2200 
  6 O       -2.0380    -2.0470    -0.1740 O.3   1 <1>  -0.3630 
  7 C       -1.5070    -4.3290     0.4710 C.3   1 <1>   0.1200 
  8 C        2.5810    -1.3810     1.5750 C.3   1 <1>   0.1200 
  9 C        1.9190     0.5780     0.0620 C.3   1 <1>  -0.1600 
 10 C       -3.3430    -2.3270     0.0730 C.ar  1 <1>   0.0820 
 11 O       -2.8820    -4.6610     0.3910 O.3   1 <1>  -0.3630 
 12 O        3.9000    -0.9520     1.6880 O.3   1 <1>  -0.6800 
 13 C        1.3350     1.0270    -1.2870 C.3   1 <1>  -0.2400 
 14 C       -3.7640    -3.6310     0.3430 C.ar  1 <1>   0.0820 
 15 C       -4.2630    -1.2940     0.0510 C.ar  1 <1>  -0.1500 
 16 C       -5.1050    -3.8900     0.5710 C.ar  1 <1>  -0.1500 
 17 C       -5.6030    -1.5570     0.2850 C.ar  1 <1>  -0.1500 
 18 C       -6.0230    -2.8530     0.5420 C.ar  1 <1>  -0.1500 
 19 H       -0.1540    -0.8360     0.2980 H     1 <1>   0.3700 
 20 H       -1.3480    -3.4430    -1.4770 H     1 <1>   0.0800 
 21 H        2.5700    -1.3750    -0.5660 H     1 <1>   0.0800 
 22 H       -1.2830    -4.0740     1.4920 H     1 <1>   0.0800 
 23 H       -0.9400    -5.1990     0.1940 H     1 <1>   0.0800 
 24 H        2.5730    -2.4540     1.6640 H     1 <1>   0.0800 
 25 H        2.0260    -0.9490     2.3890 H     1 <1>   0.0800 
 26 H        2.9200     0.9660     0.1410 H     1 <1>   0.0800 
 27 H        1.3490     1.0060     0.8680 H     1 <1>   0.0800 
 28 H        4.4720    -1.4340     1.0590 H     1 <1>   0.4000 
 29 H        0.3060     0.7310    -1.3820 H     1 <1>   0.0800 
 30 H        1.8950     0.5960    -2.0980 H     1 <1>   0.0800 
 31 H        1.3870     2.0980    -1.3690 H     1 <1>   0.0800 
 32 H       -3.9320    -0.2920    -0.1520 H     1 <1>   0.1500 
 33 H       -5.4220    -4.8980     0.7710 H     1 <1>   0.1500 
 34 H       -6.3200    -0.7540     0.2670 H     1 <1>   0.1500 
 35 H       -7.0650    -3.0550     0.7220 H     1 <1>   0.1500 
@<TRIPOS>BOND
  1   1   2  2   
  2   2   3  am  
  3   2   4  1   
  4   3   5  1   
  5   3  19  1   
  6   4   6  1   
  7   4   7  1   
  8   4  20  1   
  9   5   8  1   
 10   5   9  1   
 11   5  21  1   
 12   6  10  1   
 13   7  11  1   
 14   7  22  1   
 15   7  23  1   
 16   8  12  1   
 17   8  24  1   
 18   8  25  1   
 19   9  13  1   
 20   9  26  1   
 21   9  27  1   
 22  10  14  ar  
 23  10  15  ar  
 24  11  14  1   
 25  12  28  1   
 26  13  29  1   
 27  13  30  1   
 28  13  31  1   
 29  14  16  ar  
 30  15  17  ar  
 31  15  32  1   
 32  16  18  ar  
 33  16  33  1   
 34  17  18  ar  
 35  17  34  1   
 36  18  35  1   
@<TRIPOS>SUBSTRUCTURE
  1 ****   6 GROUP 4 **** **** 0

# MOE 2024.06 (io_trps.svl 2023.06)
