@<TRIPOS>MOLECULE
NONAME
28 28 1 0 0 
SMALL
USER_CHARGES


@<TRIPOS>ATOM
  1 BR      -0.1690    -0.4660     1.7490 Br    1 <1>  -0.1110 
  2 C       -1.9630    -0.5270     1.0340 C.ar  1 <1>   0.1110 
  3 C       -2.1620    -0.5720    -0.3380 C.ar  1 <1>  -0.1440 
  4 C       -3.0120    -0.5210     1.9350 C.ar  1 <1>  -0.1500 
  5 C       -3.4690    -0.6170    -0.7970 C.ar  1 <1>  -0.1500 
  6 C       -1.0000    -0.5700    -1.3180 C.3   1 <1>  -0.0960 
  7 C       -4.3060    -0.5640     1.4480 C.ar  1 <1>  -0.1500 
  8 C       -4.5520    -0.6140     0.0780 C.ar  1 <1>   0.1990 
  9 N       -5.8520    -0.6730    -0.4210 N.am  1 <1>  -0.6930 
 10 S       -6.5370     0.6250    -1.3480 S.o2  1 <1>   1.3330 
 11 C       -6.8110    -1.7080     0.1290 C.3   1 <1>   0.0900 
 12 O       -7.5930     0.0760    -2.1650 O.2   1 <1>  -0.6500 
 13 O       -5.4500     1.3240    -1.9970 O.2   1 <1>  -0.6500 
 14 C       -7.2380     1.7280    -0.1390 C.3   1 <1>  -0.1350 
 15 C       -7.8480    -1.2390     1.1600 C.2   1 <1>   0.9060 
 16 O       -7.5510    -0.3650     1.9860 O.co2 1 <1>  -0.9000 
 17 O       -8.9680    -1.7580     1.1490 O.co2 1 <1>  -0.9000 
 18 H       -2.8230    -0.4820     2.9920 H     1 <1>   0.1500 
 19 H       -3.6740    -0.6510    -1.8520 H     1 <1>   0.1500 
 20 H       -0.4110     0.3200    -1.1880 H     1 <1>   0.0800 
 21 H       -1.3560    -0.5950    -2.3330 H     1 <1>   0.0800 
 22 H       -0.3770    -1.4310    -1.1530 H     1 <1>   0.0800 
 23 H       -5.1340    -0.5520     2.1340 H     1 <1>   0.1500 
 24 H       -6.2500    -2.4980     0.5870 H     1 <1>   0.0800 
 25 H       -7.3570    -2.1350    -0.6920 H     1 <1>   0.0800 
 26 H       -8.1310     1.3060     0.2780 H     1 <1>   0.0800 
 27 H       -7.4890     2.6630    -0.5950 H     1 <1>   0.0800 
 28 H       -6.5380     1.8990     0.6550 H     1 <1>   0.0800 
@<TRIPOS>BOND
  1   1   2  1   
  2   2   3  ar  
  3   2   4  ar  
  4   3   5  ar  
  5   3   6  1   
  6   4   7  ar  
  7   4  18  1   
  8   5   8  ar  
  9   5  19  1   
 10   6  20  1   
 11   6  21  1   
 12   6  22  1   
 13   7   8  ar  
 14   7  23  1   
 15   8   9  1   
 16   9  10  am  
 17   9  11  1   
 18  10  12  2   
 19  10  13  2   
 20  10  14  1   
 21  11  15  1   
 22  11  24  1   
 23  11  25  1   
 24  14  26  1   
 25  14  27  1   
 26  14  28  1   
 27  15  16  ar  
 28  15  17  ar  
@<TRIPOS>SUBSTRUCTURE
  1 ****   8 GROUP 4 **** **** 0

# MOE 2024.06 (io_trps.svl 2023.06)
