@<TRIPOS>MOLECULE
NONAME
41 43 1 0 0 
SMALL
USER_CHARGES


@<TRIPOS>ATOM
  1 O        0.2380     0.5050     0.2490 O.3   1 <1>  -0.3630 
  2 C       -0.9770     1.0800     0.0770 C.ar  1 <1>   0.0830 
  3 C        1.4310     1.2090     0.0190 C.3   1 <1>   0.1200 
  4 C       -2.0820     0.3100     0.3240 C.ar  1 <1>  -0.1500 
  5 C       -1.1450     2.4150    -0.3400 C.ar  1 <1>  -0.1500 
  6 C        2.5840     0.2490     0.3080 C.3   1 <1>  -0.1600 
  7 C       -3.3870     0.8150     0.1730 C.ar  1 <1>   0.0000 
  8 C       -2.4030     2.9300    -0.4940 C.ar  1 <1>  -0.1500 
  9 C        3.9300     0.9290     0.0690 C.3   1 <1>   0.3430 
 10 C       -3.5520     2.1530    -0.2450 C.ar  1 <1>   0.0000 
 11 C       -4.5370     0.0370     0.4230 C.ar  1 <1>  -0.1500 
 12 N        5.0420     0.0070     0.4290 N.4   1 <1>  -0.9590 
 13 C       -4.8590     2.6590    -0.3960 C.ar  1 <1>  -0.1500 
 14 C       -5.7930     0.5550     0.2680 C.ar  1 <1>  -0.1500 
 15 C        6.3660     0.6740     0.4310 C.3   1 <1>   0.3430 
 16 C        5.1830    -1.1650    -0.4720 C.3   1 <1>   0.3430 
 17 C       -5.9560     1.8820    -0.1470 C.ar  1 <1>  -0.1500 
 18 C        7.3660    -0.4720     0.3620 C.3   1 <1>  -0.1600 
 19 C        6.6040    -1.6570    -0.2360 C.3   1 <1>  -0.1600 
 20 H        1.4530     2.0580     0.6820 H     1 <1>   0.0800 
 21 H        1.4380     1.5310    -1.0080 H     1 <1>   0.0800 
 22 H       -1.9580    -0.7080     0.6420 H     1 <1>   0.1500 
 23 H       -0.2980     3.0410    -0.5400 H     1 <1>   0.1500 
 24 H        2.4790    -0.6040    -0.3390 H     1 <1>   0.0800 
 25 H        2.5140    -0.0670     1.3340 H     1 <1>   0.0800 
 26 H       -2.5380     3.9480    -0.8110 H     1 <1>   0.1500 
 27 H        3.9870     1.8170     0.6790 H     1 <1>   0.0800 
 28 H        4.0150     1.2230    -0.9650 H     1 <1>   0.0800 
 29 H       -4.4050    -0.9810     0.7410 H     1 <1>   0.1500 
 30 H        4.8820    -0.3560     1.3790 H     1 <1>   0.4500 
 31 H       -4.9790     3.6790    -0.7140 H     1 <1>   0.1500 
 32 H       -6.6660    -0.0440     0.4600 H     1 <1>   0.1500 
 33 H        6.5110     1.2790     1.3130 H     1 <1>   0.0800 
 34 H        6.4670     1.2910    -0.4480 H     1 <1>   0.0800 
 35 H        5.0770    -0.8520    -1.4990 H     1 <1>   0.0800 
 36 H        4.4540    -1.9300    -0.2540 H     1 <1>   0.0800 
 37 H       -6.9510     2.2750    -0.2640 H     1 <1>   0.1500 
 38 H        7.7150    -0.7110     1.3520 H     1 <1>   0.0800 
 39 H        8.2150    -0.1950    -0.2400 H     1 <1>   0.0800 
 40 H        7.0440    -1.9890    -1.1610 H     1 <1>   0.0800 
 41 H        6.5950    -2.4850     0.4520 H     1 <1>   0.0800 
@<TRIPOS>BOND
  1   1   2  1   
  2   1   3  1   
  3   2   4  ar  
  4   2   5  ar  
  5   3   6  1   
  6   3  20  1   
  7   3  21  1   
  8   4   7  ar  
  9   4  22  1   
 10   5   8  ar  
 11   5  23  1   
 12   6   9  1   
 13   6  24  1   
 14   6  25  1   
 15   7  10  ar  
 16   7  11  ar  
 17   8  10  ar  
 18   8  26  1   
 19   9  12  1   
 20   9  27  1   
 21   9  28  1   
 22  10  13  ar  
 23  11  14  ar  
 24  11  29  1   
 25  12  15  1   
 26  12  16  1   
 27  12  30  1   
 28  13  17  ar  
 29  13  31  1   
 30  14  17  ar  
 31  14  32  1   
 32  15  18  1   
 33  15  33  1   
 34  15  34  1   
 35  16  19  1   
 36  16  35  1   
 37  16  36  1   
 38  17  37  1   
 39  18  19  1   
 40  18  38  1   
 41  18  39  1   
 42  19  40  1   
 43  19  41  1   
@<TRIPOS>SUBSTRUCTURE
  1 ****   1 GROUP 4 **** **** 0

# MOE 2024.06 (io_trps.svl 2023.06)
