@<TRIPOS>MOLECULE
NONAME
35 35 1 0 0 
SMALL
USER_CHARGES


@<TRIPOS>ATOM
  1 S        0.0810     0.0790     0.6020 S.3   1 <1>  -0.3710 
  2 C        1.8310     0.0300     0.3000 C.2   1 <1>   0.6410 
  3 C       -0.5810     1.4910    -0.4340 C.3   1 <1>  -0.0360 
  4 N        2.5390    -0.8530     0.8930 N.2   1 <1>  -0.6610 
  5 N        2.3010     0.9640    -0.5640 N.pl3 1 <1>  -0.5500 
  6 C       -2.0740     1.7060    -0.2890 C.2   1 <1>   0.9060 
  7 C        3.8750    -0.8350     0.6170 C.2   1 <1>   0.7670 
  8 C        3.6270     1.0360    -0.8800 C.2   1 <1>  -0.0380 
  9 O       -2.8310     1.1420    -1.0860 O.co2 1 <1>  -0.9000 
 10 O       -2.4730     2.5150     0.5550 O.co2 1 <1>  -0.9000 
 11 O        4.5730    -1.6660     1.1810 O.2   1 <1>  -0.5700 
 12 C        4.4450     0.1200    -0.2960 C.2   1 <1>  -0.1240 
 13 C        4.0110     2.1470    -1.8440 C.3   1 <1>  -0.1020 
 14 C        5.9510     0.0550    -0.5620 C.3   1 <1>  -0.0220 
 15 C        6.7150     0.9200     0.4520 C.3   1 <1>  -0.1600 
 16 C        8.2450     0.8480     0.2950 C.3   1 <1>  -0.0800 
 17 C        8.9160     1.6000     1.4500 C.3   1 <1>  -0.2400 
 18 C        8.7220     1.4350    -1.0400 C.3   1 <1>  -0.2400 
 19 H       -0.3670     1.2660    -1.4600 H     1 <1>   0.0800 
 20 H       -0.0780     2.3850    -0.1210 H     1 <1>   0.0800 
 21 H        1.6110     1.6050    -0.9550 H     1 <1>   0.4000 
 22 H        3.6100     1.9370    -2.8200 H     1 <1>   0.0800 
 23 H        5.0740     2.2620    -1.9280 H     1 <1>   0.0800 
 24 H        3.6080     3.0830    -1.5000 H     1 <1>   0.0800 
 25 H        6.1580     0.3780    -1.5640 H     1 <1>   0.0800 
 26 H        6.2930    -0.9640    -0.4940 H     1 <1>   0.0800 
 27 H        6.4550     0.5800     1.4400 H     1 <1>   0.0800 
 28 H        6.3910     1.9430     0.3670 H     1 <1>   0.0800 
 29 H        8.5500    -0.1850     0.3480 H     1 <1>   0.0800 
 30 H        8.6410     2.6390     1.4380 H     1 <1>   0.0800 
 31 H        9.9870     1.5270     1.3720 H     1 <1>   0.0800 
 32 H        8.6200     1.1760     2.3940 H     1 <1>   0.0800 
 33 H        8.3790     2.4490    -1.1530 H     1 <1>   0.0800 
 34 H        8.3630     0.8520    -1.8680 H     1 <1>   0.0800 
 35 H        9.7970     1.4330    -1.0820 H     1 <1>   0.0800 
@<TRIPOS>BOND
  1   1   2  1   
  2   1   3  1   
  3   2   4  2   
  4   2   5  1   
  5   3   6  1   
  6   3  19  1   
  7   3  20  1   
  8   4   7  1   
  9   5   8  1   
 10   5  21  1   
 11   6   9  ar  
 12   6  10  ar  
 13   7  11  2   
 14   7  12  1   
 15   8  12  2   
 16   8  13  1   
 17  12  14  1   
 18  13  22  1   
 19  13  23  1   
 20  13  24  1   
 21  14  15  1   
 22  14  25  1   
 23  14  26  1   
 24  15  16  1   
 25  15  27  1   
 26  15  28  1   
 27  16  17  1   
 28  16  18  1   
 29  16  29  1   
 30  17  30  1   
 31  17  31  1   
 32  17  32  1   
 33  18  33  1   
 34  18  34  1   
 35  18  35  1   
@<TRIPOS>SUBSTRUCTURE
  1 ****   8 GROUP 4 **** **** 0

# MOE 2024.06 (io_trps.svl 2023.06)
