@<TRIPOS>MOLECULE
NONAME
33 32 1 0 0 
SMALL
USER_CHARGES


@<TRIPOS>ATOM
  1 S       -0.0480    -0.0790    -0.0950 S.o2  1 <1>   1.3450 
  2 O        0.0400     1.3180     0.3950 O.co2 1 <1>  -0.8170 
  3 O        0.6710    -0.3370    -1.3630 O.co2 1 <1>  -0.8170 
  4 O        0.1760    -1.1010     0.9550 O.co2 1 <1>  -0.8170 
  5 C       -1.7800    -0.2920    -0.5200 C.3   1 <1>  -0.0550 
  6 C       -2.6640     0.0070     0.6850 C.3   1 <1>   0.1400 
  7 N       -3.9800    -0.6910     0.5520 N.am  1 <1>  -0.6600 
  8 C       -5.0660    -0.0580     0.0010 C.2   1 <1>   0.5690 
  9 C       -3.9730    -2.0820     1.0870 C.3   1 <1>   0.0600 
 10 O       -4.9830     1.0520    -0.4710 O.2   1 <1>  -0.5700 
 11 C       -6.4180    -0.7660    -0.0290 C.3   1 <1>  -0.0990 
 12 C       -7.6030     0.1360    -0.4210 C.3   1 <1>  -0.1600 
 13 C       -8.9280    -0.6370    -0.4020 C.3   1 <1>  -0.1600 
 14 C      -10.1000     0.2700    -0.7950 C.3   1 <1>  -0.1600 
 15 C      -11.4230    -0.4990    -0.7760 C.3   1 <1>  -0.2400 
 16 H       -1.9270    -1.3030    -0.8410 H     1 <1>   0.0800 
 17 H       -2.0410     0.3690    -1.3210 H     1 <1>   0.0800 
 18 H       -2.8030     1.0720     0.7680 H     1 <1>   0.0800 
 19 H       -2.1780    -0.3260     1.5860 H     1 <1>   0.0800 
 20 H       -4.1370    -2.0580     2.1510 H     1 <1>   0.0800 
 21 H       -3.0190    -2.5440     0.8970 H     1 <1>   0.0800 
 22 H       -4.7350    -2.6800     0.6220 H     1 <1>   0.0800 
 23 H       -6.6060    -1.1710     0.9480 H     1 <1>   0.0800 
 24 H       -6.3490    -1.5780    -0.7280 H     1 <1>   0.0800 
 25 H       -7.4320     0.5350    -1.4070 H     1 <1>   0.0800 
 26 H       -7.6570     0.9640     0.2650 H     1 <1>   0.0800 
 27 H       -9.1000    -1.0330     0.5840 H     1 <1>   0.0800 
 28 H       -8.8720    -1.4630    -1.0910 H     1 <1>   0.0800 
 29 H       -9.9340     0.6680    -1.7820 H     1 <1>   0.0800 
 30 H      -10.1610     1.0980    -0.1090 H     1 <1>   0.0800 
 31 H      -11.3920    -1.3190    -1.4730 H     1 <1>   0.0800 
 32 H      -12.2310     0.1540    -1.0540 H     1 <1>   0.0800 
 33 H      -11.6200    -0.8860     0.2080 H     1 <1>   0.0800 
@<TRIPOS>BOND
  1   1   2  ar  
  2   1   3  ar  
  3   1   4  ar  
  4   1   5  1   
  5   5   6  1   
  6   5  16  1   
  7   5  17  1   
  8   6   7  1   
  9   6  18  1   
 10   6  19  1   
 11   7   8  am  
 12   7   9  1   
 13   8  10  2   
 14   8  11  1   
 15   9  20  1   
 16   9  21  1   
 17   9  22  1   
 18  11  12  1   
 19  11  23  1   
 20  11  24  1   
 21  12  13  1   
 22  12  25  1   
 23  12  26  1   
 24  13  14  1   
 25  13  27  1   
 26  13  28  1   
 27  14  15  1   
 28  14  29  1   
 29  14  30  1   
 30  15  31  1   
 31  15  32  1   
 32  15  33  1   
@<TRIPOS>SUBSTRUCTURE
  1 ****   8 GROUP 4 **** **** 0

# MOE 2024.06 (io_trps.svl 2023.06)
