@<TRIPOS>MOLECULE
NONAME
27 28 1 0 0 
SMALL
USER_CHARGES


@<TRIPOS>ATOM
  1 O       -0.5790     0.5120     0.1340 O.3   1 <1>  -0.3630 
  2 C       -0.3520     1.8590     0.0960 C.ar  1 <1>   0.0830 
  3 C        0.4930    -0.4060     0.0990 C.3   1 <1>   0.0400 
  4 C       -1.4530     2.7190     0.1460 C.ar  1 <1>   0.0830 
  5 C        0.9310     2.3940     0.0090 C.ar  1 <1>  -0.1500 
  6 O       -2.7000     2.1670     0.2310 O.3   1 <1>  -0.3630 
  7 C       -1.2460     4.0950     0.1090 C.ar  1 <1>  -0.1500 
  8 C        1.1360     3.7670    -0.0280 C.ar  1 <1>  -0.1430 
  9 C       -3.8610     2.9630     0.2890 C.3   1 <1>   0.0400 
 10 C        0.0370     4.6090     0.0230 C.ar  1 <1>  -0.1500 
 11 C        2.5410     4.3750    -0.1240 C.3   1 <1>   0.1510 
 12 C        3.6870     3.3820    -0.1450 C.2   1 <1>   0.5700 
 13 N        4.1670     2.8750    -1.2250 N.2   1 <1>  -0.6190 
 14 N        4.2790     2.9540     0.9190 N.2   1 <1>  -0.6190 
 15 N        5.1050     2.0840    -0.8350 N.2   1 <1>  -0.2500 
 16 N        5.1720     2.1310     0.4660 N.2   1 <1>  -0.2500 
 17 H        0.0860    -1.3990     0.1450 H     1 <1>   0.0800 
 18 H        1.1320    -0.2310     0.9470 H     1 <1>   0.0800 
 19 H        1.0360    -0.2740    -0.8210 H     1 <1>   0.0800 
 20 H        1.7870     1.7450    -0.0310 H     1 <1>   0.1500 
 21 H       -2.0670     4.7830     0.1460 H     1 <1>   0.1500 
 22 H       -4.7100     2.3070     0.3520 H     1 <1>   0.0800 
 23 H       -3.9220     3.5550    -0.6070 H     1 <1>   0.0800 
 24 H       -3.8140     3.5850     1.1640 H     1 <1>   0.0800 
 25 H        0.1770     5.6760    -0.0040 H     1 <1>   0.1500 
 26 H        2.6980     5.0280     0.7130 H     1 <1>   0.0800 
 27 H        2.6080     4.9620    -1.0200 H     1 <1>   0.0800 
@<TRIPOS>BOND
  1   1   2  1   
  2   1   3  1   
  3   2   4  ar  
  4   2   5  ar  
  5   3  17  1   
  6   3  18  1   
  7   3  19  1   
  8   4   6  1   
  9   4   7  ar  
 10   5   8  ar  
 11   5  20  1   
 12   6   9  1   
 13   7  10  ar  
 14   7  21  1   
 15   8  10  ar  
 16   8  11  1   
 17   9  22  1   
 18   9  23  1   
 19   9  24  1   
 20  10  25  1   
 21  11  12  1   
 22  11  26  1   
 23  11  27  1   
 24  12  13  1   
 25  12  14  2   
 26  13  15  1   
 27  14  16  1   
 28  15  16  2   
@<TRIPOS>SUBSTRUCTURE
  1 ****   5 GROUP 4 **** **** 0

# MOE 2024.06 (io_trps.svl 2023.06)
