@<TRIPOS>MOLECULE
NONAME
37 38 1 0 0 
SMALL
USER_CHARGES


@<TRIPOS>ATOM
  1 CL      -2.8630     0.3220     2.3670 Cl    1 <1>  -0.1770 
  2 C       -2.3810     1.5830     1.2580 C.ar  1 <1>   0.1770 
  3 C       -2.6410     1.4360    -0.0940 C.ar  1 <1>  -0.1440 
  4 C       -1.7570     2.7120     1.7590 C.ar  1 <1>  -0.1500 
  5 C       -2.2610     2.4640    -0.9400 C.ar  1 <1>   0.1770 
  6 C       -3.3120     0.1860    -0.6230 C.3   1 <1>   0.4870 
  7 C       -1.3800     3.7260     0.8940 C.ar  1 <1>  -0.1500 
  8 CL      -2.5930     2.3390    -2.6490 Cl    1 <1>  -0.1770 
  9 C       -1.6350     3.6020    -0.4630 C.ar  1 <1>  -0.1500 
 10 N       -4.7640     0.2360    -0.3190 N.4   1 <1>  -0.9590 
 11 C       -5.4720    -1.0650    -0.5490 C.3   1 <1>   0.3430 
 12 C       -5.4980     1.3670    -0.9800 C.3   1 <1>   0.3430 
 13 C       -6.9700    -0.9720    -0.1620 C.3   1 <1>   0.1100 
 14 C       -6.9590     1.4460    -0.4760 C.3   1 <1>   0.1100 
 15 N       -7.3150     0.3340     0.4470 N.3   1 <1>  -0.8100 
 16 C       -8.7620     0.3950     0.8160 C.3   1 <1>   0.1710 
 17 C       -9.1930     1.7050     1.4880 C.2   1 <1>   0.5690 
 18 O       -9.7220     2.5620     0.8280 O.2   1 <1>  -0.5700 
 19 N       -8.9610     1.9090     2.8000 N.am  1 <1>  -0.8000 
 20 H       -1.5660     2.7960     2.8160 H     1 <1>   0.1500 
 21 H       -2.8700    -0.6750    -0.1480 H     1 <1>   0.0800 
 22 H       -3.1580     0.0990    -1.6860 H     1 <1>   0.0800 
 23 H       -0.8900     4.6090     1.2740 H     1 <1>   0.1500 
 24 H       -1.3480     4.3840    -1.1460 H     1 <1>   0.1500 
 25 H       -4.8860     0.4150     0.6910 H     1 <1>   0.4500 
 26 H       -5.0110    -1.8390     0.0420 H     1 <1>   0.0800 
 27 H       -5.3940    -1.3520    -1.5850 H     1 <1>   0.0800 
 28 H       -5.4970     1.2330    -2.0490 H     1 <1>   0.0800 
 29 H       -5.0090     2.3030    -0.7680 H     1 <1>   0.0800 
 30 H       -7.1990    -1.7630     0.5310 H     1 <1>   0.0800 
 31 H       -7.5700    -1.1320    -1.0430 H     1 <1>   0.0800 
 32 H       -7.6230     1.4500    -1.3250 H     1 <1>   0.0800 
 33 H       -7.0890     2.3880     0.0300 H     1 <1>   0.0800 
 34 H       -8.9890    -0.4120     1.4900 H     1 <1>   0.0800 
 35 H       -9.3660     0.2630    -0.0650 H     1 <1>   0.0800 
 36 H       -9.2510     2.7890     3.2290 H     1 <1>   0.3700 
 37 H       -8.4620     1.2520     3.3990 H     1 <1>   0.3700 
@<TRIPOS>BOND
  1   1   2  1   
  2   2   3  ar  
  3   2   4  ar  
  4   3   5  ar  
  5   3   6  1   
  6   4   7  ar  
  7   4  20  1   
  8   5   8  1   
  9   5   9  ar  
 10   6  10  1   
 11   6  21  1   
 12   6  22  1   
 13   7   9  ar  
 14   7  23  1   
 15   9  24  1   
 16  10  11  1   
 17  10  12  1   
 18  10  25  1   
 19  11  13  1   
 20  11  26  1   
 21  11  27  1   
 22  12  14  1   
 23  12  28  1   
 24  12  29  1   
 25  13  15  1   
 26  13  30  1   
 27  13  31  1   
 28  14  15  1   
 29  14  32  1   
 30  14  33  1   
 31  15  16  1   
 32  16  17  1   
 33  16  34  1   
 34  16  35  1   
 35  17  18  2   
 36  17  19  am  
 37  19  36  1   
 38  19  37  1   
@<TRIPOS>SUBSTRUCTURE
  1 ****  10 GROUP 4 **** **** 0

# MOE 2024.06 (io_trps.svl 2023.06)
