@<TRIPOS>MOLECULE
NONAME
40 41 1 0 0 
SMALL
USER_CHARGES


@<TRIPOS>ATOM
  1 O        2.0170    -0.2980     1.4890 O.co2 1 <1>  -0.9000 
  2 C        2.5890    -1.3400     1.8180 C.2   1 <1>   0.9060 
  3 O        3.6790    -1.3150     2.4070 O.co2 1 <1>  -0.9000 
  4 C        1.9620    -2.6900     1.4800 C.3   1 <1>  -0.1860 
  5 C        2.9930    -3.8320     1.2850 C.3   1 <1>  -0.0190 
  6 C        1.0380    -2.6000     0.2530 C.3   1 <1>  -0.0220 
  7 C        3.9800    -3.5840     0.1320 C.2   1 <1>   0.5690 
  8 C        2.2450    -5.1740     1.1660 C.3   1 <1>  -0.0220 
  9 C        0.5010    -3.9630    -0.1860 C.2   1 <1>  -0.2760 
 10 O        4.0260    -4.3060    -0.8400 O.2   1 <1>  -0.5700 
 11 N        4.8360    -2.5470     0.2620 N.am  1 <1>  -0.7300 
 12 C        1.0300    -5.1210     0.2380 C.2   1 <1>  -0.2760 
 13 C       -0.6670    -3.7940    -1.1510 C.3   1 <1>  -0.1020 
 14 C        5.7390    -2.0310    -0.7680 C.3   1 <1>   0.2840 
 15 C        0.5480    -6.5240    -0.1120 C.3   1 <1>  -0.1020 
 16 C        7.1520    -2.5040    -0.4740 C.ar  1 <1>  -0.1440 
 17 C        8.0860    -1.7060     0.1540 C.ar  1 <1>  -0.1500 
 18 C        7.5660    -3.7740    -0.8200 C.ar  1 <1>  -0.1500 
 19 C        9.3600    -2.1990     0.3830 C.ar  1 <1>   0.1600 
 20 C        8.8640    -4.1690    -0.5450 C.ar  1 <1>   0.1600 
 21 N        9.7760    -3.4090     0.0430 N.ar  1 <1>  -0.6200 
 22 H        1.3520    -2.9400     2.3260 H     1 <1>   0.0800 
 23 H        3.5930    -3.8890     2.1760 H     1 <1>   0.0800 
 24 H        1.5730    -2.1520    -0.5670 H     1 <1>   0.0800 
 25 H        0.2190    -1.9470     0.5010 H     1 <1>   0.0800 
 26 H        1.9040    -5.4660     2.1430 H     1 <1>   0.0800 
 27 H        2.9350    -5.9270     0.8280 H     1 <1>   0.0800 
 28 H        4.7050    -1.9420     1.1010 H     1 <1>   0.3700 
 29 H       -1.4950    -3.3330    -0.6420 H     1 <1>   0.0800 
 30 H       -1.0010    -4.7230    -1.5670 H     1 <1>   0.0800 
 31 H       -0.3700    -3.1610    -1.9670 H     1 <1>   0.0800 
 32 H        5.6900    -0.9560    -0.7690 H     1 <1>   0.0800 
 33 H        5.4270    -2.3860    -1.7350 H     1 <1>   0.0800 
 34 H        0.3770    -7.0850     0.7890 H     1 <1>   0.0800 
 35 H        1.3000    -7.0280    -0.6940 H     1 <1>   0.0800 
 36 H       -0.3640    -6.5220    -0.6710 H     1 <1>   0.0800 
 37 H        7.8280    -0.7110     0.4700 H     1 <1>   0.1500 
 38 H        6.8780    -4.4530    -1.2930 H     1 <1>   0.1500 
 39 H       10.0750    -1.5620     0.8750 H     1 <1>   0.1500 
 40 H        9.1650    -5.1640    -0.8220 H     1 <1>   0.1500 
@<TRIPOS>BOND
  1   1   2  ar  
  2   2   3  ar  
  3   2   4  1   
  4   4   5  1   
  5   4   6  1   
  6   4  22  1   
  7   5   7  1   
  8   5   8  1   
  9   5  23  1   
 10   6   9  1   
 11   6  24  1   
 12   6  25  1   
 13   7  10  2   
 14   7  11  am  
 15   8  12  1   
 16   8  26  1   
 17   8  27  1   
 18   9  12  2   
 19   9  13  1   
 20  11  14  1   
 21  11  28  1   
 22  12  15  1   
 23  13  29  1   
 24  13  30  1   
 25  13  31  1   
 26  14  16  1   
 27  14  32  1   
 28  14  33  1   
 29  15  34  1   
 30  15  35  1   
 31  15  36  1   
 32  16  17  ar  
 33  16  18  ar  
 34  17  19  ar  
 35  17  37  1   
 36  18  20  ar  
 37  18  38  1   
 38  19  21  ar  
 39  19  39  1   
 40  20  21  ar  
 41  20  40  1   
@<TRIPOS>SUBSTRUCTURE
  1 ****   7 GROUP 4 **** **** 0

# MOE 2024.06 (io_trps.svl 2023.06)
