@<TRIPOS>MOLECULE
NONAME
34 34 1 0 0 
SMALL
USER_CHARGES


@<TRIPOS>ATOM
  1 S       -0.0980     0.1240     1.2710 S.3   1 <1>  -0.3320 
  2 C       -1.4560     1.1580     0.6910 C.ar  1 <1>   0.4120 
  3 C        1.3900     0.4480     0.2270 C.3   1 <1>   0.0700 
  4 N       -2.5950     0.4960     0.7340 N.ar  1 <1>  -0.6200 
  5 C       -1.3020     2.4800     0.2610 C.ar  1 <1>   0.0860 
  6 C        2.2650    -0.8020     0.2700 C.3   1 <1>  -0.2400 
  7 C       -3.6680     1.1440     0.3330 C.ar  1 <1>   0.1670 
  8 C       -2.4570     3.1610    -0.1400 C.ar  1 <1>  -0.1440 
  9 C       -0.0100     3.1220     0.2350 C.2   1 <1>   0.5440 
 10 C       -3.6630     2.4660    -0.1160 C.ar  1 <1>  -0.1440 
 11 C       -4.9370     0.3080     0.3980 C.3   1 <1>  -0.0970 
 12 C       -2.3730     4.6280    -0.5800 C.3   1 <1>  -0.0970 
 13 O        0.5640     3.4650     1.2430 O.2   1 <1>  -0.5700 
 14 N        0.6100     3.4020    -0.9370 N.am  1 <1>  -0.8000 
 15 C       -4.9690     3.1290    -0.5770 C.3   1 <1>  -0.0170 
 16 C       -5.6820     3.8280     0.5870 C.3   1 <1>  -0.2400 
 17 H        1.9030     1.2970     0.6430 H     1 <1>   0.0800 
 18 H        1.0490     0.6540    -0.7720 H     1 <1>   0.0800 
 19 H        2.5630    -1.0070     1.2830 H     1 <1>   0.0800 
 20 H        3.1460    -0.6550    -0.3270 H     1 <1>   0.0800 
 21 H        1.7210    -1.6480    -0.1120 H     1 <1>   0.0800 
 22 H       -4.7640    -0.5910     0.9630 H     1 <1>   0.0800 
 23 H       -5.2390     0.0290    -0.5940 H     1 <1>   0.0800 
 24 H       -5.7290     0.8480     0.8780 H     1 <1>   0.0800 
 25 H       -2.2500     4.6850    -1.6460 H     1 <1>   0.0800 
 26 H       -1.5510     5.1370    -0.1100 H     1 <1>   0.0800 
 27 H       -3.2550     5.1750    -0.3060 H     1 <1>   0.0800 
 28 H        1.4940     3.9140    -0.9160 H     1 <1>   0.3700 
 29 H        0.1980     3.2240    -1.8520 H     1 <1>   0.3700 
 30 H       -5.6300     2.4010    -1.0110 H     1 <1>   0.0800 
 31 H       -4.7740     3.8400    -1.3590 H     1 <1>   0.0800 
 32 H       -5.9320     3.1220     1.3570 H     1 <1>   0.0800 
 33 H       -6.5870     4.2930     0.2400 H     1 <1>   0.0800 
 34 H       -5.0520     4.5840     1.0200 H     1 <1>   0.0800 
@<TRIPOS>BOND
  1   1   2  1   
  2   1   3  1   
  3   2   4  ar  
  4   2   5  ar  
  5   3   6  1   
  6   3  17  1   
  7   3  18  1   
  8   4   7  ar  
  9   5   8  ar  
 10   5   9  1   
 11   6  19  1   
 12   6  20  1   
 13   6  21  1   
 14   7  10  ar  
 15   7  11  1   
 16   8  10  ar  
 17   8  12  1   
 18   9  13  2   
 19   9  14  am  
 20  10  15  1   
 21  11  22  1   
 22  11  23  1   
 23  11  24  1   
 24  12  25  1   
 25  12  26  1   
 26  12  27  1   
 27  14  28  1   
 28  14  29  1   
 29  15  16  1   
 30  15  30  1   
 31  15  31  1   
 32  16  32  1   
 33  16  33  1   
 34  16  34  1   
@<TRIPOS>SUBSTRUCTURE
  1 ****   5 GROUP 4 **** **** 0

# MOE 2024.06 (io_trps.svl 2023.06)
