@<TRIPOS>MOLECULE
NONAME
44 45 1 0 0 
SMALL
USER_CHARGES


@<TRIPOS>ATOM
  1 S       -0.1220     0.0770    -0.4440 S.o2  1 <1>   1.3330 
  2 O        0.3810    -0.6900     0.6740 O.2   1 <1>  -0.6500 
  3 O        0.1860    -0.3340    -1.7960 O.2   1 <1>  -0.6500 
  4 N       -1.8100     0.1320    -0.2990 N.am  1 <1>  -0.8490 
  5 C        0.3530     1.7990    -0.2590 C.3   1 <1>  -0.0550 
  6 C       -2.4410    -0.9740    -1.0380 C.3   1 <1>   0.1960 
  7 C       -2.2650     0.1530     1.0920 C.3   1 <1>   0.1960 
  8 C        1.8680     2.0380    -0.3630 C.3   1 <1>  -0.1600 
  9 C       -3.9430    -1.1100    -0.7330 C.3   1 <1>  -0.1600 
 10 C       -3.7480     0.5500     1.1510 C.3   1 <1>  -0.1600 
 11 C        2.2110     3.5220    -0.1970 C.3   1 <1>  -0.2400 
 12 C       -4.5310     0.1760    -0.1270 C.3   1 <1>  -0.0190 
 13 C       -6.0300     0.0560     0.1390 C.2   1 <1>   0.5690 
 14 O       -6.4210    -0.8320     0.8560 O.2   1 <1>  -0.5700 
 15 N       -6.8540     0.9780    -0.4490 N.am  1 <1>  -0.5470 
 16 C       -8.2490     1.1420    -0.4180 C.ar  1 <1>   0.1170 
 17 C       -8.7790     2.3550    -0.8390 C.ar  1 <1>  -0.1500 
 18 C       -9.1320     0.1480     0.0000 C.ar  1 <1>  -0.1500 
 19 C      -10.1440     2.5670    -0.8370 C.ar  1 <1>   0.0820 
 20 C      -10.5000     0.3610     0.0030 C.ar  1 <1>  -0.1500 
 21 O      -10.6220     3.7510    -1.2490 O.3   1 <1>  -0.5330 
 22 C      -11.0140     1.5750    -0.4160 C.ar  1 <1>  -0.1500 
 23 H        0.0140     2.1550     0.6930 H     1 <1>   0.0800 
 24 H       -0.1410     2.3740    -1.0190 H     1 <1>   0.0800 
 25 H       -1.9460    -1.9030    -0.8030 H     1 <1>   0.0800 
 26 H       -2.3120    -0.7940    -2.0930 H     1 <1>   0.0800 
 27 H       -1.6870     0.8520     1.6710 H     1 <1>   0.0800 
 28 H       -2.1280    -0.8260     1.5260 H     1 <1>   0.0800 
 29 H        2.2180     1.6950    -1.3230 H     1 <1>   0.0800 
 30 H        2.3740     1.4650     0.3970 H     1 <1>   0.0800 
 31 H       -4.0830    -1.9220    -0.0390 H     1 <1>   0.0800 
 32 H       -4.4670    -1.3720    -1.6340 H     1 <1>   0.0800 
 33 H       -3.8270     1.6100     1.3150 H     1 <1>   0.0800 
 34 H       -4.1840     0.0650     2.0070 H     1 <1>   0.0800 
 35 H        1.7340     4.1090    -0.9620 H     1 <1>   0.0800 
 36 H        3.2750     3.6630    -0.2750 H     1 <1>   0.0800 
 37 H        1.8920     3.8790     0.7670 H     1 <1>   0.0800 
 38 H       -4.3750     0.9600    -0.8470 H     1 <1>   0.0800 
 39 H       -6.3710     1.6980    -0.9820 H     1 <1>   0.3700 
 40 H       -8.1360     3.1480    -1.1690 H     1 <1>   0.1500 
 41 H       -8.7580    -0.8060     0.3250 H     1 <1>   0.1500 
 42 H      -11.1620    -0.4210     0.3330 H     1 <1>   0.1500 
 43 H      -11.5920     3.8070    -1.2050 H     1 <1>   0.4500 
 44 H      -12.0760     1.7380    -0.4130 H     1 <1>   0.1500 
@<TRIPOS>BOND
  1   1   2  2   
  2   1   3  2   
  3   1   4  am  
  4   1   5  1   
  5   4   6  1   
  6   4   7  1   
  7   5   8  1   
  8   5  23  1   
  9   5  24  1   
 10   6   9  1   
 11   6  25  1   
 12   6  26  1   
 13   7  10  1   
 14   7  27  1   
 15   7  28  1   
 16   8  11  1   
 17   8  29  1   
 18   8  30  1   
 19   9  12  1   
 20   9  31  1   
 21   9  32  1   
 22  10  12  1   
 23  10  33  1   
 24  10  34  1   
 25  11  35  1   
 26  11  36  1   
 27  11  37  1   
 28  12  13  1   
 29  12  38  1   
 30  13  14  2   
 31  13  15  am  
 32  15  16  1   
 33  15  39  1   
 34  16  17  ar  
 35  16  18  ar  
 36  17  19  ar  
 37  17  40  1   
 38  18  20  ar  
 39  18  41  1   
 40  19  21  1   
 41  19  22  ar  
 42  20  22  ar  
 43  20  42  1   
 44  21  43  1   
 45  22  44  1   
@<TRIPOS>SUBSTRUCTURE
  1 ****  12 GROUP 4 **** **** 0

# MOE 2024.06 (io_trps.svl 2023.06)
