@<TRIPOS>MOLECULE
NONAME
34 35 1 0 0 
SMALL
USER_CHARGES


@<TRIPOS>ATOM
  1 CL      -0.1620    -0.1860     0.8080 Cl    1 <1>  -0.1770 
  2 C       -0.4740     1.5320     0.7570 C.ar  1 <1>   0.1770 
  3 C       -1.7770     1.9770     0.6440 C.ar  1 <1>  -0.1500 
  4 C        0.5900     2.4110     0.8330 C.ar  1 <1>  -0.1500 
  5 C       -2.0350     3.3400     0.6050 C.ar  1 <1>   0.1990 
  6 C        0.3440     3.7750     0.7930 C.ar  1 <1>  -0.1500 
  7 N       -3.3300     3.8290     0.5050 N.am  1 <1>  -0.7570 
  8 C       -0.9590     4.2320     0.6730 C.ar  1 <1>   0.0830 
  9 S       -4.2890     3.5870    -0.8800 S.o2  1 <1>   1.5760 
 10 O       -1.1970     5.5680     0.6300 O.3   1 <1>  -0.3630 
 11 O       -3.9310     4.6420    -1.7950 O.2   1 <1>  -0.6500 
 12 O       -4.2580     2.1920    -1.2420 O.2   1 <1>  -0.6500 
 13 N       -5.7820     3.9460    -0.1930 N.am  1 <1>  -0.8490 
 14 C       -0.9560     6.1860    -0.6160 C.3   1 <1>   0.0400 
 15 C       -6.2570     2.8750     0.6990 C.3   1 <1>   0.1960 
 16 C       -6.7940     4.2020    -1.2260 C.3   1 <1>   0.1960 
 17 C       -7.6370     3.2220     1.2880 C.3   1 <1>   0.1200 
 18 C       -8.1640     4.5110    -0.5960 C.3   1 <1>   0.1200 
 19 O       -8.5560     3.4770     0.2630 O.3   1 <1>  -0.5600 
 20 H       -2.5830     1.2700     0.5880 H     1 <1>   0.1500 
 21 H        1.5930     2.0330     0.9240 H     1 <1>   0.1500 
 22 H        1.1550     4.4780     0.8560 H     1 <1>   0.1500 
 23 H       -3.3720     4.8250     0.6960 H     1 <1>   0.4200 
 24 H       -1.2330     7.2220    -0.5380 H     1 <1>   0.0800 
 25 H       -1.5540     5.7030    -1.3700 H     1 <1>   0.0800 
 26 H        0.0890     6.1010    -0.8550 H     1 <1>   0.0800 
 27 H       -5.5570     2.7360     1.5050 H     1 <1>   0.0800 
 28 H       -6.3350     1.9450     0.1610 H     1 <1>   0.0800 
 29 H       -6.8880     3.3450    -1.8740 H     1 <1>   0.0800 
 30 H       -6.4900     5.0430    -1.8280 H     1 <1>   0.0800 
 31 H       -7.5710     4.0910     1.9180 H     1 <1>   0.0800 
 32 H       -8.0120     2.3980     1.8690 H     1 <1>   0.0800 
 33 H       -8.9140     4.6050    -1.3600 H     1 <1>   0.0800 
 34 H       -8.1220     5.4280    -0.0340 H     1 <1>   0.0800 
@<TRIPOS>BOND
  1   1   2  1   
  2   2   3  ar  
  3   2   4  ar  
  4   3   5  ar  
  5   3  20  1   
  6   4   6  ar  
  7   4  21  1   
  8   5   7  1   
  9   5   8  ar  
 10   6   8  ar  
 11   6  22  1   
 12   7   9  am  
 13   7  23  1   
 14   8  10  1   
 15   9  11  2   
 16   9  12  2   
 17   9  13  am  
 18  10  14  1   
 19  13  15  1   
 20  13  16  1   
 21  14  24  1   
 22  14  25  1   
 23  14  26  1   
 24  15  17  1   
 25  15  27  1   
 26  15  28  1   
 27  16  18  1   
 28  16  29  1   
 29  16  30  1   
 30  17  19  1   
 31  17  31  1   
 32  17  32  1   
 33  18  19  1   
 34  18  33  1   
 35  18  34  1   
@<TRIPOS>SUBSTRUCTURE
  1 ****   7 GROUP 4 **** **** 0

# MOE 2024.06 (io_trps.svl 2023.06)
