@<TRIPOS>MOLECULE
NONAME
41 43 1 0 0 
SMALL
USER_CHARGES


@<TRIPOS>ATOM
  1 CL      -0.0680     0.8930    -2.3890 Cl    1 <1>  -0.1240 
  2 C       -1.6070     1.0480    -1.5910 C.2   1 <1>   0.1640 
  3 S       -2.9800     0.3100    -2.3720 S.3   1 <1>  -0.0800 
  4 C       -1.9500     1.6510    -0.4410 C.2   1 <1>  -0.1500 
  5 C       -4.0690     0.8440    -1.0780 C.2   1 <1>  -0.0450 
  6 C       -3.3430     1.5360    -0.1540 C.2   1 <1>  -0.1500 
  7 C       -5.4670     0.5030    -1.1690 C.2   1 <1>   0.7150 
  8 O       -5.9190    -0.0540    -2.1500 O.2   1 <1>  -0.5700 
  9 N       -6.2880     0.8090    -0.1090 N.am  1 <1>  -0.5470 
 10 C       -7.6730     0.6690     0.0620 C.ar  1 <1>   0.1170 
 11 C       -8.1820     0.5940     1.3520 C.ar  1 <1>  -0.1500 
 12 C       -8.5730     0.6190    -0.9960 C.ar  1 <1>  -0.1500 
 13 C       -9.5420     0.4680     1.5760 C.ar  1 <1>  -0.1500 
 14 C       -9.9320     0.4910    -0.7680 C.ar  1 <1>  -0.1500 
 15 C      -10.4460     0.4160     0.5210 C.ar  1 <1>  -0.0090 
 16 S      -12.2290     0.2440     0.8120 S.o2  1 <1>   1.4470 
 17 O      -12.5470     0.6560     2.1640 O.2   1 <1>  -0.6500 
 18 O      -12.6590    -1.0580     0.3520 O.2   1 <1>  -0.6500 
 19 N      -12.9080     1.4010    -0.2260 N.am  1 <1>  -0.8490 
 20 C      -12.6750     2.7700     0.2490 C.3   1 <1>   0.1960 
 21 C      -14.3380     1.1560    -0.4350 C.3   1 <1>   0.1960 
 22 C      -13.1580     3.7820    -0.7950 C.3   1 <1>  -0.1600 
 23 C      -14.8940     2.1150    -1.4940 C.3   1 <1>  -0.1600 
 24 C      -14.6430     3.5790    -1.1160 C.3   1 <1>  -0.1600 
 25 H       -1.2710     2.1730     0.2100 H     1 <1>   0.1500 
 26 H       -3.7400     1.9850     0.7390 H     1 <1>   0.1500 
 27 H       -5.7870     1.1260     0.7140 H     1 <1>   0.3700 
 28 H       -7.5140     0.6280     2.1940 H     1 <1>   0.1500 
 29 H       -8.2210     0.6810    -2.0100 H     1 <1>   0.1500 
 30 H       -9.9110     0.4080     2.5860 H     1 <1>   0.1500 
 31 H      -10.6090     0.4480    -1.6050 H     1 <1>   0.1500 
 32 H      -11.6220     2.9230     0.4200 H     1 <1>   0.0800 
 33 H      -13.1940     2.9310     1.1800 H     1 <1>   0.0800 
 34 H      -14.8690     1.2780     0.4950 H     1 <1>   0.0800 
 35 H      -14.4890     0.1450    -0.7770 H     1 <1>   0.0800 
 36 H      -12.5720     3.6650    -1.6890 H     1 <1>   0.0800 
 37 H      -13.0010     4.7790    -0.4250 H     1 <1>   0.0800 
 38 H      -15.9500     1.9450    -1.6080 H     1 <1>   0.0800 
 39 H      -14.4220     1.8960    -2.4360 H     1 <1>   0.0800 
 40 H      -14.9380     4.2250    -1.9260 H     1 <1>   0.0800 
 41 H      -15.2350     3.8320    -0.2530 H     1 <1>   0.0800 
@<TRIPOS>BOND
  1   1   2  1   
  2   2   3  1   
  3   2   4  2   
  4   3   5  1   
  5   4   6  1   
  6   4  25  1   
  7   5   6  2   
  8   5   7  1   
  9   6  26  1   
 10   7   8  2   
 11   7   9  am  
 12   9  10  1   
 13   9  27  1   
 14  10  11  ar  
 15  10  12  ar  
 16  11  13  ar  
 17  11  28  1   
 18  12  14  ar  
 19  12  29  1   
 20  13  15  ar  
 21  13  30  1   
 22  14  15  ar  
 23  14  31  1   
 24  15  16  1   
 25  16  17  2   
 26  16  18  2   
 27  16  19  am  
 28  19  20  1   
 29  19  21  1   
 30  20  22  1   
 31  20  32  1   
 32  20  33  1   
 33  21  23  1   
 34  21  34  1   
 35  21  35  1   
 36  22  24  1   
 37  22  36  1   
 38  22  37  1   
 39  23  24  1   
 40  23  38  1   
 41  23  39  1   
 42  24  40  1   
 43  24  41  1   
@<TRIPOS>SUBSTRUCTURE
  1 ****  12 GROUP 4 **** **** 0

# MOE 2024.06 (io_trps.svl 2023.06)
