@<TRIPOS>MOLECULE
NONAME
31 32 1 0 0 
SMALL
USER_CHARGES


@<TRIPOS>ATOM
  1 BR      -0.3130     0.4700     0.8750 Br    1 <1>  -0.1110 
  2 C       -2.1950     0.5620     0.4740 C.ar  1 <1>   0.1110 
  3 C       -2.6160     0.5380    -0.8420 C.ar  1 <1>   0.1600 
  4 C       -3.0980     0.6510     1.5100 C.ar  1 <1>  -0.1500 
  5 N       -3.8880     0.5950    -1.2060 N.ar  1 <1>  -0.6200 
  6 C       -4.4220     0.7140     1.1310 C.ar  1 <1>  -0.1500 
  7 C       -4.7780     0.6800    -0.2200 C.ar  1 <1>   0.4270 
  8 N       -6.0920     0.7540    -0.6310 N.am  1 <1>  -0.5470 
  9 C       -7.2390     0.3200    -0.0370 C.2   1 <1>   0.5690 
 10 O       -7.2170    -0.2740     1.0180 O.2   1 <1>  -0.5700 
 11 C       -8.5720     0.5400    -0.7770 C.3   1 <1>  -0.0190 
 12 C       -8.9620     2.0360    -0.9390 C.3   1 <1>  -0.1860 
 13 C       -9.7530    -0.2210    -0.1270 C.3   1 <1>  -0.0220 
 14 C       -7.9870     2.8360    -1.7910 C.2   1 <1>   0.9060 
 15 C       -9.2000     2.6930     0.4360 C.3   1 <1>  -0.0220 
 16 C      -10.3360     0.5310     1.0620 C.2   1 <1>  -0.2880 
 17 O       -7.9330     4.0610    -1.6650 O.co2 1 <1>  -0.9000 
 18 O       -7.2680     2.2280    -2.5930 O.co2 1 <1>  -0.9000 
 19 C      -10.0790     1.8180     1.3170 C.2   1 <1>  -0.2880 
 20 H       -1.8810     0.4710    -1.6230 H     1 <1>   0.1500 
 21 H       -2.7870     0.6730     2.5380 H     1 <1>   0.1500 
 22 H       -5.1900     0.7960     1.8760 H     1 <1>   0.1500 
 23 H       -6.2270     1.2330    -1.5420 H     1 <1>   0.3700 
 24 H       -8.4390     0.1220    -1.7590 H     1 <1>   0.0800 
 25 H       -9.8910     2.0730    -1.4740 H     1 <1>   0.0800 
 26 H       -9.4290    -1.1990     0.1820 H     1 <1>   0.0800 
 27 H      -10.5320    -0.3530    -0.8560 H     1 <1>   0.0800 
 28 H       -9.6740     3.6480     0.2860 H     1 <1>   0.0800 
 29 H       -8.2590     2.8680     0.9290 H     1 <1>   0.0800 
 30 H      -10.9710    -0.0760     1.6820 H     1 <1>   0.1500 
 31 H      -10.4730     2.3390     2.1710 H     1 <1>   0.1500 
@<TRIPOS>BOND
  1   1   2  1   
  2   2   3  ar  
  3   2   4  ar  
  4   3   5  ar  
  5   3  20  1   
  6   4   6  ar  
  7   4  21  1   
  8   5   7  ar  
  9   6   7  ar  
 10   6  22  1   
 11   7   8  1   
 12   8   9  am  
 13   8  23  1   
 14   9  10  2   
 15   9  11  1   
 16  11  12  1   
 17  11  13  1   
 18  11  24  1   
 19  12  14  1   
 20  12  15  1   
 21  12  25  1   
 22  13  16  1   
 23  13  26  1   
 24  13  27  1   
 25  14  17  ar  
 26  14  18  ar  
 27  15  19  1   
 28  15  28  1   
 29  15  29  1   
 30  16  19  2   
 31  16  30  1   
 32  19  31  1   
@<TRIPOS>SUBSTRUCTURE
  1 ****   8 GROUP 4 **** **** 0

# MOE 2024.06 (io_trps.svl 2023.06)
