@<TRIPOS>MOLECULE
NONAME
25 25 1 0 0 
SMALL
USER_CHARGES


@<TRIPOS>ATOM
  1 BR       0.2390    -0.0130    -0.0840 Br    1 <1>  -0.1110 
  2 C       -1.4630    -0.8660     0.2490 C.ar  1 <1>   0.1110 
  3 C       -1.6320    -2.2310     0.0390 C.ar  1 <1>  -0.1440 
  4 C       -2.4810    -0.0460     0.6920 C.ar  1 <1>  -0.1500 
  5 C       -2.8980    -2.7780     0.2600 C.ar  1 <1>  -0.1440 
  6 C       -0.4410    -3.0710    -0.4240 C.3   1 <1>  -0.0960 
  7 C       -3.7190    -0.6030     0.9320 C.ar  1 <1>  -0.1500 
  8 C       -3.9400    -1.9590     0.7180 C.ar  1 <1>   0.1170 
  9 C       -3.1530    -4.2640    -0.0080 C.3   1 <1>  -0.0960 
 10 N       -5.2130    -2.4760     0.9900 N.am  1 <1>  -0.5470 
 11 C       -6.4090    -2.1930     0.4150 C.2   1 <1>   0.5690 
 12 O       -7.4030    -2.7630     0.7810 O.2   1 <1>  -0.5700 
 13 C       -6.5100    -1.1790    -0.6990 C.3   1 <1>  -0.1790 
 14 H       -2.3020     1.0030     0.8470 H     1 <1>   0.1500 
 15 H        0.4670    -2.7390     0.0450 H     1 <1>   0.0800 
 16 H       -0.3290    -2.9870    -1.4900 H     1 <1>   0.0800 
 17 H       -0.5530    -4.1070    -0.1670 H     1 <1>   0.0800 
 18 H       -4.5200     0.0150     1.2940 H     1 <1>   0.1500 
 19 H       -2.6790    -4.5670    -0.9240 H     1 <1>   0.0800 
 20 H       -4.1970    -4.4900    -0.1160 H     1 <1>   0.0800 
 21 H       -2.7590    -4.8530     0.8010 H     1 <1>   0.0800 
 22 H       -5.2610    -3.2410     1.6620 H     1 <1>   0.3700 
 23 H       -5.7000    -1.3070    -1.3930 H     1 <1>   0.0800 
 24 H       -6.4790    -0.1870    -0.2900 H     1 <1>   0.0800 
 25 H       -7.4390    -1.3100    -1.2230 H     1 <1>   0.0800 
@<TRIPOS>BOND
  1   1   2  1   
  2   2   3  ar  
  3   2   4  ar  
  4   3   5  ar  
  5   3   6  1   
  6   4   7  ar  
  7   4  14  1   
  8   5   8  ar  
  9   5   9  1   
 10   6  15  1   
 11   6  16  1   
 12   6  17  1   
 13   7   8  ar  
 14   7  18  1   
 15   8  10  1   
 16   9  19  1   
 17   9  20  1   
 18   9  21  1   
 19  10  11  am  
 20  10  22  1   
 21  11  12  2   
 22  11  13  1   
 23  13  23  1   
 24  13  24  1   
 25  13  25  1   
@<TRIPOS>SUBSTRUCTURE
  1 ****   8 GROUP 4 **** **** 0

# MOE 2024.06 (io_trps.svl 2023.06)
