@<TRIPOS>MOLECULE
Structure2297
25 26 1 0 0 
SMALL
USER_CHARGES


@<TRIPOS>ATOM
  1 CL       0.0590    -0.0820     0.9970 Cl    1 <1>  -0.1770 
  2 C        1.7440    -0.0200     0.5480 C.ar  1 <1>   0.1770 
  3 C        2.3600    -1.1560     0.0650 C.ar  1 <1>  -0.1500 
  4 C        2.4390     1.1650     0.6780 C.ar  1 <1>  -0.1500 
  5 C        3.6980    -1.1050    -0.2870 C.ar  1 <1>  -0.1500 
  6 C        3.7770     1.2120     0.3240 C.ar  1 <1>  -0.1500 
  7 C        4.4260     0.0740    -0.1500 C.ar  1 <1>  -0.1430 
  8 C        5.9040     0.0790    -0.5490 C.3   1 <1>   0.0640 
  9 C        6.6740    -1.0940     0.0690 C.3   1 <1>   0.3430 
 10 C        6.7170     1.3030    -0.1210 C.3   1 <1>  -0.1600 
 11 N        8.0390    -0.5890     0.4100 N.4   1 <1>  -0.9060 
 12 C        8.1510     0.8050    -0.0840 C.3   1 <1>   0.3430 
 13 H        1.7930    -2.0650    -0.0350 H     1 <1>   0.1500 
 14 H        1.9320     2.0390     1.0480 H     1 <1>   0.1500 
 15 H        4.1510    -2.0000    -0.6760 H     1 <1>   0.1500 
 16 H        4.2830     2.1550     0.4240 H     1 <1>   0.1500 
 17 H        5.9600    -0.0160    -1.6210 H     1 <1>   0.0800 
 18 H        6.7230    -1.9160    -0.6270 H     1 <1>   0.0800 
 19 H        6.1710    -1.4220     0.9650 H     1 <1>   0.0800 
 20 H        6.4450     1.6210     0.8710 H     1 <1>   0.0800 
 21 H        6.5980     2.1280    -0.8020 H     1 <1>   0.0800 
 22 H        8.7760    -1.1870     0.0140 H     1 <1>   0.4500 
 23 H        8.1520    -0.5970     1.4330 H     1 <1>   0.4500 
 24 H        8.7710     1.4120     0.5570 H     1 <1>   0.0800 
 25 H        8.5580     0.8080    -1.0840 H     1 <1>   0.0800 
@<TRIPOS>BOND
  1   1   2  1   
  2   2   3  ar  
  3   2   4  ar  
  4   3   5  ar  
  5   3  13  1   
  6   4   6  ar  
  7   4  14  1   
  8   5   7  ar  
  9   5  15  1   
 10   6   7  ar  
 11   6  16  1   
 12   7   8  1   
 13   8   9  1   
 14   8  10  1   
 15   8  17  1   
 16   9  11  1   
 17   9  18  1   
 18   9  19  1   
 19  10  12  1   
 20  10  20  1   
 21  10  21  1   
 22  11  12  1   
 23  11  22  1   
 24  11  23  1   
 25  12  24  1   
 26  12  25  1   
@<TRIPOS>SUBSTRUCTURE
  1 ****   7 GROUP 4 **** **** 0

# MOE 2024.06 (io_trps.svl 2023.06)
