@<TRIPOS>MOLECULE
NONAME
33 33 1 0 0 
SMALL
USER_CHARGES


@<TRIPOS>ATOM
  1 O        0.3050    -0.2990    -0.3620 O.3   1 <1>  -0.3620 
  2 C        0.2610    -1.6390    -0.3140 C.ar  1 <1>   0.7020 
  3 C        1.5090     0.4220    -0.5060 C.3   1 <1>   0.2580 
  4 N        1.3650    -2.3160    -0.5010 N.ar  1 <1>  -0.6200 
  5 N       -0.9230    -2.1330    -0.0870 N.ar  1 <1>  -0.6200 
  6 C        2.1880     0.5280     0.8490 C.2   1 <1>  -0.2880 
  7 C        1.1940    -3.6090    -0.4260 C.ar  1 <1>   0.7200 
  8 C       -0.9380    -3.4400    -0.0420 C.ar  1 <1>   0.7200 
  9 C        3.4230     0.1030     1.1310 C.2   1 <1>  -0.3000 
 10 N        0.0770    -4.2370    -0.2050 N.ar  1 <1>  -0.6200 
 11 N        2.2730    -4.4070    -0.5860 N.pl3 1 <1>  -0.8690 
 12 N       -2.1160    -4.0610     0.1870 N.pl3 1 <1>  -0.8690 
 13 C        3.6630    -3.9600    -0.4110 C.3   1 <1>   0.2090 
 14 C       -3.4370    -3.4160     0.1330 C.3   1 <1>   0.2090 
 15 C        4.5780    -5.1650    -0.5710 C.3   1 <1>  -0.2400 
 16 C       -4.4750    -4.4070     0.6430 C.3   1 <1>  -0.2400 
 17 H        1.2540     1.4020    -0.8650 H     1 <1>   0.0800 
 18 H        2.1350    -0.0600    -1.2370 H     1 <1>   0.0800 
 19 H        1.5520     0.9920     1.5840 H     1 <1>   0.1500 
 20 H        3.8810     0.1880     2.1020 H     1 <1>   0.1500 
 21 H        4.0770    -0.3700     0.4180 H     1 <1>   0.1500 
 22 H        2.0830    -5.3840    -0.3700 H     1 <1>   0.4000 
 23 H       -2.0860    -5.0700     0.0580 H     1 <1>   0.4000 
 24 H        3.7810    -3.5230     0.5670 H     1 <1>   0.0800 
 25 H        3.8940    -3.2130    -1.1530 H     1 <1>   0.0800 
 26 H       -3.6560    -3.1300    -0.8820 H     1 <1>   0.0800 
 27 H       -3.4330    -2.5320     0.7490 H     1 <1>   0.0800 
 28 H        4.3620    -5.9020     0.1820 H     1 <1>   0.0800 
 29 H        5.6020    -4.8560    -0.4620 H     1 <1>   0.0800 
 30 H        4.4540    -5.5970    -1.5480 H     1 <1>   0.0800 
 31 H       -4.4980    -5.2810     0.0180 H     1 <1>   0.0800 
 32 H       -5.4470    -3.9490     0.6270 H     1 <1>   0.0800 
 33 H       -4.2480    -4.6910     1.6550 H     1 <1>   0.0800 
@<TRIPOS>BOND
  1   1   2  1   
  2   1   3  1   
  3   2   4  ar  
  4   2   5  ar  
  5   3   6  1   
  6   3  17  1   
  7   3  18  1   
  8   4   7  ar  
  9   5   8  ar  
 10   6   9  2   
 11   6  19  1   
 12   7  10  ar  
 13   7  11  1   
 14   8  10  ar  
 15   8  12  1   
 16   9  20  1   
 17   9  21  1   
 18  11  13  1   
 19  11  22  1   
 20  12  14  1   
 21  12  23  1   
 22  13  15  1   
 23  13  24  1   
 24  13  25  1   
 25  14  16  1   
 26  14  26  1   
 27  14  27  1   
 28  15  28  1   
 29  15  29  1   
 30  15  30  1   
 31  16  31  1   
 32  16  32  1   
 33  16  33  1   
@<TRIPOS>SUBSTRUCTURE
  1 ****   4 GROUP 4 **** **** 0

# MOE 2024.06 (io_trps.svl 2023.06)
