@<TRIPOS>MOLECULE
NONAME
55 58 1 0 0 
SMALL
USER_CHARGES


@<TRIPOS>ATOM
  1 O        3.0330    -0.0450    -1.3260 O.2   1 <1>  -0.5700 
  2 C        2.1890    -0.6390    -0.6730 C.2   1 <1>   0.5440 
  3 N        1.5350     0.1380     0.2540 N.am  1 <1>  -0.6600 
  4 C        2.0140    -2.0830    -0.8170 C.ar  1 <1>   0.0860 
  5 C        1.1890     1.5560    -0.0870 C.3   1 <1>   0.1400 
  6 C        1.9480    -0.0160     1.6810 C.3   1 <1>   0.1400 
  7 C        1.0140    -2.8400    -0.1810 C.ar  1 <1>   0.0830 
  8 C        2.9020    -2.7840    -1.6420 C.ar  1 <1>  -0.1500 
  9 C        2.2970     2.5390     0.3660 C.3   1 <1>   0.3430 
 10 C        3.1690     0.8870     1.9940 C.3   1 <1>   0.3430 
 11 O        0.1030    -2.2270     0.6120 O.3   1 <1>  -0.3630 
 12 C        0.9490    -4.2320    -0.3310 C.ar  1 <1>   0.0820 
 13 C        2.8290    -4.1500    -1.8140 C.ar  1 <1>  -0.1500 
 14 N        3.5130     1.7940     0.8390 N.4   1 <1>  -0.9590 
 15 C       -1.2100    -2.1020     0.1070 C.3   1 <1>   0.0400 
 16 O       -0.0120    -4.9130     0.3580 O.3   1 <1>  -0.3630 
 17 C        1.8570    -4.8790    -1.1570 C.ar  1 <1>  -0.1500 
 18 C        4.7360     2.6090     1.0800 C.3   1 <1>   0.3430 
 19 C       -0.0760    -6.3230     0.3580 C.3   1 <1>   0.0400 
 20 C        5.3110     3.1850    -0.2280 C.3   1 <1>  -0.0800 
 21 C        6.9080     3.5660    -0.0210 C.3   1 <1>   0.0580 
 22 C        4.5440     4.6170    -0.7680 C.3   1 <1>  -0.1600 
 23 C        7.9000     4.8390    -0.0670 C.2   1 <1>  -0.2880 
 24 C        6.2080     4.5950    -0.4960 C.3   1 <1>  -0.1600 
 25 C        5.7210     5.7730    -0.8850 C.3   1 <1>   0.0580 
 26 C        7.2770     5.9950    -0.5180 C.2   1 <1>  -0.2880 
 27 H        0.2540     1.8200     0.3760 H     1 <1>   0.0800 
 28 H        1.0550     1.6440    -1.1520 H     1 <1>   0.0800 
 29 H        2.1970    -1.0440     1.8850 H     1 <1>   0.0800 
 30 H        1.1220     0.2450     2.3200 H     1 <1>   0.0800 
 31 H        3.6740    -2.2470    -2.1670 H     1 <1>   0.1500 
 32 H        1.9210     3.1690     1.1540 H     1 <1>   0.0800 
 33 H        2.5490     3.1670    -0.4710 H     1 <1>   0.0800 
 34 H        4.0130     0.2550     2.2180 H     1 <1>   0.0800 
 35 H        2.9580     1.4720     2.8740 H     1 <1>   0.0800 
 36 H        3.5310    -4.6520    -2.4600 H     1 <1>   0.1500 
 37 H        3.6960     1.1400     0.0450 H     1 <1>   0.4500 
 38 H       -1.7900    -1.5380     0.8140 H     1 <1>   0.0800 
 39 H       -1.6390    -3.0790    -0.0190 H     1 <1>   0.0800 
 40 H       -1.1710    -1.5860    -0.8360 H     1 <1>   0.0800 
 41 H        1.8300    -5.9420    -1.3050 H     1 <1>   0.1500 
 42 H        5.4900     1.9770     1.5220 H     1 <1>   0.0800 
 43 H        4.5280     3.4080     1.7720 H     1 <1>   0.0800 
 44 H       -0.8800    -6.6200     1.0070 H     1 <1>   0.0800 
 45 H        0.8550    -6.7150     0.7280 H     1 <1>   0.0800 
 46 H       -0.2710    -6.6650    -0.6430 H     1 <1>   0.0800 
 47 H        5.2370     2.4180    -0.9890 H     1 <1>   0.0800 
 48 H        7.4020     2.8780    -0.6950 H     1 <1>   0.0800 
 49 H        3.7870     4.9500    -0.0750 H     1 <1>   0.0800 
 50 H        4.0680     4.4590    -1.7260 H     1 <1>   0.0800 
 51 H        8.9250     4.7070     0.2400 H     1 <1>   0.1500 
 52 H        6.4980     4.3240    -1.5960 H     1 <1>   0.0800 
 53 H        5.9860     4.9250     0.6560 H     1 <1>   0.0800 
 54 H        5.6920     6.0380    -1.9340 H     1 <1>   0.0800 
 55 H        7.7000     6.9780    -0.6480 H     1 <1>   0.1500 
@<TRIPOS>BOND
  1   1   2  2   
  2   2   3  am  
  3   2   4  1   
  4   3   5  1   
  5   3   6  1   
  6   4   7  ar  
  7   4   8  ar  
  8   5   9  1   
  9   5  27  1   
 10   5  28  1   
 11   6  10  1   
 12   6  29  1   
 13   6  30  1   
 14   7  11  1   
 15   7  12  ar  
 16   8  13  ar  
 17   8  31  1   
 18   9  14  1   
 19   9  32  1   
 20   9  33  1   
 21  10  14  1   
 22  10  34  1   
 23  10  35  1   
 24  11  15  1   
 25  12  16  1   
 26  12  17  ar  
 27  13  17  ar  
 28  13  36  1   
 29  14  18  1   
 30  14  37  1   
 31  15  38  1   
 32  15  39  1   
 33  15  40  1   
 34  16  19  1   
 35  17  41  1   
 36  18  20  1   
 37  18  42  1   
 38  18  43  1   
 39  19  44  1   
 40  19  45  1   
 41  19  46  1   
 42  20  21  1   
 43  20  22  1   
 44  20  47  1   
 45  21  23  1   
 46  21  24  1   
 47  21  48  1   
 48  22  25  1   
 49  22  49  1   
 50  22  50  1   
 51  23  26  2   
 52  23  51  1   
 53  24  25  1   
 54  24  52  1   
 55  24  53  1   
 56  25  26  1   
 57  25  54  1   
 58  26  55  1   
@<TRIPOS>SUBSTRUCTURE
  1 ****   1 GROUP 4 **** **** 0

# MOE 2024.06 (io_trps.svl 2023.06)
