@<TRIPOS>MOLECULE
NONAME
26 26 1 0 0 
SMALL
USER_CHARGES


@<TRIPOS>ATOM
  1 O       -0.0820    -0.2750    -0.8400 O.3   1 <1>  -0.3630 
  2 C       -0.0400    -1.5670    -0.4130 C.ar  1 <1>   0.0820 
  3 C       -0.8690     0.6410    -0.1100 C.3   1 <1>   0.0400 
  4 C        1.2050    -2.1990    -0.1720 C.ar  1 <1>   0.0860 
  5 C       -1.2400    -2.2470    -0.2680 C.ar  1 <1>  -0.1500 
  6 C        2.4980    -1.5880    -0.2730 C.2   1 <1>   0.3030 
  7 C        1.1360    -3.5500     0.2020 C.ar  1 <1>  -0.1500 
  8 C       -1.2590    -3.5800     0.1260 C.ar  1 <1>   0.0820 
  9 N        3.5520    -2.2870    -0.6260 N.2   1 <1>  -0.8000 
 10 C        2.6500    -0.1100     0.0910 C.3   1 <1>  -0.1790 
 11 C       -0.0580    -4.2250     0.3560 C.ar  1 <1>  -0.1500 
 12 O       -2.3960    -4.3120     0.2950 O.3   1 <1>  -0.3620 
 13 O        4.6190    -1.6840    -0.6790 O.3   1 <1>  -0.6500 
 14 C       -3.6510    -3.7830    -0.0700 C.3   1 <1>   0.0400 
 15 H       -0.5720     1.6330    -0.3960 H     1 <1>   0.0800 
 16 H       -0.6920     0.4930     0.9410 H     1 <1>   0.0800 
 17 H       -1.9050     0.4870    -0.3490 H     1 <1>   0.0800 
 18 H       -2.1540    -1.7320    -0.4800 H     1 <1>   0.1500 
 19 H        2.0660    -4.0670     0.3730 H     1 <1>   0.1500 
 20 H        1.8640     0.2080     0.7440 H     1 <1>   0.0800 
 21 H        2.6470     0.4710    -0.8100 H     1 <1>   0.0800 
 22 H        3.5800     0.0520     0.6030 H     1 <1>   0.0800 
 23 H       -0.0610    -5.2580     0.6500 H     1 <1>   0.1500 
 24 H       -4.3930    -4.5430     0.0920 H     1 <1>   0.0800 
 25 H       -3.6250    -3.5130    -1.1110 H     1 <1>   0.0800 
 26 H       -3.8620    -2.9280     0.5470 H     1 <1>   0.0800 
@<TRIPOS>BOND
  1   1   2  1   
  2   1   3  1   
  3   2   4  ar  
  4   2   5  ar  
  5   3  15  1   
  6   3  16  1   
  7   3  17  1   
  8   4   6  1   
  9   4   7  ar  
 10   5   8  ar  
 11   5  18  1   
 12   6   9  2   
 13   6  10  1   
 14   7  11  ar  
 15   7  19  1   
 16   8  11  ar  
 17   8  12  1   
 18   9  13  1   
 19  10  20  1   
 20  10  21  1   
 21  10  22  1   
 22  11  23  1   
 23  12  14  1   
 24  14  24  1   
 25  14  25  1   
 26  14  26  1   
@<TRIPOS>SUBSTRUCTURE
  1 ****   4 GROUP 4 **** **** 0

# MOE 2024.06 (io_trps.svl 2023.06)
