@<TRIPOS>MOLECULE
NONAME
31 31 1 0 0 
SMALL
USER_CHARGES


@<TRIPOS>ATOM
  1 S       -0.2680    -0.3770    -0.9080 S.o2  1 <1>   1.3330 
  2 O        0.9930     0.2590    -1.2190 O.2   1 <1>  -0.6500 
  3 O       -1.2910     0.4280    -0.2840 O.2   1 <1>  -0.6500 
  4 N        0.0890    -1.7480     0.1010 N.am  1 <1>  -0.6930 
  5 C       -0.8870    -1.0570    -2.4340 C.3   1 <1>  -0.1350 
  6 C        1.3500    -2.3360     0.0480 C.ar  1 <1>   0.1990 
  7 C       -1.0490    -2.5820     0.6510 C.3   1 <1>   0.1700 
  8 C        1.5570    -3.5590    -0.5820 C.ar  1 <1>  -0.1500 
  9 C        2.4390    -1.7060     0.6350 C.ar  1 <1>  -0.1500 
 10 C       -2.1000    -3.0540    -0.3900 C.2   1 <1>   0.9060 
 11 C       -1.6380    -1.8760     1.8830 C.3   1 <1>  -0.2400 
 12 C        2.8140    -4.1380    -0.6140 C.ar  1 <1>  -0.1500 
 13 C        3.6980    -2.2800     0.6040 C.ar  1 <1>  -0.1500 
 14 O       -3.2690    -2.6530    -0.3400 O.co2 1 <1>  -0.9000 
 15 O       -1.7320    -3.8170    -1.2960 O.co2 1 <1>  -0.9000 
 16 C        3.8920    -3.5030    -0.0190 C.ar  1 <1>  -0.1440 
 17 C        5.2720    -4.1340    -0.0560 C.3   1 <1>  -0.0970 
 18 H       -0.8760    -0.3080    -3.1990 H     1 <1>   0.0800 
 19 H       -1.8970    -1.3960    -2.3160 H     1 <1>   0.0800 
 20 H       -0.2800    -1.8850    -2.7440 H     1 <1>   0.0800 
 21 H       -0.6210    -3.4950     1.0170 H     1 <1>   0.0800 
 22 H        0.7260    -4.0560    -1.0510 H     1 <1>   0.1500 
 23 H        2.2860    -0.7560     1.1110 H     1 <1>   0.1500 
 24 H       -2.1880    -1.0010     1.5890 H     1 <1>   0.0800 
 25 H       -0.8570    -1.6020     2.5680 H     1 <1>   0.0800 
 26 H       -2.3230    -2.5400     2.3780 H     1 <1>   0.0800 
 27 H        2.9430    -5.0840    -1.1090 H     1 <1>   0.1500 
 28 H        4.5230    -1.7680     1.0650 H     1 <1>   0.1500 
 29 H        5.1930    -5.2060    -0.0880 H     1 <1>   0.0800 
 30 H        5.8340    -3.8600     0.8180 H     1 <1>   0.0800 
 31 H        5.8000    -3.7980    -0.9300 H     1 <1>   0.0800 
@<TRIPOS>BOND
  1   1   2  2   
  2   1   3  2   
  3   1   4  am  
  4   1   5  1   
  5   4   6  1   
  6   4   7  1   
  7   5  18  1   
  8   5  19  1   
  9   5  20  1   
 10   6   8  ar  
 11   6   9  ar  
 12   7  10  1   
 13   7  11  1   
 14   7  21  1   
 15   8  12  ar  
 16   8  22  1   
 17   9  13  ar  
 18   9  23  1   
 19  10  14  ar  
 20  10  15  ar  
 21  11  24  1   
 22  11  25  1   
 23  11  26  1   
 24  12  16  ar  
 25  12  27  1   
 26  13  16  ar  
 27  13  28  1   
 28  16  17  1   
 29  17  29  1   
 30  17  30  1   
 31  17  31  1   
@<TRIPOS>SUBSTRUCTURE
  1 ****   4 GROUP 4 **** **** 0

# MOE 2024.06 (io_trps.svl 2023.06)
