@<TRIPOS>MOLECULE
NONAME
54 56 1 0 0 
SMALL
USER_CHARGES


@<TRIPOS>ATOM
  1 S        1.2560     0.0950     0.2630 S.o2  1 <1>   1.3330 
  2 O        2.4290    -0.3080    -0.4790 O.2   1 <1>  -0.6500 
  3 O        1.4040     0.6750     1.5730 O.2   1 <1>  -0.6500 
  4 N        0.3870     1.2080    -0.7340 N.am  1 <1>  -0.6930 
  5 C        0.1380    -1.2870     0.3410 C.3   1 <1>  -0.1350 
  6 C       -0.7030     1.8890    -0.1960 C.ar  1 <1>   0.1990 
  7 C        1.1820     1.8620    -1.8280 C.3   1 <1>   0.3370 
  8 C       -1.9950     1.5020    -0.5310 C.ar  1 <1>  -0.1500 
  9 C       -0.5300     2.9570     0.6760 C.ar  1 <1>  -0.1500 
 10 C        2.2180     2.8850    -1.3000 C.2   1 <1>   0.5690 
 11 C        0.2370     2.4440    -2.8930 C.3   1 <1>  -0.2400 
 12 C       -3.0940     2.1600    -0.0070 C.ar  1 <1>  -0.1500 
 13 C       -1.6240     3.6190     1.2020 C.ar  1 <1>  -0.1500 
 14 O        2.0210     4.0740    -1.4160 O.2   1 <1>  -0.5700 
 15 N        3.3450     2.4180    -0.7020 N.am  1 <1>  -0.7300 
 16 C       -2.9100     3.2290     0.8670 C.ar  1 <1>   0.0830 
 17 C        4.3470     3.2370    -0.0020 C.3   1 <1>   0.2200 
 18 O       -3.9280     3.9340     1.4290 O.3   1 <1>  -0.3630 
 19 C        5.7670     2.6370    -0.0890 C.3   1 <1>  -0.0800 
 20 C        4.0730     3.2560     1.5100 C.3   1 <1>  -0.1600 
 21 C       -5.2690     3.6410     1.1190 C.3   1 <1>   0.1200 
 22 C        6.4100     3.2440     1.1490 C.3   1 <1>  -0.1600 
 23 C        5.7700     1.1450     0.3060 C.3   1 <1>  -0.1600 
 24 C        5.3710     2.6910     2.1120 C.3   1 <1>  -0.0800 
 25 C       -6.1540     4.6170     1.8880 C.3   1 <1>  -0.2400 
 26 C        5.4300     1.1850     1.8060 C.3   1 <1>  -0.1600 
 27 H        0.5740    -2.0790     0.9180 H     1 <1>   0.0800 
 28 H       -0.0700    -1.6520    -0.6450 H     1 <1>   0.0800 
 29 H       -0.7820    -0.9910     0.8050 H     1 <1>   0.0800 
 30 H        1.7450     1.0940    -2.3270 H     1 <1>   0.0800 
 31 H       -2.1340     0.6810    -1.2100 H     1 <1>   0.1500 
 32 H        0.4650     3.2670     0.9440 H     1 <1>   0.1500 
 33 H       -0.3270     3.2680    -2.4920 H     1 <1>   0.0800 
 34 H       -0.4340     1.6860    -3.2540 H     1 <1>   0.0800 
 35 H        0.8150     2.8130    -3.7200 H     1 <1>   0.0800 
 36 H       -4.0760     1.8320    -0.2900 H     1 <1>   0.1500 
 37 H       -1.4850     4.4450     1.8770 H     1 <1>   0.1500 
 38 H        3.4420     1.4080    -0.5360 H     1 <1>   0.3700 
 39 H        4.3410     4.2430    -0.3900 H     1 <1>   0.0800 
 40 H        6.2740     2.8580    -1.0110 H     1 <1>   0.0800 
 41 H        3.2120     2.6740     1.7890 H     1 <1>   0.0800 
 42 H        3.9290     4.2710     1.8340 H     1 <1>   0.0800 
 43 H       -5.4750     2.6270     1.4160 H     1 <1>   0.0800 
 44 H       -5.4080     3.7580     0.0580 H     1 <1>   0.0800 
 45 H        6.4280     4.3210     1.1280 H     1 <1>   0.0800 
 46 H        7.3990     2.8610     1.3400 H     1 <1>   0.0800 
 47 H        6.7560     0.7350     0.1670 H     1 <1>   0.0800 
 48 H        5.0760     0.5470    -0.2570 H     1 <1>   0.0800 
 49 H        5.5180     2.9370     3.1490 H     1 <1>   0.0800 
 50 H       -5.9960     4.5030     2.9460 H     1 <1>   0.0800 
 51 H       -7.1880     4.4200     1.6720 H     1 <1>   0.0800 
 52 H       -5.9280     5.6270     1.5980 H     1 <1>   0.0800 
 53 H        6.2100     0.7130     2.3780 H     1 <1>   0.0800 
 54 H        4.4920     0.6990     2.0170 H     1 <1>   0.0800 
@<TRIPOS>BOND
  1   1   2  2   
  2   1   3  2   
  3   1   4  am  
  4   1   5  1   
  5   4   6  1   
  6   4   7  1   
  7   5  27  1   
  8   5  28  1   
  9   5  29  1   
 10   6   8  ar  
 11   6   9  ar  
 12   7  10  1   
 13   7  11  1   
 14   7  30  1   
 15   8  12  ar  
 16   8  31  1   
 17   9  13  ar  
 18   9  32  1   
 19  10  14  2   
 20  10  15  am  
 21  11  33  1   
 22  11  34  1   
 23  11  35  1   
 24  12  16  ar  
 25  12  36  1   
 26  13  16  ar  
 27  13  37  1   
 28  15  17  1   
 29  15  38  1   
 30  16  18  1   
 31  17  19  1   
 32  17  20  1   
 33  17  39  1   
 34  18  21  1   
 35  19  22  1   
 36  19  23  1   
 37  19  40  1   
 38  20  24  1   
 39  20  41  1   
 40  20  42  1   
 41  21  25  1   
 42  21  43  1   
 43  21  44  1   
 44  22  24  1   
 45  22  45  1   
 46  22  46  1   
 47  23  26  1   
 48  23  47  1   
 49  23  48  1   
 50  24  26  1   
 51  24  49  1   
 52  25  50  1   
 53  25  51  1   
 54  25  52  1   
 55  26  53  1   
 56  26  54  1   
@<TRIPOS>SUBSTRUCTURE
  1 ****   4 GROUP 4 **** **** 0

# MOE 2024.06 (io_trps.svl 2023.06)
