@<TRIPOS>MOLECULE
NONAME
33 34 1 0 0 
SMALL
USER_CHARGES


@<TRIPOS>ATOM
  1 O       -0.4970     0.3260    -0.0150 O.2   1 <1>  -0.5700 
  2 C       -1.5900     0.8240    -0.1490 C.2   1 <1>   0.7800 
  3 O       -1.9250     1.8750     0.6060 O.3   1 <1>  -0.2320 
  4 N       -2.4650     0.3220    -1.0430 N.am  1 <1>  -0.8000 
  5 C       -2.9810     2.6800     0.3380 C.ar  1 <1>   0.0830 
  6 C       -3.1090     3.3110    -0.8920 C.ar  1 <1>  -0.1500 
  7 C       -3.9370     2.8770     1.3190 C.ar  1 <1>  -0.1500 
  8 C       -4.2050     4.1180    -1.1400 C.ar  1 <1>  -0.1500 
  9 C       -5.0300     3.6850     1.0650 C.ar  1 <1>  -0.1500 
 10 C       -5.1770     4.3100    -0.1670 C.ar  1 <1>  -0.1430 
 11 C       -6.3800     5.2050    -0.4630 C.3   1 <1>   0.0630 
 12 C       -6.4180     6.4200     0.4800 C.3   1 <1>  -0.1600 
 13 C       -7.6960     4.4110    -0.3900 C.3   1 <1>  -0.1600 
 14 C       -7.6300     7.3170     0.1910 C.3   1 <1>  -0.1600 
 15 C       -8.9080     5.3080    -0.6800 C.3   1 <1>  -0.1600 
 16 C       -8.9400     6.5190     0.2620 C.3   1 <1>  -0.1600 
 17 H       -2.2140    -0.5010    -1.5870 H     1 <1>   0.3700 
 18 H       -3.4040     0.7040    -1.1470 H     1 <1>   0.3700 
 19 H       -2.3550     3.1780    -1.6470 H     1 <1>   0.1500 
 20 H       -3.8240     2.3980     2.2750 H     1 <1>   0.1500 
 21 H       -4.2950     4.6010    -2.0980 H     1 <1>   0.1500 
 22 H       -5.7680     3.8260     1.8350 H     1 <1>   0.1500 
 23 H       -6.2870     5.5810    -1.4670 H     1 <1>   0.0800 
 24 H       -5.5120     6.9890     0.3630 H     1 <1>   0.0800 
 25 H       -6.4660     6.0860     1.5010 H     1 <1>   0.0800 
 26 H       -7.8070     3.9810     0.5900 H     1 <1>   0.0800 
 27 H       -7.6650     3.6050    -1.1020 H     1 <1>   0.0800 
 28 H       -7.5290     7.7480    -0.7910 H     1 <1>   0.0800 
 29 H       -7.6600     8.1230     0.9030 H     1 <1>   0.0800 
 30 H       -9.8130     4.7370    -0.5630 H     1 <1>   0.0800 
 31 H       -8.8640     5.6510    -1.6990 H     1 <1>   0.0800 
 32 H       -9.7650     7.1580     0.0000 H     1 <1>   0.0800 
 33 H       -9.0940     6.1800     1.2720 H     1 <1>   0.0800 
@<TRIPOS>BOND
  1   1   2  2   
  2   2   3  1   
  3   2   4  am  
  4   3   5  1   
  5   4  17  1   
  6   4  18  1   
  7   5   6  ar  
  8   5   7  ar  
  9   6   8  ar  
 10   6  19  1   
 11   7   9  ar  
 12   7  20  1   
 13   8  10  ar  
 14   8  21  1   
 15   9  10  ar  
 16   9  22  1   
 17  10  11  1   
 18  11  12  1   
 19  11  13  1   
 20  11  23  1   
 21  12  14  1   
 22  12  24  1   
 23  12  25  1   
 24  13  15  1   
 25  13  26  1   
 26  13  27  1   
 27  14  16  1   
 28  14  28  1   
 29  14  29  1   
 30  15  16  1   
 31  15  30  1   
 32  15  31  1   
 33  16  32  1   
 34  16  33  1   
@<TRIPOS>SUBSTRUCTURE
  1 ****  10 GROUP 4 **** **** 0

# MOE 2024.06 (io_trps.svl 2023.06)
