@<TRIPOS>MOLECULE
NONAME
40 41 1 0 0 
SMALL
USER_CHARGES


@<TRIPOS>ATOM
  1 BR       1.3950    -0.2820    -2.0410 Br    1 <1>  -0.1110 
  2 C        0.5040    -1.8260    -1.3000 C.ar  1 <1>   0.1110 
  3 C        1.1040    -2.5460    -0.2760 C.ar  1 <1>   0.0830 
  4 C       -0.7260    -2.1660    -1.8270 C.ar  1 <1>  -0.1500 
  5 O        2.3160    -2.1310     0.1770 O.3   1 <1>  -0.3630 
  6 C        0.4270    -3.6510     0.2320 C.ar  1 <1>  -0.1500 
  7 C       -1.3950    -3.2660    -1.3140 C.ar  1 <1>  -0.1430 
  8 C        3.0280    -2.8370     1.1690 C.3   1 <1>   0.0400 
  9 C       -0.8180    -4.0110    -0.2840 C.ar  1 <1>   0.0830 
 10 C       -2.7500    -3.6540    -1.8740 C.3   1 <1>   0.4870 
 11 O       -1.5270    -5.0750     0.1820 O.3   1 <1>  -0.3630 
 12 N       -3.7500    -3.5800    -0.7800 N.4   1 <1>  -0.9590 
 13 C       -0.9240    -6.0480     1.0150 C.3   1 <1>   0.0400 
 14 C       -5.0440    -4.2300    -1.1690 C.3   1 <1>   0.3430 
 15 C       -3.9310    -2.1890    -0.2720 C.3   1 <1>   0.3430 
 16 C       -6.0610    -4.2240    -0.0130 C.3   1 <1>   0.2000 
 17 C       -4.8820    -2.1980     0.9280 C.3   1 <1>  -0.1600 
 18 O       -7.2760    -4.6340    -0.5180 O.3   1 <1>  -0.6800 
 19 C       -6.2440    -2.8240     0.5820 C.3   1 <1>  -0.1600 
 20 H       -1.1330    -1.5680    -2.6250 H     1 <1>   0.1500 
 21 H        0.8680    -4.2190     1.0260 H     1 <1>   0.1500 
 22 H        3.9610    -2.3290     1.3330 H     1 <1>   0.0800 
 23 H        3.2150    -3.8380     0.8210 H     1 <1>   0.0800 
 24 H        2.4530    -2.8420     2.0780 H     1 <1>   0.0800 
 25 H       -2.6940    -4.6620    -2.2530 H     1 <1>   0.0800 
 26 H       -3.0270    -2.9960    -2.6810 H     1 <1>   0.0800 
 27 H       -3.3140    -4.1330    -0.0220 H     1 <1>   0.4500 
 28 H       -0.6850    -5.6020     1.9650 H     1 <1>   0.0800 
 29 H       -0.0370    -6.4230     0.5340 H     1 <1>   0.0800 
 30 H       -1.6240    -6.8520     1.1600 H     1 <1>   0.0800 
 31 H       -4.8680    -5.2500    -1.4690 H     1 <1>   0.0800 
 32 H       -5.4750    -3.6970    -1.9990 H     1 <1>   0.0800 
 33 H       -4.3410    -1.5660    -1.0500 H     1 <1>   0.0800 
 34 H       -2.9800    -1.7770     0.0280 H     1 <1>   0.0800 
 35 H       -5.7610    -4.9280     0.7450 H     1 <1>   0.0800 
 36 H       -5.0330    -1.1850     1.2590 H     1 <1>   0.0800 
 37 H       -4.4240    -2.7340     1.7420 H     1 <1>   0.0800 
 38 H       -7.9600    -4.6620     0.1830 H     1 <1>   0.4000 
 39 H       -6.8490    -2.8790     1.4710 H     1 <1>   0.0800 
 40 H       -6.7460    -2.1920    -0.1320 H     1 <1>   0.0800 
@<TRIPOS>BOND
  1   1   2  1   
  2   2   3  ar  
  3   2   4  ar  
  4   3   5  1   
  5   3   6  ar  
  6   4   7  ar  
  7   4  20  1   
  8   5   8  1   
  9   6   9  ar  
 10   6  21  1   
 11   7   9  ar  
 12   7  10  1   
 13   8  22  1   
 14   8  23  1   
 15   8  24  1   
 16   9  11  1   
 17  10  12  1   
 18  10  25  1   
 19  10  26  1   
 20  11  13  1   
 21  12  14  1   
 22  12  15  1   
 23  12  27  1   
 24  13  28  1   
 25  13  29  1   
 26  13  30  1   
 27  14  16  1   
 28  14  31  1   
 29  14  32  1   
 30  15  17  1   
 31  15  33  1   
 32  15  34  1   
 33  16  18  1   
 34  16  19  1   
 35  16  35  1   
 36  17  19  1   
 37  17  36  1   
 38  17  37  1   
 39  18  38  1   
 40  19  39  1   
 41  19  40  1   
@<TRIPOS>SUBSTRUCTURE
  1 ****   7 GROUP 4 **** **** 0

# MOE 2024.06 (io_trps.svl 2023.06)
