@<TRIPOS>MOLECULE
NONAME
39 40 1 0 0 
SMALL
USER_CHARGES


@<TRIPOS>ATOM
  1 S        0.9180    -2.4270     2.0320 S.3   1 <1>  -0.4600 
  2 C       -0.7480    -1.8400     1.5990 C.3   1 <1>   0.2140 
  3 C        1.5700    -1.1260     3.1430 C.3   1 <1>   0.1310 
  4 C       -0.6550    -1.0220     0.3180 C.ar  1 <1>  -0.1440 
  5 C        1.5470     0.2630     2.5060 C.2   1 <1>   0.5690 
  6 C       -0.1900    -1.6110    -0.8520 C.ar  1 <1>  -0.1500 
  7 C       -1.0440     0.3130     0.3150 C.ar  1 <1>  -0.1500 
  8 O        0.8250     1.0840     3.0200 O.2   1 <1>  -0.5700 
  9 N        2.3080     0.5870     1.4030 N.am  1 <1>  -0.6600 
 10 C       -0.0940    -0.8710    -2.0180 C.ar  1 <1>  -0.1500 
 11 C       -0.9620     1.0610    -0.8470 C.ar  1 <1>  -0.1500 
 12 C        2.1520     1.9450     0.7840 C.3   1 <1>   0.1400 
 13 C        3.0310    -0.4330     0.5750 C.3   1 <1>   0.1400 
 14 C       -0.4740     0.4570    -1.9890 C.ar  1 <1>   0.1900 
 15 C        3.4340     2.4380     0.0920 C.3   1 <1>   0.3430 
 16 C        4.2750     0.1380    -0.1330 C.3   1 <1>   0.3430 
 17 F       -0.3540     1.1690    -3.0770 F     1 <1>  -0.1900 
 18 N        3.9740     1.4140    -0.8650 N.4   1 <1>  -0.9590 
 19 C        5.1750     1.9270    -1.5910 C.3   1 <1>   0.2630 
 20 H       -1.1210    -1.2640     2.4270 H     1 <1>   0.0800 
 21 H       -1.3630    -2.7110     1.4530 H     1 <1>   0.0800 
 22 H        2.5720    -1.4040     3.4080 H     1 <1>   0.0800 
 23 H        0.9560    -1.1360     4.0250 H     1 <1>   0.0800 
 24 H        0.0950    -2.6500    -0.8530 H     1 <1>   0.1500 
 25 H       -1.4110     0.7740     1.2180 H     1 <1>   0.1500 
 26 H        0.2620    -1.3130    -2.9320 H     1 <1>   0.1500 
 27 H       -1.2680     2.0920    -0.8660 H     1 <1>   0.1500 
 28 H        1.8760     2.6640     1.5380 H     1 <1>   0.0800 
 29 H        1.3550     1.9120     0.0660 H     1 <1>   0.0800 
 30 H        2.3520    -0.8220    -0.1640 H     1 <1>   0.0800 
 31 H        3.3450    -1.2570     1.1900 H     1 <1>   0.0800 
 32 H        4.1700     2.6570     0.8470 H     1 <1>   0.0800 
 33 H        3.2150     3.3540    -0.4330 H     1 <1>   0.0800 
 34 H        4.6520    -0.6000    -0.8220 H     1 <1>   0.0800 
 35 H        5.0370     0.3170     0.6080 H     1 <1>   0.0800 
 36 H        3.2280     1.2110    -1.5490 H     1 <1>   0.4500 
 37 H        5.9680     2.1500    -0.8950 H     1 <1>   0.0800 
 38 H        4.9300     2.8260    -2.1330 H     1 <1>   0.0800 
 39 H        5.5300     1.1910    -2.2940 H     1 <1>   0.0800 
@<TRIPOS>BOND
  1   1   2  1   
  2   1   3  1   
  3   2   4  1   
  4   2  20  1   
  5   2  21  1   
  6   3   5  1   
  7   3  22  1   
  8   3  23  1   
  9   4   6  ar  
 10   4   7  ar  
 11   5   8  2   
 12   5   9  am  
 13   6  10  ar  
 14   6  24  1   
 15   7  11  ar  
 16   7  25  1   
 17   9  12  1   
 18   9  13  1   
 19  10  14  ar  
 20  10  26  1   
 21  11  14  ar  
 22  11  27  1   
 23  12  15  1   
 24  12  28  1   
 25  12  29  1   
 26  13  16  1   
 27  13  30  1   
 28  13  31  1   
 29  14  17  1   
 30  15  18  1   
 31  15  32  1   
 32  15  33  1   
 33  16  18  1   
 34  16  34  1   
 35  16  35  1   
 36  18  19  1   
 37  18  36  1   
 38  19  37  1   
 39  19  38  1   
 40  19  39  1   
@<TRIPOS>SUBSTRUCTURE
  1 ****   9 GROUP 4 **** **** 0

# MOE 2024.06 (io_trps.svl 2023.06)
