@<TRIPOS>MOLECULE
NONAME
37 38 1 0 0 
SMALL
USER_CHARGES


@<TRIPOS>ATOM
  1 F        1.2920    -0.5250    -2.2020 F     1 <1>  -0.1900 
  2 C        1.9870    -0.9830    -1.1970 C.ar  1 <1>   0.1900 
  3 C        3.0470    -0.2300    -0.7300 C.ar  1 <1>  -0.1500 
  4 C        1.6420    -2.1990    -0.6430 C.ar  1 <1>  -0.1500 
  5 C        3.7970    -0.7160     0.3330 C.ar  1 <1>  -0.1440 
  6 C        2.3880    -2.6750     0.4210 C.ar  1 <1>  -0.1500 
  7 C        3.4580    -1.9370     0.9060 C.ar  1 <1>  -0.1500 
  8 C        4.9770     0.0720     0.8510 C.3   1 <1>   0.4870 
  9 N        6.1430    -0.3580     0.0410 N.4   1 <1>  -0.9060 
 10 C        7.4350     0.2920     0.3650 C.3   1 <1>   0.4230 
 11 C        7.4250     1.7610    -0.0720 C.3   1 <1>  -0.1600 
 12 C        8.5560    -0.4670    -0.3480 C.3   1 <1>  -0.1600 
 13 C        8.7930     2.4140     0.1470 C.3   1 <1>   0.3430 
 14 C        9.9130     0.2030    -0.1220 C.3   1 <1>   0.3430 
 15 N        9.8530     1.6300    -0.5520 N.4   1 <1>  -0.9590 
 16 C       11.1910     2.2830    -0.3550 C.3   1 <1>   0.2630 
 17 H        3.2530     0.7140    -1.2040 H     1 <1>   0.1500 
 18 H        0.8080    -2.7550    -1.0360 H     1 <1>   0.1500 
 19 H        2.1290    -3.6200     0.8720 H     1 <1>   0.1500 
 20 H        4.0120    -2.3340     1.7410 H     1 <1>   0.1500 
 21 H        5.1340    -0.1430     1.8960 H     1 <1>   0.0800 
 22 H        4.7910     1.1270     0.7320 H     1 <1>   0.0800 
 23 H        5.8900    -0.2270    -0.9470 H     1 <1>   0.4500 
 24 H        6.2090    -1.3770     0.1600 H     1 <1>   0.4500 
 25 H        7.6050     0.2380     1.4310 H     1 <1>   0.0800 
 26 H        6.7040     2.3140     0.5030 H     1 <1>   0.0800 
 27 H        7.1640     1.8470    -1.1120 H     1 <1>   0.0800 
 28 H        8.3700    -0.5190    -1.4070 H     1 <1>   0.0800 
 29 H        8.6140    -1.4720     0.0320 H     1 <1>   0.0800 
 30 H        9.0130     2.4580     1.2030 H     1 <1>   0.0800 
 31 H        8.7760     3.4250    -0.2310 H     1 <1>   0.0800 
 32 H       10.6730    -0.3190    -0.6840 H     1 <1>   0.0800 
 33 H       10.1790     0.1490     0.9230 H     1 <1>   0.0800 
 34 H        9.6660     1.6580    -1.5690 H     1 <1>   0.4500 
 35 H       11.4590     2.2920     0.6900 H     1 <1>   0.0800 
 36 H       11.1700     3.3010    -0.7120 H     1 <1>   0.0800 
 37 H       11.9550     1.7500    -0.9000 H     1 <1>   0.0800 
@<TRIPOS>BOND
  1   1   2  1   
  2   2   3  ar  
  3   2   4  ar  
  4   3   5  ar  
  5   3  17  1   
  6   4   6  ar  
  7   4  18  1   
  8   5   7  ar  
  9   5   8  1   
 10   6   7  ar  
 11   6  19  1   
 12   7  20  1   
 13   8   9  1   
 14   8  21  1   
 15   8  22  1   
 16   9  10  1   
 17   9  23  1   
 18   9  24  1   
 19  10  11  1   
 20  10  12  1   
 21  10  25  1   
 22  11  13  1   
 23  11  26  1   
 24  11  27  1   
 25  12  14  1   
 26  12  28  1   
 27  12  29  1   
 28  13  15  1   
 29  13  30  1   
 30  13  31  1   
 31  14  15  1   
 32  14  32  1   
 33  14  33  1   
 34  15  16  1   
 35  15  34  1   
 36  16  35  1   
 37  16  36  1   
 38  16  37  1   
@<TRIPOS>SUBSTRUCTURE
  1 ****   9 GROUP 4 **** **** 0

# MOE 2024.06 (io_trps.svl 2023.06)
