@<TRIPOS>MOLECULE
NONAME
39 39 1 0 0 
SMALL
USER_CHARGES


@<TRIPOS>ATOM
  1 O       -0.2350     0.9320    -2.6730 O.3   1 <1>  -0.6800 
  2 C       -0.6740     1.6160    -1.5660 C.3   1 <1>   0.6240 
  3 C        0.4180     2.5760    -1.2340 C.1   1 <1>  -0.2000 
  4 C       -0.8510     0.6670    -0.3660 C.ar  1 <1>  -0.1440 
  5 C       -1.9640     2.3230    -1.9690 C.3   1 <1>  -0.2400 
  6 C        1.3650     3.1460    -0.7970 C.1   1 <1>  -0.2000 
  7 C       -0.5490    -0.6910    -0.4340 C.ar  1 <1>  -0.1500 
  8 C       -1.3040     1.1760     0.8480 C.ar  1 <1>  -0.1500 
  9 C        2.5890     3.5660    -0.0720 C.3   1 <1>   0.5430 
 10 C       -0.6880    -1.5080     0.6750 C.ar  1 <1>  -0.1500 
 11 C       -1.4440     0.3620     1.9580 C.ar  1 <1>  -0.1500 
 12 N        3.1760     2.3240     0.5070 N.4   1 <1>  -0.9590 
 13 C       -1.1340    -0.9820     1.8730 C.ar  1 <1>  -0.1500 
 14 C        2.3030     1.7510     1.5750 C.3   1 <1>   0.3430 
 15 C        4.5770     2.5070     0.9660 C.3   1 <1>   0.3430 
 16 C        2.5730     0.2570     1.7000 C.3   1 <1>  -0.2400 
 17 C        5.5020     2.6250    -0.2390 C.3   1 <1>  -0.2400 
 18 H       -0.1150     1.5720    -3.3950 H     1 <1>   0.4000 
 19 H       -1.8020     2.9560    -2.8220 H     1 <1>   0.0800 
 20 H       -2.3230     2.9330    -1.1620 H     1 <1>   0.0800 
 21 H       -2.7180     1.5920    -2.2000 H     1 <1>   0.0800 
 22 H       -0.2030    -1.1310    -1.3540 H     1 <1>   0.1500 
 23 H       -1.5540     2.2190     0.9410 H     1 <1>   0.1500 
 24 H        2.3470     4.2730     0.7050 H     1 <1>   0.0800 
 25 H        3.2740     4.0250    -0.7660 H     1 <1>   0.0800 
 26 H       -0.4530    -2.5560     0.6010 H     1 <1>   0.1500 
 27 H       -1.8030     0.7700     2.8870 H     1 <1>   0.1500 
 28 H        3.1660     1.6410    -0.2610 H     1 <1>   0.4500 
 29 H       -1.2480    -1.6210     2.7320 H     1 <1>   0.1500 
 30 H        1.2630     1.8810     1.3180 H     1 <1>   0.0800 
 31 H        2.4810     2.2470     2.5160 H     1 <1>   0.0800 
 32 H        4.8820     1.6540     1.5500 H     1 <1>   0.0800 
 33 H        4.6570     3.3850     1.5890 H     1 <1>   0.0800 
 34 H        2.3780    -0.2410     0.7670 H     1 <1>   0.0800 
 35 H        1.9040    -0.1570     2.4340 H     1 <1>   0.0800 
 36 H        3.5790     0.0570     2.0200 H     1 <1>   0.0800 
 37 H        5.4120     1.7630    -0.8760 H     1 <1>   0.0800 
 38 H        6.5200     2.6740     0.1060 H     1 <1>   0.0800 
 39 H        5.3100     3.5180    -0.8060 H     1 <1>   0.0800 
@<TRIPOS>BOND
  1   1   2  1   
  2   1  18  1   
  3   2   3  1   
  4   2   4  1   
  5   2   5  1   
  6   3   6  3   
  7   4   7  ar  
  8   4   8  ar  
  9   5  19  1   
 10   5  20  1   
 11   5  21  1   
 12   6   9  1   
 13   7  10  ar  
 14   7  22  1   
 15   8  11  ar  
 16   8  23  1   
 17   9  12  1   
 18   9  24  1   
 19   9  25  1   
 20  10  13  ar  
 21  10  26  1   
 22  11  13  ar  
 23  11  27  1   
 24  12  14  1   
 25  12  15  1   
 26  12  28  1   
 27  13  29  1   
 28  14  16  1   
 29  14  30  1   
 30  14  31  1   
 31  15  17  1   
 32  15  32  1   
 33  15  33  1   
 34  16  34  1   
 35  16  35  1   
 36  16  36  1   
 37  17  37  1   
 38  17  38  1   
 39  17  39  1   
@<TRIPOS>SUBSTRUCTURE
  1 ****   3 GROUP 4 **** **** 0

# MOE 2024.06 (io_trps.svl 2023.06)
