@<TRIPOS>MOLECULE
NONAME
48 49 1 0 0 
SMALL
USER_CHARGES


@<TRIPOS>ATOM
  1 S        0.0980     0.1370     0.9350 S.3   1 <1>  -0.3320 
  2 C        0.1460    -1.6010     0.5470 C.ar  1 <1>   0.7220 
  3 C        1.6030     0.8540     0.0880 C.3   1 <1>   0.2720 
  4 N        1.2510    -2.0300     0.0200 N.ar  1 <1>  -0.6200 
  5 N       -0.9270    -2.2670     0.8330 N.ar  1 <1>  -0.6200 
  6 C        2.8550     0.6160     0.9280 C.2   1 <1>   0.5690 
  7 C        1.4030     2.3310    -0.2470 C.2   1 <1>   0.4480 
  8 C        1.2260    -3.3170    -0.1990 C.ar  1 <1>   0.7200 
  9 C       -0.8400    -3.5400     0.5230 C.ar  1 <1>   0.7200 
 10 O        3.1950     1.4470     1.7370 O.2   1 <1>  -0.5700 
 11 N        3.5890    -0.5180     0.6890 N.am  1 <1>  -0.5470 
 12 O        0.3610     2.9010    -0.1110 O.2   1 <1>  -0.5700 
 13 C        2.5750     3.0760    -0.8620 C.3   1 <1>  -0.1790 
 14 N        0.2160    -4.1180     0.0040 N.ar  1 <1>  -0.6200 
 15 N        2.3920    -3.8580    -0.6570 N.pl3 1 <1>  -0.8380 
 16 N       -1.9460    -4.3260     0.7650 N.pl3 1 <1>  -0.8380 
 17 C        4.8420    -0.9130     1.1730 C.ar  1 <1>   0.1170 
 18 C        3.4180    -4.2150     0.3580 C.3   1 <1>   0.1290 
 19 C        2.3340    -4.7890    -1.8150 C.3   1 <1>   0.1290 
 20 C       -1.8980    -5.8160     0.7250 C.3   1 <1>   0.1290 
 21 C       -3.2750    -3.7450     1.1160 C.3   1 <1>   0.1290 
 22 C        5.2880    -0.5960     2.4510 C.ar  1 <1>  -0.1500 
 23 C        5.6660    -1.6730     0.3520 C.ar  1 <1>  -0.1500 
 24 C        6.5240    -1.0270     2.8960 C.ar  1 <1>  -0.1500 
 25 C        6.9030    -2.1070     0.7920 C.ar  1 <1>  -0.1500 
 26 C        7.3340    -1.7850     2.0680 C.ar  1 <1>  -0.1500 
 27 H        1.6950     0.3280    -0.8420 H     1 <1>   0.0800 
 28 H        3.1140    -1.2300     0.1150 H     1 <1>   0.3700 
 29 H        3.0190     2.4950    -1.6490 H     1 <1>   0.0800 
 30 H        3.3150     3.2890    -0.1120 H     1 <1>   0.0800 
 31 H        2.2330     4.0090    -1.2710 H     1 <1>   0.0800 
 32 H        3.2140    -5.1960     0.7520 H     1 <1>   0.0800 
 33 H        4.3970    -4.2110    -0.0880 H     1 <1>   0.0800 
 34 H        3.4020    -3.5090     1.1710 H     1 <1>   0.0800 
 35 H        1.5310    -4.5070    -2.4750 H     1 <1>   0.0800 
 36 H        2.1590    -5.7940    -1.4700 H     1 <1>   0.0800 
 37 H        3.2600    -4.7550    -2.3610 H     1 <1>   0.0800 
 38 H       -0.8970    -6.1730     0.8950 H     1 <1>   0.0800 
 39 H       -2.2330    -6.1610    -0.2380 H     1 <1>   0.0800 
 40 H       -2.5350    -6.2260     1.4890 H     1 <1>   0.0800 
 41 H       -3.3920    -2.7690     0.6760 H     1 <1>   0.0800 
 42 H       -3.3580    -3.6570     2.1850 H     1 <1>   0.0800 
 43 H       -4.0650    -4.3760     0.7490 H     1 <1>   0.0800 
 44 H        4.6650    -0.0120     3.1050 H     1 <1>   0.1500 
 45 H        5.3380    -1.9220    -0.6410 H     1 <1>   0.1500 
 46 H        6.8560    -0.7720     3.8880 H     1 <1>   0.1500 
 47 H        7.5350    -2.6920     0.1460 H     1 <1>   0.1500 
 48 H        8.2970    -2.1190     2.4140 H     1 <1>   0.1500 
@<TRIPOS>BOND
  1   1   2  1   
  2   1   3  1   
  3   2   4  ar  
  4   2   5  ar  
  5   3   6  1   
  6   3   7  1   
  7   3  27  1   
  8   4   8  ar  
  9   5   9  ar  
 10   6  10  2   
 11   6  11  am  
 12   7  12  2   
 13   7  13  1   
 14   8  14  ar  
 15   8  15  1   
 16   9  14  ar  
 17   9  16  1   
 18  11  17  1   
 19  11  28  1   
 20  13  29  1   
 21  13  30  1   
 22  13  31  1   
 23  15  18  1   
 24  15  19  1   
 25  16  20  1   
 26  16  21  1   
 27  17  22  ar  
 28  17  23  ar  
 29  18  32  1   
 30  18  33  1   
 31  18  34  1   
 32  19  35  1   
 33  19  36  1   
 34  19  37  1   
 35  20  38  1   
 36  20  39  1   
 37  20  40  1   
 38  21  41  1   
 39  21  42  1   
 40  21  43  1   
 41  22  24  ar  
 42  22  44  1   
 43  23  25  ar  
 44  23  45  1   
 45  24  26  ar  
 46  24  46  1   
 47  25  26  ar  
 48  25  47  1   
 49  26  48  1   
@<TRIPOS>SUBSTRUCTURE
  1 ****   4 GROUP 4 **** **** 0

# MOE 2024.06 (io_trps.svl 2023.06)
