@<TRIPOS>MOLECULE
NONAME
36 37 1 0 0 
SMALL
USER_CHARGES


@<TRIPOS>ATOM
  1 CL       0.3440    -0.5730    -1.6760 Cl    1 <1>  -0.1770 
  2 C        1.7200    -1.2410    -0.8540 C.ar  1 <1>   0.7970 
  3 N        2.7260    -0.4350    -0.6960 N.ar  1 <1>  -0.6200 
  4 N        1.6090    -2.4800    -0.4830 N.ar  1 <1>  -0.6200 
  5 C        3.7350    -0.9890    -0.0690 C.ar  1 <1>   0.7200 
  6 C        2.6770    -2.9060     0.1250 C.ar  1 <1>   0.7200 
  7 N        3.7620    -2.2250     0.3630 N.ar  1 <1>  -0.6200 
  8 N        4.8480    -0.2110     0.1470 N.pl3 1 <1>  -0.8380 
  9 N        2.6200    -4.1890     0.5320 N.pl3 1 <1>  -0.8690 
 10 C        4.9960     1.1860    -0.3770 C.3   1 <1>   0.2090 
 11 C        5.9830    -0.6180     1.0360 C.3   1 <1>   0.2090 
 12 C        3.8140    -5.0560     0.8040 C.3   1 <1>   0.2700 
 13 C        6.4110     1.4170    -0.9360 C.3   1 <1>   0.1200 
 14 C        7.3370    -0.2820     0.3850 C.3   1 <1>   0.1200 
 15 C        3.7710    -6.4160     0.1010 C.2   1 <1>   0.6590 
 16 O        7.3910     1.0630     0.0010 O.3   1 <1>  -0.5600 
 17 O        2.7630    -6.8560    -0.3950 O.2   1 <1>  -0.5700 
 18 O        4.9170    -7.0870     0.0750 O.3   1 <1>  -0.4300 
 19 C        5.0160    -8.3470    -0.5480 C.3   1 <1>   0.1200 
 20 C        6.4570    -8.8280    -0.4130 C.3   1 <1>  -0.2400 
 21 H        1.8130    -4.7040     0.1690 H     1 <1>   0.4000 
 22 H        4.8130     1.8840     0.4220 H     1 <1>   0.0800 
 23 H        4.2850     1.3860    -1.1590 H     1 <1>   0.0800 
 24 H        5.9570    -1.6710     1.2510 H     1 <1>   0.0800 
 25 H        5.9040    -0.0900     1.9710 H     1 <1>   0.0800 
 26 H        3.8800    -5.2270     1.8630 H     1 <1>   0.0800 
 27 H        4.7130    -4.5550     0.4940 H     1 <1>   0.0800 
 28 H        6.5480     2.4550    -1.1780 H     1 <1>   0.0800 
 29 H        6.5600     0.8320    -1.8270 H     1 <1>   0.0800 
 30 H        7.4960    -0.8960    -0.4840 H     1 <1>   0.0800 
 31 H        8.1360    -0.4560     1.0830 H     1 <1>   0.0800 
 32 H        4.7390    -8.2390    -1.5830 H     1 <1>   0.0800 
 33 H        4.3340    -9.0250    -0.0610 H     1 <1>   0.0800 
 34 H        7.1260    -8.1370    -0.8930 H     1 <1>   0.0800 
 35 H        6.5630    -9.7890    -0.8850 H     1 <1>   0.0800 
 36 H        6.7210    -8.9260     0.6240 H     1 <1>   0.0800 
@<TRIPOS>BOND
  1   1   2  1   
  2   2   3  ar  
  3   2   4  ar  
  4   3   5  ar  
  5   4   6  ar  
  6   5   7  ar  
  7   5   8  1   
  8   6   7  ar  
  9   6   9  1   
 10   8  10  1   
 11   8  11  1   
 12   9  12  1   
 13   9  21  1   
 14  10  13  1   
 15  10  22  1   
 16  10  23  1   
 17  11  14  1   
 18  11  24  1   
 19  11  25  1   
 20  12  15  1   
 21  12  26  1   
 22  12  27  1   
 23  13  16  1   
 24  13  28  1   
 25  13  29  1   
 26  14  16  1   
 27  14  30  1   
 28  14  31  1   
 29  15  17  2   
 30  15  18  1   
 31  18  19  1   
 32  19  20  1   
 33  19  32  1   
 34  19  33  1   
 35  20  34  1   
 36  20  35  1   
 37  20  36  1   
@<TRIPOS>SUBSTRUCTURE
  1 ****   7 GROUP 4 **** **** 0

# MOE 2024.06 (io_trps.svl 2023.06)
