@<TRIPOS>MOLECULE
NONAME
33 34 1 0 0 
SMALL
USER_CHARGES


@<TRIPOS>ATOM
  1 S       -0.0720     0.3760     0.0280 S.3   1 <1>  -0.3320 
  2 C       -1.5290    -0.6850     0.0340 C.ar  1 <1>   0.1020 
  3 C        1.3910    -0.7480    -0.0740 C.3   1 <1>   0.0700 
  4 C       -2.7610    -0.0590     0.1080 C.ar  1 <1>  -0.1500 
  5 C       -1.4380    -2.0670    -0.0320 C.ar  1 <1>  -0.1500 
  6 C        2.6530     0.1160    -0.0820 C.3   1 <1>  -0.0990 
  7 C       -3.9170    -0.8210     0.1170 C.ar  1 <1>  -0.1500 
  8 C       -2.5970    -2.8240    -0.0240 C.ar  1 <1>  -0.1500 
  9 C        3.9250    -0.7110    -0.1510 C.2   1 <1>   0.5690 
 10 C       -3.8340    -2.2020     0.0510 C.ar  1 <1>  -0.1500 
 11 O        3.8400    -1.9120    -0.2690 O.2   1 <1>  -0.5700 
 12 N        5.1360    -0.0850    -0.0790 N.am  1 <1>  -0.6600 
 13 C        5.3690     1.3700     0.0540 C.3   1 <1>   0.1400 
 14 C        6.4140    -0.8270    -0.1230 C.3   1 <1>   0.1400 
 15 C        6.8690     1.5440    -0.1530 C.3   1 <1>  -0.1600 
 16 C        7.4740     0.2020     0.2520 C.3   1 <1>  -0.1600 
 17 H        1.3020    -1.3200    -0.9810 H     1 <1>   0.0800 
 18 H        1.3650    -1.3970     0.7850 H     1 <1>   0.0800 
 19 H       -2.8100     1.0140     0.1580 H     1 <1>   0.1500 
 20 H       -0.4890    -2.5630    -0.0900 H     1 <1>   0.1500 
 21 H        2.6750     0.7080     0.8140 H     1 <1>   0.0800 
 22 H        2.6230     0.7710    -0.9320 H     1 <1>   0.0800 
 23 H       -4.8780    -0.3400     0.1740 H     1 <1>   0.1500 
 24 H       -2.5380    -3.8970    -0.0740 H     1 <1>   0.1500 
 25 H       -4.7320    -2.7940     0.0570 H     1 <1>   0.1500 
 26 H        5.0910     1.6820     1.0470 H     1 <1>   0.0800 
 27 H        4.8060     1.9250    -0.6770 H     1 <1>   0.0800 
 28 H        6.5720    -1.1900    -1.1250 H     1 <1>   0.0800 
 29 H        6.4000    -1.6570     0.5630 H     1 <1>   0.0800 
 30 H        7.2620     2.3620     0.4240 H     1 <1>   0.0800 
 31 H        7.0580     1.7280    -1.1960 H     1 <1>   0.0800 
 32 H        8.4110     0.0070    -0.2400 H     1 <1>   0.0800 
 33 H        7.6250     0.1740     1.3170 H     1 <1>   0.0800 
@<TRIPOS>BOND
  1   1   2  1   
  2   1   3  1   
  3   2   4  ar  
  4   2   5  ar  
  5   3   6  1   
  6   3  17  1   
  7   3  18  1   
  8   4   7  ar  
  9   4  19  1   
 10   5   8  ar  
 11   5  20  1   
 12   6   9  1   
 13   6  21  1   
 14   6  22  1   
 15   7  10  ar  
 16   7  23  1   
 17   8  10  ar  
 18   8  24  1   
 19   9  11  2   
 20   9  12  am  
 21  10  25  1   
 22  12  13  1   
 23  12  14  1   
 24  13  15  1   
 25  13  26  1   
 26  13  27  1   
 27  14  16  1   
 28  14  28  1   
 29  14  29  1   
 30  15  16  1   
 31  15  30  1   
 32  15  31  1   
 33  16  32  1   
 34  16  33  1   
@<TRIPOS>SUBSTRUCTURE
  1 ****   3 GROUP 4 **** **** 0

# MOE 2024.06 (io_trps.svl 2023.06)
