@<TRIPOS>MOLECULE
NONAME
44 47 1 0 0 
SMALL
USER_CHARGES


@<TRIPOS>ATOM
  1 O       -0.3720    -0.3230     0.3540 O.3   1 <1>  -0.5600 
  2 C       -0.3400    -1.1230    -0.7930 C.3   1 <1>   0.1200 
  3 C       -1.6470     0.1820     0.6350 C.3   1 <1>   0.1200 
  4 C       -1.3000    -2.3180    -0.6430 C.3   1 <1>   0.1100 
  5 C       -2.6540    -0.9650     0.8270 C.3   1 <1>   0.1100 
  6 N       -2.6710    -1.8630    -0.3480 N.3   1 <1>  -0.8100 
  7 C       -3.5770    -3.0070    -0.1600 C.3   1 <1>   0.3100 
  8 C       -4.9930    -2.5520    -0.0460 C.1   1 <1>  -0.2000 
  9 C       -6.1130    -2.1670     0.0540 C.1   1 <1>  -0.2000 
 10 C       -7.5080    -1.6500     0.1780 C.3   1 <1>   0.2000 
 11 C       -7.4930    -0.2600     0.8440 C.3   1 <1>  -0.1600 
 12 C       -8.1500    -1.5280    -1.2190 C.3   1 <1>  -0.1600 
 13 C       -8.3550    -2.6090     1.0380 C.3   1 <1>  -0.1600 
 14 C       -8.9270     0.2870     0.9760 C.3   1 <1>  -0.0800 
 15 C       -9.5900    -0.9900    -1.1010 C.3   1 <1>  -0.0800 
 16 C       -9.7960    -2.0770     1.1700 C.3   1 <1>  -0.0800 
 17 C       -9.5560     0.3950    -0.4260 C.3   1 <1>  -0.1600 
 18 C       -9.7620    -0.6860     1.8310 C.3   1 <1>  -0.1600 
 19 C      -10.4200    -1.9550    -0.2330 C.3   1 <1>  -0.1600 
 20 H        0.6690    -1.4690    -0.9250 H     1 <1>   0.0800 
 21 H       -0.6180    -0.5220    -1.6420 H     1 <1>   0.0800 
 22 H       -1.9540     0.8170    -0.1780 H     1 <1>   0.0800 
 23 H       -1.5770     0.7720     1.5310 H     1 <1>   0.0800 
 24 H       -0.9420    -2.9530     0.1490 H     1 <1>   0.0800 
 25 H       -1.3000    -2.8830    -1.5590 H     1 <1>   0.0800 
 26 H       -3.6320    -0.5400     0.9750 H     1 <1>   0.0800 
 27 H       -2.3900    -1.5170     1.7130 H     1 <1>   0.0800 
 28 H       -3.3010    -3.5560     0.7240 H     1 <1>   0.0800 
 29 H       -3.5000    -3.6650    -1.0090 H     1 <1>   0.0800 
 30 H       -6.8980     0.4170     0.2550 H     1 <1>   0.0800 
 31 H       -7.0400    -0.3300     1.8170 H     1 <1>   0.0800 
 32 H       -8.1600    -2.4910    -1.6980 H     1 <1>   0.0800 
 33 H       -7.5630    -0.8660    -1.8300 H     1 <1>   0.0800 
 34 H       -7.9130    -2.7070     2.0130 H     1 <1>   0.0800 
 35 H       -8.3680    -3.5850     0.5850 H     1 <1>   0.0800 
 36 H       -8.9060     1.2570     1.4420 H     1 <1>   0.0800 
 37 H      -10.0300    -0.9090    -2.0800 H     1 <1>   0.0800 
 38 H      -10.3800    -2.7530     1.7720 H     1 <1>   0.0800 
 39 H       -8.9860     1.0800    -1.0300 H     1 <1>   0.0800 
 40 H      -10.5560     0.7850    -0.3480 H     1 <1>   0.0800 
 41 H      -10.7640    -0.3090     1.9370 H     1 <1>   0.0800 
 42 H       -9.3360    -0.7610     2.8170 H     1 <1>   0.0800 
 43 H      -10.4570    -2.9240    -0.7000 H     1 <1>   0.0800 
 44 H      -11.4300    -1.5930    -0.1520 H     1 <1>   0.0800 
@<TRIPOS>BOND
  1   1   2  1   
  2   1   3  1   
  3   2   4  1   
  4   2  20  1   
  5   2  21  1   
  6   3   5  1   
  7   3  22  1   
  8   3  23  1   
  9   4   6  1   
 10   4  24  1   
 11   4  25  1   
 12   5   6  1   
 13   5  26  1   
 14   5  27  1   
 15   6   7  1   
 16   7   8  1   
 17   7  28  1   
 18   7  29  1   
 19   8   9  3   
 20   9  10  1   
 21  10  11  1   
 22  10  12  1   
 23  10  13  1   
 24  11  14  1   
 25  11  30  1   
 26  11  31  1   
 27  12  15  1   
 28  12  32  1   
 29  12  33  1   
 30  13  16  1   
 31  13  34  1   
 32  13  35  1   
 33  14  17  1   
 34  14  18  1   
 35  14  36  1   
 36  15  17  1   
 37  15  19  1   
 38  15  37  1   
 39  16  18  1   
 40  16  19  1   
 41  16  38  1   
 42  17  39  1   
 43  17  40  1   
 44  18  41  1   
 45  18  42  1   
 46  19  43  1   
 47  19  44  1   
@<TRIPOS>SUBSTRUCTURE
  1 ****   9 GROUP 4 **** **** 0

# MOE 2024.06 (io_trps.svl 2023.06)
