@<TRIPOS>MOLECULE
NONAME
47 49 1 0 0 
SMALL
USER_CHARGES


@<TRIPOS>ATOM
  1 BR       0.0770     0.3860    -0.4870 Br    1 <1>  -0.1110 
  2 C        1.7780    -0.5060    -0.3440 C.ar  1 <1>   0.1110 
  3 C        2.8680     0.0230    -1.0060 C.ar  1 <1>  -0.1500 
  4 C        1.8660    -1.6550     0.4190 C.ar  1 <1>  -0.1500 
  5 C        4.0860    -0.6250    -0.8980 C.ar  1 <1>  -0.1500 
  6 C        3.0920    -2.2900     0.5170 C.ar  1 <1>  -0.1500 
  7 C        4.2150    -1.7860    -0.1350 C.ar  1 <1>   0.1170 
  8 N        5.4290    -2.4790    -0.0160 N.am  1 <1>  -0.5470 
  9 C        6.7290    -2.0400    -0.1140 C.2   1 <1>   0.5440 
 10 O        6.9710    -0.8530    -0.2000 O.2   1 <1>  -0.5700 
 11 C        7.8150    -3.0010    -0.0820 C.ar  1 <1>   0.0860 
 12 C        9.0310    -2.6810     0.5220 C.ar  1 <1>  -0.1500 
 13 C        7.6960    -4.2700    -0.6500 C.ar  1 <1>  -0.1500 
 14 C       10.0960    -3.5690     0.5820 C.ar  1 <1>  -0.0090 
 15 C        8.7400    -5.1730    -0.6050 C.ar  1 <1>  -0.1500 
 16 S       11.6700    -3.0960     1.3530 S.o2  1 <1>   1.4470 
 17 C        9.9300    -4.8210     0.0060 C.ar  1 <1>  -0.1500 
 18 O       12.3960    -4.2790     1.7550 O.2   1 <1>  -0.6500 
 19 O       11.4660    -2.0150     2.2880 O.2   1 <1>  -0.6500 
 20 N       12.5000    -2.3670     0.0940 N.am  1 <1>  -0.9140 
 21 C       13.9300    -2.3210     0.2960 C.3   1 <1>   0.2760 
 22 C       14.4400    -0.9800    -0.2450 C.3   1 <1>  -0.1600 
 23 C       14.5870    -3.4890    -0.4520 C.3   1 <1>  -0.1600 
 24 C       15.9720    -0.8910    -0.1660 C.3   1 <1>  -0.1600 
 25 C       16.1190    -3.4110    -0.3790 C.3   1 <1>  -0.1600 
 26 C       16.6330    -2.0630    -0.9020 C.3   1 <1>  -0.1600 
 27 H        2.7660     0.9190    -1.5910 H     1 <1>   0.1500 
 28 H        0.9960    -2.0370     0.9210 H     1 <1>   0.1500 
 29 H        4.9400    -0.2240    -1.4140 H     1 <1>   0.1500 
 30 H        3.1740    -3.1830     1.1100 H     1 <1>   0.1500 
 31 H        5.3340    -3.4500     0.2730 H     1 <1>   0.3700 
 32 H        9.1400    -1.7010     0.9580 H     1 <1>   0.1500 
 33 H        6.7830    -4.5520    -1.1450 H     1 <1>   0.1500 
 34 H        8.6340    -6.1480    -1.0500 H     1 <1>   0.1500 
 35 H       10.7440    -5.5280     0.0340 H     1 <1>   0.1500 
 36 H       12.1850    -1.4030     0.1550 H     1 <1>   0.4200 
 37 H       14.1710    -2.3800     1.3470 H     1 <1>   0.0800 
 38 H       14.0140    -0.1740     0.3260 H     1 <1>   0.0800 
 39 H       14.1390    -0.8710    -1.2730 H     1 <1>   0.0800 
 40 H       14.2820    -3.4660    -1.4840 H     1 <1>   0.0800 
 41 H       14.2660    -4.4230    -0.0270 H     1 <1>   0.0800 
 42 H       16.2780    -0.9010     0.8670 H     1 <1>   0.0800 
 43 H       16.3030     0.0380    -0.5980 H     1 <1>   0.0800 
 44 H       16.5480    -4.2110    -0.9580 H     1 <1>   0.0800 
 45 H       16.4330    -3.5410     0.6440 H     1 <1>   0.0800 
 46 H       17.7010    -2.0120    -0.7780 H     1 <1>   0.0800 
 47 H       16.4200    -1.9880    -1.9550 H     1 <1>   0.0800 
@<TRIPOS>BOND
  1   1   2  1   
  2   2   3  ar  
  3   2   4  ar  
  4   3   5  ar  
  5   3  27  1   
  6   4   6  ar  
  7   4  28  1   
  8   5   7  ar  
  9   5  29  1   
 10   6   7  ar  
 11   6  30  1   
 12   7   8  1   
 13   8   9  am  
 14   8  31  1   
 15   9  10  2   
 16   9  11  1   
 17  11  12  ar  
 18  11  13  ar  
 19  12  14  ar  
 20  12  32  1   
 21  13  15  ar  
 22  13  33  1   
 23  14  16  1   
 24  14  17  ar  
 25  15  17  ar  
 26  15  34  1   
 27  16  18  2   
 28  16  19  2   
 29  16  20  am  
 30  17  35  1   
 31  20  21  1   
 32  20  36  1   
 33  21  22  1   
 34  21  23  1   
 35  21  37  1   
 36  22  24  1   
 37  22  38  1   
 38  22  39  1   
 39  23  25  1   
 40  23  40  1   
 41  23  41  1   
 42  24  26  1   
 43  24  42  1   
 44  24  43  1   
 45  25  26  1   
 46  25  44  1   
 47  25  45  1   
 48  26  46  1   
 49  26  47  1   
@<TRIPOS>SUBSTRUCTURE
  1 ****  12 GROUP 4 **** **** 0

# MOE 2024.06 (io_trps.svl 2023.06)
