@<TRIPOS>MOLECULE
NONAME
40 43 1 0 0 
SMALL
USER_CHARGES


@<TRIPOS>ATOM
  1 O       -0.4880     0.9350     2.0350 O.2   1 <1>  -0.5700 
  2 C       -1.2300     1.3970     1.2130 C.2   1 <1>   0.6590 
  3 O       -1.2400     2.6600     0.8430 O.3   1 <1>  -0.4300 
  4 C       -2.2690     0.6240     0.4440 C.3   1 <1>  -0.0190 
  5 C       -2.1860     2.8900    -0.1730 C.3   1 <1>   0.2000 
  6 C       -3.6520     0.7710     1.1380 C.3   1 <1>  -0.0190 
  7 C       -2.4170     1.5060    -0.8050 C.3   1 <1>  -0.0800 
  8 C       -3.5550     3.1960     0.4690 C.3   1 <1>  -0.1600 
  9 C       -4.4960    -0.5010     1.2110 C.2   1 <1>   0.5690 
 10 C       -4.3310     1.8720     0.2890 C.3   1 <1>  -0.0800 
 11 C       -3.9040     1.4930    -1.1180 C.3   1 <1>  -0.1600 
 12 O       -5.3260    -0.5640     2.0830 O.2   1 <1>  -0.5700 
 13 N       -4.3030    -1.5080     0.3070 N.am  1 <1>  -0.5470 
 14 C       -4.9540    -2.7480     0.2340 C.ar  1 <1>   0.1170 
 15 C       -4.2360    -3.9130     0.5150 C.ar  1 <1>  -0.1430 
 16 C       -6.2950    -2.8410    -0.1470 C.ar  1 <1>  -0.1430 
 17 C       -4.8560    -5.1460     0.4120 C.ar  1 <1>  -0.1500 
 18 C       -2.7770    -3.8550     0.9520 C.3   1 <1>  -0.0970 
 19 C       -6.8980    -4.0840    -0.2410 C.ar  1 <1>  -0.1500 
 20 C       -7.1250    -1.6030    -0.4660 C.3   1 <1>  -0.0970 
 21 C       -6.1830    -5.2340     0.0350 C.ar  1 <1>  -0.1500 
 22 H       -1.9470    -0.3820     0.2490 H     1 <1>   0.0800 
 23 H       -1.8380     3.6520    -0.8500 H     1 <1>   0.0800 
 24 H       -3.5310     1.1170     2.1510 H     1 <1>   0.0800 
 25 H       -1.7520     1.2800    -1.6200 H     1 <1>   0.0800 
 26 H       -4.0460     3.9800    -0.0820 H     1 <1>   0.0800 
 27 H       -3.4710     3.4950     1.5010 H     1 <1>   0.0800 
 28 H       -5.3940     1.9590     0.4440 H     1 <1>   0.0800 
 29 H       -4.2640     0.5290    -1.4340 H     1 <1>   0.0800 
 30 H       -4.1780     2.2370    -1.8490 H     1 <1>   0.0800 
 31 H       -3.5380    -1.3980    -0.3510 H     1 <1>   0.3700 
 32 H       -4.3130    -6.0500     0.6270 H     1 <1>   0.1500 
 33 H       -2.1660    -3.4760     0.1540 H     1 <1>   0.0800 
 34 H       -2.4160    -4.8310     1.2220 H     1 <1>   0.0800 
 35 H       -2.6760    -3.2130     1.8090 H     1 <1>   0.0800 
 36 H       -7.9310    -4.1670    -0.5280 H     1 <1>   0.1500 
 37 H       -7.3660    -1.0850     0.4460 H     1 <1>   0.0800 
 38 H       -8.0430    -1.8690    -0.9570 H     1 <1>   0.0800 
 39 H       -6.5790    -0.9390    -1.1100 H     1 <1>   0.0800 
 40 H       -6.6590    -6.1950    -0.0410 H     1 <1>   0.1500 
@<TRIPOS>BOND
  1   1   2  2   
  2   2   3  1   
  3   2   4  1   
  4   3   5  1   
  5   4   6  1   
  6   4   7  1   
  7   4  22  1   
  8   5   7  1   
  9   5   8  1   
 10   5  23  1   
 11   6   9  1   
 12   6  10  1   
 13   6  24  1   
 14   7  11  1   
 15   7  25  1   
 16   8  10  1   
 17   8  26  1   
 18   8  27  1   
 19   9  12  2   
 20   9  13  am  
 21  10  11  1   
 22  10  28  1   
 23  11  29  1   
 24  11  30  1   
 25  13  14  1   
 26  13  31  1   
 27  14  15  ar  
 28  14  16  ar  
 29  15  17  ar  
 30  15  18  1   
 31  16  19  ar  
 32  16  20  1   
 33  17  21  ar  
 34  17  32  1   
 35  18  33  1   
 36  18  34  1   
 37  18  35  1   
 38  19  21  ar  
 39  19  36  1   
 40  20  37  1   
 41  20  38  1   
 42  20  39  1   
 43  21  40  1   
@<TRIPOS>SUBSTRUCTURE
  1 ****  13 GROUP 4 **** **** 0

# MOE 2024.06 (io_trps.svl 2023.06)
