@<TRIPOS>MOLECULE
NONAME
50 53 1 0 0 
SMALL
USER_CHARGES


@<TRIPOS>ATOM
  1 S        2.7540    -1.2540    -0.4150 S.o2  1 <1>   1.4470 
  2 O        2.8430     0.0230    -1.0920 O.2   1 <1>  -0.6500 
  3 O        3.9750    -2.0280    -0.3200 O.2   1 <1>  -0.6500 
  4 N        2.3010    -0.9040     1.1900 N.am  1 <1>  -0.8490 
  5 C        1.3820    -2.2520    -1.0500 C.ar  1 <1>  -0.0090 
  6 C        3.1360    -1.5290     2.2250 C.3   1 <1>   0.1960 
  7 C        2.1580     0.5250     1.5020 C.3   1 <1>   0.1960 
  8 C        1.2850    -3.6010    -0.7390 C.ar  1 <1>  -0.1500 
  9 C        0.3830    -1.6910    -1.8380 C.ar  1 <1>  -0.1500 
 10 C        4.5660    -0.9330     2.3180 C.3   1 <1>   0.3430 
 11 C        3.5040     1.2920     1.4890 C.3   1 <1>   0.3430 
 12 C        0.2310    -4.3760    -1.1920 C.ar  1 <1>   0.0830 
 13 C       -0.6770    -2.4540    -2.3000 C.ar  1 <1>  -0.1500 
 14 N        4.7560     0.4790     1.7890 N.4   1 <1>  -0.9590 
 15 O        0.2380    -5.6800    -0.8240 O.3   1 <1>  -0.3620 
 16 C       -0.7570    -3.7960    -1.9800 C.ar  1 <1>  -0.1500 
 17 C        5.6340     0.4400     0.5790 C.3   1 <1>   0.4860 
 18 C       -0.7720    -6.5680    -1.2500 C.3   1 <1>   0.0400 
 19 C        6.1300     1.8450     0.3010 C.ar  1 <1>  -0.1440 
 20 C        5.5860     2.5650    -0.7600 C.ar  1 <1>  -0.1500 
 21 C        7.1220     2.4180     1.1000 C.ar  1 <1>  -0.1500 
 22 C        6.0410     3.8490    -0.9750 C.ar  1 <1>   0.0830 
 23 C        7.5670     3.7130     0.8620 C.ar  1 <1>  -0.1500 
 24 O        5.6550     4.7150    -1.9170 O.3   1 <1>  -0.3630 
 25 C        7.0030     4.4090    -0.1870 C.ar  1 <1>   0.0830 
 26 C        6.4340     5.8970    -1.7300 C.3   1 <1>   0.4000 
 27 O        7.2680     5.6520    -0.5980 O.3   1 <1>  -0.3620 
 28 H        3.2010    -2.5910     2.0510 H     1 <1>   0.0800 
 29 H        2.6520    -1.4070     3.1790 H     1 <1>   0.0800 
 30 H        1.7130     0.6260     2.4770 H     1 <1>   0.0800 
 31 H        1.4770     0.9870     0.8060 H     1 <1>   0.0800 
 32 H        2.0390    -4.0720    -0.1340 H     1 <1>   0.1500 
 33 H        0.4300    -0.6460    -2.0970 H     1 <1>   0.1500 
 34 H        5.2220    -1.5980     1.7790 H     1 <1>   0.0800 
 35 H        4.8740    -0.9740     3.3490 H     1 <1>   0.0800 
 36 H        3.4310     2.1100     2.1880 H     1 <1>   0.0800 
 37 H        3.6000     1.7400     0.5140 H     1 <1>   0.0800 
 38 H       -1.4400    -2.0010    -2.9110 H     1 <1>   0.1500 
 39 H        5.2980     1.0150     2.4770 H     1 <1>   0.4500 
 40 H       -1.5870    -4.3680    -2.3480 H     1 <1>   0.1500 
 41 H        5.0930     0.0690    -0.2750 H     1 <1>   0.0800 
 42 H        6.4790    -0.2070     0.7490 H     1 <1>   0.0800 
 43 H       -0.5530    -7.5410    -0.8470 H     1 <1>   0.0800 
 44 H       -0.7700    -6.6100    -2.3250 H     1 <1>   0.0800 
 45 H       -1.7200    -6.2240    -0.8790 H     1 <1>   0.0800 
 46 H        4.8310     2.1560    -1.4120 H     1 <1>   0.1500 
 47 H        7.5670     1.8670     1.9110 H     1 <1>   0.1500 
 48 H        8.3310     4.1740     1.4640 H     1 <1>   0.1500 
 49 H        5.7860     6.7310    -1.5290 H     1 <1>   0.0800 
 50 H        7.0460     6.0670    -2.5980 H     1 <1>   0.0800 
@<TRIPOS>BOND
  1   1   2  2   
  2   1   3  2   
  3   1   4  am  
  4   1   5  1   
  5   4   6  1   
  6   4   7  1   
  7   5   8  ar  
  8   5   9  ar  
  9   6  10  1   
 10   6  28  1   
 11   6  29  1   
 12   7  11  1   
 13   7  30  1   
 14   7  31  1   
 15   8  12  ar  
 16   8  32  1   
 17   9  13  ar  
 18   9  33  1   
 19  10  14  1   
 20  10  34  1   
 21  10  35  1   
 22  11  14  1   
 23  11  36  1   
 24  11  37  1   
 25  12  15  1   
 26  12  16  ar  
 27  13  16  ar  
 28  13  38  1   
 29  14  17  1   
 30  14  39  1   
 31  15  18  1   
 32  16  40  1   
 33  17  19  1   
 34  17  41  1   
 35  17  42  1   
 36  18  43  1   
 37  18  44  1   
 38  18  45  1   
 39  19  20  ar  
 40  19  21  ar  
 41  20  22  ar  
 42  20  46  1   
 43  21  23  ar  
 44  21  47  1   
 45  22  24  1   
 46  22  25  ar  
 47  23  25  ar  
 48  23  48  1   
 49  24  26  1   
 50  25  27  1   
 51  26  27  1   
 52  26  49  1   
 53  26  50  1   
@<TRIPOS>SUBSTRUCTURE
  1 ****   2 GROUP 4 **** **** 0

# MOE 2024.06 (io_trps.svl 2023.06)
