@<TRIPOS>MOLECULE
NONAME
34 36 1 0 0 
SMALL
USER_CHARGES


@<TRIPOS>ATOM
  1 O        0.5920    -3.3500    -1.6010 O.2   1 <1>  -0.5700 
  2 C        0.8940    -2.4810    -0.8030 C.2   1 <1>   0.7160 
  3 N       -0.0700    -1.9160    -0.0280 N.am  1 <1>  -0.7300 
  4 C        2.2470    -2.0420    -0.6640 C.2   1 <1>  -0.0860 
  5 C       -1.5040    -2.2320    -0.0260 C.3   1 <1>   0.2200 
  6 C        2.7820    -1.0900     0.1660 C.2   1 <1>  -0.0260 
  7 C        3.3450    -2.5170    -1.3780 C.2   1 <1>   0.1390 
  8 C       -2.2880    -0.9710    -0.4040 C.3   1 <1>  -0.1600 
  9 C       -1.8980    -2.7340     1.3670 C.3   1 <1>  -0.1600 
 10 N        2.1810    -0.2780     1.1070 N.2   1 <1>  -0.5760 
 11 N        4.1280    -1.0610    -0.1020 N.pl3 1 <1>   0.6010 
 12 N        4.4690    -1.9460    -1.0580 N.2   1 <1>  -0.7070 
 13 C       -3.8030    -1.2100    -0.3130 C.3   1 <1>  -0.1600 
 14 C       -3.4120    -2.9770     1.4630 C.3   1 <1>  -0.1600 
 15 C        2.9640     0.5360     1.7440 C.2   1 <1>   0.3760 
 16 C        4.9420    -0.1900     0.5850 C.2   1 <1>  -0.1810 
 17 C       -4.2010    -1.7170     1.0800 C.3   1 <1>  -0.1600 
 18 C        4.3660     0.6170     1.5160 C.2   1 <1>  -0.1360 
 19 H        0.2490    -1.1910     0.6230 H     1 <1>   0.3700 
 20 H       -1.7080    -3.0040    -0.7500 H     1 <1>   0.0800 
 21 H        3.2670    -3.2880    -2.1290 H     1 <1>   0.1500 
 22 H       -2.0330    -0.6840    -1.4090 H     1 <1>   0.0800 
 23 H       -2.0190    -0.1680     0.2590 H     1 <1>   0.0800 
 24 H       -1.6120    -2.0060     2.1060 H     1 <1>   0.0800 
 25 H       -1.3760    -3.6520     1.5720 H     1 <1>   0.0800 
 26 H       -4.0930    -1.9370    -1.0520 H     1 <1>   0.0800 
 27 H       -4.3260    -0.2940    -0.5270 H     1 <1>   0.0800 
 28 H       -3.6670    -3.2730     2.4650 H     1 <1>   0.0800 
 29 H       -3.6850    -3.7820     0.8020 H     1 <1>   0.0800 
 30 H        2.5430     1.1890     2.4870 H     1 <1>   0.0600 
 31 H        5.9860    -0.2100     0.3350 H     1 <1>   0.1500 
 32 H       -5.2550    -1.9340     1.0970 H     1 <1>   0.0800 
 33 H       -4.0130    -0.9450     1.8070 H     1 <1>   0.0800 
 34 H        4.9340     1.3230     2.0940 H     1 <1>   0.1500 
@<TRIPOS>BOND
  1   1   2  2   
  2   2   3  am  
  3   2   4  1   
  4   3   5  1   
  5   3  19  1   
  6   4   6  2   
  7   4   7  1   
  8   5   8  1   
  9   5   9  1   
 10   5  20  1   
 11   6  10  1   
 12   6  11  1   
 13   7  12  2   
 14   7  21  1   
 15   8  13  1   
 16   8  22  1   
 17   8  23  1   
 18   9  14  1   
 19   9  24  1   
 20   9  25  1   
 21  10  15  2   
 22  11  12  1   
 23  11  16  1   
 24  13  17  1   
 25  13  26  1   
 26  13  27  1   
 27  14  17  1   
 28  14  28  1   
 29  14  29  1   
 30  15  18  1   
 31  15  30  1   
 32  16  18  2   
 33  16  31  1   
 34  17  32  1   
 35  17  33  1   
 36  18  34  1   
@<TRIPOS>SUBSTRUCTURE
  1 ****   3 GROUP 4 **** **** 0

# MOE 2024.06 (io_trps.svl 2023.06)
