@<TRIPOS>MOLECULE
NONAME
29 29 1 0 0 
SMALL
USER_CHARGES


@<TRIPOS>ATOM
  1 S       -0.7710     0.1670    -0.4170 S.3   1 <1>  -0.3320 
  2 C       -0.4320     1.8630     0.1240 C.ar  1 <1>   0.1020 
  3 C        0.8480    -0.6800    -0.6920 C.3   1 <1>  -0.0100 
  4 C       -1.4730     2.6720     0.6080 C.ar  1 <1>   0.0860 
  5 C        0.8730     2.3310     0.0530 C.ar  1 <1>  -0.1500 
  6 C       -2.8690     2.2770     0.7000 C.2   1 <1>   0.5440 
  7 C       -1.1220     3.9560     1.0320 C.ar  1 <1>  -0.1500 
  8 C        1.1780     3.6110     0.4750 C.ar  1 <1>  -0.1500 
  9 O       -3.5300     2.6300     1.6580 O.2   1 <1>  -0.5700 
 10 N       -3.4680     1.5570    -0.2990 N.am  1 <1>  -0.7300 
 11 C        0.1760     4.4240     0.9690 C.ar  1 <1>  -0.1500 
 12 C       -4.8500     1.0500    -0.3890 C.3   1 <1>   0.2200 
 13 C       -5.8460     2.2070    -0.3870 C.3   1 <1>  -0.2400 
 14 C       -5.1160     0.0530     0.7360 C.3   1 <1>  -0.2400 
 15 H        0.6410    -1.7130    -0.9050 H     1 <1>   0.0800 
 16 H        1.4310    -0.5870     0.2070 H     1 <1>   0.0800 
 17 H        1.3340    -0.2110    -1.5290 H     1 <1>   0.0800 
 18 H        1.6670     1.7210    -0.3280 H     1 <1>   0.1500 
 19 H       -1.8940     4.5990     1.4210 H     1 <1>   0.1500 
 20 H        2.1900     3.9750     0.4220 H     1 <1>   0.1500 
 21 H       -2.8280     1.1150    -0.9630 H     1 <1>   0.3700 
 22 H        0.4070     5.4210     1.3050 H     1 <1>   0.1500 
 23 H       -4.9460     0.5310    -1.3280 H     1 <1>   0.0800 
 24 H       -5.8340     2.7210     0.5580 H     1 <1>   0.0800 
 25 H       -6.8400     1.8340    -0.5530 H     1 <1>   0.0800 
 26 H       -5.6060     2.9020    -1.1700 H     1 <1>   0.0800 
 27 H       -5.0750     0.5410     1.6930 H     1 <1>   0.0800 
 28 H       -4.3860    -0.7360     0.7110 H     1 <1>   0.0800 
 29 H       -6.0920    -0.3790     0.6190 H     1 <1>   0.0800 
@<TRIPOS>BOND
  1   1   2  1   
  2   1   3  1   
  3   2   4  ar  
  4   2   5  ar  
  5   3  15  1   
  6   3  16  1   
  7   3  17  1   
  8   4   6  1   
  9   4   7  ar  
 10   5   8  ar  
 11   5  18  1   
 12   6   9  2   
 13   6  10  am  
 14   7  11  ar  
 15   7  19  1   
 16   8  11  ar  
 17   8  20  1   
 18  10  12  1   
 19  10  21  1   
 20  11  22  1   
 21  12  13  1   
 22  12  14  1   
 23  12  23  1   
 24  13  24  1   
 25  13  25  1   
 26  13  26  1   
 27  14  27  1   
 28  14  28  1   
 29  14  29  1   
@<TRIPOS>SUBSTRUCTURE
  1 ****   4 GROUP 4 **** **** 0

# MOE 2024.06 (io_trps.svl 2023.06)
