@<TRIPOS>MOLECULE
NONAME
41 43 1 0 0 
SMALL
USER_CHARGES


@<TRIPOS>ATOM
  1 S       -0.2310    -0.6170     1.2320 S.o2  1 <1>   1.4470 
  2 O       -0.2320    -1.6930     2.2000 O.2   1 <1>  -0.6500 
  3 O        0.3270     0.6670     1.5950 O.2   1 <1>  -0.6500 
  4 N        0.6410    -1.1670    -0.1130 N.am  1 <1>  -0.8490 
  5 C       -1.9030    -0.3770     0.5700 C.ar  1 <1>  -0.0090 
  6 C        2.0910    -1.1050     0.1300 C.3   1 <1>   0.1960 
  7 C        0.2750    -2.5380    -0.5070 C.3   1 <1>   0.1960 
  8 C       -3.0020    -1.0190     1.1260 C.ar  1 <1>  -0.1500 
  9 C       -2.1290     0.4550    -0.5190 C.ar  1 <1>  -0.1500 
 10 C        2.8830    -1.6160    -1.0870 C.3   1 <1>   0.1200 
 11 C        1.1060    -3.0050    -1.7160 C.3   1 <1>   0.1200 
 12 C       -4.2810    -0.8440     0.6210 C.ar  1 <1>  -0.1430 
 13 C       -3.4000     0.6370    -1.0320 C.ar  1 <1>  -0.1500 
 14 O        2.4740    -2.9090    -1.4370 O.3   1 <1>  -0.5600 
 15 C       -4.5000    -0.0040    -0.4680 C.ar  1 <1>   0.1170 
 16 C       -5.4500    -1.5690     1.2680 C.3   1 <1>   0.2840 
 17 N       -5.8090     0.1510    -0.9620 N.am  1 <1>  -0.4770 
 18 N       -6.6130    -1.6670     0.3580 N.am  1 <1>  -0.6600 
 19 C       -6.8120    -0.7470    -0.6420 C.2   1 <1>   0.6900 
 20 C       -6.1370     1.3010    -1.8530 C.3   1 <1>   0.0600 
 21 C       -7.6400    -2.6820     0.7230 C.3   1 <1>   0.0600 
 22 O       -7.8760    -0.7220    -1.2400 O.2   1 <1>  -0.5700 
 23 H        2.3470    -1.6970     0.9930 H     1 <1>   0.0800 
 24 H        2.3810    -0.0870     0.3290 H     1 <1>   0.0800 
 25 H       -0.7690    -2.5760    -0.7650 H     1 <1>   0.0800 
 26 H        0.4430    -3.2210     0.3100 H     1 <1>   0.0800 
 27 H       -2.8480    -1.6680     1.9730 H     1 <1>   0.1500 
 28 H       -1.2930     0.9640    -0.9690 H     1 <1>   0.1500 
 29 H        3.9330    -1.6550    -0.8590 H     1 <1>   0.0800 
 30 H        2.7350    -0.9670    -1.9320 H     1 <1>   0.0800 
 31 H        0.8860    -2.4040    -2.5810 H     1 <1>   0.0800 
 32 H        0.8900    -4.0340    -1.9430 H     1 <1>   0.0800 
 33 H       -3.5230     1.2800    -1.8830 H     1 <1>   0.1500 
 34 H       -5.7490    -1.0400     2.1570 H     1 <1>   0.0800 
 35 H       -5.1390    -2.5600     1.5470 H     1 <1>   0.0800 
 36 H       -5.8510     1.0650    -2.8620 H     1 <1>   0.0800 
 37 H       -5.6170     2.1820    -1.5240 H     1 <1>   0.0800 
 38 H       -7.1920     1.5100    -1.8300 H     1 <1>   0.0800 
 39 H       -7.1810    -3.6510     0.8110 H     1 <1>   0.0800 
 40 H       -8.4070    -2.7370    -0.0300 H     1 <1>   0.0800 
 41 H       -8.0960    -2.4150     1.6600 H     1 <1>   0.0800 
@<TRIPOS>BOND
  1   1   2  2   
  2   1   3  2   
  3   1   4  am  
  4   1   5  1   
  5   4   6  1   
  6   4   7  1   
  7   5   8  ar  
  8   5   9  ar  
  9   6  10  1   
 10   6  23  1   
 11   6  24  1   
 12   7  11  1   
 13   7  25  1   
 14   7  26  1   
 15   8  12  ar  
 16   8  27  1   
 17   9  13  ar  
 18   9  28  1   
 19  10  14  1   
 20  10  29  1   
 21  10  30  1   
 22  11  14  1   
 23  11  31  1   
 24  11  32  1   
 25  12  15  ar  
 26  12  16  1   
 27  13  15  ar  
 28  13  33  1   
 29  15  17  1   
 30  16  18  1   
 31  16  34  1   
 32  16  35  1   
 33  17  19  am  
 34  17  20  1   
 35  18  19  am  
 36  18  21  1   
 37  19  22  2   
 38  20  36  1   
 39  20  37  1   
 40  20  38  1   
 41  21  39  1   
 42  21  40  1   
 43  21  41  1   
@<TRIPOS>SUBSTRUCTURE
  1 ****   5 GROUP 4 **** **** 0

# MOE 2024.06 (io_trps.svl 2023.06)
