@<TRIPOS>MOLECULE
NONAME
39 40 1 0 0 
SMALL
USER_CHARGES


@<TRIPOS>ATOM
  1 O        0.2240    -0.8010     0.7790 O.2   1 <1>  -0.5700 
  2 C        0.0200    -1.6160    -0.0820 C.2   1 <1>   0.5690 
  3 N       -1.1730    -1.6650    -0.6990 N.am  1 <1>  -0.8000 
  4 C        1.1320    -2.5890    -0.4640 C.3   1 <1>  -0.0190 
  5 C        1.5330    -3.4540     0.7480 C.3   1 <1>  -0.1600 
  6 C        2.3540    -1.8250    -1.0080 C.3   1 <1>  -0.1600 
  7 C        2.7540    -4.3250     0.4610 C.3   1 <1>   0.3430 
  8 C        3.5530    -2.7390    -1.2470 C.3   1 <1>   0.3430 
  9 N        3.8820    -3.4610     0.0170 N.4   1 <1>  -0.9590 
 10 C        5.1480    -4.2470    -0.0820 C.3   1 <1>   0.3430 
 11 C        6.3880    -3.3470    -0.2130 C.3   1 <1>  -0.0800 
 12 C        7.6460    -4.2360    -0.2920 C.3   1 <1>  -0.0220 
 13 C        6.5220    -2.3250     0.9400 C.3   1 <1>  -0.1600 
 14 C        8.9120    -3.4070    -0.1930 C.2   1 <1>  -0.2880 
 15 C        7.7190    -1.3850     0.7230 C.3   1 <1>  -0.0220 
 16 C        8.9410    -2.1470     0.2460 C.2   1 <1>  -0.2880 
 17 H       -1.8960    -0.9980    -0.4190 H     1 <1>   0.3700 
 18 H       -1.4350    -2.3190    -1.4360 H     1 <1>   0.3700 
 19 H        0.7630    -3.2390    -1.2390 H     1 <1>   0.0800 
 20 H        0.7060    -4.0850     1.0240 H     1 <1>   0.0800 
 21 H        1.7460    -2.8230     1.5950 H     1 <1>   0.0800 
 22 H        2.6400    -1.0490    -0.3170 H     1 <1>   0.0800 
 23 H        2.0890    -1.3420    -1.9330 H     1 <1>   0.0800 
 24 H        2.5170    -5.0440    -0.3070 H     1 <1>   0.0800 
 25 H        3.0270    -4.8600     1.3570 H     1 <1>   0.0800 
 26 H        4.3920    -2.1420    -1.5660 H     1 <1>   0.0800 
 27 H        3.3240    -3.4480    -2.0260 H     1 <1>   0.0800 
 28 H        4.0190    -2.7480     0.7470 H     1 <1>   0.4500 
 29 H        5.0980    -4.9140    -0.9270 H     1 <1>   0.0800 
 30 H        5.2620    -4.8480     0.8060 H     1 <1>   0.0800 
 31 H        6.3340    -2.8060    -1.1420 H     1 <1>   0.0800 
 32 H        7.6500    -4.7700    -1.2270 H     1 <1>   0.0800 
 33 H        7.6550    -4.9580     0.5070 H     1 <1>   0.0800 
 34 H        6.6680    -2.8540     1.8660 H     1 <1>   0.0800 
 35 H        5.6400    -1.7190     1.0370 H     1 <1>   0.0800 
 36 H        9.7980    -3.9350    -0.5080 H     1 <1>   0.1500 
 37 H        7.9480    -0.8830     1.6480 H     1 <1>   0.0800 
 38 H        7.4730    -0.6350    -0.0090 H     1 <1>   0.0800 
 39 H        9.8490    -1.5670     0.2950 H     1 <1>   0.1500 
@<TRIPOS>BOND
  1   1   2  2   
  2   2   3  am  
  3   2   4  1   
  4   3  17  1   
  5   3  18  1   
  6   4   5  1   
  7   4   6  1   
  8   4  19  1   
  9   5   7  1   
 10   5  20  1   
 11   5  21  1   
 12   6   8  1   
 13   6  22  1   
 14   6  23  1   
 15   7   9  1   
 16   7  24  1   
 17   7  25  1   
 18   8   9  1   
 19   8  26  1   
 20   8  27  1   
 21   9  10  1   
 22   9  28  1   
 23  10  11  1   
 24  10  29  1   
 25  10  30  1   
 26  11  12  1   
 27  11  13  1   
 28  11  31  1   
 29  12  14  1   
 30  12  32  1   
 31  12  33  1   
 32  13  15  1   
 33  13  34  1   
 34  13  35  1   
 35  14  16  2   
 36  14  36  1   
 37  15  16  1   
 38  15  37  1   
 39  15  38  1   
 40  16  39  1   
@<TRIPOS>SUBSTRUCTURE
  1 ****   9 GROUP 4 **** **** 0

# MOE 2024.06 (io_trps.svl 2023.06)
