@<TRIPOS>MOLECULE
NONAME
59 62 1 0 0 
SMALL
USER_CHARGES


@<TRIPOS>ATOM
  1 S        0.4540     0.4280    -0.0900 S.3   1 <1>  -0.3320 
  2 C       -1.2070     1.0580     0.0740 C.ar  1 <1>   0.7220 
  3 C        1.5300     1.8540     0.4420 C.3   1 <1>   0.1310 
  4 N       -1.3110     2.2820     0.4910 N.ar  1 <1>  -0.6200 
  5 N       -2.1460     0.2250    -0.2410 N.ar  1 <1>  -0.6200 
  6 C        3.0120     1.5210     0.3660 C.2   1 <1>   0.5690 
  7 C       -2.5560     2.6810     0.5900 C.ar  1 <1>   0.7200 
  8 C       -3.3470     0.7330    -0.1040 C.ar  1 <1>   0.7200 
  9 O        3.8030     2.3880     0.6500 O.2   1 <1>  -0.5700 
 10 N        3.4120     0.2790    -0.0110 N.am  1 <1>  -0.7300 
 11 N       -3.6030     1.9490     0.3070 N.ar  1 <1>  -0.6200 
 12 N       -2.7710     3.9690     1.0270 N.pl3 1 <1>  -0.8380 
 13 N       -4.4180    -0.0770    -0.4130 N.pl3 1 <1>  -0.8380 
 14 C        4.8030    -0.1820    -0.1300 C.3   1 <1>   0.2200 
 15 C       -4.1340     4.5330     1.2920 C.3   1 <1>   0.2090 
 16 C       -1.6730     4.9270     1.3770 C.3   1 <1>   0.2090 
 17 C       -4.2790    -1.5030    -0.8500 C.3   1 <1>   0.2090 
 18 C       -5.8460     0.3360    -0.2310 C.3   1 <1>   0.2090 
 19 C        5.0640    -0.5920    -1.5830 C.3   1 <1>  -0.1600 
 20 C        5.0180    -1.3570     0.8280 C.3   1 <1>  -0.1600 
 21 C       -4.2650     5.9500     0.7070 C.3   1 <1>   0.1200 
 22 C       -1.9540     6.3220     0.7880 C.3   1 <1>   0.1200 
 23 C       -5.2320    -1.8190    -2.0170 C.3   1 <1>   0.1200 
 24 C       -6.6990    -0.0870    -1.4390 C.3   1 <1>   0.1200 
 25 C        6.4700    -1.1880    -1.7480 C.3   1 <1>  -0.1600 
 26 C        6.4240    -1.9550     0.6680 C.3   1 <1>  -0.1600 
 27 O       -3.2270     6.7780     1.1530 O.3   1 <1>  -0.5600 
 28 O       -6.5490    -1.4530    -1.7090 O.3   1 <1>  -0.5600 
 29 C        6.6890    -2.3650    -0.7870 C.3   1 <1>  -0.1600 
 30 H        1.2600     2.0980     1.4520 H     1 <1>   0.0800 
 31 H        1.3070     2.6810    -0.2050 H     1 <1>   0.0800 
 32 H        2.6970    -0.4130    -0.2450 H     1 <1>   0.3700 
 33 H        5.4750     0.6180     0.1360 H     1 <1>   0.0800 
 34 H       -4.2960     4.5740     2.3550 H     1 <1>   0.0800 
 35 H       -4.9050     3.9160     0.8670 H     1 <1>   0.0800 
 36 H       -0.7230     4.5870     1.0060 H     1 <1>   0.0800 
 37 H       -1.6020     5.0050     2.4470 H     1 <1>   0.0800 
 38 H       -4.5110    -2.1490    -0.0220 H     1 <1>   0.0800 
 39 H       -3.2730    -1.7210    -1.1640 H     1 <1>   0.0800 
 40 H       -5.9340     1.4010    -0.1090 H     1 <1>   0.0800 
 41 H       -6.2360    -0.1300     0.6570 H     1 <1>   0.0800 
 42 H        4.9690     0.2720    -2.2180 H     1 <1>   0.0800 
 43 H        4.3370    -1.3230    -1.8880 H     1 <1>   0.0800 
 44 H        4.2880    -2.1230     0.6300 H     1 <1>   0.0800 
 45 H        4.8910    -1.0170     1.8410 H     1 <1>   0.0800 
 46 H       -5.1940     6.3930     1.0170 H     1 <1>   0.0800 
 47 H       -4.2410     5.9140    -0.3680 H     1 <1>   0.0800 
 48 H       -1.8920     6.2940    -0.2850 H     1 <1>   0.0800 
 49 H       -1.2340     7.0300     1.1580 H     1 <1>   0.0800 
 50 H       -5.2240    -2.8730    -2.2250 H     1 <1>   0.0800 
 51 H       -4.9260    -1.2890    -2.9020 H     1 <1>   0.0800 
 52 H       -6.4110     0.4710    -2.3130 H     1 <1>   0.0800 
 53 H       -7.7400     0.0960    -1.2390 H     1 <1>   0.0800 
 54 H        7.2050    -0.4260    -1.5500 H     1 <1>   0.0800 
 55 H        6.6060    -1.5200    -2.7630 H     1 <1>   0.0800 
 56 H        6.5270    -2.8130     1.3100 H     1 <1>   0.0800 
 57 H        7.1570    -1.2260     0.9710 H     1 <1>   0.0800 
 58 H        7.7000    -2.7240    -0.8810 H     1 <1>   0.0800 
 59 H        6.0280    -3.1720    -1.0560 H     1 <1>   0.0800 
@<TRIPOS>BOND
  1   1   2  1   
  2   1   3  1   
  3   2   4  ar  
  4   2   5  ar  
  5   3   6  1   
  6   3  30  1   
  7   3  31  1   
  8   4   7  ar  
  9   5   8  ar  
 10   6   9  2   
 11   6  10  am  
 12   7  11  ar  
 13   7  12  1   
 14   8  11  ar  
 15   8  13  1   
 16  10  14  1   
 17  10  32  1   
 18  12  15  1   
 19  12  16  1   
 20  13  17  1   
 21  13  18  1   
 22  14  19  1   
 23  14  20  1   
 24  14  33  1   
 25  15  21  1   
 26  15  34  1   
 27  15  35  1   
 28  16  22  1   
 29  16  36  1   
 30  16  37  1   
 31  17  23  1   
 32  17  38  1   
 33  17  39  1   
 34  18  24  1   
 35  18  40  1   
 36  18  41  1   
 37  19  25  1   
 38  19  42  1   
 39  19  43  1   
 40  20  26  1   
 41  20  44  1   
 42  20  45  1   
 43  21  27  1   
 44  21  46  1   
 45  21  47  1   
 46  22  27  1   
 47  22  48  1   
 48  22  49  1   
 49  23  28  1   
 50  23  50  1   
 51  23  51  1   
 52  24  28  1   
 53  24  52  1   
 54  24  53  1   
 55  25  29  1   
 56  25  54  1   
 57  25  55  1   
 58  26  29  1   
 59  26  56  1   
 60  26  57  1   
 61  29  58  1   
 62  29  59  1   
@<TRIPOS>SUBSTRUCTURE
  1 ****   2 GROUP 4 **** **** 0

# MOE 2024.06 (io_trps.svl 2023.06)
