@<TRIPOS>MOLECULE
NONAME
43 44 1 0 0 
SMALL
USER_CHARGES


@<TRIPOS>ATOM
  1 O       -0.2910     1.7240     2.6260 O.2   1 <1>  -0.5700 
  2 C       -0.0570     1.8820     1.4430 C.2   1 <1>   0.6900 
  3 N        1.1980     2.2510     1.0390 N.am  1 <1>  -0.6600 
  4 N       -1.0330     1.7800     0.4970 N.am  1 <1>  -0.5470 
  5 C        2.0130     1.6570    -0.0650 C.3   1 <1>   0.2200 
  6 C        1.9410     3.2540     1.8410 C.3   1 <1>   0.1400 
  7 C       -2.3750     1.3720     0.5370 C.ar  1 <1>   0.1170 
  8 C        2.4020     2.7910    -1.0280 C.3   1 <1>  -0.1600 
  9 C        1.3440     0.4640    -0.7770 C.3   1 <1>  -0.1600 
 10 C        2.3560     4.4110     0.9240 C.3   1 <1>  -0.1600 
 11 C       -3.2580     1.7800    -0.4720 C.ar  1 <1>  -0.1430 
 12 C       -2.8410     0.5400     1.5480 C.ar  1 <1>  -0.1500 
 13 C        3.1500     3.9180    -0.2950 C.3   1 <1>  -0.1600 
 14 C        2.3190    -0.3400    -1.6510 C.3   1 <1>  -0.2400 
 15 C       -4.5810     1.3390    -0.4550 C.ar  1 <1>  -0.1430 
 16 C       -2.7410     2.7080    -1.5750 C.3   1 <1>  -0.0970 
 17 C       -4.1520     0.1140     1.5680 C.ar  1 <1>  -0.1500 
 18 C       -5.0170     0.5120     0.5680 C.ar  1 <1>  -0.1500 
 19 C       -5.5920     1.7280    -1.5270 C.3   1 <1>  -0.0970 
 20 H       -0.7200     2.1420    -0.3950 H     1 <1>   0.3700 
 21 H        2.9170     1.2820     0.3860 H     1 <1>   0.0800 
 22 H        2.8090     2.7890     2.2760 H     1 <1>   0.0800 
 23 H        1.3230     3.6280     2.6400 H     1 <1>   0.0800 
 24 H        1.5130     3.1840    -1.4890 H     1 <1>   0.0800 
 25 H        3.0360     2.4110    -1.8080 H     1 <1>   0.0800 
 26 H        0.5350     0.8050    -1.3970 H     1 <1>   0.0800 
 27 H        0.9480    -0.2060    -0.0340 H     1 <1>   0.0800 
 28 H        2.9490     5.1120     1.4840 H     1 <1>   0.0800 
 29 H        1.4680     4.9230     0.5960 H     1 <1>   0.0800 
 30 H       -2.1750     0.2170     2.3270 H     1 <1>   0.1500 
 31 H        3.3270     4.7370    -0.9700 H     1 <1>   0.0800 
 32 H        4.1060     3.5490     0.0340 H     1 <1>   0.0800 
 33 H        2.6800     0.2490    -2.4750 H     1 <1>   0.0800 
 34 H        1.8170    -1.2030    -2.0530 H     1 <1>   0.0800 
 35 H        3.1570    -0.6780    -1.0680 H     1 <1>   0.0800 
 36 H       -2.1960     3.5280    -1.1430 H     1 <1>   0.0800 
 37 H       -3.5310     3.1350    -2.1610 H     1 <1>   0.0800 
 38 H       -2.0920     2.1610    -2.2340 H     1 <1>   0.0800 
 39 H       -4.4970    -0.5270     2.3600 H     1 <1>   0.1500 
 40 H       -6.0360     0.1690     0.5960 H     1 <1>   0.1500 
 41 H       -5.2140     1.4750    -2.5010 H     1 <1>   0.0800 
 42 H       -5.7840     2.7850    -1.4830 H     1 <1>   0.0800 
 43 H       -6.5240     1.2120    -1.3870 H     1 <1>   0.0800 
@<TRIPOS>BOND
  1   1   2  2   
  2   2   3  am  
  3   2   4  am  
  4   3   5  1   
  5   3   6  1   
  6   4   7  1   
  7   4  20  1   
  8   5   8  1   
  9   5   9  1   
 10   5  21  1   
 11   6  10  1   
 12   6  22  1   
 13   6  23  1   
 14   7  11  ar  
 15   7  12  ar  
 16   8  13  1   
 17   8  24  1   
 18   8  25  1   
 19   9  14  1   
 20   9  26  1   
 21   9  27  1   
 22  10  13  1   
 23  10  28  1   
 24  10  29  1   
 25  11  15  ar  
 26  11  16  1   
 27  12  17  ar  
 28  12  30  1   
 29  13  31  1   
 30  13  32  1   
 31  14  33  1   
 32  14  34  1   
 33  14  35  1   
 34  15  18  ar  
 35  15  19  1   
 36  16  36  1   
 37  16  37  1   
 38  16  38  1   
 39  17  18  ar  
 40  17  39  1   
 41  18  40  1   
 42  19  41  1   
 43  19  42  1   
 44  19  43  1   
@<TRIPOS>SUBSTRUCTURE
  1 ****   4 GROUP 4 **** **** 0

# MOE 2024.06 (io_trps.svl 2023.06)
