@<TRIPOS>MOLECULE
NONAME
44 44 1 0 0 
SMALL
USER_CHARGES


@<TRIPOS>ATOM
  1 S        0.2220     0.6730     1.4690 S.o2  1 <1>   1.3330 
  2 O        1.5490     0.4560     1.9980 O.2   1 <1>  -0.6500 
  3 O       -0.4500    -0.3720     0.7380 O.2   1 <1>  -0.6500 
  4 N        0.3150     2.0600     0.4460 N.am  1 <1>  -0.6930 
  5 C       -0.8280     1.2420     2.7880 C.3   1 <1>  -0.1350 
  6 C       -0.8040     2.5080    -0.2620 C.ar  1 <1>   0.1990 
  7 C        1.5010     2.9640     0.5690 C.3   1 <1>   0.2570 
  8 C       -1.6020     3.5670     0.1980 C.ar  1 <1>   0.0830 
  9 C       -1.1330     1.8840    -1.4550 C.ar  1 <1>  -0.1500 
 10 C        2.6980     2.5360    -0.2870 C.2   1 <1>   0.5690 
 11 O       -1.2580     4.1520     1.3880 O.3   1 <1>  -0.3630 
 12 C       -2.7020     3.9810    -0.5470 C.ar  1 <1>  -0.1500 
 13 C       -2.2280     2.2990    -2.1910 C.ar  1 <1>  -0.1500 
 14 O        3.0870     3.2930    -1.1460 O.2   1 <1>  -0.5700 
 15 N        3.2910     1.3340    -0.0370 N.am  1 <1>  -0.7300 
 16 C       -1.8550     5.3590     1.8100 C.3   1 <1>   0.0400 
 17 C       -3.0150     3.3460    -1.7460 C.ar  1 <1>   0.0830 
 18 C        4.3940     0.6720    -0.7520 C.3   1 <1>   0.2200 
 19 O       -4.0710     3.6870    -2.5340 O.3   1 <1>  -0.3630 
 20 C        5.6660     1.5100    -0.6490 C.3   1 <1>  -0.2400 
 21 C        3.9900     0.4110    -2.2010 C.3   1 <1>  -0.2400 
 22 C       -4.9330     4.7470    -2.1860 C.3   1 <1>   0.0400 
 23 H       -0.9480     0.4710     3.5220 H     1 <1>   0.0800 
 24 H       -1.7940     1.5020     2.4020 H     1 <1>   0.0800 
 25 H       -0.4010     2.1060     3.2570 H     1 <1>   0.0800 
 26 H        1.8130     3.0140     1.5950 H     1 <1>   0.0800 
 27 H        1.2200     3.9570     0.2660 H     1 <1>   0.0800 
 28 H       -0.5260     1.0680    -1.8030 H     1 <1>   0.1500 
 29 H       -3.3160     4.7850    -0.2010 H     1 <1>   0.1500 
 30 H       -2.4760     1.8100    -3.1160 H     1 <1>   0.1500 
 31 H        2.8750     0.7600     0.7110 H     1 <1>   0.3700 
 32 H       -1.3630     5.6780     2.7120 H     1 <1>   0.0800 
 33 H       -2.8980     5.1850     2.0080 H     1 <1>   0.0800 
 34 H       -1.7250     6.1020     1.0430 H     1 <1>   0.0800 
 35 H        4.5730    -0.2770    -0.2740 H     1 <1>   0.0800 
 36 H        5.5450     2.4500    -1.1580 H     1 <1>   0.0800 
 37 H        6.4860     0.9850    -1.1020 H     1 <1>   0.0800 
 38 H        5.9050     1.6930     0.3820 H     1 <1>   0.0800 
 39 H        3.8400     1.3370    -2.7270 H     1 <1>   0.0800 
 40 H        3.0830    -0.1650    -2.2330 H     1 <1>   0.0800 
 41 H        4.7640    -0.1410    -2.7020 H     1 <1>   0.0800 
 42 H       -5.6800     4.8350    -2.9540 H     1 <1>   0.0800 
 43 H       -4.3620     5.6570    -2.1270 H     1 <1>   0.0800 
 44 H       -5.4030     4.5220    -1.2450 H     1 <1>   0.0800 
@<TRIPOS>BOND
  1   1   2  2   
  2   1   3  2   
  3   1   4  am  
  4   1   5  1   
  5   4   6  1   
  6   4   7  1   
  7   5  23  1   
  8   5  24  1   
  9   5  25  1   
 10   6   8  ar  
 11   6   9  ar  
 12   7  10  1   
 13   7  26  1   
 14   7  27  1   
 15   8  11  1   
 16   8  12  ar  
 17   9  13  ar  
 18   9  28  1   
 19  10  14  2   
 20  10  15  am  
 21  11  16  1   
 22  12  17  ar  
 23  12  29  1   
 24  13  17  ar  
 25  13  30  1   
 26  15  18  1   
 27  15  31  1   
 28  16  32  1   
 29  16  33  1   
 30  16  34  1   
 31  17  19  1   
 32  18  20  1   
 33  18  21  1   
 34  18  35  1   
 35  19  22  1   
 36  20  36  1   
 37  20  37  1   
 38  20  38  1   
 39  21  39  1   
 40  21  40  1   
 41  21  41  1   
 42  22  42  1   
 43  22  43  1   
 44  22  44  1   
@<TRIPOS>SUBSTRUCTURE
  1 ****   4 GROUP 4 **** **** 0

# MOE 2024.06 (io_trps.svl 2023.06)
