@<TRIPOS>MOLECULE
NONAME
33 33 1 0 0 
SMALL
USER_CHARGES


@<TRIPOS>ATOM
  1 CL       1.9770     2.4770    -2.2980 Cl    1 <1>  -0.1770 
  2 C        0.8160     2.7890    -1.0270 C.ar  1 <1>   0.1770 
  3 C        1.0540     2.3760     0.2740 C.ar  1 <1>   0.1900 
  4 C       -0.3510     3.4610    -1.3330 C.ar  1 <1>  -0.1500 
  5 F        2.1620     1.7430     0.5690 F     1 <1>  -0.1900 
  6 C        0.1420     2.6210     1.2830 C.ar  1 <1>  -0.1500 
  7 C       -1.2820     3.7270    -0.3340 C.ar  1 <1>   0.1990 
  8 C       -1.0270     3.2960     0.9680 C.ar  1 <1>  -0.1500 
  9 N       -2.4540     4.4020    -0.6580 N.am  1 <1>  -0.6930 
 10 S       -2.8640     5.9250     0.0580 S.o2  1 <1>   1.3330 
 11 C       -3.5740     3.5870    -1.2380 C.3   1 <1>   0.2570 
 12 O       -4.0930     6.3620    -0.5560 O.2   1 <1>  -0.6500 
 13 O       -2.7800     5.7790     1.4900 O.2   1 <1>  -0.6500 
 14 C       -1.5490     6.9750    -0.5230 C.3   1 <1>  -0.1350 
 15 C       -3.9040     2.3150    -0.4430 C.2   1 <1>   0.5690 
 16 O       -3.5090     1.2690    -0.9080 O.2   1 <1>  -0.5700 
 17 N       -4.6100     2.3520     0.7420 N.am  1 <1>  -0.6600 
 18 C       -4.8260     1.1210     1.5530 C.3   1 <1>   0.0600 
 19 C       -5.1850     3.5820     1.3570 C.3   1 <1>   0.0600 
 20 H       -0.5380     3.7750    -2.3420 H     1 <1>   0.1500 
 21 H        0.3410     2.2880     2.2860 H     1 <1>   0.1500 
 22 H       -1.7550     3.4840     1.7380 H     1 <1>   0.1500 
 23 H       -3.2850     3.2830    -2.2280 H     1 <1>   0.0800 
 24 H       -4.4690     4.1680    -1.3450 H     1 <1>   0.0800 
 25 H       -1.5340     6.9900    -1.5940 H     1 <1>   0.0800 
 26 H       -0.6030     6.6170    -0.1660 H     1 <1>   0.0800 
 27 H       -1.6950     7.9750    -0.1660 H     1 <1>   0.0800 
 28 H       -4.3100     0.2790     1.1240 H     1 <1>   0.0800 
 29 H       -5.8760     0.8930     1.5940 H     1 <1>   0.0800 
 30 H       -4.4560     1.2740     2.5510 H     1 <1>   0.0800 
 31 H       -5.3390     4.3540     0.6260 H     1 <1>   0.0800 
 32 H       -4.5210     3.9490     2.1220 H     1 <1>   0.0800 
 33 H       -6.1370     3.3560     1.8050 H     1 <1>   0.0800 
@<TRIPOS>BOND
  1   1   2  1   
  2   2   3  ar  
  3   2   4  ar  
  4   3   5  1   
  5   3   6  ar  
  6   4   7  ar  
  7   4  20  1   
  8   6   8  ar  
  9   6  21  1   
 10   7   8  ar  
 11   7   9  1   
 12   8  22  1   
 13   9  10  am  
 14   9  11  1   
 15  10  12  2   
 16  10  13  2   
 17  10  14  1   
 18  11  15  1   
 19  11  23  1   
 20  11  24  1   
 21  14  25  1   
 22  14  26  1   
 23  14  27  1   
 24  15  16  2   
 25  15  17  am  
 26  17  18  1   
 27  17  19  1   
 28  18  28  1   
 29  18  29  1   
 30  18  30  1   
 31  19  31  1   
 32  19  32  1   
 33  19  33  1   
@<TRIPOS>SUBSTRUCTURE
  1 ****   7 GROUP 4 **** **** 0

# MOE 2024.06 (io_trps.svl 2023.06)
