@<TRIPOS>MOLECULE
NONAME
43 44 1 0 0 
SMALL
USER_CHARGES


@<TRIPOS>ATOM
  1 O        0.6510     1.5460     2.0480 O.2   1 <1>  -0.5700 
  2 C        0.1320     2.0530     1.0800 C.2   1 <1>   0.5690 
  3 N        0.7820     2.1070    -0.1320 N.am  1 <1>  -0.6600 
  4 C       -1.2550     2.6610     1.2780 C.3   1 <1>   0.1810 
  5 C        0.2350     2.7270    -1.3780 C.3   1 <1>   0.1400 
  6 C        2.1070     1.4500    -0.3370 C.3   1 <1>   0.1400 
  7 O       -2.1980     2.1290     0.3590 O.3   1 <1>  -0.3620 
  8 C        1.3080     3.5740    -2.0860 C.3   1 <1>   0.1200 
  9 C        3.0670     2.3780    -1.0970 C.3   1 <1>   0.1200 
 10 C       -3.4520     2.6360     0.2740 C.ar  1 <1>   0.0820 
 11 O        2.4790     2.8350    -2.2830 O.3   1 <1>  -0.5600 
 12 C       -4.2460     2.1700    -0.7590 C.ar  1 <1>  -0.1500 
 13 C       -3.9660     3.5830     1.1490 C.ar  1 <1>  -0.1500 
 14 C       -5.5390     2.6360    -0.9410 C.ar  1 <1>  -0.1430 
 15 C       -5.2540     4.0510     0.9730 C.ar  1 <1>  -0.1500 
 16 C       -6.0570     3.5930    -0.0660 C.ar  1 <1>  -0.1430 
 17 C       -6.3400     2.0660    -2.1050 C.3   1 <1>  -0.0970 
 18 C       -7.4780     4.1580    -0.2010 C.3   1 <1>   0.0630 
 19 C       -7.4460     5.6700    -0.4470 C.3   1 <1>  -0.2400 
 20 C       -8.3200     3.8260     1.0360 C.3   1 <1>  -0.2400 
 21 H       -1.1980     3.7230     1.1360 H     1 <1>   0.0800 
 22 H       -1.6010     2.4430     2.2720 H     1 <1>   0.0800 
 23 H       -0.6090     3.3540    -1.1610 H     1 <1>   0.0800 
 24 H       -0.0940     1.9470    -2.0420 H     1 <1>   0.0800 
 25 H        1.9670     0.5450    -0.9030 H     1 <1>   0.0800 
 26 H        2.5490     1.1830     0.6080 H     1 <1>   0.0800 
 27 H        1.5450     4.4470    -1.5030 H     1 <1>   0.0800 
 28 H        0.9530     3.8890    -3.0510 H     1 <1>   0.0800 
 29 H        3.9660     1.8480    -1.3590 H     1 <1>   0.0800 
 30 H        3.3300     3.2280    -0.4910 H     1 <1>   0.0800 
 31 H       -3.8320     1.4320    -1.4210 H     1 <1>   0.1500 
 32 H       -3.3900     3.9650     1.9700 H     1 <1>   0.1500 
 33 H       -5.6340     4.7840     1.6610 H     1 <1>   0.1500 
 34 H       -5.7660     1.3430    -2.6550 H     1 <1>   0.0800 
 35 H       -6.6200     2.8550    -2.7790 H     1 <1>   0.0800 
 36 H       -7.2260     1.5800    -1.7380 H     1 <1>   0.0800 
 37 H       -7.9760     3.7160    -1.0440 H     1 <1>   0.0800 
 38 H       -7.0340     6.1920     0.3970 H     1 <1>   0.0800 
 39 H       -8.4410     6.0390    -0.6240 H     1 <1>   0.0800 
 40 H       -6.8430     5.8850    -1.3110 H     1 <1>   0.0800 
 41 H       -7.9260     4.3060     1.9130 H     1 <1>   0.0800 
 42 H       -8.3230     2.7630     1.1990 H     1 <1>   0.0800 
 43 H       -9.3350     4.1520     0.8940 H     1 <1>   0.0800 
@<TRIPOS>BOND
  1   1   2  2   
  2   2   3  am  
  3   2   4  1   
  4   3   5  1   
  5   3   6  1   
  6   4   7  1   
  7   4  21  1   
  8   4  22  1   
  9   5   8  1   
 10   5  23  1   
 11   5  24  1   
 12   6   9  1   
 13   6  25  1   
 14   6  26  1   
 15   7  10  1   
 16   8  11  1   
 17   8  27  1   
 18   8  28  1   
 19   9  11  1   
 20   9  29  1   
 21   9  30  1   
 22  10  12  ar  
 23  10  13  ar  
 24  12  14  ar  
 25  12  31  1   
 26  13  15  ar  
 27  13  32  1   
 28  14  16  ar  
 29  14  17  1   
 30  15  16  ar  
 31  15  33  1   
 32  16  18  1   
 33  17  34  1   
 34  17  35  1   
 35  17  36  1   
 36  18  19  1   
 37  18  20  1   
 38  18  37  1   
 39  19  38  1   
 40  19  39  1   
 41  19  40  1   
 42  20  41  1   
 43  20  42  1   
 44  20  43  1   
@<TRIPOS>SUBSTRUCTURE
  1 ****   7 GROUP 4 **** **** 0

# MOE 2024.06 (io_trps.svl 2023.06)
