@<TRIPOS>MOLECULE
NONAME
35 35 1 0 0 
SMALL
USER_CHARGES


@<TRIPOS>ATOM
  1 CL      -0.0650     0.3690    -1.2120 Cl    1 <1>  -0.1770 
  2 C        1.4620     1.0780    -0.7550 C.ar  1 <1>   0.1770 
  3 C        2.2720     0.4200     0.1510 C.ar  1 <1>  -0.1500 
  4 C        1.8400     2.2870    -1.3070 C.ar  1 <1>  -0.1500 
  5 C        3.4830     0.9870     0.5110 C.ar  1 <1>  -0.1500 
  6 C        3.0530     2.8490    -0.9440 C.ar  1 <1>  -0.1500 
  7 C        3.8790     2.2020    -0.0320 C.ar  1 <1>  -0.1430 
  8 C        5.2110     2.8170     0.3740 C.3   1 <1>   0.1770 
  9 S        6.6280     1.8060    -0.1470 S.o   1 <1>   0.1130 
 10 O        6.7240     0.6400     0.7970 O.2   1 <1>  -0.5000 
 11 C        8.0300     2.9050     0.2170 C.3   1 <1>   0.0330 
 12 C        9.3690     2.1710     0.1190 C.3   1 <1>   0.2000 
 13 O        9.4010     1.2120     1.1200 O.3   1 <1>  -0.6800 
 14 C       10.5690     3.1170     0.2840 C.3   1 <1>   0.1200 
 15 O       11.7160     2.5200    -0.2380 O.3   1 <1>  -0.5600 
 16 C       12.9040     3.1210     0.1550 C.3   1 <1>   0.2580 
 17 C       14.0280     2.4550    -0.6100 C.2   1 <1>  -0.2880 
 18 C       14.9310     3.0800    -1.3720 C.2   1 <1>  -0.3000 
 19 H        1.9600    -0.5210     0.5650 H     1 <1>   0.1500 
 20 H        1.1910     2.7770    -2.0110 H     1 <1>   0.1500 
 21 H        4.1200     0.4740     1.2130 H     1 <1>   0.1500 
 22 H        3.3440     3.7900    -1.3770 H     1 <1>   0.1500 
 23 H        5.2190     2.9360     1.4420 H     1 <1>   0.0800 
 24 H        5.2810     3.7980    -0.0580 H     1 <1>   0.0800 
 25 H        7.9440     3.3200     1.2040 H     1 <1>   0.0800 
 26 H        8.0390     3.7200    -0.4820 H     1 <1>   0.0800 
 27 H        9.4370     1.6670    -0.8310 H     1 <1>   0.0800 
 28 H        8.5570     0.6940     1.0960 H     1 <1>   0.4000 
 29 H       10.7170     3.3410     1.3270 H     1 <1>   0.0800 
 30 H       10.4070     4.0290    -0.2640 H     1 <1>   0.0800 
 31 H       13.0290     2.9710     1.2140 H     1 <1>   0.0800 
 32 H       12.8600     4.1730    -0.0690 H     1 <1>   0.0800 
 33 H       14.0190     1.3870    -0.4740 H     1 <1>   0.1500 
 34 H       15.7160     2.5720    -1.9060 H     1 <1>   0.1500 
 35 H       14.9620     4.1440    -1.5310 H     1 <1>   0.1500 
@<TRIPOS>BOND
  1   1   2  1   
  2   2   3  ar  
  3   2   4  ar  
  4   3   5  ar  
  5   3  19  1   
  6   4   6  ar  
  7   4  20  1   
  8   5   7  ar  
  9   5  21  1   
 10   6   7  ar  
 11   6  22  1   
 12   7   8  1   
 13   8   9  1   
 14   8  23  1   
 15   8  24  1   
 16   9  10  2   
 17   9  11  1   
 18  11  12  1   
 19  11  25  1   
 20  11  26  1   
 21  12  13  1   
 22  12  14  1   
 23  12  27  1   
 24  13  28  1   
 25  14  15  1   
 26  14  29  1   
 27  14  30  1   
 28  15  16  1   
 29  16  17  1   
 30  16  31  1   
 31  16  32  1   
 32  17  18  2   
 33  17  33  1   
 34  18  34  1   
 35  18  35  1   
@<TRIPOS>SUBSTRUCTURE
  1 ****   9 GROUP 4 **** **** 0

# MOE 2024.06 (io_trps.svl 2023.06)
