@<TRIPOS>MOLECULE
NONAME
35 36 1 0 0 
SMALL
USER_CHARGES


@<TRIPOS>ATOM
  1 BR       0.4890     1.0590     0.4160 Br    1 <1>  -0.1110 
  2 C       -1.3680     1.5460     0.3350 C.ar  1 <1>   0.1110 
  3 C       -1.9850     2.0260     1.4730 C.ar  1 <1>  -0.1500 
  4 C       -2.0440     1.4080    -0.8610 C.ar  1 <1>  -0.1500 
  5 C       -3.3230     2.3710     1.4060 C.ar  1 <1>  -0.1500 
  6 C       -3.3820     1.7590    -0.9100 C.ar  1 <1>  -0.1500 
  7 C       -4.0550     2.2390     0.2200 C.ar  1 <1>   0.0860 
  8 C       -5.4650     2.5910     0.1740 C.2   1 <1>   0.5440 
  9 O       -5.9450     3.3710     0.9740 O.2   1 <1>  -0.5700 
 10 N       -6.3310     2.0140    -0.7270 N.am  1 <1>  -0.6600 
 11 C       -6.5440     0.5410    -0.6780 C.3   1 <1>   0.1400 
 12 C       -7.5520     2.7720    -1.1310 C.3   1 <1>   0.1400 
 13 C       -7.7220     0.2090     0.2660 C.3   1 <1>   0.3430 
 14 C       -8.7070     2.4550    -0.1640 C.3   1 <1>   0.3430 
 15 N       -8.9810     0.9720    -0.0780 N.4   1 <1>  -0.9590 
 16 C      -10.0710     0.7160     0.8980 C.3   1 <1>   0.3430 
 17 C      -10.6050    -0.7000     0.7150 C.3   1 <1>  -0.2400 
 18 H       -1.4270     2.1280     2.3880 H     1 <1>   0.1500 
 19 H       -1.5300     1.0390    -1.7310 H     1 <1>   0.1500 
 20 H       -3.8130     2.7530     2.2850 H     1 <1>   0.1500 
 21 H       -3.9120     1.6660    -1.8420 H     1 <1>   0.1500 
 22 H       -5.6550     0.0510    -0.3190 H     1 <1>   0.0800 
 23 H       -6.7470     0.1720    -1.6680 H     1 <1>   0.0800 
 24 H       -7.8240     2.5160    -2.1400 H     1 <1>   0.0800 
 25 H       -7.3460     3.8300    -1.1040 H     1 <1>   0.0800 
 26 H       -7.4220     0.4520     1.2720 H     1 <1>   0.0800 
 27 H       -7.9120    -0.8510     0.2270 H     1 <1>   0.0800 
 28 H       -9.5930     2.9760    -0.4880 H     1 <1>   0.0800 
 29 H       -8.4380     2.8330     0.8100 H     1 <1>   0.0800 
 30 H       -9.3030     0.6600    -1.0030 H     1 <1>   0.4500 
 31 H      -10.8770     1.4140     0.7340 H     1 <1>   0.0800 
 32 H       -9.7100     0.8510     1.9060 H     1 <1>   0.0800 
 33 H      -10.9510    -0.8540    -0.2920 H     1 <1>   0.0800 
 34 H      -11.4410    -0.8470     1.3760 H     1 <1>   0.0800 
 35 H       -9.8640    -1.4380     0.9630 H     1 <1>   0.0800 
@<TRIPOS>BOND
  1   1   2  1   
  2   2   3  ar  
  3   2   4  ar  
  4   3   5  ar  
  5   3  18  1   
  6   4   6  ar  
  7   4  19  1   
  8   5   7  ar  
  9   5  20  1   
 10   6   7  ar  
 11   6  21  1   
 12   7   8  1   
 13   8   9  2   
 14   8  10  am  
 15  10  11  1   
 16  10  12  1   
 17  11  13  1   
 18  11  22  1   
 19  11  23  1   
 20  12  14  1   
 21  12  24  1   
 22  12  25  1   
 23  13  15  1   
 24  13  26  1   
 25  13  27  1   
 26  14  15  1   
 27  14  28  1   
 28  14  29  1   
 29  15  16  1   
 30  15  30  1   
 31  16  17  1   
 32  16  31  1   
 33  16  32  1   
 34  17  33  1   
 35  17  34  1   
 36  17  35  1   
@<TRIPOS>SUBSTRUCTURE
  1 ****   8 GROUP 4 **** **** 0

# MOE 2024.06 (io_trps.svl 2023.06)
