@<TRIPOS>MOLECULE
NONAME
37 38 1 0 0 
SMALL
USER_CHARGES


@<TRIPOS>ATOM
  1 BR      -1.1840    -2.5520    -3.2920 Br    1 <1>  -0.1110 
  2 C       -2.4630    -2.4750    -1.8590 C.ar  1 <1>   0.1110 
  3 C       -3.7730    -2.8300    -2.1130 C.ar  1 <1>  -0.1500 
  4 C       -2.0430    -2.0670    -0.6090 C.ar  1 <1>  -0.1500 
  5 C       -4.6870    -2.7690    -1.0750 C.ar  1 <1>  -0.1500 
  6 C       -2.9730    -2.0120     0.4160 C.ar  1 <1>  -0.1500 
  7 C       -4.3070    -2.3590     0.2020 C.ar  1 <1>  -0.0090 
  8 S       -5.5280    -2.2670     1.5430 S.o2  1 <1>   1.4470 
  9 O       -4.9240    -1.7430     2.7490 O.2   1 <1>  -0.6500 
 10 O       -6.2640    -3.5100     1.5890 O.2   1 <1>  -0.6500 
 11 N       -6.6240    -1.0850     1.0170 N.am  1 <1>  -0.8490 
 12 C       -7.8130    -1.0560     1.9260 C.3   1 <1>   0.2570 
 13 C       -5.9890     0.2390     0.9330 C.3   1 <1>   0.1960 
 14 C       -9.1350    -0.7280     1.2270 C.2   1 <1>   0.5690 
 15 C       -6.8360     1.2150     0.1200 C.3   1 <1>  -0.2400 
 16 O       -9.9980    -0.1470     1.8440 O.2   1 <1>  -0.5700 
 17 N       -9.2810    -1.1010    -0.0720 N.am  1 <1>  -0.5790 
 18 C      -10.4490    -0.8590    -0.9260 C.3   1 <1>   0.0490 
 19 C      -10.7440    -1.8460    -2.0050 C.3   1 <1>  -0.2000 
 20 C      -10.2070    -0.4890    -2.3510 C.3   1 <1>  -0.2000 
 21 H       -4.0670    -3.1470    -3.0990 H     1 <1>   0.1500 
 22 H       -1.0140    -1.8000    -0.4440 H     1 <1>   0.1500 
 23 H       -5.7130    -3.0460    -1.2540 H     1 <1>   0.1500 
 24 H       -2.6580    -1.6980     1.3980 H     1 <1>   0.1500 
 25 H       -7.6550    -0.3550     2.7270 H     1 <1>   0.0800 
 26 H       -7.9620    -2.0180     2.3840 H     1 <1>   0.0800 
 27 H       -5.0370     0.1510     0.4380 H     1 <1>   0.0800 
 28 H       -5.8050     0.6340     1.9200 H     1 <1>   0.0800 
 29 H       -7.0930     0.7870    -0.8330 H     1 <1>   0.0800 
 30 H       -6.2720     2.1130    -0.0560 H     1 <1>   0.0800 
 31 H       -7.7300     1.4920     0.6470 H     1 <1>   0.0800 
 32 H       -8.4680    -1.5250    -0.5230 H     1 <1>   0.3700 
 33 H      -11.2730    -0.3980    -0.4020 H     1 <1>   0.1000 
 34 H      -11.7720    -2.0600    -2.2370 H     1 <1>   0.1000 
 35 H      -10.1070    -2.7070    -2.1080 H     1 <1>   0.1000 
 36 H       -9.1930    -0.3990    -2.7000 H     1 <1>   0.1000 
 37 H      -10.8700     0.2160    -2.8190 H     1 <1>   0.1000 
@<TRIPOS>BOND
  1   1   2  1   
  2   2   3  ar  
  3   2   4  ar  
  4   3   5  ar  
  5   3  21  1   
  6   4   6  ar  
  7   4  22  1   
  8   5   7  ar  
  9   5  23  1   
 10   6   7  ar  
 11   6  24  1   
 12   7   8  1   
 13   8   9  2   
 14   8  10  2   
 15   8  11  am  
 16  11  12  1   
 17  11  13  1   
 18  12  14  1   
 19  12  25  1   
 20  12  26  1   
 21  13  15  1   
 22  13  27  1   
 23  13  28  1   
 24  14  16  2   
 25  14  17  am  
 26  15  29  1   
 27  15  30  1   
 28  15  31  1   
 29  17  18  1   
 30  17  32  1   
 31  18  19  1   
 32  18  20  1   
 33  18  33  1   
 34  19  20  1   
 35  19  34  1   
 36  19  35  1   
 37  20  36  1   
 38  20  37  1   
@<TRIPOS>SUBSTRUCTURE
  1 ****  11 GROUP 4 **** **** 0

# MOE 2024.06 (io_trps.svl 2023.06)
