@<TRIPOS>MOLECULE
NONAME
44 46 1 0 0 
SMALL
USER_CHARGES


@<TRIPOS>ATOM
  1 CL       0.4560     0.0050     1.1540 Cl    1 <1>  -0.1770 
  2 C        0.9440     1.5210     0.4300 C.ar  1 <1>   0.1770 
  3 C        0.0080     2.5250     0.2210 C.ar  1 <1>   0.0820 
  4 C        2.2670     1.6800     0.0670 C.ar  1 <1>  -0.1500 
  5 O       -1.2820     2.3140     0.5770 O.3   1 <1>  -0.3630 
  6 C        0.4440     3.7240    -0.3540 C.ar  1 <1>   0.0830 
  7 C        2.7100     2.8650    -0.5200 C.ar  1 <1>   0.0860 
  8 C       -2.2640     2.3320    -0.4400 C.3   1 <1>   0.2640 
  9 O       -0.3880     4.7700    -0.5740 O.3   1 <1>  -0.3630 
 10 C        1.7660     3.8720    -0.7310 C.ar  1 <1>  -0.1500 
 11 C        4.0990     3.0250    -0.9000 C.2   1 <1>   0.5440 
 12 C       -3.4420     3.1780     0.0200 C.ar  1 <1>  -0.1440 
 13 C       -0.8850     5.4360     0.5690 C.3   1 <1>   0.0400 
 14 O        4.6530     2.1380    -1.5220 O.2   1 <1>  -0.5700 
 15 N        4.8190     4.1500    -0.5670 N.am  1 <1>  -0.6600 
 16 C       -3.8370     4.2860    -0.7150 C.ar  1 <1>  -0.1500 
 17 C       -4.1290     2.8510     1.1790 C.ar  1 <1>  -0.1500 
 18 C        6.2360     4.3180    -0.9620 C.3   1 <1>   0.1400 
 19 C        4.4460     5.1250     0.4820 C.3   1 <1>   0.1400 
 20 C       -4.9080     5.0570    -0.2970 C.ar  1 <1>  -0.1500 
 21 C       -5.2000     3.6220     1.5980 C.ar  1 <1>  -0.1500 
 22 C        6.6960     5.5870    -0.2530 C.3   1 <1>  -0.1600 
 23 C        5.7710     5.7100     0.9540 C.3   1 <1>  -0.1600 
 24 C       -5.5900     4.7250     0.8600 C.ar  1 <1>  -0.1500 
 25 H        2.9660     0.8790     0.2340 H     1 <1>   0.1500 
 26 H       -2.5760     1.3170    -0.6110 H     1 <1>   0.0800 
 27 H       -1.8390     2.7240    -1.3470 H     1 <1>   0.0800 
 28 H        2.0720     4.7890    -1.2020 H     1 <1>   0.1500 
 29 H       -1.5230     6.2360     0.2410 H     1 <1>   0.0800 
 30 H       -0.0570     5.8300     1.1290 H     1 <1>   0.0800 
 31 H       -1.4500     4.7490     1.1730 H     1 <1>   0.0800 
 32 H       -3.3100     4.5560    -1.6140 H     1 <1>   0.1500 
 33 H       -3.8260     1.9970     1.7590 H     1 <1>   0.1500 
 34 H        6.3250     4.4010    -2.0320 H     1 <1>   0.0800 
 35 H        6.8000     3.4660    -0.6210 H     1 <1>   0.0800 
 36 H        3.9140     4.6500     1.2890 H     1 <1>   0.0800 
 37 H        3.8360     5.8970     0.0440 H     1 <1>   0.0800 
 38 H       -5.2100     5.9150    -0.8710 H     1 <1>   0.1500 
 39 H       -5.7270     3.3620     2.4990 H     1 <1>   0.1500 
 40 H        6.5530     6.4250    -0.9120 H     1 <1>   0.0800 
 41 H        7.7330     5.5330     0.0260 H     1 <1>   0.0800 
 42 H        6.1480     5.1110     1.7650 H     1 <1>   0.0800 
 43 H        5.6640     6.7270     1.2890 H     1 <1>   0.0800 
 44 H       -6.4230     5.3230     1.1860 H     1 <1>   0.1500 
@<TRIPOS>BOND
  1   1   2  1   
  2   2   3  ar  
  3   2   4  ar  
  4   3   5  1   
  5   3   6  ar  
  6   4   7  ar  
  7   4  25  1   
  8   5   8  1   
  9   6   9  1   
 10   6  10  ar  
 11   7  10  ar  
 12   7  11  1   
 13   8  12  1   
 14   8  26  1   
 15   8  27  1   
 16   9  13  1   
 17  10  28  1   
 18  11  14  2   
 19  11  15  am  
 20  12  16  ar  
 21  12  17  ar  
 22  13  29  1   
 23  13  30  1   
 24  13  31  1   
 25  15  18  1   
 26  15  19  1   
 27  16  20  ar  
 28  16  32  1   
 29  17  21  ar  
 30  17  33  1   
 31  18  22  1   
 32  18  34  1   
 33  18  35  1   
 34  19  23  1   
 35  19  36  1   
 36  19  37  1   
 37  20  24  ar  
 38  20  38  1   
 39  21  24  ar  
 40  21  39  1   
 41  22  23  1   
 42  22  40  1   
 43  22  41  1   
 44  23  42  1   
 45  23  43  1   
 46  24  44  1   
@<TRIPOS>SUBSTRUCTURE
  1 ****   6 GROUP 4 **** **** 0

# MOE 2024.06 (io_trps.svl 2023.06)
