@<TRIPOS>MOLECULE
NONAME
46 48 1 0 0 
SMALL
USER_CHARGES


@<TRIPOS>ATOM
  1 O       -0.0300     0.1270     0.4920 O.2   1 <1>  -0.5700 
  2 C       -0.6070    -0.8940     0.1730 C.2   1 <1>   0.5440 
  3 N        0.0910    -2.0690     0.0170 N.am  1 <1>  -0.5470 
  4 C       -2.0330    -0.8790    -0.0800 C.ar  1 <1>   0.0860 
  5 C        1.4250    -2.4030     0.3040 C.ar  1 <1>   0.1170 
  6 C       -2.8540    -1.9480     0.2880 C.ar  1 <1>  -0.1500 
  7 C       -2.6320     0.2110    -0.7110 C.ar  1 <1>  -0.1500 
  8 C        1.9980    -3.4750    -0.3690 C.ar  1 <1>  -0.1500 
  9 C        2.1910    -1.7210     1.2480 C.ar  1 <1>  -0.1500 
 10 C       -4.2200    -1.9450     0.0250 C.ar  1 <1>   0.0830 
 11 C       -3.9880     0.2320    -0.9770 C.ar  1 <1>  -0.1500 
 12 C        3.3020    -3.8560    -0.1110 C.ar  1 <1>   0.0830 
 13 C        3.4970    -2.0990     1.5150 C.ar  1 <1>  -0.1500 
 14 O       -5.0310    -2.9930     0.3520 O.3   1 <1>  -0.3630 
 15 C       -4.7880    -0.8350    -0.6090 C.ar  1 <1>   0.0830 
 16 O        3.8270    -4.9010    -0.8030 O.3   1 <1>  -0.3630 
 17 C        4.0550    -3.1700     0.8420 C.ar  1 <1>   0.0830 
 18 C       -4.5410    -4.1560     0.9810 C.3   1 <1>   0.0400 
 19 O       -6.1050    -0.7570    -0.9070 O.3   1 <1>  -0.3630 
 20 C        5.2330    -5.0560    -0.7530 C.3   1 <1>   0.1200 
 21 O        5.3330    -3.5370     1.1310 O.3   1 <1>  -0.3630 
 22 C       -7.0350    -0.6960     0.1510 C.3   1 <1>   0.2000 
 23 C        5.7450    -4.8110     0.6730 C.3   1 <1>   0.1200 
 24 C       -8.3460    -1.2870    -0.3610 C.3   1 <1>  -0.2400 
 25 C       -7.1990     0.7660     0.5650 C.3   1 <1>  -0.2400 
 26 H       -0.4230    -2.7950    -0.4770 H     1 <1>   0.3700 
 27 H       -2.4000    -2.7780     0.7920 H     1 <1>   0.1500 
 28 H       -2.0190     1.0510    -0.9950 H     1 <1>   0.1500 
 29 H        1.4390    -4.0190    -1.1060 H     1 <1>   0.1500 
 30 H        1.7690    -0.8900     1.7830 H     1 <1>   0.1500 
 31 H       -4.4360     1.0760    -1.4710 H     1 <1>   0.1500 
 32 H        4.0820    -1.5670     2.2430 H     1 <1>   0.1500 
 33 H       -5.3680    -4.8270     1.1300 H     1 <1>   0.0800 
 34 H       -4.1150    -3.8870     1.9310 H     1 <1>   0.0800 
 35 H       -3.8090    -4.6180     0.3430 H     1 <1>   0.0800 
 36 H        5.6720    -4.3480    -1.4340 H     1 <1>   0.0800 
 37 H        5.4680    -6.0530    -1.0790 H     1 <1>   0.0800 
 38 H       -6.6710    -1.2790     0.9800 H     1 <1>   0.0800 
 39 H        6.8190    -4.8430     0.7050 H     1 <1>   0.0800 
 40 H        5.3490    -5.5520     1.3450 H     1 <1>   0.0800 
 41 H       -8.7060    -0.7260    -1.2040 H     1 <1>   0.0800 
 42 H       -9.0890    -1.2630     0.4150 H     1 <1>   0.0800 
 43 H       -8.1900    -2.3100    -0.6530 H     1 <1>   0.0800 
 44 H       -7.5260     1.3570    -0.2720 H     1 <1>   0.0800 
 45 H       -6.2650     1.1520     0.9330 H     1 <1>   0.0800 
 46 H       -7.9290     0.8450     1.3490 H     1 <1>   0.0800 
@<TRIPOS>BOND
  1   1   2  2   
  2   2   3  am  
  3   2   4  1   
  4   3   5  1   
  5   3  26  1   
  6   4   6  ar  
  7   4   7  ar  
  8   5   8  ar  
  9   5   9  ar  
 10   6  10  ar  
 11   6  27  1   
 12   7  11  ar  
 13   7  28  1   
 14   8  12  ar  
 15   8  29  1   
 16   9  13  ar  
 17   9  30  1   
 18  10  14  1   
 19  10  15  ar  
 20  11  15  ar  
 21  11  31  1   
 22  12  16  1   
 23  12  17  ar  
 24  13  17  ar  
 25  13  32  1   
 26  14  18  1   
 27  15  19  1   
 28  16  20  1   
 29  17  21  1   
 30  18  33  1   
 31  18  34  1   
 32  18  35  1   
 33  19  22  1   
 34  20  23  1   
 35  20  36  1   
 36  20  37  1   
 37  21  23  1   
 38  22  24  1   
 39  22  25  1   
 40  22  38  1   
 41  23  39  1   
 42  23  40  1   
 43  24  41  1   
 44  24  42  1   
 45  24  43  1   
 46  25  44  1   
 47  25  45  1   
 48  25  46  1   
@<TRIPOS>SUBSTRUCTURE
  1 ****   3 GROUP 4 **** **** 0

# MOE 2024.06 (io_trps.svl 2023.06)
