@<TRIPOS>MOLECULE
NONAME
51 53 1 0 0 
SMALL
USER_CHARGES


@<TRIPOS>ATOM
  1 BR       0.5500    -0.1070    -2.1930 Br    1 <1>  -0.1110 
  2 C       -0.0440    -1.7410    -1.3660 C.ar  1 <1>   0.1110 
  3 C       -1.2500    -2.2840    -1.7620 C.ar  1 <1>  -0.1500 
  4 C        0.7490    -2.3260    -0.3990 C.ar  1 <1>  -0.1500 
  5 C       -1.6900    -3.4570    -1.1640 C.ar  1 <1>  -0.1440 
  6 C        0.3150    -3.5010     0.1890 C.ar  1 <1>  -0.1500 
  7 C       -0.9010    -4.0740    -0.1910 C.ar  1 <1>   0.0820 
  8 C       -3.0250    -4.0590    -1.5860 C.3   1 <1>   0.2540 
  9 O       -1.3600    -5.2350     0.3500 O.3   1 <1>  -0.3630 
 10 N       -4.0910    -3.7380    -0.6130 N.3   1 <1>  -0.8100 
 11 C       -0.5970    -5.9750     1.2780 C.3   1 <1>   0.0400 
 12 C       -5.3250    -4.4920    -0.8850 C.3   1 <1>   0.1100 
 13 C       -4.3450    -2.2920    -0.4700 C.3   1 <1>   0.1100 
 14 C       -6.3730    -4.2510     0.2190 C.3   1 <1>   0.3430 
 15 C       -5.3810    -2.0230     0.6390 C.3   1 <1>   0.3430 
 16 N       -6.6570    -2.7850     0.4110 N.4   1 <1>  -0.9590 
 17 C       -7.6310    -2.5380     1.4930 C.3   1 <1>   0.4810 
 18 C       -8.9830    -2.9680     0.9790 C.2   1 <1>  -0.2880 
 19 C       -9.9460    -2.1290     0.5600 C.2   1 <1>  -0.1780 
 20 C      -11.2560    -2.4730     0.0520 C.ar  1 <1>   0.0280 
 21 C      -11.9840    -1.5390    -0.6820 C.ar  1 <1>  -0.1500 
 22 C      -11.8370    -3.7210     0.2670 C.ar  1 <1>  -0.1500 
 23 C      -13.2350    -1.8390    -1.1890 C.ar  1 <1>  -0.1500 
 24 C      -13.0880    -4.0280    -0.2380 C.ar  1 <1>  -0.1500 
 25 C      -13.7890    -3.0870    -0.9690 C.ar  1 <1>  -0.1500 
 26 H       -1.8270    -1.7920    -2.5230 H     1 <1>   0.1500 
 27 H        1.6820    -1.8720    -0.1170 H     1 <1>   0.1500 
 28 H        0.9370    -3.9530     0.9380 H     1 <1>   0.1500 
 29 H       -2.9110    -5.1280    -1.6530 H     1 <1>   0.0800 
 30 H       -3.2980    -3.6980    -2.5630 H     1 <1>   0.0800 
 31 H       -1.1500    -6.8610     1.5330 H     1 <1>   0.0800 
 32 H       -0.4420    -5.3770     2.1590 H     1 <1>   0.0800 
 33 H        0.3390    -6.2460     0.8240 H     1 <1>   0.0800 
 34 H       -5.7290    -4.2110    -1.8430 H     1 <1>   0.0800 
 35 H       -5.0960    -5.5450    -0.9160 H     1 <1>   0.0800 
 36 H       -3.4320    -1.7900    -0.1970 H     1 <1>   0.0800 
 37 H       -4.6860    -1.8790    -1.4040 H     1 <1>   0.0800 
 38 H       -5.9940    -4.6700     1.1370 H     1 <1>   0.0800 
 39 H       -7.2790    -4.7730    -0.0370 H     1 <1>   0.0800 
 40 H       -5.5830    -0.9660     0.6830 H     1 <1>   0.0800 
 41 H       -4.9450    -2.3200     1.5790 H     1 <1>   0.0800 
 42 H       -7.0880    -2.4410    -0.4560 H     1 <1>   0.4500 
 43 H       -7.3660    -3.0790     2.3870 H     1 <1>   0.0800 
 44 H       -7.6610    -1.4840     1.7230 H     1 <1>   0.0800 
 45 H       -9.1090    -4.0360     0.9780 H     1 <1>   0.1500 
 46 H       -9.7740    -1.0650     0.5780 H     1 <1>   0.1500 
 47 H      -11.5710    -0.5640    -0.8640 H     1 <1>   0.1500 
 48 H      -11.3200    -4.4660     0.8410 H     1 <1>   0.1500 
 49 H      -13.7800    -1.1030    -1.7550 H     1 <1>   0.1500 
 50 H      -13.5210    -4.9970    -0.0610 H     1 <1>   0.1500 
 51 H      -14.7630    -3.3230    -1.3630 H     1 <1>   0.1500 
@<TRIPOS>BOND
  1   1   2  1   
  2   2   3  ar  
  3   2   4  ar  
  4   3   5  ar  
  5   3  26  1   
  6   4   6  ar  
  7   4  27  1   
  8   5   7  ar  
  9   5   8  1   
 10   6   7  ar  
 11   6  28  1   
 12   7   9  1   
 13   8  10  1   
 14   8  29  1   
 15   8  30  1   
 16   9  11  1   
 17  10  12  1   
 18  10  13  1   
 19  11  31  1   
 20  11  32  1   
 21  11  33  1   
 22  12  14  1   
 23  12  34  1   
 24  12  35  1   
 25  13  15  1   
 26  13  36  1   
 27  13  37  1   
 28  14  16  1   
 29  14  38  1   
 30  14  39  1   
 31  15  16  1   
 32  15  40  1   
 33  15  41  1   
 34  16  17  1   
 35  16  42  1   
 36  17  18  1   
 37  17  43  1   
 38  17  44  1   
 39  18  19  2   
 40  18  45  1   
 41  19  20  1   
 42  19  46  1   
 43  20  21  ar  
 44  20  22  ar  
 45  21  23  ar  
 46  21  47  1   
 47  22  24  ar  
 48  22  48  1   
 49  23  25  ar  
 50  23  49  1   
 51  24  25  ar  
 52  24  50  1   
 53  25  51  1   
@<TRIPOS>SUBSTRUCTURE
  1 ****  16 GROUP 4 **** **** 0

# MOE 2024.06 (io_trps.svl 2023.06)
