@<TRIPOS>MOLECULE
NONAME
39 41 1 0 0 
SMALL
USER_CHARGES


@<TRIPOS>ATOM
  1 O        0.1010    -0.2700     0.4380 O.2   1 <1>  -0.5700 
  2 C       -0.6220    -1.0660    -0.1090 C.2   1 <1>   0.5690 
  3 N       -1.9630    -0.8690    -0.2980 N.am  1 <1>  -0.5470 
  4 C       -0.0480    -2.3860    -0.6310 C.3   1 <1>  -0.0190 
  5 C       -2.8130     0.1980     0.0390 C.ar  1 <1>   0.1170 
  6 C       -0.7290    -3.7050     0.0700 C.3   1 <1>  -0.0800 
  7 C        1.6190    -2.5600    -0.4960 C.3   1 <1>  -0.1600 
  8 C       -4.1840    -0.0340     0.1700 C.ar  1 <1>  -0.1440 
  9 C       -2.3330     1.4910     0.2260 C.ar  1 <1>  -0.1500 
 10 C        0.5970    -3.8920     0.0540 C.3   1 <1>  -0.1600 
 11 C       -0.4270    -5.2160     0.6140 C.3   1 <1>  -0.1600 
 12 C        1.9220    -4.0680     0.0610 C.3   1 <1>  -0.0800 
 13 C       -5.0330     1.0160     0.4820 C.ar  1 <1>  -0.1500 
 14 C       -4.7770    -1.4260    -0.0180 C.3   1 <1>  -0.0970 
 15 C       -3.1820     2.5370     0.5420 C.ar  1 <1>  -0.1430 
 16 C        1.2330    -5.3950     0.7240 C.3   1 <1>  -0.1600 
 17 C       -4.5380     2.2940     0.6680 C.ar  1 <1>  -0.1500 
 18 C       -2.6350     3.9380     0.7450 C.3   1 <1>  -0.0970 
 19 H       -2.4510    -1.6630    -0.7000 H     1 <1>   0.3700 
 20 H       -0.2860    -2.4010    -1.6840 H     1 <1>   0.0800 
 21 H       -1.2200    -3.2750     0.9350 H     1 <1>   0.0800 
 22 H        2.0290    -1.8380     0.1950 H     1 <1>   0.0800 
 23 H        2.0930    -2.3910    -1.4490 H     1 <1>   0.0800 
 24 H       -1.2830     1.6850     0.1190 H     1 <1>   0.1500 
 25 H        0.5460    -4.3560    -1.0270 H     1 <1>   0.0800 
 26 H        0.6570    -3.4280     1.1360 H     1 <1>   0.0800 
 27 H       -0.8340    -5.9470    -0.0690 H     1 <1>   0.0800 
 28 H       -0.8870    -5.3820     1.5760 H     1 <1>   0.0800 
 29 H        2.4400    -4.5030    -0.7850 H     1 <1>   0.0800 
 30 H       -6.0910     0.8490     0.5860 H     1 <1>   0.1500 
 31 H       -4.2970    -2.1230     0.6460 H     1 <1>   0.0800 
 32 H       -4.6430    -1.7500    -1.0340 H     1 <1>   0.0800 
 33 H       -5.8290    -1.4280     0.2010 H     1 <1>   0.0800 
 34 H        1.5510    -6.2930     0.2170 H     1 <1>   0.0800 
 35 H        1.5290    -5.4850     1.7590 H     1 <1>   0.0800 
 36 H       -5.2110     3.0970     0.9100 H     1 <1>   0.1500 
 37 H       -1.5880     3.9040     0.9850 H     1 <1>   0.0800 
 38 H       -3.1520     4.4260     1.5510 H     1 <1>   0.0800 
 39 H       -2.7660     4.5140    -0.1540 H     1 <1>   0.0800 
@<TRIPOS>BOND
  1   1   2  2   
  2   2   3  am  
  3   2   4  1   
  4   3   5  1   
  5   3  19  1   
  6   4   6  1   
  7   4   7  1   
  8   4  20  1   
  9   5   8  ar  
 10   5   9  ar  
 11   6  10  1   
 12   6  11  1   
 13   6  21  1   
 14   7  12  1   
 15   7  22  1   
 16   7  23  1   
 17   8  13  ar  
 18   8  14  1   
 19   9  15  ar  
 20   9  24  1   
 21  10  12  1   
 22  10  25  1   
 23  10  26  1   
 24  11  16  1   
 25  11  27  1   
 26  11  28  1   
 27  12  16  1   
 28  12  29  1   
 29  13  17  ar  
 30  13  30  1   
 31  14  31  1   
 32  14  32  1   
 33  14  33  1   
 34  15  17  ar  
 35  15  18  1   
 36  16  34  1   
 37  16  35  1   
 38  17  36  1   
 39  18  37  1   
 40  18  38  1   
 41  18  39  1   
@<TRIPOS>SUBSTRUCTURE
  1 ****   3 GROUP 4 **** **** 0

# MOE 2024.06 (io_trps.svl 2023.06)
