@<TRIPOS>MOLECULE
NONAME
30 31 1 0 0 
SMALL
USER_CHARGES


@<TRIPOS>ATOM
  1 S       -0.0780    -0.3240    -0.0080 S.3   1 <1>  -0.0800 
  2 C        1.4770     0.4240     0.3090 C.2   1 <1>   0.1660 
  3 C       -0.8710     1.2480    -0.1180 C.2   1 <1>  -0.1400 
  4 N        2.6020    -0.2910     0.4970 N.2   1 <1>  -0.5760 
  5 C        1.3630     1.7770     0.3280 C.2   1 <1>  -0.0860 
  6 C        0.0250     2.2360     0.0810 C.2   1 <1>  -0.1500 
  7 C       -2.3610     1.2290    -0.4060 C.3   1 <1>   0.0200 
  8 C        3.6760     0.4090     0.7270 C.2   1 <1>   0.4490 
  9 C        2.5450     2.5110     0.5960 C.2   1 <1>   0.7160 
 10 C       -2.9560     2.6380    -0.4700 C.3   1 <1>  -0.2400 
 11 N        3.7080     1.7920     0.8450 N.am  1 <1>  -0.1110 
 12 C        4.9740    -0.3870     0.8740 C.3   1 <1>  -0.0990 
 13 O        2.5390     3.7450     0.6440 O.2   1 <1>  -0.5700 
 14 N        4.9200     2.5150     1.2740 N.3   1 <1>  -0.7290 
 15 C        5.7160    -0.5550    -0.4700 C.3   1 <1>  -0.2660 
 16 C        6.0250     0.7700    -1.1190 C.2   1 <1>   0.9060 
 17 O        6.7980     1.5370    -0.5380 O.co2 1 <1>  -0.9000 
 18 O        5.4350     1.0840    -2.1510 O.co2 1 <1>  -0.9000 
 19 H       -0.1820     3.2920     0.0670 H     1 <1>   0.1500 
 20 H       -2.8580     0.6670     0.3660 H     1 <1>   0.0800 
 21 H       -2.5290     0.7270    -1.3430 H     1 <1>   0.0800 
 22 H       -2.8110     3.1470     0.4670 H     1 <1>   0.0800 
 23 H       -4.0110     2.5840    -0.6730 H     1 <1>   0.0800 
 24 H       -2.4830     3.2050    -1.2530 H     1 <1>   0.0800 
 25 H        4.7390    -1.3620     1.2600 H     1 <1>   0.0800 
 26 H        5.6240     0.0840     1.5890 H     1 <1>   0.0800 
 27 H        4.7690     3.4920     0.9870 H     1 <1>   0.3600 
 28 H        5.6840     2.2350     0.6090 H     1 <1>   0.3600 
 29 H        5.1120    -1.1260    -1.1500 H     1 <1>   0.0800 
 30 H        6.6430    -1.0730    -0.3180 H     1 <1>   0.0800 
@<TRIPOS>BOND
  1   1   2  1   
  2   1   3  1   
  3   2   4  1   
  4   2   5  2   
  5   3   6  2   
  6   3   7  1   
  7   4   8  2   
  8   5   6  1   
  9   5   9  1   
 10   6  19  1   
 11   7  10  1   
 12   7  20  1   
 13   7  21  1   
 14   8  11  1   
 15   8  12  1   
 16   9  11  am  
 17   9  13  2   
 18  10  22  1   
 19  10  23  1   
 20  10  24  1   
 21  11  14  1   
 22  12  15  1   
 23  12  25  1   
 24  12  26  1   
 25  14  27  1   
 26  14  28  1   
 27  15  16  1   
 28  15  29  1   
 29  15  30  1   
 30  16  17  ar  
 31  16  18  ar  
@<TRIPOS>SUBSTRUCTURE
  1 ****   5 GROUP 4 **** **** 0

# MOE 2024.06 (io_trps.svl 2023.06)
