@<TRIPOS>MOLECULE
NONAME
44 45 1 0 0 
SMALL
USER_CHARGES


@<TRIPOS>ATOM
  1 S       -0.2360     0.0290    -0.7890 S.o2  1 <1>   1.4470 
  2 O       -0.3570    -0.0650    -2.2260 O.2   1 <1>  -0.6500 
  3 O       -1.0610    -0.7940     0.0680 O.2   1 <1>  -0.6500 
  4 N       -0.6840     1.6280    -0.5400 N.am  1 <1>  -0.9140 
  5 C        1.4920    -0.0210    -0.2410 C.ar  1 <1>  -0.0090 
  6 C       -2.0960     1.8070    -0.2730 C.3   1 <1>   0.2760 
  7 C        2.3130    -1.0820    -0.6130 C.ar  1 <1>   0.0830 
  8 C        2.0330     0.9680     0.5780 C.ar  1 <1>  -0.1500 
  9 C       -2.5070     3.1380    -0.9210 C.3   1 <1>  -0.1600 
 10 C       -2.3040     1.8320     1.2490 C.3   1 <1>  -0.1600 
 11 O        1.7620    -2.0520    -1.3860 O.3   1 <1>  -0.3630 
 12 C        3.6400    -1.1310    -0.1950 C.ar  1 <1>  -0.1500 
 13 C        3.3500     0.9220     0.9970 C.ar  1 <1>  -0.1500 
 14 C       -4.0230     3.3800    -0.9990 C.3   1 <1>  -0.1600 
 15 C       -3.6980     1.3710     1.7050 C.3   1 <1>  -0.1600 
 16 C        2.4990    -3.1690    -1.8340 C.3   1 <1>   0.0400 
 17 C        4.1640    -0.1340     0.6060 C.ar  1 <1>   0.0830 
 18 C       -4.7690     3.2930     0.3410 C.3   1 <1>  -0.1600 
 19 C       -4.8870     1.8520     0.8590 C.3   1 <1>  -0.1600 
 20 O        5.4640    -0.2590     0.9660 O.3   1 <1>  -0.3620 
 21 C        6.0950     0.6960     1.7910 C.3   1 <1>   0.0400 
 22 H       -0.5310     2.0150    -1.4670 H     1 <1>   0.4200 
 23 H       -2.6590     1.0030    -0.7240 H     1 <1>   0.0800 
 24 H        1.4170     1.7910     0.8990 H     1 <1>   0.1500 
 25 H       -2.1340     3.1640    -1.9300 H     1 <1>   0.0800 
 26 H       -2.0500     3.9520    -0.3850 H     1 <1>   0.0800 
 27 H       -2.1230     2.8260     1.6190 H     1 <1>   0.0800 
 28 H       -1.5880     1.1870     1.7270 H     1 <1>   0.0800 
 29 H        4.2920    -1.9350    -0.4740 H     1 <1>   0.1500 
 30 H        3.7210     1.7110     1.6250 H     1 <1>   0.1500 
 31 H       -4.4570     2.6800    -1.6930 H     1 <1>   0.0800 
 32 H       -4.1800     4.3630    -1.4090 H     1 <1>   0.0800 
 33 H       -3.8380     1.6970     2.7210 H     1 <1>   0.0800 
 34 H       -3.7140     0.2930     1.7180 H     1 <1>   0.0800 
 35 H        1.8450    -3.7810    -2.4280 H     1 <1>   0.0800 
 36 H        2.8450    -3.7240    -0.9800 H     1 <1>   0.0800 
 37 H        3.3230    -2.8260    -2.4340 H     1 <1>   0.0800 
 38 H       -5.7670     3.6650     0.1790 H     1 <1>   0.0800 
 39 H       -4.3110     3.9300     1.0790 H     1 <1>   0.0800 
 40 H       -5.7710     1.7760     1.4680 H     1 <1>   0.0800 
 41 H       -5.0290     1.1820     0.0280 H     1 <1>   0.0800 
 42 H        7.1130     0.3870     1.9400 H     1 <1>   0.0800 
 43 H        5.5820     0.7350     2.7350 H     1 <1>   0.0800 
 44 H        6.0720     1.6520     1.2980 H     1 <1>   0.0800 
@<TRIPOS>BOND
  1   1   2  2   
  2   1   3  2   
  3   1   4  am  
  4   1   5  1   
  5   4   6  1   
  6   4  22  1   
  7   5   7  ar  
  8   5   8  ar  
  9   6   9  1   
 10   6  10  1   
 11   6  23  1   
 12   7  11  1   
 13   7  12  ar  
 14   8  13  ar  
 15   8  24  1   
 16   9  14  1   
 17   9  25  1   
 18   9  26  1   
 19  10  15  1   
 20  10  27  1   
 21  10  28  1   
 22  11  16  1   
 23  12  17  ar  
 24  12  29  1   
 25  13  17  ar  
 26  13  30  1   
 27  14  18  1   
 28  14  31  1   
 29  14  32  1   
 30  15  19  1   
 31  15  33  1   
 32  15  34  1   
 33  16  35  1   
 34  16  36  1   
 35  16  37  1   
 36  17  20  1   
 37  18  19  1   
 38  18  38  1   
 39  18  39  1   
 40  19  40  1   
 41  19  41  1   
 42  20  21  1   
 43  21  42  1   
 44  21  43  1   
 45  21  44  1   
@<TRIPOS>SUBSTRUCTURE
  1 ****   1 GROUP 4 **** **** 0

# MOE 2024.06 (io_trps.svl 2023.06)
