@<TRIPOS>MOLECULE
NONAME
39 42 1 0 0 
SMALL
USER_CHARGES


@<TRIPOS>ATOM
  1 S        0.3810    -0.1180     0.3680 S.3   1 <1>  -0.0800 
  2 C        1.3960     1.2720    -0.0210 C.ar  1 <1>   0.2970 
  3 C       -1.0340     0.9160     0.5350 C.2   1 <1>  -0.1400 
  4 N        2.6790     1.1580    -0.2910 N.ar  1 <1>  -0.5670 
  5 C        0.6650     2.4370     0.0020 C.ar  1 <1>   0.0000 
  6 C       -0.7310     2.2020     0.3030 C.2   1 <1>  -0.1810 
  7 C       -2.3780     0.3160     0.8830 C.3   1 <1>   0.0200 
  8 C        3.2470     2.3170    -0.5550 C.ar  1 <1>   0.4770 
  9 C        1.4080     3.5900    -0.2700 C.ar  1 <1>   0.4100 
 10 C       -1.8020     3.2800     0.3510 C.3   1 <1>   0.0210 
 11 C       -3.3530     1.4480     1.2530 C.3   1 <1>  -0.1600 
 12 N        2.6960     3.5210    -0.5620 N.ar  1 <1>  -0.6200 
 13 C        4.7190     2.2780    -0.8900 C.3   1 <1>  -0.0960 
 14 N        0.8610     4.8510    -0.2170 N.pl3 1 <1>  -0.8380 
 15 C       -3.2140     2.6610     0.3100 C.3   1 <1>  -0.1600 
 16 C        0.7370     5.4960     1.1220 C.3   1 <1>   0.2090 
 17 C        1.1620     5.8300    -1.3050 C.3   1 <1>   0.2090 
 18 C        1.9040     6.4670     1.3810 C.3   1 <1>   0.1200 
 19 C        2.2910     6.7970    -0.8990 C.3   1 <1>   0.1200 
 20 O        2.0220     7.3960     0.3390 O.3   1 <1>  -0.5600 
 21 H       -2.2770    -0.3680     1.7080 H     1 <1>   0.0800 
 22 H       -2.7460    -0.2270     0.0300 H     1 <1>   0.0800 
 23 H       -1.6850     3.9470    -0.4850 H     1 <1>   0.0800 
 24 H       -1.6810     3.8470     1.2560 H     1 <1>   0.0800 
 25 H       -3.1450     1.7690     2.2600 H     1 <1>   0.0800 
 26 H       -4.3620     1.0750     1.2280 H     1 <1>   0.0800 
 27 H        5.1050     1.2810    -0.7880 H     1 <1>   0.0800 
 28 H        5.2540     2.9310    -0.2260 H     1 <1>   0.0800 
 29 H        4.8620     2.6080    -1.9010 H     1 <1>   0.0800 
 30 H       -3.4220     2.3410    -0.6970 H     1 <1>   0.0800 
 31 H       -3.9390     3.4120     0.5710 H     1 <1>   0.0800 
 32 H        0.7260     4.7410     1.8890 H     1 <1>   0.0800 
 33 H       -0.1910     6.0370     1.1710 H     1 <1>   0.0800 
 34 H        0.2740     6.3960    -1.5260 H     1 <1>   0.0800 
 35 H        1.4480     5.3020    -2.1980 H     1 <1>   0.0800 
 36 H        2.8290     5.9230     1.4640 H     1 <1>   0.0800 
 37 H        1.7380     7.0130     2.2920 H     1 <1>   0.0800 
 38 H        2.3900     7.5790    -1.6300 H     1 <1>   0.0800 
 39 H        3.2250     6.2670    -0.8300 H     1 <1>   0.0800 
@<TRIPOS>BOND
  1   1   2  1   
  2   1   3  1   
  3   2   4  ar  
  4   2   5  ar  
  5   3   6  2   
  6   3   7  1   
  7   4   8  ar  
  8   5   6  1   
  9   5   9  ar  
 10   6  10  1   
 11   7  11  1   
 12   7  21  1   
 13   7  22  1   
 14   8  12  ar  
 15   8  13  1   
 16   9  12  ar  
 17   9  14  1   
 18  10  15  1   
 19  10  23  1   
 20  10  24  1   
 21  11  15  1   
 22  11  25  1   
 23  11  26  1   
 24  13  27  1   
 25  13  28  1   
 26  13  29  1   
 27  14  16  1   
 28  14  17  1   
 29  15  30  1   
 30  15  31  1   
 31  16  18  1   
 32  16  32  1   
 33  16  33  1   
 34  17  19  1   
 35  17  34  1   
 36  17  35  1   
 37  18  20  1   
 38  18  36  1   
 39  18  37  1   
 40  19  20  1   
 41  19  38  1   
 42  19  39  1   
@<TRIPOS>SUBSTRUCTURE
  1 ****   5 GROUP 4 **** **** 0

# MOE 2024.06 (io_trps.svl 2023.06)
