@<TRIPOS>MOLECULE
NONAME
46 48 1 0 0 
SMALL
USER_CHARGES


@<TRIPOS>ATOM
  1 O        2.4370     1.8710     2.5250 O.2   1 <1>  -0.5700 
  2 C        2.9280     2.1840     1.4690 C.2   1 <1>   0.5690 
  3 N        2.2890     2.7580     0.4260 N.am  1 <1>  -0.6600 
  4 C        4.3810     1.9670     1.1550 C.3   1 <1>  -0.0990 
  5 C        0.8380     3.0570     0.3880 C.3   1 <1>   0.2200 
  6 C        3.1960     3.0010    -0.7150 C.3   1 <1>   0.1400 
  7 C        4.5980     2.8200    -0.1100 C.3   1 <1>  -0.0190 
  8 C        0.1680     2.3470    -0.7960 C.3   1 <1>  -0.1600 
  9 C        0.6070     4.5730     0.3320 C.3   1 <1>  -0.1600 
 10 C        5.6120     2.2490    -1.0920 C.2   1 <1>   0.5690 
 11 C       -1.3330     2.6680    -0.8510 C.3   1 <1>  -0.1600 
 12 C       -0.8930     4.8980     0.2770 C.3   1 <1>  -0.1600 
 13 O        5.3860     2.2880    -2.2760 O.2   1 <1>  -0.5700 
 14 N        6.7660     1.7260    -0.6160 N.am  1 <1>  -0.7300 
 15 C       -1.5740     4.1840    -0.8990 C.3   1 <1>  -0.1600 
 16 C        7.8360     1.1760    -1.4610 C.3   1 <1>   0.2840 
 17 C        9.0440     0.9310    -0.5780 C.ar  1 <1>  -0.1440 
 18 C        9.9720     1.9400    -0.3680 C.ar  1 <1>  -0.1500 
 19 C        9.2280    -0.3000     0.0330 C.ar  1 <1>  -0.1500 
 20 C       11.0730     1.7210     0.4420 C.ar  1 <1>  -0.1500 
 21 C       10.3290    -0.5210     0.8430 C.ar  1 <1>  -0.1500 
 22 C       11.2510     0.4890     1.0480 C.ar  1 <1>  -0.1500 
 23 H        4.5300     0.9210     0.9590 H     1 <1>   0.0800 
 24 H        5.0000     2.2870     1.9720 H     1 <1>   0.0800 
 25 H        0.3910     2.6850     1.2960 H     1 <1>   0.0800 
 26 H        3.0730     3.9900    -1.1190 H     1 <1>   0.0800 
 27 H        3.0040     2.2670    -1.4800 H     1 <1>   0.0800 
 28 H        4.9450     3.7920     0.1880 H     1 <1>   0.0800 
 29 H        0.3020     1.2840    -0.6940 H     1 <1>   0.0800 
 30 H        0.6200     2.6640    -1.7180 H     1 <1>   0.0800 
 31 H        1.0810     4.9830    -0.5400 H     1 <1>   0.0800 
 32 H        1.0390     5.0280     1.2060 H     1 <1>   0.0800 
 33 H       -1.8160     2.2590     0.0200 H     1 <1>   0.0800 
 34 H       -1.7700     2.2050    -1.7180 H     1 <1>   0.0800 
 35 H       -1.0290     5.9620     0.1820 H     1 <1>   0.0800 
 36 H       -1.3580     4.5880     1.1980 H     1 <1>   0.0800 
 37 H        6.9820     1.7170     0.3820 H     1 <1>   0.3700 
 38 H       -2.6320     4.3810    -0.8770 H     1 <1>   0.0800 
 39 H       -1.1860     4.5760    -1.8250 H     1 <1>   0.0800 
 40 H        8.0740     1.8740    -2.2460 H     1 <1>   0.0800 
 41 H        7.5020     0.2570    -1.9120 H     1 <1>   0.0800 
 42 H        9.8400     2.9020    -0.8330 H     1 <1>   0.1500 
 43 H        8.5160    -1.0930    -0.1190 H     1 <1>   0.1500 
 44 H       11.7910     2.5060     0.6010 H     1 <1>   0.1500 
 45 H       10.4680    -1.4790     1.3140 H     1 <1>   0.1500 
 46 H       12.1070     0.3180     1.6770 H     1 <1>   0.1500 
@<TRIPOS>BOND
  1   1   2  2   
  2   2   3  am  
  3   2   4  1   
  4   3   5  1   
  5   3   6  1   
  6   4   7  1   
  7   4  23  1   
  8   4  24  1   
  9   5   8  1   
 10   5   9  1   
 11   5  25  1   
 12   6   7  1   
 13   6  26  1   
 14   6  27  1   
 15   7  10  1   
 16   7  28  1   
 17   8  11  1   
 18   8  29  1   
 19   8  30  1   
 20   9  12  1   
 21   9  31  1   
 22   9  32  1   
 23  10  13  2   
 24  10  14  am  
 25  11  15  1   
 26  11  33  1   
 27  11  34  1   
 28  12  15  1   
 29  12  35  1   
 30  12  36  1   
 31  14  16  1   
 32  14  37  1   
 33  15  38  1   
 34  15  39  1   
 35  16  17  1   
 36  16  40  1   
 37  16  41  1   
 38  17  18  ar  
 39  17  19  ar  
 40  18  20  ar  
 41  18  42  1   
 42  19  21  ar  
 43  19  43  1   
 44  20  22  ar  
 45  20  44  1   
 46  21  22  ar  
 47  21  45  1   
 48  22  46  1   
@<TRIPOS>SUBSTRUCTURE
  1 ****   7 GROUP 4 **** **** 0

# MOE 2024.06 (io_trps.svl 2023.06)
