@<TRIPOS>MOLECULE
NONAME
45 47 1 0 0 
SMALL
USER_CHARGES


@<TRIPOS>ATOM
  1 O        0.6100    -1.3140     1.6760 O.2   1 <1>  -0.5700 
  2 C        1.1990    -2.1750     1.0430 C.2   1 <1>   0.5440 
  3 N        2.5740    -2.2460     1.1420 N.am  1 <1>  -0.6600 
  4 C        0.4530    -3.0540     0.1760 C.ar  1 <1>   0.0860 
  5 C        3.3640    -1.3250     2.0170 C.3   1 <1>   0.1400 
  6 C        3.4360    -3.0580     0.2280 C.3   1 <1>   0.1400 
  7 C       -0.1800    -4.1850     0.7120 C.ar  1 <1>   0.0830 
  8 C        0.3560    -2.8410    -1.2110 C.ar  1 <1>   0.0830 
  9 C        4.2840    -0.4220     1.1770 C.3   1 <1>   0.2090 
 10 C        4.3490    -2.1480    -0.6130 C.3   1 <1>   0.2090 
 11 O       -0.0700    -4.3950     2.0470 O.3   1 <1>  -0.3630 
 12 C       -0.8820    -5.0630    -0.1100 C.ar  1 <1>  -0.1500 
 13 O        0.9300    -1.8010    -1.8620 O.3   1 <1>  -0.3630 
 14 C       -0.3340    -3.7320    -2.0150 C.ar  1 <1>  -0.1500 
 15 N        5.1440    -1.2230     0.2560 N.pl3 1 <1>  -0.8380 
 16 C       -0.7990    -5.3900     2.7300 C.3   1 <1>   0.0400 
 17 C       -0.9570    -4.8370    -1.4710 C.ar  1 <1>  -0.1500 
 18 C        0.8090    -0.4790    -1.3740 C.3   1 <1>   0.0400 
 19 C        6.2070    -0.5560    -0.3190 C.ar  1 <1>   0.4100 
 20 N        6.0820    -0.1800    -1.5860 N.ar  1 <1>  -0.6200 
 21 C        7.3430    -0.3000     0.4450 C.ar  1 <1>  -0.1500 
 22 C        7.1140     0.4680    -2.1000 C.ar  1 <1>   0.1600 
 23 C        8.4090     0.3760    -0.1010 C.ar  1 <1>  -0.1500 
 24 C        8.2800     0.7690    -1.4180 C.ar  1 <1>  -0.1500 
 25 H        3.9640    -1.9110     2.6890 H     1 <1>   0.0800 
 26 H        2.7110    -0.7110     2.6120 H     1 <1>   0.0800 
 27 H        2.8420    -3.6640    -0.4300 H     1 <1>   0.0800 
 28 H        4.0490    -3.7170     0.8170 H     1 <1>   0.0800 
 29 H        4.9020     0.1630     1.8330 H     1 <1>   0.0800 
 30 H        3.6810     0.2550     0.5970 H     1 <1>   0.0800 
 31 H        3.7470    -1.5720    -1.2950 H     1 <1>   0.0800 
 32 H        5.0210    -2.7530    -1.1960 H     1 <1>   0.0800 
 33 H       -1.3730    -5.9300     0.2880 H     1 <1>   0.1500 
 34 H       -0.3840    -3.5500    -3.0740 H     1 <1>   0.1500 
 35 H       -0.5910    -5.2920     3.7800 H     1 <1>   0.0800 
 36 H       -0.4830    -6.3570     2.3830 H     1 <1>   0.0800 
 37 H       -1.8490    -5.2370     2.5510 H     1 <1>   0.0800 
 38 H       -1.4960    -5.5200    -2.1060 H     1 <1>   0.1500 
 39 H        0.8520     0.1920    -2.2120 H     1 <1>   0.0800 
 40 H        1.6260    -0.2740    -0.7070 H     1 <1>   0.0800 
 41 H       -0.1330    -0.3710    -0.8640 H     1 <1>   0.0800 
 42 H        7.3680    -0.6440     1.4600 H     1 <1>   0.1500 
 43 H        7.0250     0.7780    -3.1270 H     1 <1>   0.1500 
 44 H        9.2980     0.5870     0.4660 H     1 <1>   0.1500 
 45 H        9.0740     1.3010    -1.9100 H     1 <1>   0.1500 
@<TRIPOS>BOND
  1   1   2  2   
  2   2   3  am  
  3   2   4  1   
  4   3   5  1   
  5   3   6  1   
  6   4   7  ar  
  7   4   8  ar  
  8   5   9  1   
  9   5  25  1   
 10   5  26  1   
 11   6  10  1   
 12   6  27  1   
 13   6  28  1   
 14   7  11  1   
 15   7  12  ar  
 16   8  13  1   
 17   8  14  ar  
 18   9  15  1   
 19   9  29  1   
 20   9  30  1   
 21  10  15  1   
 22  10  31  1   
 23  10  32  1   
 24  11  16  1   
 25  12  17  ar  
 26  12  33  1   
 27  13  18  1   
 28  14  17  ar  
 29  14  34  1   
 30  15  19  1   
 31  16  35  1   
 32  16  36  1   
 33  16  37  1   
 34  17  38  1   
 35  18  39  1   
 36  18  40  1   
 37  18  41  1   
 38  19  20  ar  
 39  19  21  ar  
 40  20  22  ar  
 41  21  23  ar  
 42  21  42  1   
 43  22  24  ar  
 44  22  43  1   
 45  23  24  ar  
 46  23  44  1   
 47  24  45  1   
@<TRIPOS>SUBSTRUCTURE
  1 ****   3 GROUP 4 **** **** 0

# MOE 2024.06 (io_trps.svl 2023.06)
