@<TRIPOS>MOLECULE
NONAME
28 29 1 0 0 
SMALL
USER_CHARGES


@<TRIPOS>ATOM
  1 S       -1.0480     0.6350    -1.2880 S.3   1 <1>  -0.2420 
  2 C       -0.8250     2.2220    -0.5670 C.2   1 <1>   0.6510 
  3 C        0.6690     0.2600    -1.1120 C.2   1 <1>  -0.0490 
  4 N       -1.7860     3.0500    -0.4050 N.2   1 <1>  -0.6610 
  5 N        0.4730     2.4040    -0.2320 N.am  1 <1>  -0.2290 
  6 C        1.3110     1.2920    -0.5420 C.2   1 <1>  -0.0290 
  7 C       -1.4490     4.2450     0.1700 C.2   1 <1>   0.6000 
  8 C        0.7530     3.6200     0.3390 C.2   1 <1>   0.8410 
  9 C        2.8070     1.3430    -0.2270 C.3   1 <1>   0.0390 
 10 N       -0.2410     4.5280     0.5290 N.2   1 <1>  -0.6610 
 11 C       -2.6130     5.2830     0.3820 C.3   1 <1>   1.0810 
 12 O        1.8790     3.9110     0.6860 O.2   1 <1>  -0.5700 
 13 C        3.5200     0.0550    -0.5770 C.2   1 <1>   0.6590 
 14 F       -2.2220     6.4260     0.9460 F     1 <1>  -0.3400 
 15 F       -3.2020     5.6330    -0.7600 F     1 <1>  -0.3400 
 16 F       -3.5830     4.8130     1.1650 F     1 <1>  -0.3400 
 17 O        4.1020    -0.0770    -1.6220 O.2   1 <1>  -0.5700 
 18 O        3.4410    -0.9140     0.3270 O.3   1 <1>  -0.4300 
 19 C        4.0660    -2.1680     0.1600 C.3   1 <1>   0.1200 
 20 C        5.5090    -2.0700     0.6510 C.3   1 <1>  -0.2400 
 21 H        0.9920    -0.7060    -1.4650 H     1 <1>   0.1500 
 22 H        2.9550     1.5310     0.8200 H     1 <1>   0.0800 
 23 H        3.2640     2.1420    -0.7800 H     1 <1>   0.0800 
 24 H        4.0230    -2.4530    -0.8790 H     1 <1>   0.0800 
 25 H        3.5190    -2.8870     0.7450 H     1 <1>   0.0800 
 26 H        6.0590    -1.3630     0.0550 H     1 <1>   0.0800 
 27 H        5.9870    -3.0290     0.5650 H     1 <1>   0.0800 
 28 H        5.5320    -1.7680     1.6830 H     1 <1>   0.0800 
@<TRIPOS>BOND
  1   1   2  1   
  2   1   3  1   
  3   2   4  2   
  4   2   5  1   
  5   3   6  2   
  6   3  21  1   
  7   4   7  1   
  8   5   6  1   
  9   5   8  am  
 10   6   9  1   
 11   7  10  2   
 12   7  11  1   
 13   8  10  1   
 14   8  12  2   
 15   9  13  1   
 16   9  22  1   
 17   9  23  1   
 18  11  14  1   
 19  11  15  1   
 20  11  16  1   
 21  13  17  2   
 22  13  18  1   
 23  18  19  1   
 24  19  20  1   
 25  19  24  1   
 26  19  25  1   
 27  20  26  1   
 28  20  27  1   
 29  20  28  1   
@<TRIPOS>SUBSTRUCTURE
  1 ****   5 GROUP 4 **** **** 0

# MOE 2024.06 (io_trps.svl 2023.06)
