@<TRIPOS>MOLECULE
NONAME
49 50 1 0 0 
SMALL
USER_CHARGES


@<TRIPOS>ATOM
  1 S       -0.1800    -0.5300     1.1310 S.o2  1 <1>   1.3330 
  2 O        0.9720    -1.3880     1.2420 O.2   1 <1>  -0.6500 
  3 O       -0.9930    -0.2090     2.2780 O.2   1 <1>  -0.6500 
  4 N       -1.1780    -1.3430    -0.0050 N.am  1 <1>  -0.7570 
  5 C        0.2740     0.9640     0.2410 C.3   1 <1>  -0.0550 
  6 C       -2.5160    -1.1600    -0.3070 C.ar  1 <1>   0.1990 
  7 C        1.2160     1.9030     1.0150 C.3   1 <1>  -0.2400 
  8 C       -3.1450    -2.0690    -1.1490 C.ar  1 <1>  -0.1500 
  9 C       -3.2770    -0.1010     0.1840 C.ar  1 <1>  -0.1500 
 10 C       -4.4810    -1.9360    -1.4740 C.ar  1 <1>  -0.1500 
 11 C       -4.6120     0.0310    -0.1430 C.ar  1 <1>  -0.1500 
 12 C       -5.2580    -0.8910    -0.9720 C.ar  1 <1>   0.0860 
 13 C       -6.6660    -0.7890    -1.2940 C.2   1 <1>   0.5440 
 14 O       -7.0970    -1.2390    -2.3370 O.2   1 <1>  -0.5700 
 15 N       -7.5280    -0.2080    -0.3950 N.am  1 <1>  -0.5470 
 16 C       -8.9290    -0.1730    -0.4360 C.ar  1 <1>   0.1170 
 17 C       -9.6140     0.7120    -1.2750 C.ar  1 <1>  -0.1430 
 18 C       -9.6530    -1.0170     0.4130 C.ar  1 <1>  -0.1430 
 19 C      -10.9990     0.7450    -1.2520 C.ar  1 <1>  -0.1500 
 20 C       -8.8950     1.6700    -2.2210 C.3   1 <1>  -0.0170 
 21 C      -11.0370    -0.9640     0.4190 C.ar  1 <1>  -0.1500 
 22 C       -8.9660    -2.0190     1.3370 C.3   1 <1>  -0.0170 
 23 C      -11.7110    -0.0870    -0.4090 C.ar  1 <1>  -0.1500 
 24 C       -8.5420     2.9760    -1.5050 C.3   1 <1>  -0.2400 
 25 C       -8.5370    -1.3580     2.6510 C.3   1 <1>  -0.2400 
 26 H       -0.7320    -2.2170    -0.2720 H     1 <1>   0.4200 
 27 H       -0.6170     1.5060    -0.0080 H     1 <1>   0.0800 
 28 H        0.7510     0.6870    -0.6800 H     1 <1>   0.0800 
 29 H        0.7520     2.2200     1.9340 H     1 <1>   0.0800 
 30 H        1.4450     2.7720     0.4240 H     1 <1>   0.0800 
 31 H        2.1340     1.3930     1.2530 H     1 <1>   0.0800 
 32 H       -2.5820    -2.8910    -1.5540 H     1 <1>   0.1500 
 33 H       -2.8300     0.6280     0.8340 H     1 <1>   0.1500 
 34 H       -4.9450    -2.6550    -2.1300 H     1 <1>   0.1500 
 35 H       -5.1610     0.8680     0.2500 H     1 <1>   0.1500 
 36 H       -7.1430    -0.0570     0.5330 H     1 <1>   0.3700 
 37 H      -11.5340     1.4230    -1.8930 H     1 <1>   0.1500 
 38 H       -9.5280     1.8870    -3.0630 H     1 <1>   0.0800 
 39 H       -8.0040     1.2170    -2.6150 H     1 <1>   0.0800 
 40 H      -11.6020    -1.6080     1.0700 H     1 <1>   0.1500 
 41 H       -8.1130    -2.4540     0.8450 H     1 <1>   0.0800 
 42 H       -9.6410    -2.8280     1.5560 H     1 <1>   0.0800 
 43 H      -12.7860    -0.0530    -0.4000 H     1 <1>   0.1500 
 44 H       -9.4360     3.4540    -1.1450 H     1 <1>   0.0800 
 45 H       -8.0380     3.6430    -2.1810 H     1 <1>   0.0800 
 46 H       -7.8970     2.7760    -0.6690 H     1 <1>   0.0800 
 47 H       -7.8360    -0.5650     2.4680 H     1 <1>   0.0800 
 48 H       -8.0760    -2.0850     3.2960 H     1 <1>   0.0800 
 49 H       -9.3950    -0.9480     3.1520 H     1 <1>   0.0800 
@<TRIPOS>BOND
  1   1   2  2   
  2   1   3  2   
  3   1   4  am  
  4   1   5  1   
  5   4   6  1   
  6   4  26  1   
  7   5   7  1   
  8   5  27  1   
  9   5  28  1   
 10   6   8  ar  
 11   6   9  ar  
 12   7  29  1   
 13   7  30  1   
 14   7  31  1   
 15   8  10  ar  
 16   8  32  1   
 17   9  11  ar  
 18   9  33  1   
 19  10  12  ar  
 20  10  34  1   
 21  11  12  ar  
 22  11  35  1   
 23  12  13  1   
 24  13  14  2   
 25  13  15  am  
 26  15  16  1   
 27  15  36  1   
 28  16  17  ar  
 29  16  18  ar  
 30  17  19  ar  
 31  17  20  1   
 32  18  21  ar  
 33  18  22  1   
 34  19  23  ar  
 35  19  37  1   
 36  20  24  1   
 37  20  38  1   
 38  20  39  1   
 39  21  23  ar  
 40  21  40  1   
 41  22  25  1   
 42  22  41  1   
 43  22  42  1   
 44  23  43  1   
 45  24  44  1   
 46  24  45  1   
 47  24  46  1   
 48  25  47  1   
 49  25  48  1   
 50  25  49  1   
@<TRIPOS>SUBSTRUCTURE
  1 ****  12 GROUP 4 **** **** 0

# MOE 2024.06 (io_trps.svl 2023.06)
