@<TRIPOS>MOLECULE
NONAME
42 44 1 0 0 
SMALL
USER_CHARGES


@<TRIPOS>ATOM
  1 CL       0.0640    -1.1840    -2.4770 Cl    1 <1>  -0.1770 
  2 C        0.8590    -2.0220    -1.1630 C.ar  1 <1>   0.1770 
  3 C        0.1190    -2.6790    -0.1920 C.ar  1 <1>   0.1770 
  4 C        2.2390    -2.0170    -1.1110 C.ar  1 <1>  -0.1500 
  5 CL      -1.6310    -2.6900    -0.2500 Cl    1 <1>  -0.1770 
  6 C        0.7580    -3.3380     0.8430 C.ar  1 <1>  -0.1500 
  7 C        2.8930    -2.6770    -0.0750 C.ar  1 <1>   0.1000 
  8 C        2.1420    -3.3330     0.8940 C.ar  1 <1>  -0.1500 
  9 N        4.2780    -2.6940     0.0120 N.pl3 1 <1>  -0.8380 
 10 C        4.9360    -1.4040     0.3760 C.3   1 <1>   0.2090 
 11 C        5.0110    -3.4120    -1.0750 C.3   1 <1>   0.2090 
 12 C        6.4360    -1.6080     0.6680 C.3   1 <1>   0.1960 
 13 C        6.5150    -3.5430    -0.7600 C.3   1 <1>   0.1960 
 14 N        7.1480    -2.2380    -0.4670 N.am  1 <1>  -0.8490 
 15 S        8.8140    -2.4020    -0.1870 S.o2  1 <1>   1.3330 
 16 O        9.2970    -3.4030    -1.1130 O.2   1 <1>  -0.6500 
 17 O        8.9770    -2.5970     1.2370 O.2   1 <1>  -0.6500 
 18 C        9.4590    -0.7970    -0.6810 C.3   1 <1>   0.0890 
 19 C       10.9680    -0.6530    -0.5220 C.ar  1 <1>  -0.1430 
 20 C       11.8230    -1.2760    -1.4180 C.ar  1 <1>  -0.1500 
 21 C       11.4980     0.0970     0.5180 C.ar  1 <1>  -0.1500 
 22 C       13.1940    -1.1450    -1.2820 C.ar  1 <1>  -0.1500 
 23 C       12.8700     0.2280     0.6540 C.ar  1 <1>  -0.1500 
 24 C       13.7180    -0.3920    -0.2460 C.ar  1 <1>  -0.1500 
 25 H        2.8010    -1.5050    -1.8670 H     1 <1>   0.1500 
 26 H        0.1790    -3.8460     1.5940 H     1 <1>   0.1500 
 27 H        2.6600    -3.8400     1.6890 H     1 <1>   0.1500 
 28 H        4.4560    -0.9970     1.2480 H     1 <1>   0.0800 
 29 H        4.8240    -0.7000    -0.4300 H     1 <1>   0.0800 
 30 H        4.8940    -2.8800    -2.0030 H     1 <1>   0.0800 
 31 H        4.5880    -4.3940    -1.1980 H     1 <1>   0.0800 
 32 H        6.5270    -2.2240     1.5470 H     1 <1>   0.0800 
 33 H        6.8780    -0.6520     0.8880 H     1 <1>   0.0800 
 34 H        6.9930    -3.9960    -1.6110 H     1 <1>   0.0800 
 35 H        6.6420    -4.2060     0.0800 H     1 <1>   0.0800 
 36 H        8.9770    -0.0330    -0.1060 H     1 <1>   0.0800 
 37 H        9.2110    -0.6270    -1.7100 H     1 <1>   0.0800 
 38 H       11.4290    -1.8720    -2.2240 H     1 <1>   0.1500 
 39 H       10.8530     0.5800     1.2300 H     1 <1>   0.1500 
 40 H       13.8520    -1.6320    -1.9800 H     1 <1>   0.1500 
 41 H       13.2780     0.8100     1.4620 H     1 <1>   0.1500 
 42 H       14.7840    -0.2910    -0.1400 H     1 <1>   0.1500 
@<TRIPOS>BOND
  1   1   2  1   
  2   2   3  ar  
  3   2   4  ar  
  4   3   5  1   
  5   3   6  ar  
  6   4   7  ar  
  7   4  25  1   
  8   6   8  ar  
  9   6  26  1   
 10   7   8  ar  
 11   7   9  1   
 12   8  27  1   
 13   9  10  1   
 14   9  11  1   
 15  10  12  1   
 16  10  28  1   
 17  10  29  1   
 18  11  13  1   
 19  11  30  1   
 20  11  31  1   
 21  12  14  1   
 22  12  32  1   
 23  12  33  1   
 24  13  14  1   
 25  13  34  1   
 26  13  35  1   
 27  14  15  am  
 28  15  16  2   
 29  15  17  2   
 30  15  18  1   
 31  18  19  1   
 32  18  36  1   
 33  18  37  1   
 34  19  20  ar  
 35  19  21  ar  
 36  20  22  ar  
 37  20  38  1   
 38  21  23  ar  
 39  21  39  1   
 40  22  24  ar  
 41  22  40  1   
 42  23  24  ar  
 43  23  41  1   
 44  24  42  1   
@<TRIPOS>SUBSTRUCTURE
  1 ****  14 GROUP 4 **** **** 0

# MOE 2024.06 (io_trps.svl 2023.06)
