@<TRIPOS>MOLECULE
NONAME
45 47 1 0 0 
SMALL
USER_CHARGES


@<TRIPOS>ATOM
  1 O        4.2040    -9.6060     1.8330 O.2   1 <1>  -0.5700 
  2 C        3.8600    -8.6270     1.2150 C.2   1 <1>   0.5690 
  3 N        2.5920    -8.5580     0.6740 N.am  1 <1>  -0.6600 
  4 C        4.8730    -7.4870     1.1020 C.3   1 <1>   0.1810 
  5 C        1.7400    -9.7870     0.5870 C.3   1 <1>   0.1400 
  6 C        1.9980    -7.3320     0.0520 C.3   1 <1>   0.1400 
  7 O        4.9330    -6.9690    -0.2190 O.3   1 <1>  -0.3630 
  8 C        0.3120    -9.5140     1.0870 C.3   1 <1>   0.3430 
  9 C        0.5490    -7.1030     0.5280 C.3   1 <1>   0.3430 
 10 C        5.7140    -5.9030    -0.5200 C.ar  1 <1>   0.0820 
 11 N       -0.3090    -8.3360     0.3880 N.4   1 <1>  -0.9590 
 12 C        6.5510    -5.2720     0.3970 C.ar  1 <1>  -0.1500 
 13 C        5.6530    -5.4340    -1.8230 C.ar  1 <1>  -0.1500 
 14 C       -1.7050    -8.0980     0.8510 C.3   1 <1>   0.4860 
 15 C        7.3060    -4.1790     0.0050 C.ar  1 <1>  -0.1500 
 16 C        6.4080    -4.3420    -2.2120 C.ar  1 <1>  -0.1500 
 17 C       -2.3160    -6.9980     0.0040 C.ar  1 <1>  -0.1440 
 18 C        7.2350    -3.7140    -1.2970 C.ar  1 <1>  -0.1500 
 19 C       -2.6900    -7.2080    -1.3110 C.ar  1 <1>  -0.1500 
 20 C       -2.5250    -5.7270     0.5060 C.ar  1 <1>  -0.1500 
 21 C       -3.2190    -6.1600    -2.0450 C.ar  1 <1>   0.1600 
 22 C       -3.0620    -4.7490    -0.3140 C.ar  1 <1>   0.1600 
 23 N       -3.4000    -4.9380    -1.5770 N.ar  1 <1>  -0.6200 
 24 H        5.8510    -7.8550     1.3580 H     1 <1>   0.0800 
 25 H        4.5960    -6.6940     1.7700 H     1 <1>   0.0800 
 26 H        2.1630   -10.5860     1.1730 H     1 <1>   0.0800 
 27 H        1.7110   -10.1220    -0.4350 H     1 <1>   0.0800 
 28 H        2.0190    -7.4340    -1.0200 H     1 <1>   0.0800 
 29 H        2.5740    -6.4600     0.3060 H     1 <1>   0.0800 
 30 H        0.3550    -9.3290     2.1480 H     1 <1>   0.0800 
 31 H       -0.2870   -10.3960     0.9290 H     1 <1>   0.0800 
 32 H        0.1230    -6.2920    -0.0400 H     1 <1>   0.0800 
 33 H        0.5770    -6.8000     1.5620 H     1 <1>   0.0800 
 34 H       -0.3590    -8.5470    -0.6160 H     1 <1>   0.4500 
 35 H        6.6360    -5.6100     1.4120 H     1 <1>   0.1500 
 36 H        5.0150    -5.9280    -2.5330 H     1 <1>   0.1500 
 37 H       -1.7090    -7.8070     1.8890 H     1 <1>   0.0800 
 38 H       -2.2910    -8.9960     0.7460 H     1 <1>   0.0800 
 39 H        7.9540    -3.6900     0.7120 H     1 <1>   0.1500 
 40 H        6.3560    -3.9830    -3.2250 H     1 <1>   0.1500 
 41 H        7.8240    -2.8640    -1.5980 H     1 <1>   0.1500 
 42 H       -2.5860    -8.1690    -1.7830 H     1 <1>   0.1500 
 43 H       -2.2840    -5.4740     1.5230 H     1 <1>   0.1500 
 44 H       -3.5090    -6.3310    -3.0700 H     1 <1>   0.1500 
 45 H       -3.2230    -3.7600     0.0850 H     1 <1>   0.1500 
@<TRIPOS>BOND
  1   1   2  2   
  2   2   3  am  
  3   2   4  1   
  4   3   5  1   
  5   3   6  1   
  6   4   7  1   
  7   4  24  1   
  8   4  25  1   
  9   5   8  1   
 10   5  26  1   
 11   5  27  1   
 12   6   9  1   
 13   6  28  1   
 14   6  29  1   
 15   7  10  1   
 16   8  11  1   
 17   8  30  1   
 18   8  31  1   
 19   9  11  1   
 20   9  32  1   
 21   9  33  1   
 22  10  12  ar  
 23  10  13  ar  
 24  11  14  1   
 25  11  34  1   
 26  12  15  ar  
 27  12  35  1   
 28  13  16  ar  
 29  13  36  1   
 30  14  17  1   
 31  14  37  1   
 32  14  38  1   
 33  15  18  ar  
 34  15  39  1   
 35  16  18  ar  
 36  16  40  1   
 37  17  19  ar  
 38  17  20  ar  
 39  18  41  1   
 40  19  21  ar  
 41  19  42  1   
 42  20  22  ar  
 43  20  43  1   
 44  21  23  ar  
 45  21  44  1   
 46  22  23  ar  
 47  22  45  1   
@<TRIPOS>SUBSTRUCTURE
  1 ****   6 GROUP 4 **** **** 0

# MOE 2024.06 (io_trps.svl 2023.06)
