@<TRIPOS>MOLECULE
NONAME
42 45 1 0 0 
SMALL
USER_CHARGES


@<TRIPOS>ATOM
  1 O        1.0470     0.6760     1.8440 O.3   1 <1>  -0.6800 
  2 C        1.1330    -0.4380     1.0050 C.3   1 <1>   0.2000 
  3 C        2.1720    -1.4410     1.5630 C.3   1 <1>   0.0960 
  4 C        1.4320     0.0770    -0.4250 C.3   1 <1>   0.3430 
  5 N        3.5700    -1.0870     1.2160 N.pl3 1 <1>   0.0480 
  6 N        2.4220     1.1900    -0.3850 N.4   1 <1>  -0.7990 
  7 C        4.1810    -1.4600     0.0300 C.ar  1 <1>  -0.1520 
  8 C        4.2690    -0.0120     1.7340 C.ar  1 <1>  -0.1520 
  9 C        2.5150     1.9680    -1.6190 C.3   1 <1>   0.2960 
 10 C        5.2710    -0.6280    -0.1960 C.ar  1 <1>   0.0000 
 11 C        3.8620    -2.4660    -0.8850 C.ar  1 <1>  -0.1500 
 12 C        5.3250     0.2920     0.8840 C.ar  1 <1>   0.0000 
 13 C        4.0530     0.7450     2.8860 C.ar  1 <1>  -0.1500 
 14 C        3.3290     1.4190    -2.7380 C.3   1 <1>  -0.2000 
 15 C        3.8330     2.5840    -1.9370 C.3   1 <1>  -0.2000 
 16 C        6.0520    -0.7910    -1.3380 C.ar  1 <1>  -0.1500 
 17 C        4.6350    -2.6140    -2.0160 C.ar  1 <1>  -0.1500 
 18 C        6.1730     1.3590     1.1740 C.ar  1 <1>  -0.1500 
 19 C        4.8920     1.8020     3.1630 C.ar  1 <1>  -0.1500 
 20 C        5.7290    -1.7780    -2.2430 C.ar  1 <1>  -0.1500 
 21 C        5.9510     2.1100     2.3080 C.ar  1 <1>  -0.1500 
 22 H        0.6560     0.4450     2.7160 H     1 <1>   0.4000 
 23 H        0.1660    -0.9130     1.0090 H     1 <1>   0.0800 
 24 H        1.9700    -2.4160     1.1580 H     1 <1>   0.0800 
 25 H        2.0840    -1.5170     2.6310 H     1 <1>   0.0800 
 26 H        0.5120     0.4380    -0.8530 H     1 <1>   0.0800 
 27 H        1.7960    -0.7250    -1.0470 H     1 <1>   0.0800 
 28 H        3.3510     0.8090    -0.1440 H     1 <1>   0.4500 
 29 H        2.1680     1.7790     0.4240 H     1 <1>   0.4500 
 30 H        1.6180     2.5220    -1.8560 H     1 <1>   0.1000 
 31 H        3.0360    -3.1340    -0.7130 H     1 <1>   0.1500 
 32 H        3.2470     0.5060     3.5570 H     1 <1>   0.1500 
 33 H        3.0220     1.6080    -3.7530 H     1 <1>   0.1000 
 34 H        3.8150     0.4660    -2.6280 H     1 <1>   0.1000 
 35 H        4.6720     2.4290    -1.2800 H     1 <1>   0.1000 
 36 H        3.8580     3.5480    -2.4140 H     1 <1>   0.1000 
 37 H        6.9000    -0.1480    -1.5000 H     1 <1>   0.1500 
 38 H        4.4100    -3.3870    -2.7320 H     1 <1>   0.1500 
 39 H        6.9940     1.5830     0.5160 H     1 <1>   0.1500 
 40 H        4.7430     2.3970     4.0480 H     1 <1>   0.1500 
 41 H        6.3260    -1.9180    -3.1290 H     1 <1>   0.1500 
 42 H        6.5990     2.9360     2.5480 H     1 <1>   0.1500 
@<TRIPOS>BOND
  1   1   2  1   
  2   1  22  1   
  3   2   3  1   
  4   2   4  1   
  5   2  23  1   
  6   3   5  1   
  7   3  24  1   
  8   3  25  1   
  9   4   6  1   
 10   4  26  1   
 11   4  27  1   
 12   5   7  1   
 13   5   8  1   
 14   6   9  1   
 15   6  28  1   
 16   6  29  1   
 17   7  10  ar  
 18   7  11  ar  
 19   8  12  ar  
 20   8  13  ar  
 21   9  14  1   
 22   9  15  1   
 23   9  30  1   
 24  10  12  1   
 25  10  16  ar  
 26  11  17  ar  
 27  11  31  1   
 28  12  18  ar  
 29  13  19  ar  
 30  13  32  1   
 31  14  15  1   
 32  14  33  1   
 33  14  34  1   
 34  15  35  1   
 35  15  36  1   
 36  16  20  ar  
 37  16  37  1   
 38  17  20  ar  
 39  17  38  1   
 40  18  21  ar  
 41  18  39  1   
 42  19  21  ar  
 43  19  40  1   
 44  20  41  1   
 45  21  42  1   
@<TRIPOS>SUBSTRUCTURE
  1 ****   7 GROUP 4 **** **** 0

# MOE 2024.06 (io_trps.svl 2023.06)
