@<TRIPOS>MOLECULE
NONAME
38 40 1 0 0 
SMALL
USER_CHARGES


@<TRIPOS>ATOM
  1 O        0.0800    -0.3140    -0.1290 O.2   1 <1>  -0.5700 
  2 C        1.2870    -0.3060    -0.1070 C.2   1 <1>   0.5940 
  3 C        2.1270    -1.4500    -0.3250 C.2   1 <1>  -0.2370 
  4 C        2.0040     1.0090     0.1740 C.3   1 <1>  -0.0990 
  5 N        1.7490    -2.7270    -0.6870 N.pl3 1 <1>   0.0480 
  6 C        3.4830    -1.4320    -0.1970 C.2   1 <1>  -0.1810 
  7 C        3.3510     0.8110     0.9070 C.3   1 <1>  -0.1600 
  8 C        2.8800    -3.5040    -0.7750 C.ar  1 <1>  -0.1520 
  9 C        0.3710    -3.1830    -0.9670 C.3   1 <1>   0.0960 
 10 C        3.9840    -2.7120    -0.4780 C.ar  1 <1>   0.0000 
 11 C        4.2720    -0.1950     0.1910 C.3   1 <1>   0.0210 
 12 C        3.0480    -4.8560    -1.0920 C.ar  1 <1>  -0.1500 
 13 C       -0.3720    -3.4710     0.3410 C.3   1 <1>  -0.0990 
 14 C        5.2690    -3.2690    -0.5040 C.ar  1 <1>  -0.1500 
 15 C        4.3150    -5.3890    -1.1120 C.ar  1 <1>  -0.1500 
 16 C       -1.8500    -3.2520     0.1480 C.2   1 <1>   0.5690 
 17 C        5.4340    -4.5970    -0.8190 C.ar  1 <1>  -0.1440 
 18 O       -2.5950    -4.1900     0.0530 O.2   1 <1>  -0.5700 
 19 N       -2.3030    -1.9910     0.0660 N.am  1 <1>  -0.8000 
 20 C        6.8130    -5.2310    -0.8560 C.3   1 <1>  -0.0970 
 21 H        1.3630     1.6360     0.7650 H     1 <1>   0.0800 
 22 H        2.1740     1.5000    -0.7670 H     1 <1>   0.0800 
 23 H        3.1480     0.4380     1.8960 H     1 <1>   0.0800 
 24 H        3.8570     1.7560     1.0090 H     1 <1>   0.0800 
 25 H        0.3940    -4.0630    -1.5830 H     1 <1>   0.0800 
 26 H       -0.1260    -2.4090    -1.5230 H     1 <1>   0.0800 
 27 H        4.6830     0.2470    -0.7000 H     1 <1>   0.0800 
 28 H        5.0850    -0.4690     0.8400 H     1 <1>   0.0800 
 29 H        2.1950    -5.4710    -1.3160 H     1 <1>   0.1500 
 30 H       -0.0380    -2.8130     1.1220 H     1 <1>   0.0800 
 31 H       -0.1930    -4.4850     0.6500 H     1 <1>   0.0800 
 32 H        6.1070    -2.6380    -0.2750 H     1 <1>   0.1500 
 33 H        4.4570    -6.4270    -1.3550 H     1 <1>   0.1500 
 34 H       -3.2960    -1.8040    -0.0710 H     1 <1>   0.3700 
 35 H       -1.6700    -1.1770     0.0770 H     1 <1>   0.3700 
 36 H        7.5730    -4.5100    -0.6130 H     1 <1>   0.0800 
 37 H        7.0100    -5.6190    -1.8390 H     1 <1>   0.0800 
 38 H        6.8640    -6.0360    -0.1460 H     1 <1>   0.0800 
@<TRIPOS>BOND
  1   1   2  2   
  2   2   3  1   
  3   2   4  1   
  4   3   5  1   
  5   3   6  2   
  6   4   7  1   
  7   4  21  1   
  8   4  22  1   
  9   5   8  1   
 10   5   9  1   
 11   6  10  1   
 12   6  11  1   
 13   7  11  1   
 14   7  23  1   
 15   7  24  1   
 16   8  10  ar  
 17   8  12  ar  
 18   9  13  1   
 19   9  25  1   
 20   9  26  1   
 21  10  14  ar  
 22  11  27  1   
 23  11  28  1   
 24  12  15  ar  
 25  12  29  1   
 26  13  16  1   
 27  13  30  1   
 28  13  31  1   
 29  14  17  ar  
 30  14  32  1   
 31  15  17  ar  
 32  15  33  1   
 33  16  18  2   
 34  16  19  am  
 35  17  20  1   
 36  19  34  1   
 37  19  35  1   
 38  20  36  1   
 39  20  37  1   
 40  20  38  1   
@<TRIPOS>SUBSTRUCTURE
  1 ****   5 GROUP 4 **** **** 0

# MOE 2024.06 (io_trps.svl 2023.06)
