@<TRIPOS>MOLECULE
NONAME
47 49 1 0 0 
SMALL
USER_CHARGES


@<TRIPOS>ATOM
  1 CL      -1.8430     1.2100     2.0560 Cl    1 <1>  -0.1770 
  2 C       -1.1210     2.3530     0.9450 C.ar  1 <1>   0.1770 
  3 C       -1.7000     2.5990    -0.2930 C.ar  1 <1>  -0.1440 
  4 C        0.0380     2.9960     1.3390 C.ar  1 <1>  -0.1500 
  5 C       -1.0830     3.5060    -1.1450 C.ar  1 <1>  -0.1500 
  6 C       -2.9800     1.8960    -0.7160 C.3   1 <1>   0.2540 
  7 C        0.6390     3.9030     0.4840 C.ar  1 <1>  -0.1500 
  8 C        0.0780     4.1550    -0.7570 C.ar  1 <1>  -0.1500 
  9 N       -4.1330     2.4310     0.0340 N.3   1 <1>  -0.8100 
 10 C       -5.3360     1.5970    -0.1260 C.3   1 <1>   0.1100 
 11 C       -4.4060     3.8540    -0.2450 C.3   1 <1>   0.1100 
 12 C       -6.4730     2.0970     0.7880 C.3   1 <1>   0.3430 
 13 C       -5.5290     4.3830     0.6670 C.3   1 <1>   0.3430 
 14 N       -6.7790     3.5540     0.5580 N.4   1 <1>  -0.9590 
 15 C       -7.8350     4.0540     1.4610 C.3   1 <1>   0.4810 
 16 C       -9.1400     3.4630     0.9860 C.2   1 <1>  -0.2880 
 17 C      -10.0720     4.1300     0.2840 C.2   1 <1>  -0.1780 
 18 C      -11.3360     3.6250    -0.2050 C.ar  1 <1>   0.0280 
 19 C      -12.0110     4.3030    -1.2170 C.ar  1 <1>  -0.1500 
 20 C      -11.9260     2.4670     0.3010 C.ar  1 <1>  -0.1500 
 21 C      -13.2170     3.8420    -1.7140 C.ar  1 <1>  -0.1500 
 22 C      -13.1310     2.0010    -0.1920 C.ar  1 <1>  -0.1500 
 23 C      -13.7790     2.6880    -1.2020 C.ar  1 <1>  -0.1500 
 24 H        0.4630     2.7860     2.3040 H     1 <1>   0.1500 
 25 H       -1.5000     3.7140    -2.1150 H     1 <1>   0.1500 
 26 H       -2.8740     0.8430    -0.5130 H     1 <1>   0.0800 
 27 H       -3.1400     2.0140    -1.7740 H     1 <1>   0.0800 
 28 H        1.5420     4.4090     0.7820 H     1 <1>   0.1500 
 29 H        0.5500     4.8570    -1.4230 H     1 <1>   0.1500 
 30 H       -5.6600     1.6030    -1.1530 H     1 <1>   0.0800 
 31 H       -5.1020     0.5810     0.1450 H     1 <1>   0.0800 
 32 H       -3.5200     4.4360    -0.0540 H     1 <1>   0.0800 
 33 H       -4.6740     3.9860    -1.2790 H     1 <1>   0.0800 
 34 H       -6.1710     1.9470     1.8110 H     1 <1>   0.0800 
 35 H       -7.3540     1.5020     0.6090 H     1 <1>   0.0800 
 36 H       -5.7410     5.4070     0.4070 H     1 <1>   0.0800 
 37 H       -5.1690     4.3650     1.6830 H     1 <1>   0.0800 
 38 H       -7.1440     3.6430    -0.3980 H     1 <1>   0.4500 
 39 H       -7.6360     3.7800     2.4850 H     1 <1>   0.0800 
 40 H       -7.8910     5.1290     1.3950 H     1 <1>   0.0800 
 41 H       -9.2590     2.4320     1.2680 H     1 <1>   0.1500 
 42 H       -9.9100     5.1630     0.0240 H     1 <1>   0.1500 
 43 H      -11.5910     5.2030    -1.6290 H     1 <1>   0.1500 
 44 H      -11.4500     1.9210     1.0930 H     1 <1>   0.1500 
 45 H      -13.7200     4.3810    -2.4980 H     1 <1>   0.1500 
 46 H      -13.5700     1.1050     0.2120 H     1 <1>   0.1500 
 47 H      -14.7170     2.3260    -1.5870 H     1 <1>   0.1500 
@<TRIPOS>BOND
  1   1   2  1   
  2   2   3  ar  
  3   2   4  ar  
  4   3   5  ar  
  5   3   6  1   
  6   4   7  ar  
  7   4  24  1   
  8   5   8  ar  
  9   5  25  1   
 10   6   9  1   
 11   6  26  1   
 12   6  27  1   
 13   7   8  ar  
 14   7  28  1   
 15   8  29  1   
 16   9  10  1   
 17   9  11  1   
 18  10  12  1   
 19  10  30  1   
 20  10  31  1   
 21  11  13  1   
 22  11  32  1   
 23  11  33  1   
 24  12  14  1   
 25  12  34  1   
 26  12  35  1   
 27  13  14  1   
 28  13  36  1   
 29  13  37  1   
 30  14  15  1   
 31  14  38  1   
 32  15  16  1   
 33  15  39  1   
 34  15  40  1   
 35  16  17  2   
 36  16  41  1   
 37  17  18  1   
 38  17  42  1   
 39  18  19  ar  
 40  18  20  ar  
 41  19  21  ar  
 42  19  43  1   
 43  20  22  ar  
 44  20  44  1   
 45  21  23  ar  
 46  21  45  1   
 47  22  23  ar  
 48  22  46  1   
 49  23  47  1   
@<TRIPOS>SUBSTRUCTURE
  1 ****  14 GROUP 4 **** **** 0

# MOE 2024.06 (io_trps.svl 2023.06)
