@<TRIPOS>MOLECULE
NONAME
31 31 1 0 0 
SMALL
USER_CHARGES


@<TRIPOS>ATOM
  1 CL       0.4710     0.3310    -1.8520 Cl    1 <1>  -0.1770 
  2 C        1.2980     1.6980    -1.1490 C.ar  1 <1>   0.1770 
  3 C        2.6690     1.6570    -1.0040 C.ar  1 <1>  -0.1500 
  4 C        0.5670     2.7980    -0.7500 C.ar  1 <1>  -0.1500 
  5 C        3.3420     2.7370    -0.4470 C.ar  1 <1>   0.1170 
  6 C        1.2300     3.8800    -0.1970 C.ar  1 <1>  -0.1500 
  7 N        4.7360     2.6530    -0.3330 N.am  1 <1>  -0.5470 
  8 C        2.6090     3.8610    -0.0460 C.ar  1 <1>  -0.1430 
  9 C        5.4970     2.6720     0.8000 C.2   1 <1>   0.5690 
 10 C        3.2850     5.0860     0.5590 C.3   1 <1>  -0.0960 
 11 O        5.0350     2.7870     1.9070 O.2   1 <1>  -0.5700 
 12 C        7.0010     2.5170     0.6550 C.3   1 <1>  -0.0990 
 13 C        7.7440     3.8560     0.4940 C.3   1 <1>  -0.1600 
 14 C        7.4530     4.5500    -0.8440 C.3   1 <1>  -0.1600 
 15 C        8.2640     5.8410    -0.9770 C.3   1 <1>  -0.2400 
 16 H        3.2070     0.7830    -1.3180 H     1 <1>   0.1500 
 17 H       -0.5020     2.8060    -0.8700 H     1 <1>   0.1500 
 18 H        0.6620     4.7390     0.1170 H     1 <1>   0.1500 
 19 H        5.2370     2.4850    -1.2020 H     1 <1>   0.3700 
 20 H        4.1980     5.3100     0.0420 H     1 <1>   0.0800 
 21 H        3.5090     4.9010     1.5950 H     1 <1>   0.0800 
 22 H        2.6460     5.9480     0.4980 H     1 <1>   0.0800 
 23 H        7.2210     1.8710    -0.1740 H     1 <1>   0.0800 
 24 H        7.3630     2.0310     1.5430 H     1 <1>   0.0800 
 25 H        8.8020     3.6690     0.5690 H     1 <1>   0.0800 
 26 H        7.4710     4.5080     1.3080 H     1 <1>   0.0800 
 27 H        6.4070     4.7930    -0.9160 H     1 <1>   0.0800 
 28 H        7.7040     3.8920    -1.6590 H     1 <1>   0.0800 
 29 H        8.0160     6.5240    -0.1830 H     1 <1>   0.0800 
 30 H        8.0480     6.3180    -1.9160 H     1 <1>   0.0800 
 31 H        9.3190     5.6310    -0.9360 H     1 <1>   0.0800 
@<TRIPOS>BOND
  1   1   2  1   
  2   2   3  ar  
  3   2   4  ar  
  4   3   5  ar  
  5   3  16  1   
  6   4   6  ar  
  7   4  17  1   
  8   5   7  1   
  9   5   8  ar  
 10   6   8  ar  
 11   6  18  1   
 12   7   9  am  
 13   7  19  1   
 14   8  10  1   
 15   9  11  2   
 16   9  12  1   
 17  10  20  1   
 18  10  21  1   
 19  10  22  1   
 20  12  13  1   
 21  12  23  1   
 22  12  24  1   
 23  13  14  1   
 24  13  25  1   
 25  13  26  1   
 26  14  15  1   
 27  14  27  1   
 28  14  28  1   
 29  15  29  1   
 30  15  30  1   
 31  15  31  1   
@<TRIPOS>SUBSTRUCTURE
  1 ****   7 GROUP 4 **** **** 0

# MOE 2024.06 (io_trps.svl 2023.06)
