@<TRIPOS>MOLECULE
NONAME
19 19 1 0 0 
SMALL
USER_CHARGES


@<TRIPOS>ATOM
  1 O       -3.1580     1.7530    -0.0960 O.3   1 <1>  -0.3370 
  2 N       -3.1560     0.4720     0.2350 N.2   1 <1>  -0.5130 
  3 C       -4.2310    -0.1930     0.2400 C.2   1 <1>   0.3280 
  4 C       -4.3000    -1.6690     0.5820 C.3   1 <1>   0.2370 
  5 C       -5.6230     0.2900    -0.1330 C.3   1 <1>  -0.0990 
  6 N       -3.1090    -2.3880     0.0820 N.4   1 <1>  -0.2260 
  7 C       -5.6030    -2.1490    -0.0620 C.3   1 <1>  -0.1600 
  8 C       -6.5360    -0.9360     0.0010 C.3   1 <1>  -0.1600 
  9 O       -3.2040    -3.7100     0.3790 O.2   1 <1>  -0.7500 
 10 H       -4.0280     2.1750    -0.2440 H     1 <1>   0.4000 
 11 H       -4.3560    -1.7770     1.6500 H     1 <1>   0.0800 
 12 H       -5.9460     1.0840     0.5170 H     1 <1>   0.0800 
 13 H       -5.6160     0.6340    -1.1520 H     1 <1>   0.0800 
 14 H       -2.2630    -1.9990     0.5180 H     1 <1>   0.3600 
 15 H       -3.0130    -2.2780    -0.9330 H     1 <1>   0.3600 
 16 H       -5.4290    -2.4170    -1.0900 H     1 <1>   0.0800 
 17 H       -6.0050    -2.9980     0.4630 H     1 <1>   0.0800 
 18 H       -7.0230    -0.9160     0.9620 H     1 <1>   0.0800 
 19 H       -7.2880    -0.9680    -0.7690 H     1 <1>   0.0800 
@<TRIPOS>BOND
  1   1   2  1   
  2   1  10  1   
  3   2   3  2   
  4   3   4  1   
  5   3   5  1   
  6   4   6  1   
  7   4   7  1   
  8   4  11  1   
  9   5   8  1   
 10   5  12  1   
 11   5  13  1   
 12   6   9  2   
 13   6  14  1   
 14   6  15  1   
 15   7   8  1   
 16   7  16  1   
 17   7  17  1   
 18   8  18  1   
 19   8  19  1   
@<TRIPOS>SUBSTRUCTURE
  1 ****   3 GROUP 4 **** **** 0

# MOE 2024.06 (io_trps.svl 2023.06)
