@<TRIPOS>MOLECULE
NONAME
34 34 1 0 0 
SMALL
USER_CHARGES


@<TRIPOS>ATOM
  1 O       -0.4910     1.2680    -1.7960 O.2   1 <1>  -0.5700 
  2 C       -1.3660     1.5430    -1.0100 C.2   1 <1>   0.4950 
  3 C       -1.3710     2.6960    -0.1480 C.2   1 <1>   0.0290 
  4 C       -2.5210     0.5530    -1.0270 C.3   1 <1>  -0.0990 
  5 C       -2.6730     3.1250     0.3000 C.2   1 <1>   0.4950 
  6 C       -0.2150     3.3590     0.2590 C.2   1 <1>  -0.0380 
  7 C       -3.5040     0.7220     0.1360 C.3   1 <1>   0.0000 
  8 O       -2.9280     4.2120     0.7730 O.2   1 <1>  -0.5700 
  9 C       -3.8800     2.2060     0.2060 C.3   1 <1>  -0.0990 
 10 N       -0.2310     4.4440     1.0660 N.pl3 1 <1>  -0.9000 
 11 C        1.2080     2.9390    -0.1130 C.3   1 <1>  -0.0220 
 12 C       -2.8730     0.2490     1.4600 C.3   1 <1>  -0.2400 
 13 C       -4.7630    -0.1190    -0.1240 C.3   1 <1>  -0.2400 
 14 C        1.6680     1.7440     0.7330 C.3   1 <1>  -0.1600 
 15 C        3.1050     1.3360     0.3950 C.3   1 <1>  -0.2400 
 16 H       -3.0370     0.6830    -1.9620 H     1 <1>   0.0800 
 17 H       -2.1200    -0.4450    -1.0220 H     1 <1>   0.0800 
 18 H       -4.5120     2.3760     1.0610 H     1 <1>   0.0800 
 19 H       -4.4400     2.4890    -0.6670 H     1 <1>   0.0800 
 20 H       -1.1300     4.8600     1.3700 H     1 <1>   0.4000 
 21 H        0.5950     4.9530     1.3960 H     1 <1>   0.4000 
 22 H        1.2850     2.7130    -1.1600 H     1 <1>   0.0800 
 23 H        1.8810     3.7610     0.0560 H     1 <1>   0.0800 
 24 H       -1.9750     0.7890     1.7010 H     1 <1>   0.0800 
 25 H       -2.6240    -0.7960     1.4050 H     1 <1>   0.0800 
 26 H       -3.5660     0.3820     2.2730 H     1 <1>   0.0800 
 27 H       -4.5110    -1.1620    -0.2010 H     1 <1>   0.0800 
 28 H       -5.2430     0.1790    -1.0400 H     1 <1>   0.0800 
 29 H       -5.4690    -0.0010     0.6790 H     1 <1>   0.0800 
 30 H        1.6040     2.0030     1.7760 H     1 <1>   0.0800 
 31 H        1.0150     0.9060     0.5580 H     1 <1>   0.0800 
 32 H        3.7830     2.1500     0.5820 H     1 <1>   0.0800 
 33 H        3.1790     1.0530    -0.6410 H     1 <1>   0.0800 
 34 H        3.4020     0.4970     1.0000 H     1 <1>   0.0800 
@<TRIPOS>BOND
  1   1   2  2   
  2   2   3  1   
  3   2   4  1   
  4   3   5  1   
  5   3   6  2   
  6   4   7  1   
  7   4  16  1   
  8   4  17  1   
  9   5   8  2   
 10   5   9  1   
 11   6  10  1   
 12   6  11  1   
 13   7   9  1   
 14   7  12  1   
 15   7  13  1   
 16   9  18  1   
 17   9  19  1   
 18  10  20  1   
 19  10  21  1   
 20  11  14  1   
 21  11  22  1   
 22  11  23  1   
 23  12  24  1   
 24  12  25  1   
 25  12  26  1   
 26  13  27  1   
 27  13  28  1   
 28  13  29  1   
 29  14  15  1   
 30  14  30  1   
 31  14  31  1   
 32  15  32  1   
 33  15  33  1   
 34  15  34  1   
@<TRIPOS>SUBSTRUCTURE
  1 ****   3 GROUP 4 **** **** 0

# MOE 2024.06 (io_trps.svl 2023.06)
