@<TRIPOS>MOLECULE
NONAME
36 38 1 0 0 
SMALL
USER_CHARGES


@<TRIPOS>ATOM
  1 S        0.1120    -0.1820     0.8690 S.o2  1 <1>   1.4470 
  2 O        0.9180    -1.0940     1.6470 O.2   1 <1>  -0.6500 
  3 O       -0.0910     1.1770     1.3180 O.2   1 <1>  -0.6500 
  4 N        0.7750     0.0120    -0.6630 N.am  1 <1>  -0.9140 
  5 C       -1.4880    -0.9550     0.5080 C.ar  1 <1>  -0.0090 
  6 C        2.2170    -0.0660    -0.8520 C.3   1 <1>   0.2760 
  7 C       -2.6620    -0.2420     0.5060 C.ar  1 <1>  -0.1500 
  8 C       -1.5510    -2.3240     0.1930 C.ar  1 <1>  -0.1500 
  9 C        2.7840    -1.4810    -0.6960 C.3   1 <1>  -0.1600 
 10 C        3.0390     0.8520     0.0600 C.3   1 <1>  -0.1600 
 11 C       -3.9060    -0.8320     0.2080 C.ar  1 <1>   0.0000 
 12 C       -2.7410    -2.9300    -0.1020 C.ar  1 <1>  -0.1500 
 13 C        3.9280    -1.3730     0.3160 C.3   1 <1>  -0.1600 
 14 C        4.3450     0.0950     0.2900 C.3   1 <1>  -0.1600 
 15 C       -3.9470    -2.2060    -0.1040 C.ar  1 <1>   0.0000 
 16 C       -5.1110    -0.1000     0.2080 C.ar  1 <1>  -0.1500 
 17 C       -5.1910    -2.7970    -0.4050 C.ar  1 <1>  -0.1500 
 18 C       -6.3040    -0.6990    -0.0880 C.ar  1 <1>  -0.1500 
 19 C       -6.3450    -2.0630    -0.3980 C.ar  1 <1>  -0.1500 
 20 H        0.5060     0.9640    -0.8970 H     1 <1>   0.4200 
 21 H        2.4200     0.2320    -1.8680 H     1 <1>   0.0800 
 22 H       -2.6480     0.8080     0.7420 H     1 <1>   0.1500 
 23 H       -0.6340    -2.8900     0.1910 H     1 <1>   0.1500 
 24 H        3.1810    -1.8000    -1.6430 H     1 <1>   0.0800 
 25 H        2.0480    -2.1970    -0.3760 H     1 <1>   0.0800 
 26 H        2.5710     1.0000     1.0150 H     1 <1>   0.0800 
 27 H        3.2180     1.8090    -0.3980 H     1 <1>   0.0800 
 28 H       -2.7730    -3.9790    -0.3400 H     1 <1>   0.1500 
 29 H        4.7450    -2.0320     0.0800 H     1 <1>   0.0800 
 30 H        3.5560    -1.6160     1.2980 H     1 <1>   0.0800 
 31 H        4.8280     0.3920     1.2060 H     1 <1>   0.0800 
 32 H        5.0150     0.2650    -0.5360 H     1 <1>   0.0800 
 33 H       -5.0760     0.9470     0.4480 H     1 <1>   0.1500 
 34 H       -5.2170    -3.8450    -0.6430 H     1 <1>   0.1500 
 35 H       -7.2210    -0.1350    -0.0860 H     1 <1>   0.1500 
 36 H       -7.2920    -2.5190    -0.6290 H     1 <1>   0.1500 
@<TRIPOS>BOND
  1   1   2  2   
  2   1   3  2   
  3   1   4  am  
  4   1   5  1   
  5   4   6  1   
  6   4  20  1   
  7   5   7  ar  
  8   5   8  ar  
  9   6   9  1   
 10   6  10  1   
 11   6  21  1   
 12   7  11  ar  
 13   7  22  1   
 14   8  12  ar  
 15   8  23  1   
 16   9  13  1   
 17   9  24  1   
 18   9  25  1   
 19  10  14  1   
 20  10  26  1   
 21  10  27  1   
 22  11  15  ar  
 23  11  16  ar  
 24  12  15  ar  
 25  12  28  1   
 26  13  14  1   
 27  13  29  1   
 28  13  30  1   
 29  14  31  1   
 30  14  32  1   
 31  15  17  ar  
 32  16  18  ar  
 33  16  33  1   
 34  17  19  ar  
 35  17  34  1   
 36  18  19  ar  
 37  18  35  1   
 38  19  36  1   
@<TRIPOS>SUBSTRUCTURE
  1 ****   5 GROUP 4 **** **** 0

# MOE 2024.06 (io_trps.svl 2023.06)
