@<TRIPOS>MOLECULE
NONAME
34 35 1 0 0 
SMALL
USER_CHARGES


@<TRIPOS>ATOM
  1 BR       0.3170     0.3970     1.1090 Br    1 <1>  -0.1110 
  2 C       -0.8820     1.7400     0.4310 C.ar  1 <1>   0.1110 
  3 C       -2.2130     1.6850     0.7880 C.ar  1 <1>  -0.1500 
  4 C       -0.3760     2.7240    -0.3950 C.ar  1 <1>  -0.1500 
  5 C       -3.1070     2.6470     0.3110 C.ar  1 <1>   0.0860 
  6 C       -1.2460     3.6850    -0.8760 C.ar  1 <1>  -0.1500 
  7 C       -4.5110     2.6010     0.6770 C.2   1 <1>   0.6340 
  8 C       -2.5860     3.6430    -0.5260 C.ar  1 <1>  -0.1500 
  9 O       -4.9840     1.7500     1.4020 O.2   1 <1>  -0.5700 
 10 O       -5.3260     3.5430     0.1870 O.3   1 <1>  -0.4300 
 11 C       -6.6990     3.5850     0.4990 C.3   1 <1>   0.2000 
 12 C       -7.4450     2.5890    -0.3940 C.3   1 <1>  -0.1600 
 13 C       -7.1890     5.0110     0.2560 C.3   1 <1>  -0.1600 
 14 C       -8.9510     2.7140    -0.1930 C.3   1 <1>   0.3430 
 15 C       -8.7020     5.0980     0.4420 C.3   1 <1>   0.3430 
 16 N       -9.3810     4.1200    -0.4600 N.4   1 <1>  -0.9590 
 17 C      -10.8670     4.2460    -0.3570 C.3   1 <1>   0.2630 
 18 H       -2.5580     0.8970     1.4360 H     1 <1>   0.1500 
 19 H        0.6690     2.7350    -0.6520 H     1 <1>   0.1500 
 20 H       -0.8790     4.4650    -1.5220 H     1 <1>   0.1500 
 21 H       -3.2410     4.4030    -0.9140 H     1 <1>   0.1500 
 22 H       -6.8250     3.3320     1.5410 H     1 <1>   0.0800 
 23 H       -7.1490     1.5860    -0.1410 H     1 <1>   0.0800 
 24 H       -7.2030     2.7610    -1.4280 H     1 <1>   0.0800 
 25 H       -6.9310     5.3290    -0.7380 H     1 <1>   0.0800 
 26 H       -6.7130     5.6730     0.9570 H     1 <1>   0.0800 
 27 H       -9.2020     2.4400     0.8190 H     1 <1>   0.0800 
 28 H       -9.4590     2.0370    -0.8620 H     1 <1>   0.0800 
 29 H       -9.0340     6.0990     0.2180 H     1 <1>   0.0800 
 30 H       -8.9510     4.8810     1.4680 H     1 <1>   0.0800 
 31 H       -9.1030     4.3470    -1.4270 H     1 <1>   0.4500 
 32 H      -11.1960     4.0130     0.6430 H     1 <1>   0.0800 
 33 H      -11.3490     3.5690    -1.0440 H     1 <1>   0.0800 
 34 H      -11.1750     5.2510    -0.5960 H     1 <1>   0.0800 
@<TRIPOS>BOND
  1   1   2  1   
  2   2   3  ar  
  3   2   4  ar  
  4   3   5  ar  
  5   3  18  1   
  6   4   6  ar  
  7   4  19  1   
  8   5   7  1   
  9   5   8  ar  
 10   6   8  ar  
 11   6  20  1   
 12   7   9  2   
 13   7  10  1   
 14   8  21  1   
 15  10  11  1   
 16  11  12  1   
 17  11  13  1   
 18  11  22  1   
 19  12  14  1   
 20  12  23  1   
 21  12  24  1   
 22  13  15  1   
 23  13  25  1   
 24  13  26  1   
 25  14  16  1   
 26  14  27  1   
 27  14  28  1   
 28  15  16  1   
 29  15  29  1   
 30  15  30  1   
 31  16  17  1   
 32  16  31  1   
 33  17  32  1   
 34  17  33  1   
 35  17  34  1   
@<TRIPOS>SUBSTRUCTURE
  1 ****  10 GROUP 4 **** **** 0

# MOE 2024.06 (io_trps.svl 2023.06)
