@<TRIPOS>MOLECULE
NONAME
50 52 1 0 0 
SMALL
USER_CHARGES


@<TRIPOS>ATOM
  1 O        2.2270    -0.9240    -1.5230 O.2   1 <1>  -0.5700 
  2 C        2.1720    -0.4590    -0.4000 C.2   1 <1>   0.5440 
  3 N        1.4660    -1.1260     0.5670 N.am  1 <1>  -0.5390 
  4 C        2.8680     0.7720    -0.0700 C.ar  1 <1>   0.0860 
  5 C        0.8290    -2.3770     0.4320 C.2   1 <1>   0.1230 
  6 C        2.4420     1.6090     0.9660 C.ar  1 <1>  -0.1500 
  7 C        4.0010     1.1670    -0.7840 C.ar  1 <1>  -0.1500 
  8 C       -0.3120    -2.5240    -0.2910 C.2   1 <1>  -0.2760 
  9 C        1.5140    -3.4540     1.1400 C.2   1 <1>   0.6160 
 10 C        3.1230     2.7710     1.2810 C.ar  1 <1>  -0.1500 
 11 C        4.6840     2.3280    -0.4750 C.ar  1 <1>  -0.1500 
 12 C       -1.0480    -3.8550    -0.4500 C.3   1 <1>  -0.0220 
 13 C       -1.0330    -1.3990    -1.0360 C.3   1 <1>  -0.0220 
 14 O        1.5330    -3.4310     2.3580 O.2   1 <1>  -0.5700 
 15 N        2.1870    -4.4540     0.4660 N.am  1 <1>  -0.6600 
 16 C        4.2470     3.1330     0.5620 C.ar  1 <1>  -0.1500 
 17 C       -2.4920    -3.7300     0.0500 C.3   1 <1>  -0.1600 
 18 C       -2.4790    -1.2700    -0.5420 C.3   1 <1>  -0.1600 
 19 C        2.4560    -4.3970    -0.9990 C.3   1 <1>   0.1400 
 20 C        2.9040    -5.5460     1.1770 C.3   1 <1>   0.1400 
 21 C       -3.2380    -2.5980    -0.6710 C.3   1 <1>  -0.1600 
 22 C        3.9600    -4.2270    -1.2340 C.3   1 <1>  -0.1600 
 23 C        4.4130    -5.3900     0.9620 C.3   1 <1>  -0.1600 
 24 C        4.7720    -5.3250    -0.5300 C.3   1 <1>  -0.1600 
 25 H        1.7480    -0.9240     1.5270 H     1 <1>   0.3700 
 26 H        1.5630     1.3550     1.5310 H     1 <1>   0.1500 
 27 H        4.3460     0.5480    -1.5940 H     1 <1>   0.1500 
 28 H        2.7770     3.3990     2.0850 H     1 <1>   0.1500 
 29 H        5.5570     2.6070    -1.0410 H     1 <1>   0.1500 
 30 H       -1.0510    -4.1340    -1.4890 H     1 <1>   0.0800 
 31 H       -0.5630    -4.6440     0.0950 H     1 <1>   0.0800 
 32 H       -0.5390    -0.4540    -0.9050 H     1 <1>   0.0800 
 33 H       -1.0280    -1.6180    -2.0900 H     1 <1>   0.0800 
 34 H        4.7780     4.0370     0.8050 H     1 <1>   0.1500 
 35 H       -3.0100    -4.6600    -0.1050 H     1 <1>   0.0800 
 36 H       -2.4780    -3.5300     1.1080 H     1 <1>   0.0800 
 37 H       -2.4670    -0.9670     0.4910 H     1 <1>   0.0800 
 38 H       -2.9850    -0.5070    -1.1070 H     1 <1>   0.0800 
 39 H        2.1160    -5.3120    -1.4530 H     1 <1>   0.0800 
 40 H        1.9310    -3.5820    -1.4660 H     1 <1>   0.0800 
 41 H        2.6820    -5.5270     2.2300 H     1 <1>   0.0800 
 42 H        2.5730    -6.4930     0.7860 H     1 <1>   0.0800 
 43 H       -4.2240    -2.4920    -0.2540 H     1 <1>   0.0800 
 44 H       -3.3440    -2.8480    -1.7130 H     1 <1>   0.0800 
 45 H        4.1580    -4.2490    -2.2910 H     1 <1>   0.0800 
 46 H        4.2560    -3.2600    -0.8680 H     1 <1>   0.0800 
 47 H        4.7370    -4.4890     1.4530 H     1 <1>   0.0800 
 48 H        4.9250    -6.2160     1.4230 H     1 <1>   0.0800 
 49 H        5.8240    -5.1280    -0.6440 H     1 <1>   0.0800 
 50 H        4.5590    -6.2750    -0.9900 H     1 <1>   0.0800 
@<TRIPOS>BOND
  1   1   2  2   
  2   2   3  am  
  3   2   4  1   
  4   3   5  1   
  5   3  25  1   
  6   4   6  ar  
  7   4   7  ar  
  8   5   8  2   
  9   5   9  1   
 10   6  10  ar  
 11   6  26  1   
 12   7  11  ar  
 13   7  27  1   
 14   8  12  1   
 15   8  13  1   
 16   9  14  2   
 17   9  15  am  
 18  10  16  ar  
 19  10  28  1   
 20  11  16  ar  
 21  11  29  1   
 22  12  17  1   
 23  12  30  1   
 24  12  31  1   
 25  13  18  1   
 26  13  32  1   
 27  13  33  1   
 28  15  19  1   
 29  15  20  1   
 30  16  34  1   
 31  17  21  1   
 32  17  35  1   
 33  17  36  1   
 34  18  21  1   
 35  18  37  1   
 36  18  38  1   
 37  19  22  1   
 38  19  39  1   
 39  19  40  1   
 40  20  23  1   
 41  20  41  1   
 42  20  42  1   
 43  21  43  1   
 44  21  44  1   
 45  22  24  1   
 46  22  45  1   
 47  22  46  1   
 48  23  24  1   
 49  23  47  1   
 50  23  48  1   
 51  24  49  1   
 52  24  50  1   
@<TRIPOS>SUBSTRUCTURE
  1 ****   3 GROUP 4 **** **** 0

# MOE 2024.06 (io_trps.svl 2023.06)
