@<TRIPOS>MOLECULE
NONAME
29 30 1 0 0 
SMALL
USER_CHARGES


@<TRIPOS>ATOM
  1 O       -0.2320    -0.3440    -0.3360 O.2   1 <1>  -0.5700 
  2 C       -0.2620    -1.5480    -0.2730 C.2   1 <1>   0.4230 
  3 C       -1.5050    -2.2930    -0.2560 C.ar  1 <1>   0.0860 
  4 C        1.0710    -2.2980    -0.2110 C.3   1 <1>  -0.0990 
  5 C       -2.7150    -1.6300    -0.0310 C.ar  1 <1>  -0.1500 
  6 C       -1.5700    -3.6790    -0.4640 C.ar  1 <1>  -0.1500 
  7 C        2.2810    -1.4150     0.1460 C.3   1 <1>  -0.1600 
  8 C       -3.9200    -2.3050    -0.0040 C.ar  1 <1>   0.0830 
  9 C       -2.7710    -4.3660    -0.4320 C.ar  1 <1>  -0.1500 
 10 C        3.5710    -2.2370     0.2250 C.3   1 <1>  -0.2400 
 11 O       -5.0630    -1.6040     0.2040 O.3   1 <1>  -0.3630 
 12 C       -3.9510    -3.6860    -0.1940 C.ar  1 <1>   0.0830 
 13 C       -6.2800    -2.2540    -0.1120 C.3   1 <1>   0.1200 
 14 O       -5.1130    -4.3770    -0.1470 O.3   1 <1>  -0.3630 
 15 C       -6.2470    -3.7100     0.3740 C.3   1 <1>   0.1200 
 16 H        1.2430    -2.7550    -1.1680 H     1 <1>   0.0800 
 17 H        0.9910    -3.0740     0.5280 H     1 <1>   0.0800 
 18 H       -2.7160    -0.5650     0.1230 H     1 <1>   0.1500 
 19 H       -0.6760    -4.2410    -0.6580 H     1 <1>   0.1500 
 20 H        2.1040    -0.9320     1.0930 H     1 <1>   0.0800 
 21 H        2.3940    -0.6440    -0.5980 H     1 <1>   0.0800 
 22 H       -2.8030    -5.4290    -0.5890 H     1 <1>   0.1500 
 23 H        3.4900    -2.9960     0.9830 H     1 <1>   0.0800 
 24 H        4.3990    -1.5950     0.4730 H     1 <1>   0.0800 
 25 H        3.7770    -2.7080    -0.7200 H     1 <1>   0.0800 
 26 H       -6.4100    -2.2190    -1.1790 H     1 <1>   0.0800 
 27 H       -7.0790    -1.7100     0.3590 H     1 <1>   0.0800 
 28 H       -7.1230    -4.2420     0.0510 H     1 <1>   0.0800 
 29 H       -6.1900    -3.7430     1.4480 H     1 <1>   0.0800 
@<TRIPOS>BOND
  1   1   2  2   
  2   2   3  1   
  3   2   4  1   
  4   3   5  ar  
  5   3   6  ar  
  6   4   7  1   
  7   4  16  1   
  8   4  17  1   
  9   5   8  ar  
 10   5  18  1   
 11   6   9  ar  
 12   6  19  1   
 13   7  10  1   
 14   7  20  1   
 15   7  21  1   
 16   8  11  1   
 17   8  12  ar  
 18   9  12  ar  
 19   9  22  1   
 20  10  23  1   
 21  10  24  1   
 22  10  25  1   
 23  11  13  1   
 24  12  14  1   
 25  13  15  1   
 26  13  26  1   
 27  13  27  1   
 28  14  15  1   
 29  15  28  1   
 30  15  29  1   
@<TRIPOS>SUBSTRUCTURE
  1 ****   3 GROUP 4 **** **** 0

# MOE 2024.06 (io_trps.svl 2023.06)
