@<TRIPOS>MOLECULE
NONAME
43 44 1 0 0 
SMALL
USER_CHARGES


@<TRIPOS>ATOM
  1 S        0.1110    -0.0650     0.2030 S.o2  1 <1>   1.4470 
  2 O        0.7200    -0.4190     1.4670 O.2   1 <1>  -0.6500 
  3 O        0.9090    -0.1800    -1.0010 O.2   1 <1>  -0.6500 
  4 N       -0.3420     1.5650     0.3180 N.am  1 <1>  -0.8490 
  5 C       -1.4580    -0.9800     0.0240 C.ar  1 <1>  -0.0090 
  6 C        0.6900     2.4070     0.8920 C.3   1 <1>   0.1960 
  7 C       -0.7040     2.1970    -0.9400 C.3   1 <1>   0.1960 
  8 C       -1.5060    -2.2910    -0.4570 C.ar  1 <1>  -0.1440 
  9 C       -2.6610    -0.3870     0.3940 C.ar  1 <1>  -0.1500 
 10 C        0.2570     3.8300     0.5580 C.3   1 <1>  -0.1600 
 11 C       -0.7170     3.6840    -0.6130 C.3   1 <1>  -0.1600 
 12 C       -2.7210    -2.9470    -0.5750 C.ar  1 <1>  -0.1500 
 13 C       -0.2400    -3.0410    -0.8550 C.3   1 <1>  -0.0970 
 14 C       -3.8970    -1.0180     0.2740 C.ar  1 <1>   0.0860 
 15 C       -3.8970    -2.3210    -0.2160 C.ar  1 <1>  -0.1500 
 16 C       -5.1240    -0.3310     0.6440 C.2   1 <1>   0.5440 
 17 O       -5.1100     0.5550     1.4750 O.2   1 <1>  -0.5700 
 18 N       -6.3090    -0.6550     0.0450 N.am  1 <1>  -0.7300 
 19 C       -7.6080    -0.0340     0.3290 C.3   1 <1>   0.2200 
 20 C       -8.6070    -1.1430     0.6350 C.3   1 <1>  -0.2400 
 21 C       -8.0270     0.7700    -0.8960 C.3   1 <1>  -0.2400 
 22 H        1.6390     2.1910     0.4260 H     1 <1>   0.0800 
 23 H        0.7690     2.2470     1.9560 H     1 <1>   0.0800 
 24 H       -1.6630     1.8540    -1.2920 H     1 <1>   0.0800 
 25 H        0.0470     2.0040    -1.6900 H     1 <1>   0.0800 
 26 H       -2.6520     0.6110     0.8000 H     1 <1>   0.1500 
 27 H        1.1100     4.4320     0.3000 H     1 <1>   0.0800 
 28 H       -0.2400     4.2690     1.4060 H     1 <1>   0.0800 
 29 H       -1.7080     3.9740    -0.3090 H     1 <1>   0.0800 
 30 H       -0.4230     4.2710    -1.4650 H     1 <1>   0.0800 
 31 H       -2.7560    -3.9570    -0.9460 H     1 <1>   0.1500 
 32 H        0.1700    -2.6240    -1.7590 H     1 <1>   0.0800 
 33 H       -0.4430    -4.0820    -1.0290 H     1 <1>   0.0800 
 34 H        0.4990    -2.9750    -0.0760 H     1 <1>   0.0800 
 35 H       -4.8240    -2.8580    -0.3070 H     1 <1>   0.1500 
 36 H       -6.3130    -1.3160    -0.7280 H     1 <1>   0.3700 
 37 H       -7.5260     0.6220     1.1810 H     1 <1>   0.0800 
 38 H       -8.7130    -1.8090    -0.2020 H     1 <1>   0.0800 
 39 H       -9.5680    -0.7150     0.8570 H     1 <1>   0.0800 
 40 H       -8.2820    -1.6990     1.4970 H     1 <1>   0.0800 
 41 H       -8.1260     0.1360    -1.7590 H     1 <1>   0.0800 
 42 H       -7.2980     1.5350    -1.0960 H     1 <1>   0.0800 
 43 H       -8.9720     1.2480    -0.7110 H     1 <1>   0.0800 
@<TRIPOS>BOND
  1   1   2  2   
  2   1   3  2   
  3   1   4  am  
  4   1   5  1   
  5   4   6  1   
  6   4   7  1   
  7   5   8  ar  
  8   5   9  ar  
  9   6  10  1   
 10   6  22  1   
 11   6  23  1   
 12   7  11  1   
 13   7  24  1   
 14   7  25  1   
 15   8  12  ar  
 16   8  13  1   
 17   9  14  ar  
 18   9  26  1   
 19  10  11  1   
 20  10  27  1   
 21  10  28  1   
 22  11  29  1   
 23  11  30  1   
 24  12  15  ar  
 25  12  31  1   
 26  13  32  1   
 27  13  33  1   
 28  13  34  1   
 29  14  15  ar  
 30  14  16  1   
 31  15  35  1   
 32  16  17  2   
 33  16  18  am  
 34  18  19  1   
 35  18  36  1   
 36  19  20  1   
 37  19  21  1   
 38  19  37  1   
 39  20  38  1   
 40  20  39  1   
 41  20  40  1   
 42  21  41  1   
 43  21  42  1   
 44  21  43  1   
@<TRIPOS>SUBSTRUCTURE
  1 ****   9 GROUP 4 **** **** 0

# MOE 2024.06 (io_trps.svl 2023.06)
