@<TRIPOS>MOLECULE
NONAME
47 50 1 0 0 
SMALL
USER_CHARGES


@<TRIPOS>ATOM
  1 F        1.4600    -2.3810     1.6760 F     1 <1>  -0.1900 
  2 C        1.3470    -2.2900     0.3770 C.ar  1 <1>   0.1900 
  3 C        0.1630    -2.6720    -0.2350 C.ar  1 <1>  -0.1440 
  4 C        2.4290    -1.7980    -0.3290 C.ar  1 <1>  -0.1500 
  5 C        0.0770    -2.5280    -1.6150 C.ar  1 <1>  -0.1500 
  6 C       -1.0050    -3.2090     0.5950 C.3   1 <1>   0.3640 
  7 C        2.3270    -1.6740    -1.7030 C.ar  1 <1>  -0.1500 
  8 C        1.1520    -2.0360    -2.3410 C.ar  1 <1>  -0.1500 
  9 N       -1.7730    -4.2540    -0.1270 N.am  1 <1>  -0.2980 
 10 C       -2.0430    -2.1130     0.8120 C.3   1 <1>  -0.0990 
 11 N       -3.0290    -3.7850    -0.4470 N.2   1 <1>  -0.5120 
 12 C       -1.3040    -5.5350    -0.4300 C.2   1 <1>   0.5690 
 13 C       -3.2310    -2.6240     0.0320 C.2   1 <1>   0.3030 
 14 O       -1.9510    -6.2970    -1.1160 O.2   1 <1>  -0.5700 
 15 C        0.0510    -6.0920     0.0580 C.3   1 <1>   0.2610 
 16 C       -4.4330    -1.8330    -0.1120 C.ar  1 <1>   0.0860 
 17 O        0.5330    -5.5630     1.2630 O.3   1 <1>  -0.5600 
 18 C        1.2030    -5.9290    -0.9340 C.3   1 <1>  -0.1600 
 19 C       -5.5100    -2.3110    -0.8620 C.ar  1 <1>  -0.1500 
 20 C       -4.5890    -0.5730     0.4760 C.ar  1 <1>  -0.1500 
 21 C        1.8960    -5.8080     1.3680 C.3   1 <1>   0.1200 
 22 C        2.4340    -5.7480    -0.0570 C.3   1 <1>  -0.1600 
 23 C       -6.6730    -1.5810    -1.0200 C.ar  1 <1>  -0.1500 
 24 C       -5.7500     0.1620     0.3200 C.ar  1 <1>  -0.1500 
 25 C       -6.8020    -0.3370    -0.4280 C.ar  1 <1>  -0.1430 
 26 C       -8.0770     0.4690    -0.6010 C.3   1 <1>  -0.0970 
 27 H        3.3290    -1.5180     0.1890 H     1 <1>   0.1500 
 28 H       -0.8280    -2.8010    -2.1350 H     1 <1>   0.1500 
 29 H       -0.6860    -3.5830     1.5500 H     1 <1>   0.0800 
 30 H        3.1570    -1.2940    -2.2750 H     1 <1>   0.1500 
 31 H        1.0700    -1.9360    -3.4110 H     1 <1>   0.1500 
 32 H       -1.7030    -1.1660     0.4360 H     1 <1>   0.0800 
 33 H       -2.2830    -2.0310     1.8560 H     1 <1>   0.0800 
 34 H       -0.0900    -7.1440     0.2370 H     1 <1>   0.0800 
 35 H        1.0500    -5.0680    -1.5570 H     1 <1>   0.0800 
 36 H        1.2760    -6.7980    -1.5650 H     1 <1>   0.0800 
 37 H       -5.4300    -3.2780    -1.3300 H     1 <1>   0.1500 
 38 H       -3.7990    -0.1490     1.0660 H     1 <1>   0.1500 
 39 H        2.0250    -6.7900     1.7920 H     1 <1>   0.0800 
 40 H        2.3400    -5.0660     2.0090 H     1 <1>   0.0800 
 41 H        2.8890    -4.7900    -0.2370 H     1 <1>   0.0800 
 42 H        3.1670    -6.5190    -0.2210 H     1 <1>   0.0800 
 43 H       -7.4780    -1.9870    -1.6080 H     1 <1>   0.1500 
 44 H       -5.8350     1.1290     0.7850 H     1 <1>   0.1500 
 45 H       -8.9220    -0.1860    -0.7170 H     1 <1>   0.0800 
 46 H       -7.9980     1.0920    -1.4730 H     1 <1>   0.0800 
 47 H       -8.2480     1.0930     0.2580 H     1 <1>   0.0800 
@<TRIPOS>BOND
  1   1   2  1   
  2   2   3  ar  
  3   2   4  ar  
  4   3   5  ar  
  5   3   6  1   
  6   4   7  ar  
  7   4  27  1   
  8   5   8  ar  
  9   5  28  1   
 10   6   9  1   
 11   6  10  1   
 12   6  29  1   
 13   7   8  ar  
 14   7  30  1   
 15   8  31  1   
 16   9  11  1   
 17   9  12  am  
 18  10  13  1   
 19  10  32  1   
 20  10  33  1   
 21  11  13  2   
 22  12  14  2   
 23  12  15  1   
 24  13  16  1   
 25  15  17  1   
 26  15  18  1   
 27  15  34  1   
 28  16  19  ar  
 29  16  20  ar  
 30  17  21  1   
 31  18  22  1   
 32  18  35  1   
 33  18  36  1   
 34  19  23  ar  
 35  19  37  1   
 36  20  24  ar  
 37  20  38  1   
 38  21  22  1   
 39  21  39  1   
 40  21  40  1   
 41  22  41  1   
 42  22  42  1   
 43  23  25  ar  
 44  23  43  1   
 45  24  25  ar  
 46  24  44  1   
 47  25  26  1   
 48  26  45  1   
 49  26  46  1   
 50  26  47  1   
@<TRIPOS>SUBSTRUCTURE
  1 ****   6 GROUP 4 **** **** 0

# MOE 2024.06 (io_trps.svl 2023.06)
