@<TRIPOS>MOLECULE
NONAME
39 41 1 0 0 
SMALL
USER_CHARGES


@<TRIPOS>ATOM
  1 O        1.2930    -0.0920    -0.5950 O.2   1 <1>  -0.5700 
  2 C        2.1370     0.4420     0.0980 C.2   1 <1>   0.5440 
  3 N        2.9290    -0.3840     0.8630 N.am  1 <1>  -0.6600 
  4 C        2.3350     1.8770     0.0600 C.ar  1 <1>   0.0860 
  5 C        2.3630    -1.6850     1.3310 C.3   1 <1>   0.1400 
  6 C        4.3950    -0.4430     0.5900 C.3   1 <1>   0.1400 
  7 C        2.9350     2.5560     1.1170 C.ar  1 <1>   0.1600 
  8 C        1.9460     2.6470    -1.0280 C.ar  1 <1>  -0.1500 
  9 C        2.6500    -2.7870     0.2940 C.3   1 <1>   0.3430 
 10 C        4.7010    -1.5650    -0.4270 C.3   1 <1>   0.3430 
 11 N        3.1950     3.8510     1.1630 N.ar  1 <1>  -0.6200 
 12 C        2.1940     4.0000    -0.9960 C.ar  1 <1>  -0.1500 
 13 N        4.1240    -2.8980    -0.0150 N.4   1 <1>  -0.9590 
 14 C        2.8190     4.5790     0.1070 C.ar  1 <1>   0.2870 
 15 C        4.3590    -3.9270    -1.0730 C.3   1 <1>   0.2630 
 16 N        3.0750     5.9800     0.1240 N.pl3 1 <1>   0.3260 
 17 C        2.3450     6.9780    -0.4780 C.2   1 <1>  -0.3020 
 18 C        4.1340     6.6220     0.7170 C.2   1 <1>  -0.3020 
 19 C        2.9270     8.1870    -0.2740 C.2   1 <1>  -0.1500 
 20 C        4.0740     7.9590     0.4920 C.2   1 <1>  -0.1500 
 21 H        1.2980    -1.5900     1.4630 H     1 <1>   0.0800 
 22 H        2.7890    -1.9470     2.2840 H     1 <1>   0.0800 
 23 H        4.9260    -0.6210     1.5100 H     1 <1>   0.0800 
 24 H        4.7360     0.4970     0.1910 H     1 <1>   0.0800 
 25 H        3.2210     1.9880     1.9860 H     1 <1>   0.1500 
 26 H        1.4600     2.1900    -1.8750 H     1 <1>   0.1500 
 27 H        2.1060    -2.5460    -0.6060 H     1 <1>   0.0800 
 28 H        2.2770    -3.7280     0.6640 H     1 <1>   0.0800 
 29 H        5.7680    -1.6500    -0.5490 H     1 <1>   0.0800 
 30 H        4.2830    -1.2760    -1.3780 H     1 <1>   0.0800 
 31 H        1.9080     4.6140    -1.8320 H     1 <1>   0.1500 
 32 H        4.6010    -3.1960     0.8480 H     1 <1>   0.4500 
 33 H        3.8620    -3.6430    -1.9870 H     1 <1>   0.0800 
 34 H        3.9760    -4.8840    -0.7570 H     1 <1>   0.0800 
 35 H        5.4140    -4.0280    -1.2710 H     1 <1>   0.0800 
 36 H        1.4400     6.7690    -1.0170 H     1 <1>   0.1500 
 37 H        4.8700     6.0700     1.2730 H     1 <1>   0.1500 
 38 H        2.5960     9.1530    -0.6170 H     1 <1>   0.1500 
 39 H        4.7580     8.7210     0.8270 H     1 <1>   0.1500 
@<TRIPOS>BOND
  1   1   2  2   
  2   2   3  am  
  3   2   4  1   
  4   3   5  1   
  5   3   6  1   
  6   4   7  ar  
  7   4   8  ar  
  8   5   9  1   
  9   5  21  1   
 10   5  22  1   
 11   6  10  1   
 12   6  23  1   
 13   6  24  1   
 14   7  11  ar  
 15   7  25  1   
 16   8  12  ar  
 17   8  26  1   
 18   9  13  1   
 19   9  27  1   
 20   9  28  1   
 21  10  13  1   
 22  10  29  1   
 23  10  30  1   
 24  11  14  ar  
 25  12  14  ar  
 26  12  31  1   
 27  13  15  1   
 28  13  32  1   
 29  14  16  1   
 30  15  33  1   
 31  15  34  1   
 32  15  35  1   
 33  16  17  1   
 34  16  18  1   
 35  17  19  2   
 36  17  36  1   
 37  18  20  2   
 38  18  37  1   
 39  19  20  1   
 40  19  38  1   
 41  20  39  1   
@<TRIPOS>SUBSTRUCTURE
  1 ****   4 GROUP 4 **** **** 0

# MOE 2024.06 (io_trps.svl 2023.06)
