@<TRIPOS>MOLECULE
NONAME
34 35 1 0 0 
SMALL
USER_CHARGES


@<TRIPOS>ATOM
  1 O       -0.6940    -0.6620     0.5320 O.2   1 <1>  -0.5700 
  2 C       -1.7590    -0.2290     0.1440 C.2   1 <1>   0.5690 
  3 N       -2.1230     1.0820    -0.0060 N.am  1 <1>  -0.1110 
  4 C       -2.9040    -1.1500    -0.2600 C.3   1 <1>   0.2510 
  5 N       -1.2150     2.2150     0.3110 N.3   1 <1>  -0.5490 
  6 C       -3.4070     1.1690    -0.4840 C.2   1 <1>   0.5690 
  7 N       -2.5340    -2.0600    -1.3870 N.3   1 <1>  -0.6190 
  8 C       -4.0180    -0.1930    -0.6960 C.3   1 <1>  -0.0990 
  9 C       -1.8440     3.0620     1.3610 C.3   1 <1>   0.0300 
 10 C       -0.9860     3.0080    -0.9260 C.3   1 <1>   0.0300 
 11 O       -4.0370     2.1760    -0.7170 O.2   1 <1>  -0.5700 
 12 N       -3.2670    -3.3420    -1.3010 N.pl3 1 <1>  -0.5110 
 13 C       -2.9770    -4.3540    -0.3940 C.ar  1 <1>   0.1000 
 14 C       -3.7730    -5.4970    -0.3710 C.ar  1 <1>  -0.1500 
 15 C       -1.9110    -4.2790     0.5030 C.ar  1 <1>  -0.1500 
 16 C       -3.5200    -6.5260     0.5170 C.ar  1 <1>  -0.1500 
 17 C       -1.6560    -5.3050     1.3930 C.ar  1 <1>  -0.1500 
 18 C       -2.4600    -6.4320     1.4030 C.ar  1 <1>  -0.1500 
 19 H       -3.2110    -1.7230     0.5980 H     1 <1>   0.0800 
 20 H       -1.5150    -2.2420    -1.3640 H     1 <1>   0.3600 
 21 H       -4.8850    -0.3030    -0.0730 H     1 <1>   0.0800 
 22 H       -4.2820    -0.3220    -1.7300 H     1 <1>   0.0800 
 23 H       -2.1340     2.4500     2.1970 H     1 <1>   0.0800 
 24 H       -2.7110     3.5700     0.9760 H     1 <1>   0.0800 
 25 H       -1.1330     3.7930     1.7030 H     1 <1>   0.0800 
 26 H       -0.6500     2.3600    -1.7160 H     1 <1>   0.0800 
 27 H       -0.2260     3.7460    -0.7420 H     1 <1>   0.0800 
 28 H       -1.8900     3.5050    -1.2360 H     1 <1>   0.0800 
 29 H       -3.9160    -3.5460    -2.0770 H     1 <1>   0.4000 
 30 H       -4.5980    -5.5780    -1.0540 H     1 <1>   0.1500 
 31 H       -1.2710    -3.4160     0.5070 H     1 <1>   0.1500 
 32 H       -4.1450    -7.4020     0.5220 H     1 <1>   0.1500 
 33 H       -0.8290    -5.2290     2.0780 H     1 <1>   0.1500 
 34 H       -2.2610    -7.2320     2.0950 H     1 <1>   0.1500 
@<TRIPOS>BOND
  1   1   2  2   
  2   2   3  am  
  3   2   4  1   
  4   3   5  1   
  5   3   6  am  
  6   4   7  1   
  7   4   8  1   
  8   4  19  1   
  9   5   9  1   
 10   5  10  1   
 11   6   8  1   
 12   6  11  2   
 13   7  12  1   
 14   7  20  1   
 15   8  21  1   
 16   8  22  1   
 17   9  23  1   
 18   9  24  1   
 19   9  25  1   
 20  10  26  1   
 21  10  27  1   
 22  10  28  1   
 23  12  13  1   
 24  12  29  1   
 25  13  14  ar  
 26  13  15  ar  
 27  14  16  ar  
 28  14  30  1   
 29  15  17  ar  
 30  15  31  1   
 31  16  18  ar  
 32  16  32  1   
 33  17  18  ar  
 34  17  33  1   
 35  18  34  1   
@<TRIPOS>SUBSTRUCTURE
  1 ****   4 GROUP 4 **** **** 0

# MOE 2024.06 (io_trps.svl 2023.06)
