@<TRIPOS>MOLECULE
NONAME
30 31 1 0 0 
SMALL
USER_CHARGES


@<TRIPOS>ATOM
  1 N       -0.0650    -0.5540     0.8760 N.pl3 1 <1>   0.3000 
  2 N       -1.4060    -0.4830     0.8710 N.2   1 <1>  -0.7070 
  3 C        0.3800    -1.7170     0.3620 C.2   1 <1>  -0.3320 
  4 C       -1.7800    -1.6080     0.3550 C.2   1 <1>   0.1080 
  5 C       -0.7170    -2.4460     0.0020 C.2   1 <1>  -0.0860 
  6 C        1.8630    -2.0410     0.2580 C.3   1 <1>  -0.0600 
  7 C       -3.2300    -1.9880     0.1450 C.3   1 <1>   0.0210 
  8 C       -0.9090    -3.7530    -0.5920 C.2   1 <1>   0.4750 
  9 C       -3.4010    -3.5210     0.0790 C.3   1 <1>   0.0000 
 10 N        0.0670    -4.5450    -0.8600 N.2   1 <1>  -0.5030 
 11 C       -2.3690    -4.1200    -0.9040 C.3   1 <1>  -0.0990 
 12 C       -4.8210    -3.8540    -0.4080 C.3   1 <1>  -0.2400 
 13 C       -3.2180    -4.1400     1.4780 C.3   1 <1>  -0.2400 
 14 N       -0.1100    -5.7680    -1.4670 N.pl3 1 <1>  -0.5690 
 15 H        0.5180     0.2090     1.2390 H     1 <1>   0.2700 
 16 H        2.0200    -3.0020    -0.1960 H     1 <1>   0.0800 
 17 H        2.3080    -2.0570     1.2370 H     1 <1>   0.0800 
 18 H        2.3620    -1.3020    -0.3420 H     1 <1>   0.0800 
 19 H       -3.8220    -1.5770     0.9430 H     1 <1>   0.0800 
 20 H       -3.5560    -1.5370    -0.7740 H     1 <1>   0.0800 
 21 H       -2.5780    -3.7690    -1.8980 H     1 <1>   0.0800 
 22 H       -2.4920    -5.1870    -0.9030 H     1 <1>   0.0800 
 23 H       -4.9940    -3.4490    -1.3900 H     1 <1>   0.0800 
 24 H       -5.5560    -3.4410     0.2610 H     1 <1>   0.0800 
 25 H       -4.9670    -4.9190    -0.4520 H     1 <1>   0.0800 
 26 H       -3.9490    -3.7480     2.1630 H     1 <1>   0.0800 
 27 H       -2.2420    -3.9240     1.8780 H     1 <1>   0.0800 
 28 H       -3.3320    -5.2090     1.4380 H     1 <1>   0.0800 
 29 H       -0.9370    -5.9360    -2.0520 H     1 <1>   0.3110 
 30 H        0.7280    -6.2790    -1.7730 H     1 <1>   0.3110 
@<TRIPOS>BOND
  1   1   2  1   
  2   1   3  1   
  3   1  15  1   
  4   2   4  2   
  5   3   5  2   
  6   3   6  1   
  7   4   5  1   
  8   4   7  1   
  9   5   8  1   
 10   6  16  1   
 11   6  17  1   
 12   6  18  1   
 13   7   9  1   
 14   7  19  1   
 15   7  20  1   
 16   8  10  2   
 17   8  11  1   
 18   9  11  1   
 19   9  12  1   
 20   9  13  1   
 21  10  14  1   
 22  11  21  1   
 23  11  22  1   
 24  12  23  1   
 25  12  24  1   
 26  12  25  1   
 27  13  26  1   
 28  13  27  1   
 29  13  28  1   
 30  14  29  1   
 31  14  30  1   
@<TRIPOS>SUBSTRUCTURE
  1 ****   5 GROUP 4 **** **** 0

# MOE 2024.06 (io_trps.svl 2023.06)
