@<TRIPOS>MOLECULE
NONAME
49 50 1 0 0 
SMALL
USER_CHARGES


@<TRIPOS>ATOM
  1 O       -1.9740     1.3960    -2.3680 O.2   1 <1>  -0.5700 
  2 C       -1.6800     1.6640    -1.2290 C.2   1 <1>   0.6590 
  3 O       -1.4660     0.7120    -0.3240 O.3   1 <1>  -0.4300 
  4 C       -1.5170     3.1290    -0.7680 C.3   1 <1>   0.2510 
  5 C       -1.5440    -0.6530    -0.6520 C.3   1 <1>   0.1200 
  6 N       -0.1350     3.5020    -0.3260 N.3   1 <1>  -0.8100 
  7 C       -2.5200     3.4400     0.3580 C.3   1 <1>  -0.1600 
  8 C       -1.1770    -1.4570     0.5910 C.3   1 <1>  -0.2400 
  9 C       -0.0360     4.9240     0.0430 C.3   1 <1>   0.1100 
 10 C        0.8770     3.1330    -1.3430 C.3   1 <1>   0.2530 
 11 C       -2.4490     4.9050     0.8020 C.3   1 <1>  -0.1600 
 12 C       -1.0070     5.2550     1.1780 C.3   1 <1>  -0.1600 
 13 C        2.3090     3.3840    -0.8660 C.ar  1 <1>  -0.1430 
 14 C        2.9580     2.5740     0.0680 C.ar  1 <1>  -0.1430 
 15 C        2.9800     4.4640    -1.4170 C.ar  1 <1>  -0.1500 
 16 C        4.2810     2.8500     0.4240 C.ar  1 <1>  -0.1430 
 17 C        2.2310     1.3860     0.7040 C.3   1 <1>  -0.0970 
 18 C        4.2780     4.7510    -1.0540 C.ar  1 <1>  -0.1500 
 19 C        4.9380     3.9500    -0.1310 C.ar  1 <1>   0.0830 
 20 C        5.0210     1.9550     1.4230 C.3   1 <1>  -0.0970 
 21 O        6.2180     4.2060     0.2570 O.3   1 <1>  -0.3630 
 22 C        6.9450     5.3110    -0.2320 C.3   1 <1>   0.0400 
 23 H       -1.7700     3.7440    -1.6140 H     1 <1>   0.0800 
 24 H       -0.8560    -0.8500    -1.4570 H     1 <1>   0.0800 
 25 H       -2.5490    -0.8690    -0.9730 H     1 <1>   0.0800 
 26 H       -2.3080     2.8010     1.1970 H     1 <1>   0.0800 
 27 H       -3.5170     3.2180     0.0190 H     1 <1>   0.0800 
 28 H       -0.1770    -1.2160     0.9050 H     1 <1>   0.0800 
 29 H       -1.2250    -2.5080     0.3720 H     1 <1>   0.0800 
 30 H       -1.8660    -1.2400     1.3880 H     1 <1>   0.0800 
 31 H       -0.2460     5.5410    -0.8140 H     1 <1>   0.0800 
 32 H        0.9620     5.1450     0.3850 H     1 <1>   0.0800 
 33 H        0.6900     3.6840    -2.2480 H     1 <1>   0.0800 
 34 H        0.7970     2.0880    -1.5840 H     1 <1>   0.0800 
 35 H       -3.0980     5.0650     1.6460 H     1 <1>   0.0800 
 36 H       -2.7770     5.5430    -0.0020 H     1 <1>   0.0800 
 37 H       -0.9370     6.3020     1.4130 H     1 <1>   0.0800 
 38 H       -0.7130     4.7010     2.0530 H     1 <1>   0.0800 
 39 H        2.4880     5.0940    -2.1370 H     1 <1>   0.1500 
 40 H        2.5360     0.4750     0.2240 H     1 <1>   0.0800 
 41 H        1.1640     1.4660     0.6320 H     1 <1>   0.0800 
 42 H        2.4570     1.3230     1.7520 H     1 <1>   0.0800 
 43 H        4.7550     5.6000    -1.5020 H     1 <1>   0.1500 
 44 H        4.7130     2.2020     2.4230 H     1 <1>   0.0800 
 45 H        6.0860     2.0720     1.3590 H     1 <1>   0.0800 
 46 H        4.8100     0.9190     1.2340 H     1 <1>   0.0800 
 47 H        7.9160     5.3010     0.2300 H     1 <1>   0.0800 
 48 H        6.4240     6.2150     0.0300 H     1 <1>   0.0800 
 49 H        7.0470     5.2160    -1.2980 H     1 <1>   0.0800 
@<TRIPOS>BOND
  1   1   2  2   
  2   2   3  1   
  3   2   4  1   
  4   3   5  1   
  5   4   6  1   
  6   4   7  1   
  7   4  23  1   
  8   5   8  1   
  9   5  24  1   
 10   5  25  1   
 11   6   9  1   
 12   6  10  1   
 13   7  11  1   
 14   7  26  1   
 15   7  27  1   
 16   8  28  1   
 17   8  29  1   
 18   8  30  1   
 19   9  12  1   
 20   9  31  1   
 21   9  32  1   
 22  10  13  1   
 23  10  33  1   
 24  10  34  1   
 25  11  12  1   
 26  11  35  1   
 27  11  36  1   
 28  12  37  1   
 29  12  38  1   
 30  13  14  ar  
 31  13  15  ar  
 32  14  16  ar  
 33  14  17  1   
 34  15  18  ar  
 35  15  39  1   
 36  16  19  ar  
 37  16  20  1   
 38  17  40  1   
 39  17  41  1   
 40  17  42  1   
 41  18  19  ar  
 42  18  43  1   
 43  19  21  1   
 44  20  44  1   
 45  20  45  1   
 46  20  46  1   
 47  21  22  1   
 48  22  47  1   
 49  22  48  1   
 50  22  49  1   
@<TRIPOS>SUBSTRUCTURE
  1 ****  10 GROUP 4 **** **** 0

# MOE 2024.06 (io_trps.svl 2023.06)
