@<TRIPOS>MOLECULE
NONAME
45 48 1 0 0 
SMALL
USER_CHARGES


@<TRIPOS>ATOM
  1 S       -0.4910     0.3690    -1.0190 S.3   1 <1>  -0.2860 
  2 C       -1.7740    -0.3650    -0.0140 C.2   1 <1>   0.5340 
  3 C        0.3540     1.5760     0.1130 C.3   1 <1>   0.1310 
  4 O       -2.5770    -1.2120    -0.5590 O.3   1 <1>  -0.2800 
  5 N       -2.0080    -0.1410     1.2210 N.2   1 <1>  -0.3380 
  6 C        0.0920     3.0050    -0.3450 C.2   1 <1>   0.5690 
  7 C       -3.3670    -1.5260     0.4230 C.2   1 <1>   0.2980 
  8 N       -3.0640    -0.9060     1.5070 N.2   1 <1>  -0.3380 
  9 O        0.9810     3.5500    -0.9570 O.2   1 <1>  -0.5700 
 10 N       -1.0920     3.6510    -0.0640 N.am  1 <1>  -0.6600 
 11 C       -4.5000    -2.5340     0.1880 C.3   1 <1>   0.1800 
 12 C       -2.1950     3.0760     0.7550 C.3   1 <1>   0.0600 
 13 C       -1.3780     5.0100    -0.6050 C.3   1 <1>   0.0600 
 14 C       -5.3220    -2.7710     1.4790 C.3   1 <1>  -0.1600 
 15 C       -3.9160    -3.8910    -0.2710 C.3   1 <1>  -0.1600 
 16 C       -5.4560    -2.0120    -0.9090 C.3   1 <1>  -0.1600 
 17 C       -6.4550    -3.7840     1.2300 C.3   1 <1>  -0.0800 
 18 C       -5.0410    -4.9100    -0.5310 C.3   1 <1>  -0.0800 
 19 C       -6.5900    -3.0210    -1.1720 C.3   1 <1>  -0.0800 
 20 C       -5.8440    -5.1190     0.7660 C.3   1 <1>  -0.1600 
 21 C       -7.3840    -3.2400     0.1290 C.3   1 <1>  -0.1600 
 22 C       -5.9780    -4.3610    -1.6240 C.3   1 <1>  -0.1600 
 23 H        1.4050     1.3650     0.0530 H     1 <1>   0.0800 
 24 H        0.0190     1.4120     1.1180 H     1 <1>   0.0800 
 25 H       -2.7950     2.4210     0.1490 H     1 <1>   0.0800 
 26 H       -2.8220     3.8620     1.1400 H     1 <1>   0.0800 
 27 H       -1.8010     2.5280     1.5920 H     1 <1>   0.0800 
 28 H       -0.5920     5.3370    -1.2640 H     1 <1>   0.0800 
 29 H       -1.4600     5.7140     0.2050 H     1 <1>   0.0800 
 30 H       -2.3010     4.9950    -1.1580 H     1 <1>   0.0800 
 31 H       -5.7410    -1.8390     1.8180 H     1 <1>   0.0800 
 32 H       -4.6770    -3.1380     2.2590 H     1 <1>   0.0800 
 33 H       -3.2500    -4.2710     0.4840 H     1 <1>   0.0800 
 34 H       -3.3420    -3.7560    -1.1720 H     1 <1>   0.0800 
 35 H       -4.9100    -1.8440    -1.8210 H     1 <1>   0.0800 
 36 H       -5.8750    -1.0690    -0.6040 H     1 <1>   0.0800 
 37 H       -7.0150    -3.9350     2.1370 H     1 <1>   0.0800 
 38 H       -4.6180    -5.8470    -0.8520 H     1 <1>   0.0800 
 39 H       -7.2440    -2.6430    -1.9390 H     1 <1>   0.0800 
 40 H       -6.6280    -5.8380     0.5970 H     1 <1>   0.0800 
 41 H       -5.2020    -5.5130     1.5340 H     1 <1>   0.0800 
 42 H       -7.8250    -2.3120     0.4480 H     1 <1>   0.0800 
 43 H       -8.1850    -3.9370    -0.0480 H     1 <1>   0.0800 
 44 H       -6.7620    -5.0710    -1.8200 H     1 <1>   0.0800 
 45 H       -5.4290    -4.2220    -2.5390 H     1 <1>   0.0800 
@<TRIPOS>BOND
  1   1   2  1   
  2   1   3  1   
  3   2   4  1   
  4   2   5  2   
  5   3   6  1   
  6   3  23  1   
  7   3  24  1   
  8   4   7  1   
  9   5   8  1   
 10   6   9  2   
 11   6  10  am  
 12   7   8  2   
 13   7  11  1   
 14  10  12  1   
 15  10  13  1   
 16  11  14  1   
 17  11  15  1   
 18  11  16  1   
 19  12  25  1   
 20  12  26  1   
 21  12  27  1   
 22  13  28  1   
 23  13  29  1   
 24  13  30  1   
 25  14  17  1   
 26  14  31  1   
 27  14  32  1   
 28  15  18  1   
 29  15  33  1   
 30  15  34  1   
 31  16  19  1   
 32  16  35  1   
 33  16  36  1   
 34  17  20  1   
 35  17  21  1   
 36  17  37  1   
 37  18  20  1   
 38  18  22  1   
 39  18  38  1   
 40  19  21  1   
 41  19  22  1   
 42  19  39  1   
 43  20  40  1   
 44  20  41  1   
 45  21  42  1   
 46  21  43  1   
 47  22  44  1   
 48  22  45  1   
@<TRIPOS>SUBSTRUCTURE
  1 ****   7 GROUP 4 **** **** 0

# MOE 2024.06 (io_trps.svl 2023.06)
