@<TRIPOS>MOLECULE
NONAME
45 45 1 0 0 
SMALL
USER_CHARGES


@<TRIPOS>ATOM
  1 O       -5.1290    -7.3900    -0.9110 O.3   1 <1>  -0.3630 
  2 C       -4.2070    -8.2780    -0.4780 C.ar  1 <1>   0.0820 
  3 C       -5.2180    -6.2070    -0.1600 C.3   1 <1>   0.1200 
  4 C       -4.5670    -9.2420     0.4610 C.ar  1 <1>  -0.1440 
  5 C       -2.9070    -8.2200    -0.9760 C.ar  1 <1>  -0.1440 
  6 C       -6.3460    -5.3680    -0.7640 C.3   1 <1>   0.3430 
  7 C       -3.6020   -10.1180     0.9290 C.ar  1 <1>  -0.1500 
  8 C       -5.9920    -9.3660     0.9800 C.3   1 <1>  -0.0970 
  9 C       -1.9610    -9.1080    -0.4910 C.ar  1 <1>  -0.1500 
 10 C       -2.4990    -7.2160    -2.0440 C.3   1 <1>  -0.0960 
 11 N       -6.5770    -4.0650    -0.0510 N.4   1 <1>  -0.9590 
 12 C       -2.2990   -10.0520     0.4640 C.ar  1 <1>  -0.1440 
 13 C       -7.8260    -3.4070    -0.4850 C.3   1 <1>   0.4810 
 14 C       -5.4260    -3.1400    -0.1410 C.3   1 <1>   0.4810 
 15 C       -1.2520   -11.0190     0.9870 C.3   1 <1>  -0.0970 
 16 C       -8.9680    -4.1700     0.1440 C.2   1 <1>  -0.2880 
 17 C       -4.6050    -3.2540     1.1310 C.2   1 <1>  -0.2880 
 18 C       -9.6820    -3.7560     1.1960 C.2   1 <1>  -0.3000 
 19 C       -4.8610    -3.9230     2.2650 C.2   1 <1>  -0.3000 
 20 H       -4.2690    -5.7050    -0.2210 H     1 <1>   0.0800 
 21 H       -5.4330    -6.4730     0.8590 H     1 <1>   0.0800 
 22 H       -7.2460    -5.9590    -0.7250 H     1 <1>   0.0800 
 23 H       -6.1160    -5.1770    -1.8000 H     1 <1>   0.0800 
 24 H       -3.8640   -10.8620     1.6600 H     1 <1>   0.1500 
 25 H       -6.6960    -9.2010     0.1840 H     1 <1>   0.0800 
 26 H       -6.1640    -8.6490     1.7610 H     1 <1>   0.0800 
 27 H       -6.1660   -10.3510     1.3750 H     1 <1>   0.0800 
 28 H       -0.9520    -9.0700    -0.8610 H     1 <1>   0.1500 
 29 H       -2.2880    -6.2640    -1.5920 H     1 <1>   0.0800 
 30 H       -3.2850    -7.1000    -2.7680 H     1 <1>   0.0800 
 31 H       -1.6180    -7.5530    -2.5610 H     1 <1>   0.0800 
 32 H       -6.7030    -4.2510     0.9510 H     1 <1>   0.4500 
 33 H       -7.9130    -3.3950    -1.5600 H     1 <1>   0.0800 
 34 H       -7.8490    -2.3910    -0.1240 H     1 <1>   0.0800 
 35 H       -5.7660    -2.1210    -0.2430 H     1 <1>   0.0800 
 36 H       -4.8190    -3.3820    -0.9990 H     1 <1>   0.0800 
 37 H       -1.4670   -11.2900     2.0050 H     1 <1>   0.0800 
 38 H       -0.2760   -10.5700     0.9560 H     1 <1>   0.0800 
 39 H       -1.2460   -11.9080     0.3840 H     1 <1>   0.0800 
 40 H       -9.1740    -5.1070    -0.3460 H     1 <1>   0.1500 
 41 H       -3.6970    -2.6800     1.0390 H     1 <1>   0.1500 
 42 H      -10.4980    -4.3170     1.6240 H     1 <1>   0.1500 
 43 H       -9.5300    -2.8280     1.7240 H     1 <1>   0.1500 
 44 H       -5.7260    -4.5230     2.4910 H     1 <1>   0.1500 
 45 H       -4.1840    -3.9190     3.1060 H     1 <1>   0.1500 
@<TRIPOS>BOND
  1   1   2  1   
  2   1   3  1   
  3   2   4  ar  
  4   2   5  ar  
  5   3   6  1   
  6   3  20  1   
  7   3  21  1   
  8   4   7  ar  
  9   4   8  1   
 10   5   9  ar  
 11   5  10  1   
 12   6  11  1   
 13   6  22  1   
 14   6  23  1   
 15   7  12  ar  
 16   7  24  1   
 17   8  25  1   
 18   8  26  1   
 19   8  27  1   
 20   9  12  ar  
 21   9  28  1   
 22  10  29  1   
 23  10  30  1   
 24  10  31  1   
 25  11  13  1   
 26  11  14  1   
 27  11  32  1   
 28  12  15  1   
 29  13  16  1   
 30  13  33  1   
 31  13  34  1   
 32  14  17  1   
 33  14  35  1   
 34  14  36  1   
 35  15  37  1   
 36  15  38  1   
 37  15  39  1   
 38  16  18  2   
 39  16  40  1   
 40  17  19  2   
 41  17  41  1   
 42  18  42  1   
 43  18  43  1   
 44  19  44  1   
 45  19  45  1   
@<TRIPOS>SUBSTRUCTURE
  1 ****   3 GROUP 4 **** **** 0

# MOE 2024.06 (io_trps.svl 2023.06)
