@<TRIPOS>MOLECULE
NONAME
44 45 1 0 0 
SMALL
USER_CHARGES


@<TRIPOS>ATOM
  1 S        1.7020    -2.0670     1.1320 S.3   1 <1>  -0.0800 
  2 C        1.1410    -1.5250    -0.4440 C.2   1 <1>  -0.1400 
  3 C        1.1720    -0.5740     1.8840 C.2   1 <1>  -0.1100 
  4 C        0.5930    -0.2990    -0.3510 C.2   1 <1>  -0.1500 
  5 C        1.3460    -2.4620    -1.6300 C.3   1 <1>   0.0810 
  6 C        0.6120     0.2430     0.9740 C.2   1 <1>  -0.1500 
  7 C        2.7780    -2.4970    -2.1420 C.2   1 <1>   0.5690 
  8 O        3.0230    -3.1460    -3.1300 O.2   1 <1>  -0.5700 
  9 N        3.7360    -1.7970    -1.4850 N.am  1 <1>  -0.7300 
 10 C        5.1630    -1.6980    -1.8380 C.3   1 <1>   0.2200 
 11 C        6.0570    -1.9430    -0.5930 C.3   1 <1>  -0.0800 
 12 C        5.4120    -0.2880    -2.4100 C.3   1 <1>  -0.1600 
 13 C        6.1990    -3.4270    -0.1090 C.3   1 <1>   0.0000 
 14 C        5.7230    -0.9250     0.5370 C.3   1 <1>  -0.1600 
 15 C        5.8080     0.7740    -1.3620 C.3   1 <1>  -0.1600 
 16 C        7.2490    -3.5100     1.0150 C.3   1 <1>  -0.2400 
 17 C        4.8970    -4.0480     0.4280 C.3   1 <1>  -0.2400 
 18 C        6.6980    -4.3200    -1.2610 C.3   1 <1>  -0.2400 
 19 C        5.2540     0.4540     0.0310 C.3   1 <1>  -0.1600 
 20 H        1.3350    -0.4670     2.9420 H     1 <1>   0.1500 
 21 H        0.1720     0.2630    -1.1670 H     1 <1>   0.1500 
 22 H        0.7180    -2.1460    -2.4410 H     1 <1>   0.0800 
 23 H        1.0550    -3.4590    -1.3560 H     1 <1>   0.0800 
 24 H        0.2050     1.2180     1.1760 H     1 <1>   0.1500 
 25 H        3.4810    -1.2890    -0.6360 H     1 <1>   0.3700 
 26 H        5.3810    -2.4120    -2.6120 H     1 <1>   0.0800 
 27 H        7.0450    -1.6780    -0.9270 H     1 <1>   0.0800 
 28 H        4.5360     0.0340    -2.9470 H     1 <1>   0.0800 
 29 H        6.2090    -0.3530    -3.1290 H     1 <1>   0.0800 
 30 H        6.6070    -0.7810     1.1330 H     1 <1>   0.0800 
 31 H        4.9620    -1.3150     1.1870 H     1 <1>   0.0800 
 32 H        5.4630     1.7420    -1.6820 H     1 <1>   0.0800 
 33 H        6.8820     0.8200    -1.2970 H     1 <1>   0.0800 
 34 H        6.9140    -2.9950     1.8960 H     1 <1>   0.0800 
 35 H        8.1800    -3.0760     0.6970 H     1 <1>   0.0800 
 36 H        7.4340    -4.5340     1.2880 H     1 <1>   0.0800 
 37 H        4.4900    -3.4730     1.2370 H     1 <1>   0.0800 
 38 H        5.0820    -5.0430     0.7940 H     1 <1>   0.0800 
 39 H        4.1580    -4.1250    -0.3460 H     1 <1>   0.0800 
 40 H        7.5920    -3.9140    -1.6990 H     1 <1>   0.0800 
 41 H        5.9500    -4.4150    -2.0280 H     1 <1>   0.0800 
 42 H        6.9180    -5.3100    -0.9040 H     1 <1>   0.0800 
 43 H        5.5590     1.2150     0.7290 H     1 <1>   0.0800 
 44 H        4.1780     0.4770    -0.0120 H     1 <1>   0.0800 
@<TRIPOS>BOND
  1   1   2  1   
  2   1   3  1   
  3   2   4  2   
  4   2   5  1   
  5   3   6  2   
  6   3  20  1   
  7   4   6  1   
  8   4  21  1   
  9   5   7  1   
 10   5  22  1   
 11   5  23  1   
 12   6  24  1   
 13   7   8  2   
 14   7   9  am  
 15   9  10  1   
 16   9  25  1   
 17  10  11  1   
 18  10  12  1   
 19  10  26  1   
 20  11  13  1   
 21  11  14  1   
 22  11  27  1   
 23  12  15  1   
 24  12  28  1   
 25  12  29  1   
 26  13  16  1   
 27  13  17  1   
 28  13  18  1   
 29  14  19  1   
 30  14  30  1   
 31  14  31  1   
 32  15  19  1   
 33  15  32  1   
 34  15  33  1   
 35  16  34  1   
 36  16  35  1   
 37  16  36  1   
 38  17  37  1   
 39  17  38  1   
 40  17  39  1   
 41  18  40  1   
 42  18  41  1   
 43  18  42  1   
 44  19  43  1   
 45  19  44  1   
@<TRIPOS>SUBSTRUCTURE
  1 ****   9 GROUP 4 **** **** 0

# MOE 2024.06 (io_trps.svl 2023.06)
