@<TRIPOS>MOLECULE
NONAME
41 43 1 0 0 
SMALL
USER_CHARGES


@<TRIPOS>ATOM
  1 CL      -1.5580     0.1990     2.6370 Cl    1 <1>  -0.1770 
  2 C       -1.8910     1.4740     1.4880 C.ar  1 <1>   0.1770 
  3 C       -0.9570     2.4650     1.2370 C.ar  1 <1>   0.1770 
  4 C       -3.1080     1.4760     0.8300 C.ar  1 <1>  -0.1500 
  5 CL       0.5860     2.4730     2.0610 Cl    1 <1>  -0.1770 
  6 C       -1.2320     3.4690     0.3260 C.ar  1 <1>  -0.1500 
  7 C       -3.3910     2.4790    -0.0880 C.ar  1 <1>  -0.1440 
  8 C       -2.4510     3.4730    -0.3340 C.ar  1 <1>  -0.1500 
  9 C       -4.7250     2.4910    -0.8170 C.3   1 <1>   0.2140 
 10 S       -5.9140     3.4810     0.1880 S.3   1 <1>  -0.2860 
 11 C       -7.4070     3.4130    -0.8070 C.2   1 <1>   0.2430 
 12 N       -7.4880     2.7760    -1.9210 N.2   1 <1>  -0.3380 
 13 N       -8.5390     4.0200    -0.4520 N.pl3 1 <1>   0.0480 
 14 N       -8.7420     2.9550    -2.3480 N.2   1 <1>  -0.3380 
 15 C       -9.3480     3.6880    -1.4700 C.2   1 <1>   0.0060 
 16 C       -8.8280     4.8170     0.7570 C.3   1 <1>   0.0160 
 17 C      -10.8030     4.1200    -1.5800 C.3   1 <1>   0.2900 
 18 N      -11.5670     3.7930    -0.3590 N.3   1 <1>  -0.8100 
 19 C      -11.6630     2.3270    -0.1740 C.3   1 <1>   0.1100 
 20 C      -12.9260     4.3630    -0.4220 C.3   1 <1>   0.1100 
 21 C      -12.5340     1.9760     1.0460 C.3   1 <1>   0.1200 
 22 C      -13.7530     3.9590     0.8120 C.3   1 <1>   0.1200 
 23 O      -13.7980     2.5670     0.9350 O.3   1 <1>  -0.5600 
 24 H       -3.8230     0.7010     1.0400 H     1 <1>   0.1500 
 25 H       -0.5020     4.2360     0.1400 H     1 <1>   0.1500 
 26 H       -2.6690     4.2570    -1.0400 H     1 <1>   0.1500 
 27 H       -5.1380     1.5040    -0.9210 H     1 <1>   0.0800 
 28 H       -4.6530     2.9610    -1.7820 H     1 <1>   0.0800 
 29 H       -7.9230     5.2560     1.1330 H     1 <1>   0.0800 
 30 H       -9.2570     4.1750     1.5050 H     1 <1>   0.0800 
 31 H       -9.5290     5.5950     0.5160 H     1 <1>   0.0800 
 32 H      -11.2530     3.6400    -2.4330 H     1 <1>   0.0800 
 33 H      -10.8290     5.1830    -1.7440 H     1 <1>   0.0800 
 34 H      -10.6810     1.9110    -0.0300 H     1 <1>   0.0800 
 35 H      -12.0920     1.8700    -1.0490 H     1 <1>   0.0800 
 36 H      -13.4340     4.0170    -1.3060 H     1 <1>   0.0800 
 37 H      -12.8640     5.4370    -0.4650 H     1 <1>   0.0800 
 38 H      -12.0700     2.3230     1.9530 H     1 <1>   0.0800 
 39 H      -12.6730     0.9120     1.1110 H     1 <1>   0.0800 
 40 H      -14.7640     4.3120     0.7170 H     1 <1>   0.0800 
 41 H      -13.3220     4.3710     1.7080 H     1 <1>   0.0800 
@<TRIPOS>BOND
  1   1   2  1   
  2   2   3  ar  
  3   2   4  ar  
  4   3   5  1   
  5   3   6  ar  
  6   4   7  ar  
  7   4  24  1   
  8   6   8  ar  
  9   6  25  1   
 10   7   8  ar  
 11   7   9  1   
 12   8  26  1   
 13   9  10  1   
 14   9  27  1   
 15   9  28  1   
 16  10  11  1   
 17  11  12  2   
 18  11  13  1   
 19  12  14  1   
 20  13  15  1   
 21  13  16  1   
 22  14  15  2   
 23  15  17  1   
 24  16  29  1   
 25  16  30  1   
 26  16  31  1   
 27  17  18  1   
 28  17  32  1   
 29  17  33  1   
 30  18  19  1   
 31  18  20  1   
 32  19  21  1   
 33  19  34  1   
 34  19  35  1   
 35  20  22  1   
 36  20  36  1   
 37  20  37  1   
 38  21  23  1   
 39  21  38  1   
 40  21  39  1   
 41  22  23  1   
 42  22  40  1   
 43  22  41  1   
@<TRIPOS>SUBSTRUCTURE
  1 ****  11 GROUP 4 **** **** 0

# MOE 2024.06 (io_trps.svl 2023.06)
