@<TRIPOS>MOLECULE
NONAME
43 44 1 0 0 
SMALL
USER_CHARGES


@<TRIPOS>ATOM
  1 CL       1.7600     0.2960     1.9480 Cl    1 <1>  -0.1770 
  2 C        2.1380     1.2430     0.5220 C.ar  1 <1>   0.1770 
  3 C        1.1930     2.1310    -0.0010 C.ar  1 <1>   0.1990 
  4 C        3.3750     1.0630    -0.0670 C.ar  1 <1>  -0.1500 
  5 N       -0.0460     2.3380     0.6010 N.am  1 <1>  -0.6930 
  6 C        1.5190     2.8260    -1.1630 C.ar  1 <1>  -0.1500 
  7 C        3.6690     1.7780    -1.2120 C.ar  1 <1>   0.1770 
  8 S       -0.2400     3.4450     1.9150 S.o2  1 <1>   1.3330 
  9 C       -1.2670     1.7020     0.0230 C.3   1 <1>   0.2570 
 10 C        2.7530     2.6540    -1.7680 C.ar  1 <1>  -0.1500 
 11 CL       5.2250     1.5670    -1.9760 Cl    1 <1>  -0.1770 
 12 O       -1.4470     3.0670     2.6090 O.2   1 <1>  -0.6500 
 13 O        1.0240     3.5200     2.6050 O.2   1 <1>  -0.6500 
 14 C       -0.5060     5.0010     1.0910 C.3   1 <1>  -0.1350 
 15 C       -2.2430     2.7080    -0.6090 C.2   1 <1>   0.5690 
 16 O       -1.8360     3.3010    -1.5840 O.2   1 <1>  -0.5700 
 17 N       -3.5030     2.9540    -0.1090 N.am  1 <1>  -0.6600 
 18 C       -4.4470     3.8630    -0.8220 C.3   1 <1>   0.1400 
 19 C       -4.0770     2.4030     1.1550 C.3   1 <1>   0.1400 
 20 C       -5.7350     3.1050    -1.1600 C.3   1 <1>  -0.1600 
 21 C       -5.3570     1.6230     0.8420 C.3   1 <1>  -0.1600 
 22 C       -6.3790     2.4940     0.0940 C.3   1 <1>  -0.0800 
 23 C       -7.6190     1.6750    -0.2790 C.3   1 <1>  -0.2400 
 24 H        4.0900     0.3810     0.3540 H     1 <1>   0.1500 
 25 H        0.7990     3.5010    -1.5930 H     1 <1>   0.1500 
 26 H       -1.7410     1.1110     0.7800 H     1 <1>   0.0800 
 27 H       -0.9650     1.0240    -0.7540 H     1 <1>   0.0800 
 28 H        3.0070     3.1920    -2.6650 H     1 <1>   0.1500 
 29 H       -1.4110     4.9800     0.5180 H     1 <1>   0.0800 
 30 H        0.3140     5.2180     0.4360 H     1 <1>   0.0800 
 31 H       -0.5820     5.7880     1.8150 H     1 <1>   0.0800 
 32 H       -4.0090     4.2400    -1.7310 H     1 <1>   0.0800 
 33 H       -4.6720     4.7030    -0.1880 H     1 <1>   0.0800 
 34 H       -4.3050     3.2210     1.8170 H     1 <1>   0.0800 
 35 H       -3.3890     1.7610     1.6710 H     1 <1>   0.0800 
 36 H       -5.5010     2.3310    -1.8700 H     1 <1>   0.0800 
 37 H       -6.4260     3.7820    -1.6290 H     1 <1>   0.0800 
 38 H       -5.7870     1.2730     1.7640 H     1 <1>   0.0800 
 39 H       -5.1030     0.7610     0.2500 H     1 <1>   0.0800 
 40 H       -6.6850     3.2960     0.7460 H     1 <1>   0.0800 
 41 H       -7.3550     0.8610    -0.9320 H     1 <1>   0.0800 
 42 H       -8.3400     2.2960    -0.7800 H     1 <1>   0.0800 
 43 H       -8.0790     1.2700     0.6050 H     1 <1>   0.0800 
@<TRIPOS>BOND
  1   1   2  1   
  2   2   3  ar  
  3   2   4  ar  
  4   3   5  1   
  5   3   6  ar  
  6   4   7  ar  
  7   4  24  1   
  8   5   8  am  
  9   5   9  1   
 10   6  10  ar  
 11   6  25  1   
 12   7  10  ar  
 13   7  11  1   
 14   8  12  2   
 15   8  13  2   
 16   8  14  1   
 17   9  15  1   
 18   9  26  1   
 19   9  27  1   
 20  10  28  1   
 21  14  29  1   
 22  14  30  1   
 23  14  31  1   
 24  15  16  2   
 25  15  17  am  
 26  17  18  1   
 27  17  19  1   
 28  18  20  1   
 29  18  32  1   
 30  18  33  1   
 31  19  21  1   
 32  19  34  1   
 33  19  35  1   
 34  20  22  1   
 35  20  36  1   
 36  20  37  1   
 37  21  22  1   
 38  21  38  1   
 39  21  39  1   
 40  22  23  1   
 41  22  40  1   
 42  23  41  1   
 43  23  42  1   
 44  23  43  1   
@<TRIPOS>SUBSTRUCTURE
  1 ****   9 GROUP 4 **** **** 0

# MOE 2024.06 (io_trps.svl 2023.06)
