@<TRIPOS>MOLECULE
NONAME
42 44 1 0 0 
SMALL
USER_CHARGES


@<TRIPOS>ATOM
  1 O       -0.7050     0.2310     0.0190 O.3   1 <1>  -0.1650 
  2 C       -1.7270     0.7070     0.7750 C.ar  1 <1>   0.0830 
  3 C       -0.6390    -1.0780    -0.3260 C.ar  1 <1>   0.0830 
  4 C       -3.0020     0.1550     0.7220 C.ar  1 <1>  -0.1500 
  5 C       -1.4790     1.7880     1.6040 C.ar  1 <1>  -0.1500 
  6 C       -0.8120    -2.0820     0.6190 C.ar  1 <1>  -0.1500 
  7 C       -0.3870    -1.4040    -1.6490 C.ar  1 <1>  -0.1500 
  8 C       -4.0250     0.6800     1.4980 C.ar  1 <1>  -0.1430 
  9 C       -2.4940     2.3090     2.3860 C.ar  1 <1>  -0.1500 
 10 C       -0.7540    -3.4100     0.2320 C.ar  1 <1>  -0.1500 
 11 C       -0.3310    -2.7330    -2.0330 C.ar  1 <1>  -0.1500 
 12 C       -3.7630     1.7560     2.3360 C.ar  1 <1>  -0.1500 
 13 C       -5.4170     0.0860     1.4190 C.3   1 <1>   0.4860 
 14 C       -0.5180    -3.7340    -1.0940 C.ar  1 <1>  -0.1500 
 15 N       -6.2620     0.9680     0.5690 N.4   1 <1>  -0.9590 
 16 C       -7.7020     0.5930     0.6590 C.3   1 <1>   0.3430 
 17 C       -5.7760     1.0070    -0.8430 C.3   1 <1>   0.3430 
 18 C       -8.5480     1.6100    -0.1090 C.3   1 <1>  -0.1600 
 19 C       -6.5900     2.0290    -1.6400 C.3   1 <1>  -0.1600 
 20 C       -8.0950     1.7410    -1.5690 C.3   1 <1>  -0.1600 
 21 H       -3.1850    -0.6800     0.0680 H     1 <1>   0.1500 
 22 H       -0.4920     2.2140     1.6360 H     1 <1>   0.1500 
 23 H       -0.9820    -1.8270     1.6500 H     1 <1>   0.1500 
 24 H       -0.2370    -0.6220    -2.3700 H     1 <1>   0.1500 
 25 H       -2.2910     3.1440     3.0350 H     1 <1>   0.1500 
 26 H       -0.8880    -4.1910     0.9600 H     1 <1>   0.1500 
 27 H       -0.1380    -2.9890    -3.0610 H     1 <1>   0.1500 
 28 H       -4.5340     2.1760     2.9600 H     1 <1>   0.1500 
 29 H       -5.8300     0.0210     2.4120 H     1 <1>   0.0800 
 30 H       -5.3730    -0.9060     1.0000 H     1 <1>   0.0800 
 31 H       -0.4730    -4.7670    -1.3940 H     1 <1>   0.1500 
 32 H       -6.1550     1.9210     0.9370 H     1 <1>   0.4500 
 33 H       -8.0180     0.5710     1.6890 H     1 <1>   0.0800 
 34 H       -7.8510    -0.3880     0.2350 H     1 <1>   0.0800 
 35 H       -5.8800     0.0330    -1.2940 H     1 <1>   0.0800 
 36 H       -4.7340     1.2860    -0.8720 H     1 <1>   0.0800 
 37 H       -8.4890     2.5670     0.3800 H     1 <1>   0.0800 
 38 H       -9.5790     1.3010    -0.0840 H     1 <1>   0.0800 
 39 H       -6.2710     2.0060    -2.6680 H     1 <1>   0.0800 
 40 H       -6.3850     3.0170    -1.2650 H     1 <1>   0.0800 
 41 H       -8.6420     2.5340    -2.0530 H     1 <1>   0.0800 
 42 H       -8.3110     0.8260    -2.0960 H     1 <1>   0.0800 
@<TRIPOS>BOND
  1   1   2  1   
  2   1   3  1   
  3   2   4  ar  
  4   2   5  ar  
  5   3   6  ar  
  6   3   7  ar  
  7   4   8  ar  
  8   4  21  1   
  9   5   9  ar  
 10   5  22  1   
 11   6  10  ar  
 12   6  23  1   
 13   7  11  ar  
 14   7  24  1   
 15   8  12  ar  
 16   8  13  1   
 17   9  12  ar  
 18   9  25  1   
 19  10  14  ar  
 20  10  26  1   
 21  11  14  ar  
 22  11  27  1   
 23  12  28  1   
 24  13  15  1   
 25  13  29  1   
 26  13  30  1   
 27  14  31  1   
 28  15  16  1   
 29  15  17  1   
 30  15  32  1   
 31  16  18  1   
 32  16  33  1   
 33  16  34  1   
 34  17  19  1   
 35  17  35  1   
 36  17  36  1   
 37  18  20  1   
 38  18  37  1   
 39  18  38  1   
 40  19  20  1   
 41  19  39  1   
 42  19  40  1   
 43  20  41  1   
 44  20  42  1   
@<TRIPOS>SUBSTRUCTURE
  1 ****   4 GROUP 4 **** **** 0

# MOE 2024.06 (io_trps.svl 2023.06)
