@<TRIPOS>MOLECULE
NONAME
33 34 1 0 0 
SMALL
USER_CHARGES


@<TRIPOS>ATOM
  1 CL       2.5440     2.1290     2.6540 Cl    1 <1>  -0.1770 
  2 C        1.4970     2.6770     1.3620 C.ar  1 <1>   0.1770 
  3 C        1.8630     2.4820     0.0340 C.ar  1 <1>   0.0830 
  4 C        0.3180     3.3160     1.6950 C.ar  1 <1>  -0.1500 
  5 O        3.0320     1.8500    -0.2360 O.3   1 <1>  -0.3630 
  6 C        1.0150     2.9410    -0.9700 C.ar  1 <1>  -0.1500 
  7 C       -0.5170     3.7730     0.6880 C.ar  1 <1>  -0.1500 
  8 C        3.8010     2.2400    -1.3660 C.3   1 <1>   0.1810 
  9 C       -0.1670     3.5840    -0.6390 C.ar  1 <1>  -0.1500 
 10 C        5.2120     1.6590    -1.3150 C.2   1 <1>   0.5690 
 11 O        5.5430     0.9640    -2.2490 O.2   1 <1>  -0.5700 
 12 N        6.0780     1.9340    -0.2790 N.am  1 <1>  -0.6600 
 13 C        5.7420     2.7640     0.9150 C.3   1 <1>   0.1400 
 14 C        7.4320     1.3130    -0.2220 C.3   1 <1>   0.1400 
 15 C        6.7970     3.8590     1.1040 C.3   1 <1>  -0.1600 
 16 C        8.4980     2.4000    -0.0490 C.3   1 <1>  -0.1600 
 17 C        8.2150     3.2770     1.1790 C.3   1 <1>  -0.1600 
 18 H        0.0590     3.4540     2.7300 H     1 <1>   0.1500 
 19 H        1.2570     2.7950    -2.0060 H     1 <1>   0.1500 
 20 H       -1.4380     4.2730     0.9370 H     1 <1>   0.1500 
 21 H        3.8570     3.3120    -1.3910 H     1 <1>   0.0800 
 22 H        3.3050     1.8810    -2.2490 H     1 <1>   0.0800 
 23 H       -0.8210     3.9380    -1.4190 H     1 <1>   0.1500 
 24 H        5.7150     2.1280     1.7840 H     1 <1>   0.0800 
 25 H        4.7780     3.2260     0.8160 H     1 <1>   0.0800 
 26 H        7.6340     0.7540    -1.1200 H     1 <1>   0.0800 
 27 H        7.4660     0.6300     0.6090 H     1 <1>   0.0800 
 28 H        6.5830     4.4040     2.0060 H     1 <1>   0.0800 
 29 H        6.7320     4.5490     0.2810 H     1 <1>   0.0800 
 30 H        8.5170     3.0090    -0.9360 H     1 <1>   0.0800 
 31 H        9.4630     1.9370     0.0520 H     1 <1>   0.0800 
 32 H        8.3100     2.6820     2.0720 H     1 <1>   0.0800 
 33 H        8.9360     4.0750     1.2310 H     1 <1>   0.0800 
@<TRIPOS>BOND
  1   1   2  1   
  2   2   3  ar  
  3   2   4  ar  
  4   3   5  1   
  5   3   6  ar  
  6   4   7  ar  
  7   4  18  1   
  8   5   8  1   
  9   6   9  ar  
 10   6  19  1   
 11   7   9  ar  
 12   7  20  1   
 13   8  10  1   
 14   8  21  1   
 15   8  22  1   
 16   9  23  1   
 17  10  11  2   
 18  10  12  am  
 19  12  13  1   
 20  12  14  1   
 21  13  15  1   
 22  13  24  1   
 23  13  25  1   
 24  14  16  1   
 25  14  26  1   
 26  14  27  1   
 27  15  17  1   
 28  15  28  1   
 29  15  29  1   
 30  16  17  1   
 31  16  30  1   
 32  16  31  1   
 33  17  32  1   
 34  17  33  1   
@<TRIPOS>SUBSTRUCTURE
  1 ****   5 GROUP 4 **** **** 0

# MOE 2024.06 (io_trps.svl 2023.06)
