@<TRIPOS>MOLECULE
NONAME
37 38 1 0 0 
SMALL
USER_CHARGES


@<TRIPOS>ATOM
  1 F        0.5090     0.4930     0.0910 F     1 <1>  -0.1900 
  2 C        1.7990     0.2800     0.0950 C.ar  1 <1>   0.1900 
  3 C        2.2650    -1.0090    -0.0730 C.ar  1 <1>  -0.1500 
  4 C        2.6510     1.3540     0.2690 C.ar  1 <1>  -0.1500 
  5 C        3.6320    -1.2250    -0.0660 C.ar  1 <1>  -0.1500 
  6 C        4.0160     1.1210     0.2720 C.ar  1 <1>  -0.1500 
  7 C        4.5260    -0.1660     0.1020 C.ar  1 <1>   0.1170 
  8 N        5.9170    -0.3390     0.1280 N.am  1 <1>  -0.5470 
  9 C        6.7300    -1.3070    -0.3940 C.2   1 <1>   0.6900 
 10 O        6.2690    -2.2460    -1.0160 O.2   1 <1>  -0.5700 
 11 N        8.0870    -1.2060    -0.2060 N.am  1 <1>  -0.6600 
 12 C        8.9650    -2.3640    -0.5610 C.3   1 <1>   0.1400 
 13 C        8.7690     0.0410     0.2620 C.3   1 <1>   0.1400 
 14 C       10.2430    -2.3610     0.2930 C.3   1 <1>  -0.0800 
 15 C       10.1910     0.1400    -0.3130 C.3   1 <1>  -0.0800 
 16 C       11.0600    -1.0670     0.0970 C.3   1 <1>  -0.1600 
 17 C       11.1050    -3.5960     0.0030 C.3   1 <1>  -0.2400 
 18 C       10.8650     1.4560     0.0980 C.3   1 <1>  -0.2400 
 19 H        1.5740    -1.8220    -0.2050 H     1 <1>   0.1500 
 20 H        2.2510     2.3430     0.3960 H     1 <1>   0.1500 
 21 H        4.0030    -2.2260    -0.1890 H     1 <1>   0.1500 
 22 H        4.6910     1.9470     0.4020 H     1 <1>   0.1500 
 23 H        6.4370     0.3870     0.6040 H     1 <1>   0.3700 
 24 H        9.2180    -2.3040    -1.6060 H     1 <1>   0.0800 
 25 H        8.4290    -3.2840    -0.3990 H     1 <1>   0.0800 
 26 H        8.8140     0.0330     1.3370 H     1 <1>   0.0800 
 27 H        8.2080     0.9030    -0.0560 H     1 <1>   0.0800 
 28 H        9.9310    -2.4150     1.3220 H     1 <1>   0.0800 
 29 H       10.0980     0.1420    -1.3860 H     1 <1>   0.0800 
 30 H       11.8070    -1.2100    -0.6640 H     1 <1>   0.0800 
 31 H       11.5770    -0.8590     1.0180 H     1 <1>   0.0800 
 32 H       11.4180    -3.6090    -1.0260 H     1 <1>   0.0800 
 33 H       10.5480    -4.4940     0.2030 H     1 <1>   0.0800 
 34 H       11.9800    -3.5950     0.6300 H     1 <1>   0.0800 
 35 H       10.9570     1.5200     1.1680 H     1 <1>   0.0800 
 36 H       10.2900     2.2960    -0.2490 H     1 <1>   0.0800 
 37 H       11.8480     1.5190    -0.3360 H     1 <1>   0.0800 
@<TRIPOS>BOND
  1   1   2  1   
  2   2   3  ar  
  3   2   4  ar  
  4   3   5  ar  
  5   3  19  1   
  6   4   6  ar  
  7   4  20  1   
  8   5   7  ar  
  9   5  21  1   
 10   6   7  ar  
 11   6  22  1   
 12   7   8  1   
 13   8   9  am  
 14   8  23  1   
 15   9  10  2   
 16   9  11  am  
 17  11  12  1   
 18  11  13  1   
 19  12  14  1   
 20  12  24  1   
 21  12  25  1   
 22  13  15  1   
 23  13  26  1   
 24  13  27  1   
 25  14  16  1   
 26  14  17  1   
 27  14  28  1   
 28  15  16  1   
 29  15  18  1   
 30  15  29  1   
 31  16  30  1   
 32  16  31  1   
 33  17  32  1   
 34  17  33  1   
 35  17  34  1   
 36  18  35  1   
 37  18  36  1   
 38  18  37  1   
@<TRIPOS>SUBSTRUCTURE
  1 ****   8 GROUP 4 **** **** 0

# MOE 2024.06 (io_trps.svl 2023.06)
