@<TRIPOS>MOLECULE
NONAME
31 32 1 0 0 
SMALL
USER_CHARGES


@<TRIPOS>ATOM
  1 S        0.1120    -0.3470     0.8760 S.3   1 <1>  -0.0800 
  2 C       -1.3170     0.6270     0.5230 C.ar  1 <1>   0.0400 
  3 C        1.1280     0.5790    -0.2510 C.2   1 <1>  -0.0450 
  4 C       -1.0030     1.5970    -0.4150 C.ar  1 <1>   0.0000 
  5 C       -2.5760     0.4800     1.0730 C.ar  1 <1>  -0.1500 
  6 C        2.5150     0.2000    -0.3830 C.2   1 <1>   0.7150 
  7 C        0.3660     1.5420    -0.8300 C.2   1 <1>  -0.1500 
  8 C       -2.0160     2.4640    -0.8180 C.ar  1 <1>  -0.1500 
  9 C       -3.5680     1.3520     0.6610 C.ar  1 <1>  -0.1500 
 10 O        2.9020    -0.9180    -0.1160 O.2   1 <1>  -0.5700 
 11 N        3.4710     1.0650    -0.8160 N.am  1 <1>  -0.7300 
 12 C       -3.2860     2.3380    -0.2820 C.ar  1 <1>  -0.1500 
 13 C        3.4640     2.5370    -0.7190 C.3   1 <1>   0.1400 
 14 C        4.8060     3.0050    -0.1590 C.3   1 <1>  -0.1600 
 15 C        4.8490     4.5320    -0.0260 C.3   1 <1>  -0.1600 
 16 C        6.1950     4.9980     0.5350 C.3   1 <1>  -0.2400 
 17 H       -2.7670    -0.2910     1.7980 H     1 <1>   0.1500 
 18 H        0.7220     2.2380    -1.5660 H     1 <1>   0.1500 
 19 H       -1.8040     3.2260    -1.5460 H     1 <1>   0.1500 
 20 H       -4.5610     1.2680     1.0670 H     1 <1>   0.1500 
 21 H        4.3940     0.6370    -0.9060 H     1 <1>   0.3700 
 22 H       -4.0680     3.0080    -0.5940 H     1 <1>   0.1500 
 23 H        2.6690     2.8620    -0.0690 H     1 <1>   0.0800 
 24 H        3.3070     2.9560    -1.6990 H     1 <1>   0.0800 
 25 H        5.5980     2.6840    -0.8140 H     1 <1>   0.0800 
 26 H        4.9580     2.5610     0.8110 H     1 <1>   0.0800 
 27 H        4.0610     4.8620     0.6300 H     1 <1>   0.0800 
 28 H        4.6940     4.9860    -0.9900 H     1 <1>   0.0800 
 29 H        6.3640     4.5750     1.5110 H     1 <1>   0.0800 
 30 H        6.2070     6.0700     0.6220 H     1 <1>   0.0800 
 31 H        6.9990     4.7000    -0.1150 H     1 <1>   0.0800 
@<TRIPOS>BOND
  1   1   2  1   
  2   1   3  1   
  3   2   4  ar  
  4   2   5  ar  
  5   3   6  1   
  6   3   7  2   
  7   4   7  1   
  8   4   8  ar  
  9   5   9  ar  
 10   5  17  1   
 11   6  10  2   
 12   6  11  am  
 13   7  18  1   
 14   8  12  ar  
 15   8  19  1   
 16   9  12  ar  
 17   9  20  1   
 18  11  13  1   
 19  11  21  1   
 20  12  22  1   
 21  13  14  1   
 22  13  23  1   
 23  13  24  1   
 24  14  15  1   
 25  14  25  1   
 26  14  26  1   
 27  15  16  1   
 28  15  27  1   
 29  15  28  1   
 30  16  29  1   
 31  16  30  1   
 32  16  31  1   
@<TRIPOS>SUBSTRUCTURE
  1 ****   7 GROUP 4 **** **** 0

# MOE 2024.06 (io_trps.svl 2023.06)
