@<TRIPOS>MOLECULE
NONAME
50 54 1 0 0 
SMALL
USER_CHARGES


@<TRIPOS>ATOM
  1 O       -1.8980    -3.9900    -3.2990 O.2   1 <1>  -0.5700 
  2 C       -1.8690    -3.7700    -2.1040 C.2   1 <1>   0.5440 
  3 N       -2.8520    -2.9870    -1.5340 N.am  1 <1>  -0.6600 
  4 C       -0.7920    -4.3240    -1.3180 C.ar  1 <1>   0.0860 
  5 C       -2.8730    -2.6680    -0.0710 C.3   1 <1>   0.1400 
  6 C       -3.9320    -2.3870    -2.3800 C.3   1 <1>   0.1400 
  7 C       -0.9470    -5.5190    -0.5790 C.ar  1 <1>   0.0000 
  8 C        0.4280    -3.7080    -1.2540 C.ar  1 <1>  -0.1500 
  9 C       -4.2930    -2.3360     0.3810 C.3   1 <1>  -0.1600 
 10 C       -4.3340    -1.0200    -1.8310 C.3   1 <1>  -0.1600 
 11 C        0.1530    -5.9630     0.1840 C.ar  1 <1>   0.3100 
 12 C       -2.1340    -6.2830    -0.5640 C.ar  1 <1>  -0.1500 
 13 C        1.4820    -4.2160    -0.4760 C.ar  1 <1>   0.3630 
 14 C       -4.8380    -1.1300    -0.3850 C.3   1 <1>   0.5600 
 15 N        1.3340    -5.3120     0.2300 N.ar  1 <1>  -0.6200 
 16 C        0.0170    -7.1420     0.9350 C.ar  1 <1>  -0.1500 
 17 C       -2.2330    -7.4290     0.1790 C.ar  1 <1>  -0.1500 
 18 C        2.7450    -3.5080    -0.4600 C.2   1 <1>   0.0870 
 19 O       -4.5100     0.0260     0.3090 O.3   1 <1>  -0.5600 
 20 O       -6.2250    -1.1920    -0.3630 O.3   1 <1>  -0.5600 
 21 C       -1.1460    -7.8650     0.9390 C.ar  1 <1>  -0.1500 
 22 O        3.6240    -3.7010     0.5190 O.3   1 <1>  -0.2800 
 23 C        3.2690    -2.5910    -1.3230 C.2   1 <1>  -0.1500 
 24 C       -5.5390     0.9340     0.1690 C.3   1 <1>   0.1200 
 25 C       -6.7430     0.0760    -0.1680 C.3   1 <1>   0.1200 
 26 C        4.6770    -2.9460     0.3090 C.2   1 <1>  -0.0400 
 27 C        4.5200    -2.2280    -0.8220 C.2   1 <1>  -0.1500 
 28 C        5.8190    -3.0000     1.3000 C.3   1 <1>  -0.0600 
 29 H       -2.2290    -1.8250     0.1160 H     1 <1>   0.0800 
 30 H       -2.5120    -3.5060     0.4990 H     1 <1>   0.0800 
 31 H       -4.7830    -3.0460    -2.3850 H     1 <1>   0.0800 
 32 H       -3.5900    -2.2740    -3.3950 H     1 <1>   0.0800 
 33 H        0.5860    -2.8040    -1.8100 H     1 <1>   0.1500 
 34 H       -4.3080    -2.1310     1.4350 H     1 <1>   0.0800 
 35 H       -4.9140    -3.1920     0.1950 H     1 <1>   0.0800 
 36 H       -5.0910    -0.5880    -2.4570 H     1 <1>   0.0800 
 37 H       -3.4660    -0.3870    -1.8620 H     1 <1>   0.0800 
 38 H       -2.9750    -5.9580    -1.1520 H     1 <1>   0.1500 
 39 H        0.8670    -7.4610     1.5100 H     1 <1>   0.1500 
 40 H       -3.1430    -8.0050     0.1840 H     1 <1>   0.1500 
 41 H       -1.2330    -8.7680     1.5190 H     1 <1>   0.1500 
 42 H        2.8370    -2.2030    -2.2270 H     1 <1>   0.1500 
 43 H       -5.3020     1.6110    -0.6330 H     1 <1>   0.0800 
 44 H       -5.6660     1.4750     1.0900 H     1 <1>   0.0800 
 45 H       -7.4450     0.0400     0.6460 H     1 <1>   0.0800 
 46 H       -7.2300     0.4050    -1.0680 H     1 <1>   0.0800 
 47 H        5.1960    -1.5210    -1.2690 H     1 <1>   0.1500 
 48 H        6.2050    -4.0020     1.3500 H     1 <1>   0.0800 
 49 H        5.4660    -2.7130     2.2740 H     1 <1>   0.0800 
 50 H        6.6060    -2.3340     1.0000 H     1 <1>   0.0800 
@<TRIPOS>BOND
  1   1   2  2   
  2   2   3  am  
  3   2   4  1   
  4   3   5  1   
  5   3   6  1   
  6   4   7  ar  
  7   4   8  ar  
  8   5   9  1   
  9   5  29  1   
 10   5  30  1   
 11   6  10  1   
 12   6  31  1   
 13   6  32  1   
 14   7  11  ar  
 15   7  12  ar  
 16   8  13  ar  
 17   8  33  1   
 18   9  14  1   
 19   9  34  1   
 20   9  35  1   
 21  10  14  1   
 22  10  36  1   
 23  10  37  1   
 24  11  15  ar  
 25  11  16  ar  
 26  12  17  ar  
 27  12  38  1   
 28  13  15  ar  
 29  13  18  1   
 30  14  19  1   
 31  14  20  1   
 32  16  21  ar  
 33  16  39  1   
 34  17  21  ar  
 35  17  40  1   
 36  18  22  1   
 37  18  23  2   
 38  19  24  1   
 39  20  25  1   
 40  21  41  1   
 41  22  26  1   
 42  23  27  1   
 43  23  42  1   
 44  24  25  1   
 45  24  43  1   
 46  24  44  1   
 47  25  45  1   
 48  25  46  1   
 49  26  27  2   
 50  26  28  1   
 51  27  47  1   
 52  28  48  1   
 53  28  49  1   
 54  28  50  1   
@<TRIPOS>SUBSTRUCTURE
  1 ****   4 GROUP 4 **** **** 0

# MOE 2024.06 (io_trps.svl 2023.06)
