@<TRIPOS>MOLECULE
NONAME
51 53 1 0 0 
SMALL
USER_CHARGES


@<TRIPOS>ATOM
  1 O       -0.0650    -0.1890     0.8730 O.2   1 <1>  -0.5700 
  2 C       -0.1260    -1.1090     0.0830 C.2   1 <1>   0.7800 
  3 O        0.9880    -1.6860    -0.3610 O.3   1 <1>  -0.4300 
  4 N       -1.2770    -1.6260    -0.4240 N.am  1 <1>  -0.5470 
  5 C        2.2520    -1.2420     0.0780 C.3   1 <1>   0.1200 
  6 C       -2.6330    -1.3090    -0.2240 C.ar  1 <1>   0.1170 
  7 C        3.3170    -2.0950    -0.6060 C.3   1 <1>  -0.2400 
  8 C       -3.5640    -1.8020    -1.1190 C.ar  1 <1>  -0.1500 
  9 C       -3.0780    -0.5230     0.8560 C.ar  1 <1>  -0.1500 
 10 C       -4.9150    -1.5160    -0.9480 C.ar  1 <1>   0.2270 
 11 C       -4.4120    -0.2330     1.0320 C.ar  1 <1>  -0.1500 
 12 N       -5.9760    -1.9050    -1.7050 N.2   1 <1>  -0.5650 
 13 C       -5.3330    -0.7380     0.1120 C.ar  1 <1>  -0.1520 
 14 C       -6.9980    -1.3790    -1.1180 C.2   1 <1>   0.0060 
 15 N       -6.6860    -0.6480    -0.0100 N.pl3 1 <1>   0.0480 
 16 C       -8.4290    -1.5610    -1.6130 C.3   1 <1>   0.2900 
 17 C       -7.5960     0.0440     0.9220 C.3   1 <1>   0.0160 
 18 N       -9.3190    -2.1000    -0.5610 N.3   1 <1>  -0.8100 
 19 C       -8.8800    -3.4570    -0.1540 C.3   1 <1>   0.1100 
 20 C      -10.7150    -2.1480    -1.0370 C.3   1 <1>   0.1100 
 21 C       -9.7810    -4.0450     0.9440 C.3   1 <1>   0.1400 
 22 C      -11.6670    -2.6880     0.0450 C.3   1 <1>   0.1400 
 23 N      -11.2170    -4.0280     0.5280 N.am  1 <1>  -0.6600 
 24 C      -11.9860    -5.1600     0.5830 C.2   1 <1>   0.5690 
 25 O      -11.5460    -6.2200     0.9570 O.2   1 <1>  -0.5700 
 26 C      -13.4390    -5.1220     0.1720 C.3   1 <1>  -0.1790 
 27 H       -1.0950    -2.3530    -1.1100 H     1 <1>   0.3700 
 28 H        2.2990    -1.3490     1.1490 H     1 <1>   0.0800 
 29 H        2.3600    -0.2030    -0.1870 H     1 <1>   0.0800 
 30 H        3.1900    -3.1290    -0.3400 H     1 <1>   0.0800 
 31 H        4.2930    -1.7770    -0.2890 H     1 <1>   0.0800 
 32 H        3.2510    -1.9850    -1.6740 H     1 <1>   0.0800 
 33 H       -3.2810    -2.4070    -1.9570 H     1 <1>   0.1500 
 34 H       -2.3650    -0.1420     1.5630 H     1 <1>   0.1500 
 35 H       -4.7410     0.3700     1.8600 H     1 <1>   0.1500 
 36 H       -8.4240    -2.2240    -2.4620 H     1 <1>   0.0800 
 37 H       -8.7970    -0.6050    -1.9390 H     1 <1>   0.0800 
 38 H       -7.0850     0.8690     1.3810 H     1 <1>   0.0800 
 39 H       -7.9170    -0.6510     1.6760 H     1 <1>   0.0800 
 40 H       -8.4530     0.4080     0.3870 H     1 <1>   0.0800 
 41 H       -7.8710    -3.4180     0.2220 H     1 <1>   0.0800 
 42 H       -8.8880    -4.1190    -1.0030 H     1 <1>   0.0800 
 43 H      -10.7850    -2.7770    -1.9090 H     1 <1>   0.0800 
 44 H      -11.0330    -1.1570    -1.3120 H     1 <1>   0.0800 
 45 H       -9.6680    -3.4640     1.8420 H     1 <1>   0.0800 
 46 H       -9.4600    -5.0490     1.1590 H     1 <1>   0.0800 
 47 H      -12.6610    -2.7340    -0.3570 H     1 <1>   0.0800 
 48 H      -11.6760    -2.0030     0.8760 H     1 <1>   0.0800 
 49 H      -13.5160    -4.8810    -0.8710 H     1 <1>   0.0800 
 50 H      -13.9660    -4.3940     0.7590 H     1 <1>   0.0800 
 51 H      -13.8870    -6.0850     0.3370 H     1 <1>   0.0800 
@<TRIPOS>BOND
  1   1   2  2   
  2   2   3  1   
  3   2   4  am  
  4   3   5  1   
  5   4   6  1   
  6   4  27  1   
  7   5   7  1   
  8   5  28  1   
  9   5  29  1   
 10   6   8  ar  
 11   6   9  ar  
 12   7  30  1   
 13   7  31  1   
 14   7  32  1   
 15   8  10  ar  
 16   8  33  1   
 17   9  11  ar  
 18   9  34  1   
 19  10  12  1   
 20  10  13  ar  
 21  11  13  ar  
 22  11  35  1   
 23  12  14  2   
 24  13  15  1   
 25  14  15  1   
 26  14  16  1   
 27  15  17  1   
 28  16  18  1   
 29  16  36  1   
 30  16  37  1   
 31  17  38  1   
 32  17  39  1   
 33  17  40  1   
 34  18  19  1   
 35  18  20  1   
 36  19  21  1   
 37  19  41  1   
 38  19  42  1   
 39  20  22  1   
 40  20  43  1   
 41  20  44  1   
 42  21  23  1   
 43  21  45  1   
 44  21  46  1   
 45  22  23  1   
 46  22  47  1   
 47  22  48  1   
 48  23  24  am  
 49  24  25  2   
 50  24  26  1   
 51  26  49  1   
 52  26  50  1   
 53  26  51  1   
@<TRIPOS>SUBSTRUCTURE
  1 ****  10 GROUP 4 **** **** 0

# MOE 2024.06 (io_trps.svl 2023.06)
