@<TRIPOS>MOLECULE
NONAME
41 42 1 0 0 
SMALL
USER_CHARGES


@<TRIPOS>ATOM
  1 S       -0.1310     0.2030     0.8470 S.o2  1 <1>   1.4470 
  2 O       -0.6310    -0.9060     0.0670 O.2   1 <1>  -0.6500 
  3 O       -0.4840     0.3240     2.2430 O.2   1 <1>  -0.6500 
  4 N       -0.7580     1.5460     0.0730 N.am  1 <1>  -0.9140 
  5 C        1.6590     0.3800     0.6270 C.ar  1 <1>  -0.0090 
  6 C       -2.1180     1.7930     0.4680 C.3   1 <1>   0.3340 
  7 C        2.4330    -0.6590     0.1240 C.ar  1 <1>  -0.1500 
  8 C        2.3090     1.5610     0.9650 C.ar  1 <1>  -0.1500 
  9 C       -2.6680     2.8070    -0.5070 C.2   1 <1>  -0.2880 
 10 C        3.8000    -0.5210    -0.0410 C.ar  1 <1>  -0.1500 
 11 C        3.6750     1.7030     0.8020 C.ar  1 <1>  -0.1500 
 12 C       -3.6830     2.6000    -1.3530 C.2   1 <1>  -0.3000 
 13 C        4.4440     0.6630     0.2920 C.ar  1 <1>   0.1170 
 14 N        5.8310     0.7510     0.1140 N.am  1 <1>  -0.5470 
 15 C        6.6620     1.8330    -0.0060 C.2   1 <1>   0.5690 
 16 O        6.2750     2.9750    -0.0030 O.2   1 <1>  -0.5700 
 17 C        8.1570     1.5690    -0.1650 C.3   1 <1>  -0.0190 
 18 C        8.5240     0.7880    -1.4330 C.3   1 <1>  -0.1600 
 19 C        8.7960     0.7870     0.9980 C.3   1 <1>  -0.1600 
 20 C        9.8710     0.1530    -1.1050 C.3   1 <1>  -0.1600 
 21 C        9.7680    -0.2200     0.3720 C.3   1 <1>  -0.1600 
 22 H       -0.8140     1.2670    -0.9040 H     1 <1>   0.4200 
 23 H       -2.1500     2.1800     1.4740 H     1 <1>   0.0800 
 24 H       -2.6970     0.8840     0.4230 H     1 <1>   0.0800 
 25 H        1.9580    -1.5880    -0.1440 H     1 <1>   0.1500 
 26 H        1.7360     2.3830     1.3620 H     1 <1>   0.1500 
 27 H       -2.1400     3.7440    -0.4510 H     1 <1>   0.1500 
 28 H        4.3680    -1.3440    -0.4360 H     1 <1>   0.1500 
 29 H        4.1400     2.6310     1.0800 H     1 <1>   0.1500 
 30 H       -4.0520     3.3450    -2.0380 H     1 <1>   0.1500 
 31 H       -4.2310     1.6770    -1.4360 H     1 <1>   0.1500 
 32 H        6.3100    -0.1430     0.0300 H     1 <1>   0.3700 
 33 H        8.6530     2.5230    -0.2230 H     1 <1>   0.0800 
 34 H        8.5810     1.4320    -2.2940 H     1 <1>   0.0800 
 35 H        7.8060     0.0110    -1.6250 H     1 <1>   0.0800 
 36 H        8.0610     0.2690     1.5890 H     1 <1>   0.0800 
 37 H        9.3240     1.4690     1.6430 H     1 <1>   0.0800 
 38 H       10.6510     0.8840    -1.2360 H     1 <1>   0.0800 
 39 H       10.0810    -0.7000    -1.7260 H     1 <1>   0.0800 
 40 H        9.3610    -1.2130     0.4610 H     1 <1>   0.0800 
 41 H       10.7320    -0.1970     0.8520 H     1 <1>   0.0800 
@<TRIPOS>BOND
  1   1   2  2   
  2   1   3  2   
  3   1   4  am  
  4   1   5  1   
  5   4   6  1   
  6   4  22  1   
  7   5   7  ar  
  8   5   8  ar  
  9   6   9  1   
 10   6  23  1   
 11   6  24  1   
 12   7  10  ar  
 13   7  25  1   
 14   8  11  ar  
 15   8  26  1   
 16   9  12  2   
 17   9  27  1   
 18  10  13  ar  
 19  10  28  1   
 20  11  13  ar  
 21  11  29  1   
 22  12  30  1   
 23  12  31  1   
 24  13  14  1   
 25  14  15  am  
 26  14  32  1   
 27  15  16  2   
 28  15  17  1   
 29  17  18  1   
 30  17  19  1   
 31  17  33  1   
 32  18  20  1   
 33  18  34  1   
 34  18  35  1   
 35  19  21  1   
 36  19  36  1   
 37  19  37  1   
 38  20  21  1   
 39  20  38  1   
 40  20  39  1   
 41  21  40  1   
 42  21  41  1   
@<TRIPOS>SUBSTRUCTURE
  1 ****  11 GROUP 4 **** **** 0

# MOE 2024.06 (io_trps.svl 2023.06)
