@<TRIPOS>MOLECULE
NONAME
42 43 1 0 0 
SMALL
USER_CHARGES


@<TRIPOS>ATOM
  1 CL      -0.9880     0.3280    -0.8280 Cl    1 <1>  -0.1770 
  2 C       -0.9080     2.0510    -0.5480 C.ar  1 <1>   0.1770 
  3 C       -2.0810     2.7820    -0.5020 C.ar  1 <1>  -0.1440 
  4 C        0.3250     2.6420    -0.3580 C.ar  1 <1>  -0.1500 
  5 C       -2.0010     4.1420    -0.2570 C.ar  1 <1>  -0.1500 
  6 C       -3.4190     2.1130    -0.7110 C.3   1 <1>   0.4870 
  7 C        0.4090     4.0100    -0.1070 C.ar  1 <1>   0.0820 
  8 C       -0.7780     4.7660    -0.0610 C.ar  1 <1>   0.0820 
  9 N       -3.7600     1.4110     0.5450 N.4   1 <1>  -0.9060 
 10 O        1.6160     4.6080     0.1060 O.3   1 <1>  -0.3620 
 11 O       -0.8830     6.1060     0.1700 O.3   1 <1>  -0.3620 
 12 C       -5.0800     0.7710     0.5140 C.3   1 <1>   0.5660 
 13 C        2.8400     3.9070     0.0450 C.3   1 <1>   0.0400 
 14 C        0.2020     6.9980     0.0360 C.3   1 <1>   0.0400 
 15 C       -6.1290     1.8370     0.2340 C.ar  1 <1>  -0.1440 
 16 C       -5.3070     0.0710     1.8470 C.3   1 <1>  -0.2400 
 17 C       -6.8830     1.7500    -0.9290 C.ar  1 <1>  -0.1500 
 18 C       -6.3390     2.9070     1.0980 C.ar  1 <1>  -0.1500 
 19 C       -7.8220     2.7200    -1.2290 C.ar  1 <1>  -0.1500 
 20 C       -7.2790     3.8760     0.7950 C.ar  1 <1>  -0.1500 
 21 C       -8.0190     3.7840    -0.3690 C.ar  1 <1>  -0.1500 
 22 H        1.1960     2.0170    -0.4070 H     1 <1>   0.1500 
 23 H       -2.8880     4.7530    -0.2170 H     1 <1>   0.1500 
 24 H       -3.3580     1.4140    -1.5310 H     1 <1>   0.0800 
 25 H       -4.1650     2.8560    -0.9440 H     1 <1>   0.0800 
 26 H       -3.7520     2.1000     1.3020 H     1 <1>   0.4500 
 27 H       -3.0330     0.7170     0.7470 H     1 <1>   0.4500 
 28 H       -5.1070     0.0360    -0.2760 H     1 <1>   0.0800 
 29 H        3.6340     4.6070     0.2350 H     1 <1>   0.0800 
 30 H        2.9550     3.4850    -0.9370 H     1 <1>   0.0800 
 31 H        2.8450     3.1410     0.8010 H     1 <1>   0.0800 
 32 H       -0.1830     8.0010     0.0610 H     1 <1>   0.0800 
 33 H        0.6930     6.8160    -0.9040 H     1 <1>   0.0800 
 34 H        0.8800     6.8490     0.8580 H     1 <1>   0.0800 
 35 H       -5.2490     0.7580     2.6720 H     1 <1>   0.0800 
 36 H       -4.5920    -0.7200     1.9860 H     1 <1>   0.0800 
 37 H       -6.2890    -0.3690     1.8500 H     1 <1>   0.0800 
 38 H       -6.7560     0.9300    -1.6160 H     1 <1>   0.1500 
 39 H       -5.7880     3.0080     2.0170 H     1 <1>   0.1500 
 40 H       -8.4060     2.6500    -2.1320 H     1 <1>   0.1500 
 41 H       -7.4420     4.7040     1.4660 H     1 <1>   0.1500 
 42 H       -8.7520     4.5390    -0.6030 H     1 <1>   0.1500 
@<TRIPOS>BOND
  1   1   2  1   
  2   2   3  ar  
  3   2   4  ar  
  4   3   5  ar  
  5   3   6  1   
  6   4   7  ar  
  7   4  22  1   
  8   5   8  ar  
  9   5  23  1   
 10   6   9  1   
 11   6  24  1   
 12   6  25  1   
 13   7   8  ar  
 14   7  10  1   
 15   8  11  1   
 16   9  12  1   
 17   9  26  1   
 18   9  27  1   
 19  10  13  1   
 20  11  14  1   
 21  12  15  1   
 22  12  16  1   
 23  12  28  1   
 24  13  29  1   
 25  13  30  1   
 26  13  31  1   
 27  14  32  1   
 28  14  33  1   
 29  14  34  1   
 30  15  17  ar  
 31  15  18  ar  
 32  16  35  1   
 33  16  36  1   
 34  16  37  1   
 35  17  19  ar  
 36  17  38  1   
 37  18  20  ar  
 38  18  39  1   
 39  19  21  ar  
 40  19  40  1   
 41  20  21  ar  
 42  20  41  1   
 43  21  42  1   
@<TRIPOS>SUBSTRUCTURE
  1 ****   3 GROUP 4 **** **** 0

# MOE 2024.06 (io_trps.svl 2023.06)
