@<TRIPOS>MOLECULE
NONAME
46 46 1 0 0 
SMALL
USER_CHARGES


@<TRIPOS>ATOM
  1 O        0.9660    -1.3220     0.0910 O.3   1 <1>  -0.3630 
  2 C       -0.2680    -1.5740    -0.4240 C.ar  1 <1>   0.0830 
  3 C        2.0600    -0.9770    -0.7210 C.3   1 <1>   0.1200 
  4 C       -1.2830    -1.9520     0.4590 C.ar  1 <1>  -0.1440 
  5 C       -0.5360    -1.4730    -1.7870 C.ar  1 <1>  -0.1500 
  6 C        3.2720    -0.8000     0.1960 C.3   1 <1>  -0.1600 
  7 C       -2.5520    -2.2440    -0.0380 C.ar  1 <1>  -0.1440 
  8 C       -0.9910    -2.0520     1.9570 C.3   1 <1>  -0.0960 
  9 C       -1.7990    -1.7530    -2.2690 C.ar  1 <1>  -0.1500 
 10 C        4.5360    -0.4240    -0.5900 C.3   1 <1>  -0.1600 
 11 C       -2.8000    -2.1380    -1.3980 C.ar  1 <1>  -0.1500 
 12 C       -3.6950    -2.6860     0.8670 C.3   1 <1>  -0.0970 
 13 C        5.7220    -0.2580     0.3580 C.3   1 <1>   0.3430 
 14 N        6.9280     0.1050    -0.4300 N.4   1 <1>  -0.9060 
 15 C        8.1710     0.3060     0.3200 C.3   1 <1>   0.5030 
 16 C        9.2380     0.6620    -0.7090 C.3   1 <1>  -0.2400 
 17 C        8.5550    -0.9860     1.0410 C.3   1 <1>  -0.2400 
 18 C        7.9980     1.4580     1.3090 C.3   1 <1>  -0.2400 
 19 H        1.8240    -0.0610    -1.2340 H     1 <1>   0.0800 
 20 H        2.2200    -1.7750    -1.4270 H     1 <1>   0.0800 
 21 H        0.2180    -1.1800    -2.4900 H     1 <1>   0.1500 
 22 H        3.4340    -1.7240     0.7260 H     1 <1>   0.0800 
 23 H        3.0450    -0.0290     0.9130 H     1 <1>   0.0800 
 24 H       -0.1960    -1.3890     2.2450 H     1 <1>   0.0800 
 25 H       -0.7030    -3.0580     2.2000 H     1 <1>   0.0800 
 26 H       -1.8490    -1.7810     2.5420 H     1 <1>   0.0800 
 27 H       -2.0060    -1.6730    -3.3220 H     1 <1>   0.1500 
 28 H        4.3570     0.4990    -1.1160 H     1 <1>   0.0800 
 29 H        4.7460    -1.2010    -1.3050 H     1 <1>   0.0800 
 30 H       -3.7770    -2.3560    -1.7900 H     1 <1>   0.1500 
 31 H       -3.3750    -3.4920     1.5010 H     1 <1>   0.0800 
 32 H       -4.5340    -3.0300     0.2900 H     1 <1>   0.0800 
 33 H       -4.0180    -1.8620     1.4770 H     1 <1>   0.0800 
 34 H        5.8880    -1.1810     0.8900 H     1 <1>   0.0800 
 35 H        5.5010     0.5150     1.0770 H     1 <1>   0.0800 
 36 H        6.7430     0.9670    -0.9500 H     1 <1>   0.4500 
 37 H        7.1070    -0.6260    -1.1250 H     1 <1>   0.4500 
 38 H        9.3760    -0.1340    -1.4200 H     1 <1>   0.0800 
 39 H       10.1820     0.8230    -0.2170 H     1 <1>   0.0800 
 40 H        8.9880     1.5670    -1.2340 H     1 <1>   0.0800 
 41 H        8.6290    -1.8080     0.3520 H     1 <1>   0.0800 
 42 H        7.8530    -1.2320     1.8170 H     1 <1>   0.0800 
 43 H        9.5160    -0.8650     1.5100 H     1 <1>   0.0800 
 44 H        7.2950     1.2140     2.0850 H     1 <1>   0.0800 
 45 H        8.9380     1.6670     1.7880 H     1 <1>   0.0800 
 46 H        7.6800     2.3550     0.8090 H     1 <1>   0.0800 
@<TRIPOS>BOND
  1   1   2  1   
  2   1   3  1   
  3   2   4  ar  
  4   2   5  ar  
  5   3   6  1   
  6   3  19  1   
  7   3  20  1   
  8   4   7  ar  
  9   4   8  1   
 10   5   9  ar  
 11   5  21  1   
 12   6  10  1   
 13   6  22  1   
 14   6  23  1   
 15   7  11  ar  
 16   7  12  1   
 17   8  24  1   
 18   8  25  1   
 19   8  26  1   
 20   9  11  ar  
 21   9  27  1   
 22  10  13  1   
 23  10  28  1   
 24  10  29  1   
 25  11  30  1   
 26  12  31  1   
 27  12  32  1   
 28  12  33  1   
 29  13  14  1   
 30  13  34  1   
 31  13  35  1   
 32  14  15  1   
 33  14  36  1   
 34  14  37  1   
 35  15  16  1   
 36  15  17  1   
 37  15  18  1   
 38  16  38  1   
 39  16  39  1   
 40  16  40  1   
 41  17  41  1   
 42  17  42  1   
 43  17  43  1   
 44  18  44  1   
 45  18  45  1   
 46  18  46  1   
@<TRIPOS>SUBSTRUCTURE
  1 ****   3 GROUP 4 **** **** 0

# MOE 2024.06 (io_trps.svl 2023.06)
