@<TRIPOS>MOLECULE
NONAME
36 37 1 0 0 
SMALL
USER_CHARGES


@<TRIPOS>ATOM
  1 BR      -2.0290    -1.1410    -3.4850 Br    1 <1>  -0.0580 
  2 C       -2.8480    -0.7520    -1.7910 C.2   1 <1>   0.0980 
  3 S       -4.4390    -1.4320    -1.5350 S.3   1 <1>  -0.0800 
  4 C       -2.4060    -0.0350    -0.7450 C.2   1 <1>  -0.1500 
  5 C       -4.4940    -0.6970     0.0690 C.2   1 <1>  -0.1400 
  6 C       -3.3600    -0.0090     0.3240 C.2   1 <1>  -0.1500 
  7 C       -5.7450    -0.9330     0.8990 C.3   1 <1>   0.2900 
  8 N       -6.9390    -0.3180     0.2800 N.3   1 <1>  -0.8100 
  9 C       -8.1870    -0.6680     1.0330 C.3   1 <1>   0.2510 
 10 C       -6.7780     1.1420     0.1440 C.3   1 <1>   0.1100 
 11 C       -8.3890    -2.1770     1.3020 C.2   1 <1>   0.6590 
 12 C       -9.4110    -0.0840     0.3020 C.3   1 <1>  -0.1600 
 13 C       -7.9680     1.7460    -0.6040 C.3   1 <1>  -0.1600 
 14 O       -8.2170    -2.6410     2.4030 O.2   1 <1>  -0.5700 
 15 O       -8.7450    -2.9410     0.2730 O.3   1 <1>  -0.4300 
 16 C       -9.2900     1.4300     0.0990 C.3   1 <1>  -0.1600 
 17 C       -8.9120    -4.3320     0.4070 C.3   1 <1>   0.1200 
 18 C       -9.3070    -4.8920    -0.9560 C.3   1 <1>  -0.2400 
 19 H       -1.4600     0.4700    -0.6810 H     1 <1>   0.1500 
 20 H       -3.1480     0.5270     1.2330 H     1 <1>   0.1500 
 21 H       -5.6020    -0.5340     1.8890 H     1 <1>   0.0800 
 22 H       -5.8780    -1.9980     0.9830 H     1 <1>   0.0800 
 23 H       -8.1300    -0.1980     2.0000 H     1 <1>   0.0800 
 24 H       -5.8850     1.3630    -0.4160 H     1 <1>   0.0800 
 25 H       -6.6880     1.5940     1.1180 H     1 <1>   0.0800 
 26 H      -10.3010    -0.2980     0.8670 H     1 <1>   0.0800 
 27 H       -9.5070    -0.5660    -0.6560 H     1 <1>   0.0800 
 28 H       -7.9820     1.3490    -1.6050 H     1 <1>   0.0800 
 29 H       -7.8410     2.8110    -0.6750 H     1 <1>   0.0800 
 30 H       -9.3190     1.9270     1.0540 H     1 <1>   0.0800 
 31 H      -10.1150     1.7880    -0.4920 H     1 <1>   0.0800 
 32 H       -9.6800    -4.5150     1.1390 H     1 <1>   0.0800 
 33 H       -7.9810    -4.7560     0.7430 H     1 <1>   0.0800 
 34 H      -10.2310    -4.4510    -1.2840 H     1 <1>   0.0800 
 35 H       -9.4380    -5.9560    -0.8880 H     1 <1>   0.0800 
 36 H       -8.5350    -4.6860    -1.6770 H     1 <1>   0.0800 
@<TRIPOS>BOND
  1   1   2  1   
  2   2   3  1   
  3   2   4  2   
  4   3   5  1   
  5   4   6  1   
  6   4  19  1   
  7   5   6  2   
  8   5   7  1   
  9   6  20  1   
 10   7   8  1   
 11   7  21  1   
 12   7  22  1   
 13   8   9  1   
 14   8  10  1   
 15   9  11  1   
 16   9  12  1   
 17   9  23  1   
 18  10  13  1   
 19  10  24  1   
 20  10  25  1   
 21  11  14  2   
 22  11  15  1   
 23  12  16  1   
 24  12  26  1   
 25  12  27  1   
 26  13  16  1   
 27  13  28  1   
 28  13  29  1   
 29  15  17  1   
 30  16  30  1   
 31  16  31  1   
 32  17  18  1   
 33  17  32  1   
 34  17  33  1   
 35  18  34  1   
 36  18  35  1   
 37  18  36  1   
@<TRIPOS>SUBSTRUCTURE
  1 ****   8 GROUP 4 **** **** 0

# MOE 2024.06 (io_trps.svl 2023.06)
