@<TRIPOS>MOLECULE
NONAME
44 47 1 0 0 
SMALL
USER_CHARGES


@<TRIPOS>ATOM
  1 O       -2.5230    -3.5000     3.2160 O.co2 1 <1>  -0.9000 
  2 C       -1.9220    -3.7090     2.1610 C.2   1 <1>   0.9060 
  3 O       -1.2630    -4.7380     1.9590 O.co2 1 <1>  -0.9000 
  4 C       -1.8870    -2.6620     1.0790 C.3   1 <1>  -0.1860 
  5 C       -2.9930    -1.5980     1.1040 C.3   1 <1>   0.1530 
  6 C       -1.9910    -3.2620    -0.3610 C.3   1 <1>  -0.0190 
  7 C       -4.3300    -2.2540     0.7960 C.2   1 <1>  -0.2880 
  8 C       -2.7350    -1.0150    -0.2800 C.3   1 <1>  -0.1900 
  9 C       -0.6270    -3.4390    -1.0040 C.2   1 <1>   0.5690 
 10 C       -2.9710    -2.2990    -1.0690 C.3   1 <1>   0.1530 
 11 C       -4.3290    -2.6400    -0.4800 C.2   1 <1>  -0.2880 
 12 C       -3.1900     0.3330    -0.7250 C.3   1 <1>  -0.2000 
 13 C       -1.7120     0.0180    -0.6100 C.3   1 <1>  -0.2000 
 14 O       -0.3640    -2.8730    -2.0420 O.2   1 <1>  -0.5700 
 15 N        0.2430    -4.2710    -0.3580 N.am  1 <1>  -0.5470 
 16 C        1.5750    -4.6110    -0.6700 C.ar  1 <1>   0.1170 
 17 C        2.0990    -5.9120    -0.5410 C.ar  1 <1>   0.0830 
 18 C        2.4250    -3.6110    -1.1320 C.ar  1 <1>  -0.1500 
 19 O        1.4020    -7.0030    -0.1160 O.3   1 <1>  -0.3630 
 20 C        3.4180    -6.1650    -0.8840 C.ar  1 <1>  -0.1500 
 21 C        3.7420    -3.8720    -1.4650 C.ar  1 <1>  -0.1500 
 22 C        0.5260    -6.9170     0.9850 C.3   1 <1>   0.1200 
 23 C        4.2420    -5.1540    -1.3430 C.ar  1 <1>  -0.1500 
 24 C        0.4820    -8.2810     1.6650 C.3   1 <1>  -0.2400 
 25 H       -0.9480    -2.1550     1.1900 H     1 <1>   0.0800 
 26 H       -2.9770    -0.8980     1.9210 H     1 <1>   0.0800 
 27 H       -2.4460    -4.2370    -0.3240 H     1 <1>   0.0800 
 28 H       -5.0660    -2.3510     1.5750 H     1 <1>   0.1500 
 29 H       -2.9220    -2.2210    -2.1410 H     1 <1>   0.0800 
 30 H       -5.0730    -3.1440    -1.0690 H     1 <1>   0.1500 
 31 H       -3.6450     0.9840     0.0010 H     1 <1>   0.1000 
 32 H       -3.6270     0.4310    -1.7030 H     1 <1>   0.1000 
 33 H       -1.1280    -0.1170    -1.5050 H     1 <1>   0.1000 
 34 H       -1.1460     0.4550     0.1940 H     1 <1>   0.1000 
 35 H       -0.1480    -4.6730     0.5180 H     1 <1>   0.3700 
 36 H        2.0460    -2.6100    -1.2350 H     1 <1>   0.1500 
 37 H        3.7950    -7.1670    -0.7870 H     1 <1>   0.1500 
 38 H        4.3720    -3.0760    -1.8210 H     1 <1>   0.1500 
 39 H       -0.4500    -6.6510     0.6190 H     1 <1>   0.0800 
 40 H        0.8840    -6.1640     1.6670 H     1 <1>   0.0800 
 41 H        5.2650    -5.3660    -1.6040 H     1 <1>   0.1500 
 42 H        0.1270    -9.0260     0.9770 H     1 <1>   0.0800 
 43 H       -0.1910    -8.2340     2.5020 H     1 <1>   0.0800 
 44 H        1.4600    -8.5470     2.0220 H     1 <1>   0.0800 
@<TRIPOS>BOND
  1   1   2  ar  
  2   2   3  ar  
  3   2   4  1   
  4   4   5  1   
  5   4   6  1   
  6   4  25  1   
  7   5   7  1   
  8   5   8  1   
  9   5  26  1   
 10   6   9  1   
 11   6  10  1   
 12   6  27  1   
 13   7  11  2   
 14   7  28  1   
 15   8  10  1   
 16   8  12  1   
 17   8  13  1   
 18   9  14  2   
 19   9  15  am  
 20  10  11  1   
 21  10  29  1   
 22  11  30  1   
 23  12  13  1   
 24  12  31  1   
 25  12  32  1   
 26  13  33  1   
 27  13  34  1   
 28  15  16  1   
 29  15  35  1   
 30  16  17  ar  
 31  16  18  ar  
 32  17  19  1   
 33  17  20  ar  
 34  18  21  ar  
 35  18  36  1   
 36  19  22  1   
 37  20  23  ar  
 38  20  37  1   
 39  21  23  ar  
 40  21  38  1   
 41  22  24  1   
 42  22  39  1   
 43  22  40  1   
 44  23  41  1   
 45  24  42  1   
 46  24  43  1   
 47  24  44  1   
@<TRIPOS>SUBSTRUCTURE
  1 ****  15 GROUP 4 **** **** 0

# MOE 2024.06 (io_trps.svl 2023.06)
