@<TRIPOS>MOLECULE
NONAME
39 40 1 0 0 
SMALL
USER_CHARGES


@<TRIPOS>ATOM
  1 S        0.5280     0.3810     0.2980 S.3   1 <1>  -0.3320 
  2 C       -1.1210     1.1010     0.2000 C.ar  1 <1>   0.1020 
  3 C        1.2970     0.5920    -1.3820 C.3   1 <1>   0.1310 
  4 C       -1.8410     1.1800     1.3770 C.ar  1 <1>  -0.1500 
  5 C       -1.6580     1.5620    -0.9920 C.ar  1 <1>  -0.1500 
  6 C        2.7460     0.1110    -1.3910 C.2   1 <1>   0.5690 
  7 C       -3.1090     1.7340     1.3680 C.ar  1 <1>  -0.1500 
  8 C       -2.9270     2.1160    -0.9930 C.ar  1 <1>  -0.1500 
  9 O        3.0390    -0.7180    -2.2180 O.2   1 <1>  -0.5700 
 10 N        3.7000     0.6060    -0.5270 N.am  1 <1>  -0.6600 
 11 C       -3.6560     2.2070     0.1840 C.ar  1 <1>  -0.1430 
 12 C        5.0320    -0.0700    -0.4120 C.3   1 <1>   0.1400 
 13 C        3.4860     1.7410     0.4260 C.3   1 <1>   0.1400 
 14 C       -5.0480     2.8130     0.1770 C.3   1 <1>  -0.0970 
 15 C        6.1850     0.9480    -0.4310 C.3   1 <1>   0.3430 
 16 C        4.6770     2.7210     0.4210 C.3   1 <1>   0.3430 
 17 N        5.9990     2.0250     0.6060 N.4   1 <1>  -0.9590 
 18 C        7.1330     2.9990     0.5770 C.3   1 <1>   0.2630 
 19 H        1.2400     1.6320    -1.6410 H     1 <1>   0.0800 
 20 H        0.7120     0.0080    -2.0680 H     1 <1>   0.0800 
 21 H       -1.4150     0.8110     2.2920 H     1 <1>   0.1500 
 22 H       -1.1200     1.4970    -1.9160 H     1 <1>   0.1500 
 23 H       -3.6690     1.7950     2.2850 H     1 <1>   0.1500 
 24 H       -3.3500     2.4740    -1.9150 H     1 <1>   0.1500 
 25 H        5.1780    -0.7670    -1.2200 H     1 <1>   0.0800 
 26 H        5.0610    -0.6360     0.5040 H     1 <1>   0.0800 
 27 H        3.3450     1.3450     1.4180 H     1 <1>   0.0800 
 28 H        2.5980     2.2890     0.1670 H     1 <1>   0.0800 
 29 H       -5.7790     2.0430     0.0090 H     1 <1>   0.0800 
 30 H       -5.1350     3.5500    -0.6020 H     1 <1>   0.0800 
 31 H       -5.2550     3.2900     1.1180 H     1 <1>   0.0800 
 32 H        6.2320     1.3900    -1.4120 H     1 <1>   0.0800 
 33 H        7.1140     0.4280    -0.2590 H     1 <1>   0.0800 
 34 H        4.5340     3.4490     1.2030 H     1 <1>   0.0800 
 35 H        4.6770     3.2470    -0.5200 H     1 <1>   0.0800 
 36 H        5.9820     1.5640     1.5280 H     1 <1>   0.4500 
 37 H        7.1780     3.4940    -0.3800 H     1 <1>   0.0800 
 38 H        8.0690     2.4900     0.7440 H     1 <1>   0.0800 
 39 H        7.0080     3.7440     1.3450 H     1 <1>   0.0800 
@<TRIPOS>BOND
  1   1   2  1   
  2   1   3  1   
  3   2   4  ar  
  4   2   5  ar  
  5   3   6  1   
  6   3  19  1   
  7   3  20  1   
  8   4   7  ar  
  9   4  21  1   
 10   5   8  ar  
 11   5  22  1   
 12   6   9  2   
 13   6  10  am  
 14   7  11  ar  
 15   7  23  1   
 16   8  11  ar  
 17   8  24  1   
 18  10  12  1   
 19  10  13  1   
 20  11  14  1   
 21  12  15  1   
 22  12  25  1   
 23  12  26  1   
 24  13  16  1   
 25  13  27  1   
 26  13  28  1   
 27  14  29  1   
 28  14  30  1   
 29  14  31  1   
 30  15  17  1   
 31  15  32  1   
 32  15  33  1   
 33  16  17  1   
 34  16  34  1   
 35  16  35  1   
 36  17  18  1   
 37  17  36  1   
 38  18  37  1   
 39  18  38  1   
 40  18  39  1   
@<TRIPOS>SUBSTRUCTURE
  1 ****   1 GROUP 4 **** **** 0

# MOE 2024.06 (io_trps.svl 2023.06)
