@<TRIPOS>MOLECULE
NONAME
32 32 1 0 0 
SMALL
USER_CHARGES


@<TRIPOS>ATOM
  1 O        0.4380    -0.6140     0.9880 O.2   1 <1>  -0.5700 
  2 C        0.2980    -1.6990     0.4560 C.2   1 <1>   0.5440 
  3 N        1.3970    -2.2820    -0.1490 N.am  1 <1>  -0.6600 
  4 C       -1.0040    -2.3400     0.4820 C.ar  1 <1>   0.0860 
  5 C        2.7370    -1.6290    -0.0780 C.3   1 <1>   0.1400 
  6 C        1.3090    -3.4600    -1.0600 C.3   1 <1>   0.0600 
  7 C       -2.1300    -1.6890    -0.0150 C.ar  1 <1>  -0.1500 
  8 C       -1.1800    -3.6200     1.0020 C.ar  1 <1>  -0.1500 
  9 C        3.3590    -1.8450     1.3020 C.3   1 <1>   0.0400 
 10 C       -3.3810    -2.2840    -0.0170 C.ar  1 <1>  -0.1440 
 11 C       -2.4210    -4.2260     1.0070 C.ar  1 <1>  -0.1500 
 12 C        4.7410    -1.3000     1.3270 C.1   1 <1>   0.3570 
 13 C       -3.5290    -3.5680     0.4970 C.ar  1 <1>  -0.1440 
 14 C       -4.5660    -1.5110    -0.5790 C.3   1 <1>  -0.0960 
 15 N        5.8040    -0.8970     1.3250 N.1   1 <1>  -0.5570 
 16 C       -4.8810    -4.2660     0.5180 C.3   1 <1>  -0.0970 
 17 H        2.6290    -0.5730    -0.2650 H     1 <1>   0.0800 
 18 H        3.3830    -2.0350    -0.8380 H     1 <1>   0.0800 
 19 H        0.2860    -3.7050    -1.2830 H     1 <1>   0.0800 
 20 H        1.7810    -4.3110    -0.6000 H     1 <1>   0.0800 
 21 H        1.8070    -3.2410    -1.9900 H     1 <1>   0.0800 
 22 H       -2.0050    -0.6930    -0.4020 H     1 <1>   0.1500 
 23 H       -0.3310    -4.1390     1.4090 H     1 <1>   0.1500 
 24 H        3.3990    -2.8940     1.5270 H     1 <1>   0.0800 
 25 H        2.7770    -1.3430     2.0530 H     1 <1>   0.0800 
 26 H       -2.5220    -5.2170     1.4150 H     1 <1>   0.1500 
 27 H       -4.2650    -0.5380    -0.9230 H     1 <1>   0.0800 
 28 H       -5.3150    -1.3820     0.1810 H     1 <1>   0.0800 
 29 H       -4.9940    -2.0450    -1.4080 H     1 <1>   0.0800 
 30 H       -5.5780    -3.7000     1.1090 H     1 <1>   0.0800 
 31 H       -4.8010    -5.2510     0.9420 H     1 <1>   0.0800 
 32 H       -5.2630    -4.3600    -0.4820 H     1 <1>   0.0800 
@<TRIPOS>BOND
  1   1   2  2   
  2   2   3  am  
  3   2   4  1   
  4   3   5  1   
  5   3   6  1   
  6   4   7  ar  
  7   4   8  ar  
  8   5   9  1   
  9   5  17  1   
 10   5  18  1   
 11   6  19  1   
 12   6  20  1   
 13   6  21  1   
 14   7  10  ar  
 15   7  22  1   
 16   8  11  ar  
 17   8  23  1   
 18   9  12  1   
 19   9  24  1   
 20   9  25  1   
 21  10  13  ar  
 22  10  14  1   
 23  11  13  ar  
 24  11  26  1   
 25  12  15  3   
 26  13  16  1   
 27  14  27  1   
 28  14  28  1   
 29  14  29  1   
 30  16  30  1   
 31  16  31  1   
 32  16  32  1   
@<TRIPOS>SUBSTRUCTURE
  1 ****   2 GROUP 4 **** **** 0

# MOE 2024.06 (io_trps.svl 2023.06)
