@<TRIPOS>MOLECULE
NONAME
40 41 1 0 0 
SMALL
USER_CHARGES


@<TRIPOS>ATOM
  1 CL      -0.2150     0.3700     0.8840 Cl    1 <1>  -0.1770 
  2 C        1.3840     1.0490     0.6610 C.ar  1 <1>   0.1770 
  3 C        1.5390     2.3420     0.1770 C.ar  1 <1>  -0.1440 
  4 C        2.4680     0.2530     0.9840 C.ar  1 <1>  -0.1500 
  5 C        2.8350     2.8210     0.0230 C.ar  1 <1>  -0.1500 
  6 C        0.2940     3.1680    -0.1590 C.3   1 <1>  -0.0160 
  7 C        3.7510     0.7450     0.8240 C.ar  1 <1>  -0.1500 
  8 C        3.9360     2.0380     0.3400 C.ar  1 <1>   0.0830 
  9 C        0.5620     4.5830    -0.6850 C.3   1 <1>  -0.2400 
 10 O        5.1560     2.6010     0.1500 O.3   1 <1>  -0.3620 
 11 C        6.3430     1.8780     0.3860 C.3   1 <1>   0.1200 
 12 C        7.5260     2.8010     0.0820 C.3   1 <1>   0.1100 
 13 N        8.8250     2.1170     0.2800 N.3   1 <1>  -0.8100 
 14 C        9.1500     1.2030    -0.8370 C.3   1 <1>   0.1100 
 15 C        9.9020     3.1030     0.5050 C.3   1 <1>   0.1100 
 16 C       10.4940     0.4830    -0.6000 C.3   1 <1>   0.3430 
 17 C       11.2540     2.4090     0.7640 C.3   1 <1>   0.3430 
 18 N       11.6050     1.4580    -0.3420 N.4   1 <1>  -0.9060 
 19 H        2.3030    -0.7410     1.3570 H     1 <1>   0.1500 
 20 H        3.0250     3.8110    -0.3460 H     1 <1>   0.1500 
 21 H       -0.3140     3.2460     0.7260 H     1 <1>   0.0800 
 22 H       -0.2800     2.6350    -0.8980 H     1 <1>   0.0800 
 23 H        4.5800     0.1140     1.0820 H     1 <1>   0.1500 
 24 H        1.1000     5.1600     0.0470 H     1 <1>   0.0800 
 25 H       -0.3700     5.0790    -0.8900 H     1 <1>   0.0800 
 26 H        1.1330     4.5430    -1.5960 H     1 <1>   0.0800 
 27 H        6.3410     1.0200    -0.2610 H     1 <1>   0.0800 
 28 H        6.3600     1.5800     1.4190 H     1 <1>   0.0800 
 29 H        7.4560     3.6390     0.7560 H     1 <1>   0.0800 
 30 H        7.4500     3.1700    -0.9270 H     1 <1>   0.0800 
 31 H        9.1900     1.7520    -1.7630 H     1 <1>   0.0800 
 32 H        8.3790     0.4580    -0.9300 H     1 <1>   0.0800 
 33 H        9.6570     3.7040     1.3650 H     1 <1>   0.0800 
 34 H        9.9850     3.7600    -0.3440 H     1 <1>   0.0800 
 35 H       10.7280    -0.1270    -1.4580 H     1 <1>   0.0800 
 36 H       10.3800    -0.1700     0.2500 H     1 <1>   0.0800 
 37 H       11.1830     1.8710     1.6960 H     1 <1>   0.0800 
 38 H       12.0250     3.1550     0.8700 H     1 <1>   0.0800 
 39 H       11.7800     1.9960    -1.1980 H     1 <1>   0.4500 
 40 H       12.4690     0.9530    -0.1100 H     1 <1>   0.4500 
@<TRIPOS>BOND
  1   1   2  1   
  2   2   3  ar  
  3   2   4  ar  
  4   3   5  ar  
  5   3   6  1   
  6   4   7  ar  
  7   4  19  1   
  8   5   8  ar  
  9   5  20  1   
 10   6   9  1   
 11   6  21  1   
 12   6  22  1   
 13   7   8  ar  
 14   7  23  1   
 15   8  10  1   
 16   9  24  1   
 17   9  25  1   
 18   9  26  1   
 19  10  11  1   
 20  11  12  1   
 21  11  27  1   
 22  11  28  1   
 23  12  13  1   
 24  12  29  1   
 25  12  30  1   
 26  13  14  1   
 27  13  15  1   
 28  14  16  1   
 29  14  31  1   
 30  14  32  1   
 31  15  17  1   
 32  15  33  1   
 33  15  34  1   
 34  16  18  1   
 35  16  35  1   
 36  16  36  1   
 37  17  18  1   
 38  17  37  1   
 39  17  38  1   
 40  18  39  1   
 41  18  40  1   
@<TRIPOS>SUBSTRUCTURE
  1 ****  10 GROUP 4 **** **** 0

# MOE 2024.06 (io_trps.svl 2023.06)
