@<TRIPOS>MOLECULE
NONAME
36 38 1 0 0 
SMALL
USER_CHARGES


@<TRIPOS>ATOM
  1 O       -1.5910     0.7050    -0.6160 O.3   1 <1>  -0.2800 
  2 C       -2.1470     0.9270     0.5610 C.2   1 <1>  -0.0400 
  3 C       -0.3840     1.2360    -0.5920 C.2   1 <1>  -0.0100 
  4 C       -1.3040     1.6140     1.3620 C.2   1 <1>  -0.1500 
  5 C       -3.5560     0.4190     0.7950 C.3   1 <1>   0.5230 
  6 C       -0.1440     1.8160     0.6030 C.2   1 <1>  -0.1500 
  7 N       -4.4080     0.8850    -0.3290 N.4   1 <1>  -0.9590 
  8 C       -4.5640     2.3860    -0.3010 C.3   1 <1>   0.3430 
  9 C       -5.7480     0.1980    -0.3430 C.3   1 <1>   0.3430 
 10 C       -5.4810     2.9120    -1.4280 C.3   1 <1>   0.2090 
 11 C       -6.6720     0.7140    -1.4690 C.3   1 <1>   0.2090 
 12 N       -6.7940     2.2010    -1.4380 N.pl3 1 <1>  -0.8380 
 13 C       -7.7420     2.7000    -0.5700 C.ar  1 <1>   0.4100 
 14 N       -7.5020     2.5280     0.7260 N.ar  1 <1>  -0.6200 
 15 C       -8.8690     3.3410    -1.0730 C.ar  1 <1>  -0.1500 
 16 C       -8.4260     3.0160     1.5420 C.ar  1 <1>   0.1600 
 17 C       -9.8160     3.8410    -0.2120 C.ar  1 <1>  -0.1500 
 18 C       -9.5780     3.6680     1.1360 C.ar  1 <1>  -0.1500 
 19 H        0.2430     1.1560    -1.4650 H     1 <1>   0.1500 
 20 H       -1.4400     1.9570     2.3740 H     1 <1>   0.1500 
 21 H       -3.9360     0.7820     1.7350 H     1 <1>   0.0800 
 22 H       -3.5370    -0.6580     0.8190 H     1 <1>   0.0800 
 23 H        0.7430     2.3290     0.9350 H     1 <1>   0.1500 
 24 H       -3.8870     0.6490    -1.1850 H     1 <1>   0.4500 
 25 H       -3.5990     2.8580    -0.3860 H     1 <1>   0.0800 
 26 H       -4.9960     2.6840     0.6400 H     1 <1>   0.0800 
 27 H       -6.2490     0.3720     0.5950 H     1 <1>   0.0800 
 28 H       -5.6180    -0.8660    -0.4560 H     1 <1>   0.0800 
 29 H       -4.9990     2.7870    -2.3820 H     1 <1>   0.0800 
 30 H       -5.6480     3.9660    -1.2810 H     1 <1>   0.0800 
 31 H       -7.6500     0.2760    -1.3510 H     1 <1>   0.0800 
 32 H       -6.2910     0.4070    -2.4280 H     1 <1>   0.0800 
 33 H       -8.9810     3.4350    -2.1370 H     1 <1>   0.1500 
 34 H       -8.2600     2.8930     2.5990 H     1 <1>   0.1500 
 35 H      -10.7000     4.3420    -0.5690 H     1 <1>   0.1500 
 36 H      -10.2800     4.0350     1.8640 H     1 <1>   0.1500 
@<TRIPOS>BOND
  1   1   2  1   
  2   1   3  1   
  3   2   4  2   
  4   2   5  1   
  5   3   6  2   
  6   3  19  1   
  7   4   6  1   
  8   4  20  1   
  9   5   7  1   
 10   5  21  1   
 11   5  22  1   
 12   6  23  1   
 13   7   8  1   
 14   7   9  1   
 15   7  24  1   
 16   8  10  1   
 17   8  25  1   
 18   8  26  1   
 19   9  11  1   
 20   9  27  1   
 21   9  28  1   
 22  10  12  1   
 23  10  29  1   
 24  10  30  1   
 25  11  12  1   
 26  11  31  1   
 27  11  32  1   
 28  12  13  1   
 29  13  14  ar  
 30  13  15  ar  
 31  14  16  ar  
 32  15  17  ar  
 33  15  33  1   
 34  16  18  ar  
 35  16  34  1   
 36  17  18  ar  
 37  17  35  1   
 38  18  36  1   
@<TRIPOS>SUBSTRUCTURE
  1 ****   8 GROUP 4 **** **** 0

# MOE 2024.06 (io_trps.svl 2023.06)
