@<TRIPOS>MOLECULE
NONAME
36 36 1 0 0 
SMALL
USER_CHARGES


@<TRIPOS>ATOM
  1 O        0.0060     0.2520     0.3980 O.2   1 <1>  -0.5700 
  2 C        0.0080     1.4580     0.2360 C.2   1 <1>   0.6900 
  3 N        1.1470     2.1950     0.4340 N.am  1 <1>  -0.6600 
  4 N       -1.1240     2.0850    -0.1670 N.am  1 <1>  -0.7300 
  5 C        2.4730     1.5330     0.5650 C.3   1 <1>   0.1400 
  6 C        1.1620     3.6550     0.7170 C.3   1 <1>   0.1400 
  7 C       -2.4060     1.4130    -0.4470 C.3   1 <1>   0.1400 
  8 C        3.4820     2.2150    -0.3640 C.3   1 <1>  -0.1600 
  9 C        2.1510     4.3500    -0.2240 C.3   1 <1>  -0.1600 
 10 C       -3.5540     2.3540    -0.0830 C.3   1 <1>  -0.1600 
 11 C        3.5540     3.7310    -0.1180 C.3   1 <1>  -0.0800 
 12 C       -4.9150     1.6980    -0.3500 C.3   1 <1>  -0.1600 
 13 C        4.5150     4.3950    -1.1100 C.3   1 <1>  -0.2400 
 14 C       -6.0630     2.6420     0.0150 C.3   1 <1>  -0.2400 
 15 H       -1.0170     3.0270    -0.5280 H     1 <1>   0.3700 
 16 H        2.4010     0.4890     0.3100 H     1 <1>   0.0800 
 17 H        2.8010     1.6060     1.5880 H     1 <1>   0.0800 
 18 H        1.4680     3.8040     1.7380 H     1 <1>   0.0800 
 19 H        0.1830     4.0840     0.6020 H     1 <1>   0.0800 
 20 H       -2.4750     0.5070     0.1330 H     1 <1>   0.0800 
 21 H       -2.4490     1.1540    -1.4910 H     1 <1>   0.0800 
 22 H        3.1920     2.0210    -1.3820 H     1 <1>   0.0800 
 23 H        4.4510     1.7750    -0.2100 H     1 <1>   0.0800 
 24 H        2.1960     5.3950     0.0230 H     1 <1>   0.0800 
 25 H        1.7870     4.2640    -1.2330 H     1 <1>   0.0800 
 26 H       -3.4740     3.2560    -0.6650 H     1 <1>   0.0800 
 27 H       -3.4800     2.6070     0.9610 H     1 <1>   0.0800 
 28 H        3.9260     3.8970     0.8800 H     1 <1>   0.0800 
 29 H       -5.0000     0.7950     0.2310 H     1 <1>   0.0800 
 30 H       -4.9920     1.4330    -1.3910 H     1 <1>   0.0800 
 31 H        4.1770     4.2500    -2.1210 H     1 <1>   0.0800 
 32 H        5.5000     3.9740    -1.0140 H     1 <1>   0.0800 
 33 H        4.5790     5.4520    -0.9170 H     1 <1>   0.0800 
 34 H       -6.0190     2.9020     1.0590 H     1 <1>   0.0800 
 35 H       -7.0070     2.1640    -0.1770 H     1 <1>   0.0800 
 36 H       -6.0120     3.5440    -0.5700 H     1 <1>   0.0800 
@<TRIPOS>BOND
  1   1   2  2   
  2   2   3  am  
  3   2   4  am  
  4   3   5  1   
  5   3   6  1   
  6   4   7  1   
  7   4  15  1   
  8   5   8  1   
  9   5  16  1   
 10   5  17  1   
 11   6   9  1   
 12   6  18  1   
 13   6  19  1   
 14   7  10  1   
 15   7  20  1   
 16   7  21  1   
 17   8  11  1   
 18   8  22  1   
 19   8  23  1   
 20   9  11  1   
 21   9  24  1   
 22   9  25  1   
 23  10  12  1   
 24  10  26  1   
 25  10  27  1   
 26  11  13  1   
 27  11  28  1   
 28  12  14  1   
 29  12  29  1   
 30  12  30  1   
 31  13  31  1   
 32  13  32  1   
 33  13  33  1   
 34  14  34  1   
 35  14  35  1   
 36  14  36  1   
@<TRIPOS>SUBSTRUCTURE
  1 ****   2 GROUP 4 **** **** 0

# MOE 2024.06 (io_trps.svl 2023.06)
