@<TRIPOS>MOLECULE
NONAME
54 57 1 0 0 
SMALL
USER_CHARGES


@<TRIPOS>ATOM
  1 O       -1.2730    -1.4150     1.6170 O.2   1 <1>  -0.5700 
  2 C       -2.0390    -0.4710     1.4760 C.2   1 <1>   0.6160 
  3 N       -3.0690    -0.5410     0.5450 N.am  1 <1>  -0.4690 
  4 C       -1.9080     0.7070     2.2570 C.2   1 <1>  -0.1360 
  5 C       -3.9820     0.5080     0.4300 C.2   1 <1>  -0.0290 
  6 C       -3.0280    -1.6690    -0.4390 C.3   1 <1>   0.1400 
  7 C       -2.7780     1.7400     2.1230 C.2   1 <1>  -0.1500 
  8 C       -3.8370     1.6280     1.1930 C.2   1 <1>  -0.1500 
  9 C       -5.1640     0.3870    -0.5400 C.3   1 <1>   0.0580 
 10 C       -4.4020    -1.8900    -1.0800 C.3   1 <1>  -0.0800 
 11 C       -6.3930    -0.1270     0.2390 C.3   1 <1>   0.3430 
 12 C       -4.8280    -0.5490    -1.7030 C.3   1 <1>  -0.1600 
 13 C       -5.3460    -2.4090     0.0310 C.3   1 <1>   0.3430 
 14 N       -6.6160    -1.6250     0.1700 N.4   1 <1>  -0.9590 
 15 C       -7.6240    -2.0250    -0.8570 C.3   1 <1>   0.4860 
 16 C       -8.9480    -1.3600    -0.5360 C.ar  1 <1>  -0.1430 
 17 C       -9.7490    -1.8220     0.4970 C.ar  1 <1>  -0.1500 
 18 C       -9.3590    -0.2640    -1.2770 C.ar  1 <1>  -0.1500 
 19 C      -10.9520    -1.1870     0.7960 C.ar  1 <1>   0.0830 
 20 C      -10.5410     0.3950    -0.9900 C.ar  1 <1>   0.0830 
 21 O      -11.7620    -1.6100     1.8100 O.3   1 <1>  -0.3620 
 22 C      -11.3570    -0.0780     0.0470 C.ar  1 <1>   0.0830 
 23 O      -10.7860     1.4770    -1.7820 O.3   1 <1>  -0.3630 
 24 C      -11.5390    -2.8110     2.5150 C.3   1 <1>   0.0400 
 25 O      -12.5410     0.5250     0.3420 O.3   1 <1>  -0.3630 
 26 C      -11.5830     2.5560    -1.3410 C.3   1 <1>   0.0400 
 27 C      -13.6970    -0.1290    -0.1320 C.3   1 <1>   0.0400 
 28 H       -1.0870     0.7310     2.9490 H     1 <1>   0.1500 
 29 H       -2.7050    -2.5740     0.0500 H     1 <1>   0.0800 
 30 H       -2.2990    -1.4320    -1.1960 H     1 <1>   0.0800 
 31 H       -2.6860     2.6420     2.7060 H     1 <1>   0.1500 
 32 H       -4.5170     2.4600     1.1200 H     1 <1>   0.1500 
 33 H       -5.3920     1.3670    -0.9210 H     1 <1>   0.0800 
 34 H       -4.3020    -2.6380    -1.8470 H     1 <1>   0.0800 
 35 H       -7.2680     0.3850    -0.1230 H     1 <1>   0.0800 
 36 H       -6.2700     0.1630     1.2700 H     1 <1>   0.0800 
 37 H       -4.0230    -0.1330    -2.2860 H     1 <1>   0.0800 
 38 H       -5.6710    -0.6640    -2.3600 H     1 <1>   0.0800 
 39 H       -4.8150    -2.3540     0.9690 H     1 <1>   0.0800 
 40 H       -5.5680    -3.4500    -0.1440 H     1 <1>   0.0800 
 41 H       -7.0420    -1.8810     1.0700 H     1 <1>   0.4500 
 42 H       -7.7560    -3.0950    -0.8490 H     1 <1>   0.0800 
 43 H       -7.3000    -1.7340    -1.8410 H     1 <1>   0.0800 
 44 H       -9.4370    -2.6770     1.0670 H     1 <1>   0.1500 
 45 H       -8.7660     0.1100    -2.0930 H     1 <1>   0.1500 
 46 H      -12.3550    -2.9480     3.2010 H     1 <1>   0.0800 
 47 H      -10.6170    -2.7320     3.0620 H     1 <1>   0.0800 
 48 H      -11.5120    -3.6280     1.8160 H     1 <1>   0.0800 
 49 H      -11.3820     3.4030    -1.9720 H     1 <1>   0.0800 
 50 H      -11.3310     2.7890    -0.3210 H     1 <1>   0.0800 
 51 H      -12.6190     2.2820    -1.4240 H     1 <1>   0.0800 
 52 H      -14.5510     0.4740     0.1200 H     1 <1>   0.0800 
 53 H      -13.7790    -1.0920     0.3400 H     1 <1>   0.0800 
 54 H      -13.6220    -0.2380    -1.2000 H     1 <1>   0.0800 
@<TRIPOS>BOND
  1   1   2  2   
  2   2   3  am  
  3   2   4  1   
  4   3   5  1   
  5   3   6  1   
  6   4   7  2   
  7   4  28  1   
  8   5   8  2   
  9   5   9  1   
 10   6  10  1   
 11   6  29  1   
 12   6  30  1   
 13   7   8  1   
 14   7  31  1   
 15   8  32  1   
 16   9  11  1   
 17   9  12  1   
 18   9  33  1   
 19  10  12  1   
 20  10  13  1   
 21  10  34  1   
 22  11  14  1   
 23  11  35  1   
 24  11  36  1   
 25  12  37  1   
 26  12  38  1   
 27  13  14  1   
 28  13  39  1   
 29  13  40  1   
 30  14  15  1   
 31  14  41  1   
 32  15  16  1   
 33  15  42  1   
 34  15  43  1   
 35  16  17  ar  
 36  16  18  ar  
 37  17  19  ar  
 38  17  44  1   
 39  18  20  ar  
 40  18  45  1   
 41  19  21  1   
 42  19  22  ar  
 43  20  22  ar  
 44  20  23  1   
 45  21  24  1   
 46  22  25  1   
 47  23  26  1   
 48  24  46  1   
 49  24  47  1   
 50  24  48  1   
 51  25  27  1   
 52  26  49  1   
 53  26  50  1   
 54  26  51  1   
 55  27  52  1   
 56  27  53  1   
 57  27  54  1   
@<TRIPOS>SUBSTRUCTURE
  1 ****  11 GROUP 4 **** **** 0

# MOE 2024.06 (io_trps.svl 2023.06)
