@<TRIPOS>MOLECULE
NONAME
41 42 1 0 0 
SMALL
USER_CHARGES


@<TRIPOS>ATOM
  1 CL      -1.5640    -1.6900     1.8990 Cl    1 <1>  -0.1770 
  2 C       -0.9190    -2.0690     0.3200 C.ar  1 <1>   0.1770 
  3 C       -1.7580    -2.3330    -0.7570 C.ar  1 <1>  -0.0090 
  4 C        0.4620    -2.0930     0.2010 C.ar  1 <1>  -0.1500 
  5 S       -3.5570    -2.3020    -0.5860 S.o2  1 <1>   1.4470 
  6 C       -1.1600    -2.6280    -1.9790 C.ar  1 <1>  -0.1500 
  7 C        1.0400    -2.3890    -1.0210 C.ar  1 <1>  -0.1500 
  8 O       -3.9560    -1.0290    -0.0270 O.2   1 <1>  -0.6500 
  9 O       -4.1560    -2.7300    -1.8300 O.2   1 <1>  -0.6500 
 10 N       -3.8790    -3.5060     0.5610 N.am  1 <1>  -0.8490 
 11 C        0.2170    -2.6540    -2.0990 C.ar  1 <1>   0.1770 
 12 C       -5.2080    -3.3180     1.2150 C.3   1 <1>   0.2570 
 13 C       -3.6880    -4.8580     0.0240 C.3   1 <1>   0.1960 
 14 CL       0.9310    -3.0310    -3.6440 Cl    1 <1>  -0.1770 
 15 C       -6.4590    -3.6300     0.3630 C.2   1 <1>   0.5690 
 16 C       -3.5770    -5.8790     1.1540 C.3   1 <1>  -0.2400 
 17 O       -6.8070    -4.7890     0.3270 O.2   1 <1>  -0.5700 
 18 N       -7.1710    -2.6650    -0.3130 N.am  1 <1>  -0.6600 
 19 C       -8.2190    -3.0420    -1.3100 C.3   1 <1>   0.1400 
 20 C       -6.9620    -1.1850    -0.2440 C.3   1 <1>   0.1400 
 21 C       -9.4910    -2.2040    -1.1140 C.3   1 <1>   0.1200 
 22 C       -8.3030    -0.4400    -0.1270 C.3   1 <1>   0.1200 
 23 O       -9.1910    -0.8380    -1.1320 O.3   1 <1>  -0.5600 
 24 H        1.0740    -1.8820     1.0610 H     1 <1>   0.1500 
 25 H       -1.7650    -2.8380    -2.8450 H     1 <1>   0.1500 
 26 H        2.1090    -2.4150    -1.1400 H     1 <1>   0.1500 
 27 H       -5.2720    -2.3230     1.6090 H     1 <1>   0.0800 
 28 H       -5.2530    -3.9610     2.0740 H     1 <1>   0.0800 
 29 H       -2.7700    -4.8900    -0.5380 H     1 <1>   0.0800 
 30 H       -4.4870    -5.1230    -0.6510 H     1 <1>   0.0800 
 31 H       -4.5250    -6.0220     1.6380 H     1 <1>   0.0800 
 32 H       -2.8430    -5.5630     1.8730 H     1 <1>   0.0800 
 33 H       -3.2730    -6.8260     0.7480 H     1 <1>   0.0800 
 34 H       -8.4700    -4.0850    -1.2280 H     1 <1>   0.0800 
 35 H       -7.8350    -2.8740    -2.3020 H     1 <1>   0.0800 
 36 H       -6.4540    -0.8580    -1.1350 H     1 <1>   0.0800 
 37 H       -6.3590    -0.9150     0.6010 H     1 <1>   0.0800 
 38 H       -9.9600    -2.4440    -0.1750 H     1 <1>   0.0800 
 39 H      -10.1890    -2.3980    -1.9090 H     1 <1>   0.0800 
 40 H       -8.1470     0.6190    -0.2280 H     1 <1>   0.0800 
 41 H       -8.7590    -0.6320     0.8290 H     1 <1>   0.0800 
@<TRIPOS>BOND
  1   1   2  1   
  2   2   3  ar  
  3   2   4  ar  
  4   3   5  1   
  5   3   6  ar  
  6   4   7  ar  
  7   4  24  1   
  8   5   8  2   
  9   5   9  2   
 10   5  10  am  
 11   6  11  ar  
 12   6  25  1   
 13   7  11  ar  
 14   7  26  1   
 15  10  12  1   
 16  10  13  1   
 17  11  14  1   
 18  12  15  1   
 19  12  27  1   
 20  12  28  1   
 21  13  16  1   
 22  13  29  1   
 23  13  30  1   
 24  15  17  2   
 25  15  18  am  
 26  16  31  1   
 27  16  32  1   
 28  16  33  1   
 29  18  19  1   
 30  18  20  1   
 31  19  21  1   
 32  19  34  1   
 33  19  35  1   
 34  20  22  1   
 35  20  36  1   
 36  20  37  1   
 37  21  23  1   
 38  21  38  1   
 39  21  39  1   
 40  22  23  1   
 41  22  40  1   
 42  22  41  1   
@<TRIPOS>SUBSTRUCTURE
  1 ****   5 GROUP 4 **** **** 0

# MOE 2024.06 (io_trps.svl 2023.06)
