@<TRIPOS>MOLECULE
NONAME
34 35 1 0 0 
SMALL
USER_CHARGES


@<TRIPOS>ATOM
  1 O       -0.1710    -0.5570    -0.0060 O.co2 1 <1>  -0.9000 
  2 C       -0.9820    -1.5040    -0.0040 C.2   1 <1>   1.0320 
  3 O       -0.5170    -2.6610    -0.0030 O.co2 1 <1>  -0.9000 
  4 C       -2.4240    -1.2590    -0.0040 C.2   1 <1>  -0.0920 
  5 O       -3.2730    -2.3030    -0.0020 O.3   1 <1>  -0.2800 
  6 C       -3.1590    -0.1120    -0.0060 C.2   1 <1>  -0.1810 
  7 C       -4.5340    -1.8580    -0.0020 C.ar  1 <1>   0.1400 
  8 C       -4.5180    -0.4760    -0.0040 C.ar  1 <1>   0.0000 
  9 C       -2.6960     1.3350    -0.0080 C.3   1 <1>  -0.0590 
 10 C       -5.7360    -2.5830     0.0000 C.ar  1 <1>   0.0830 
 11 C       -5.7190     0.2320    -0.0050 C.ar  1 <1>  -0.1500 
 12 O       -5.8110    -3.9540     0.0020 O.3   1 <1>  -0.3630 
 13 C       -6.9310    -1.8650    -0.0010 C.ar  1 <1>   0.0830 
 14 C       -6.9110    -0.4590    -0.0030 C.ar  1 <1>  -0.1500 
 15 C       -4.6500    -4.7530     0.0020 C.3   1 <1>   0.1200 
 16 O       -8.1030    -2.5680     0.0010 O.3   1 <1>  -0.3630 
 17 C       -5.0840    -6.2160     0.0040 C.3   1 <1>  -0.2400 
 18 C       -9.3590    -1.9340     0.0010 C.3   1 <1>   0.1200 
 19 C      -10.4320    -3.0190     0.0030 C.3   1 <1>  -0.2400 
 20 H       -1.6240     1.4000    -0.0090 H     1 <1>   0.0800 
 21 H       -3.0640     1.8360     0.8670 H     1 <1>   0.0800 
 22 H       -3.0650     1.8330    -0.8850 H     1 <1>   0.0800 
 23 H       -5.6950     1.3070    -0.0070 H     1 <1>   0.1500 
 24 H       -7.8240     0.1030    -0.0040 H     1 <1>   0.1500 
 25 H       -4.0760    -4.5240     0.8830 H     1 <1>   0.0800 
 26 H       -4.0770    -4.5260    -0.8800 H     1 <1>   0.0800 
 27 H       -5.6650    -6.4250     0.8840 H     1 <1>   0.0800 
 28 H       -4.2150    -6.8480     0.0050 H     1 <1>   0.0800 
 29 H       -5.6660    -6.4270    -0.8740 H     1 <1>   0.0800 
 30 H       -9.4350    -1.3270    -0.8850 H     1 <1>   0.0800 
 31 H       -9.4340    -1.3240     0.8840 H     1 <1>   0.0800 
 32 H      -10.3340    -3.6330    -0.8740 H     1 <1>   0.0800 
 33 H      -11.4080    -2.5690     0.0030 H     1 <1>   0.0800 
 34 H      -10.3330    -3.6300     0.8820 H     1 <1>   0.0800 
@<TRIPOS>BOND
  1   1   2  ar  
  2   2   3  ar  
  3   2   4  1   
  4   4   5  1   
  5   4   6  2   
  6   5   7  1   
  7   6   8  1   
  8   6   9  1   
  9   7   8  ar  
 10   7  10  ar  
 11   8  11  ar  
 12   9  20  1   
 13   9  21  1   
 14   9  22  1   
 15  10  12  1   
 16  10  13  ar  
 17  11  14  ar  
 18  11  23  1   
 19  12  15  1   
 20  13  14  ar  
 21  13  16  1   
 22  14  24  1   
 23  15  17  1   
 24  15  25  1   
 25  15  26  1   
 26  16  18  1   
 27  17  27  1   
 28  17  28  1   
 29  17  29  1   
 30  18  19  1   
 31  18  30  1   
 32  18  31  1   
 33  19  32  1   
 34  19  33  1   
 35  19  34  1   
@<TRIPOS>SUBSTRUCTURE
  1 ****   7 GROUP 4 **** **** 0

# MOE 2024.06 (io_trps.svl 2023.06)
