@<TRIPOS>MOLECULE
NONAME
46 47 1 0 0 
SMALL
USER_CHARGES


@<TRIPOS>ATOM
  1 S       -0.2420    -0.0570    -0.0640 S.o2  1 <1>   1.4470 
  2 O       -0.7450    -0.8280    -1.1770 O.2   1 <1>  -0.6500 
  3 O       -0.6300    -0.3910     1.2870 O.2   1 <1>  -0.6500 
  4 N       -0.8030     1.4920    -0.3760 N.am  1 <1>  -0.9140 
  5 C        1.5590     0.1180    -0.1790 C.ar  1 <1>  -0.0090 
  6 C       -2.1420     1.7180     0.1320 C.3   1 <1>   0.1960 
  7 C        2.3200    -0.7210    -0.9860 C.ar  1 <1>  -0.1500 
  8 C        2.2330     1.0950     0.5440 C.ar  1 <1>  -0.1500 
  9 C       -2.6120     3.0970    -0.3270 C.3   1 <1>  -0.1600 
 10 C        3.6940    -0.5860    -1.0690 C.ar  1 <1>  -0.1500 
 11 C        3.6070     1.2340     0.4620 C.ar  1 <1>  -0.1500 
 12 C       -4.0220     3.4070     0.1890 C.3   1 <1>  -0.2400 
 13 C        4.3630     0.3920    -0.3450 C.ar  1 <1>   0.1170 
 14 N        5.7570     0.4920    -0.4750 N.am  1 <1>  -0.5470 
 15 C        6.6990     1.0890     0.3210 C.2   1 <1>   0.5690 
 16 O        6.4360     1.6400     1.3620 O.2   1 <1>  -0.5700 
 17 C        8.1560     1.0310    -0.1420 C.3   1 <1>  -0.0190 
 18 C        9.0210     0.2070     0.8310 C.3   1 <1>  -0.1600 
 19 C        8.7460     2.4430    -0.3250 C.3   1 <1>  -0.1600 
 20 C       10.4860     0.1510     0.3760 C.3   1 <1>  -0.1600 
 21 C       10.2110     2.3890    -0.7820 C.3   1 <1>  -0.1600 
 22 C       11.0620     1.5610     0.1900 C.3   1 <1>  -0.1600 
 23 H       -0.8650     1.5180    -1.3910 H     1 <1>   0.4200 
 24 H       -2.1330     1.6750     1.2100 H     1 <1>   0.0800 
 25 H       -2.8110     0.9560    -0.2370 H     1 <1>   0.0800 
 26 H        1.8260    -1.4910    -1.5570 H     1 <1>   0.1500 
 27 H        1.6710     1.7590     1.1810 H     1 <1>   0.1500 
 28 H       -2.6160     3.1390    -1.4020 H     1 <1>   0.0800 
 29 H       -1.9300     3.8430     0.0450 H     1 <1>   0.0800 
 30 H        4.2500    -1.2550    -1.7020 H     1 <1>   0.1500 
 31 H        4.0850     2.0090     1.0340 H     1 <1>   0.1500 
 32 H       -4.7280     2.6830    -0.1810 H     1 <1>   0.0800 
 33 H       -4.3290     4.3830    -0.1430 H     1 <1>   0.0800 
 34 H       -4.0420     3.3920     1.2650 H     1 <1>   0.0800 
 35 H        6.1380     0.0070    -1.2840 H     1 <1>   0.3700 
 36 H        8.1860     0.5420    -1.0990 H     1 <1>   0.0800 
 37 H        8.6300    -0.7930     0.9080 H     1 <1>   0.0800 
 38 H        8.9720     0.6520     1.8110 H     1 <1>   0.0800 
 39 H        8.6870     2.9760     0.6100 H     1 <1>   0.0800 
 40 H        8.1640     2.9890    -1.0480 H     1 <1>   0.0800 
 41 H       10.5540    -0.3880    -0.5540 H     1 <1>   0.0800 
 42 H       11.0700    -0.3810     1.1080 H     1 <1>   0.0800 
 43 H       10.6060     3.3880    -0.8420 H     1 <1>   0.0800 
 44 H       10.2650     1.9530    -1.7650 H     1 <1>   0.0800 
 45 H       12.0700     1.4930    -0.1810 H     1 <1>   0.0800 
 46 H       11.0960     2.0590     1.1440 H     1 <1>   0.0800 
@<TRIPOS>BOND
  1   1   2  2   
  2   1   3  2   
  3   1   4  am  
  4   1   5  1   
  5   4   6  1   
  6   4  23  1   
  7   5   7  ar  
  8   5   8  ar  
  9   6   9  1   
 10   6  24  1   
 11   6  25  1   
 12   7  10  ar  
 13   7  26  1   
 14   8  11  ar  
 15   8  27  1   
 16   9  12  1   
 17   9  28  1   
 18   9  29  1   
 19  10  13  ar  
 20  10  30  1   
 21  11  13  ar  
 22  11  31  1   
 23  12  32  1   
 24  12  33  1   
 25  12  34  1   
 26  13  14  1   
 27  14  15  am  
 28  14  35  1   
 29  15  16  2   
 30  15  17  1   
 31  17  18  1   
 32  17  19  1   
 33  17  36  1   
 34  18  20  1   
 35  18  37  1   
 36  18  38  1   
 37  19  21  1   
 38  19  39  1   
 39  19  40  1   
 40  20  22  1   
 41  20  41  1   
 42  20  42  1   
 43  21  22  1   
 44  21  43  1   
 45  21  44  1   
 46  22  45  1   
 47  22  46  1   
@<TRIPOS>SUBSTRUCTURE
  1 ****  11 GROUP 4 **** **** 0

# MOE 2024.06 (io_trps.svl 2023.06)
