@<TRIPOS>MOLECULE
NONAME
31 31 1 0 0 
SMALL
USER_CHARGES


@<TRIPOS>ATOM
  1 BR       0.7660    -0.4380     1.7370 Br    1 <1>  -0.1110 
  2 C        2.1820     0.6430     1.0110 C.ar  1 <1>   0.1110 
  3 C        3.2730     0.0170     0.4420 C.ar  1 <1>  -0.1500 
  4 C        2.0710     2.0180     1.0770 C.ar  1 <1>  -0.1500 
  5 C        4.2900     0.7990    -0.0780 C.ar  1 <1>  -0.1500 
  6 C        3.0920     2.7930     0.5540 C.ar  1 <1>  -0.1500 
  7 C        4.2040     2.1870    -0.0210 C.ar  1 <1>  -0.1430 
  8 C        5.3270     3.0320    -0.5800 C.3   1 <1>   0.4870 
  9 N        6.3640     3.0960     0.4660 N.4   1 <1>  -0.9060 
 10 C        7.6490     3.7160     0.1180 C.3   1 <1>   0.5030 
 11 C        8.4070     2.7900    -0.8750 C.3   1 <1>   0.1200 
 12 C        7.4300     5.1170    -0.4580 C.3   1 <1>  -0.2400 
 13 C        8.4240     3.8190     1.4310 C.3   1 <1>  -0.2400 
 14 O        8.1610     1.4440    -0.5690 O.3   1 <1>  -0.6800 
 15 H        3.3190    -1.0580     0.4070 H     1 <1>   0.1500 
 16 H        1.2010     2.4660     1.5260 H     1 <1>   0.1500 
 17 H        5.1420     0.3130    -0.5260 H     1 <1>   0.1500 
 18 H        3.0040     3.8660     0.6020 H     1 <1>   0.1500 
 19 H        4.9660     4.0180    -0.8200 H     1 <1>   0.0800 
 20 H        5.7200     2.5710    -1.4720 H     1 <1>   0.0800 
 21 H        6.6190     2.1150     0.6590 H     1 <1>   0.4500 
 22 H        5.9790     3.4840     1.3280 H     1 <1>   0.4500 
 23 H        9.4680     2.9690    -0.8230 H     1 <1>   0.0800 
 24 H        8.0830     2.9660    -1.8860 H     1 <1>   0.0800 
 25 H        8.3810     5.5990    -0.6100 H     1 <1>   0.0800 
 26 H        6.9350     5.0840    -1.4120 H     1 <1>   0.0800 
 27 H        6.8590     5.7270     0.2190 H     1 <1>   0.0800 
 28 H        8.5840     2.8450     1.8610 H     1 <1>   0.0800 
 29 H        7.9070     4.4390     2.1420 H     1 <1>   0.0800 
 30 H        9.3900     4.2590     1.2560 H     1 <1>   0.0800 
 31 H        8.7590     0.8530    -1.0810 H     1 <1>   0.4000 
@<TRIPOS>BOND
  1   1   2  1   
  2   2   3  ar  
  3   2   4  ar  
  4   3   5  ar  
  5   3  15  1   
  6   4   6  ar  
  7   4  16  1   
  8   5   7  ar  
  9   5  17  1   
 10   6   7  ar  
 11   6  18  1   
 12   7   8  1   
 13   8   9  1   
 14   8  19  1   
 15   8  20  1   
 16   9  10  1   
 17   9  21  1   
 18   9  22  1   
 19  10  11  1   
 20  10  12  1   
 21  10  13  1   
 22  11  14  1   
 23  11  23  1   
 24  11  24  1   
 25  12  25  1   
 26  12  26  1   
 27  12  27  1   
 28  13  28  1   
 29  13  29  1   
 30  13  30  1   
 31  14  31  1   
@<TRIPOS>SUBSTRUCTURE
  1 ****   7 GROUP 4 **** **** 0

# MOE 2024.06 (io_trps.svl 2023.06)
