@<TRIPOS>MOLECULE
NONAME
27 28 1 0 0 
SMALL
USER_CHARGES


@<TRIPOS>ATOM
  1 S        0.7550     0.1400    -0.8560 S.3   1 <1>  -0.4600 
  2 C       -0.7710     0.6400    -0.0340 C.3   1 <1>   0.5300 
  3 C        1.9060     1.1290     0.1310 C.3   1 <1>   0.2110 
  4 N       -0.3090     1.5240     1.0290 N.am  1 <1>  -0.7300 
  5 C       -1.4610    -0.6000     0.5390 C.3   1 <1>  -0.1600 
  6 C       -1.6530     1.3930    -1.0330 C.3   1 <1>  -0.1600 
  7 C        1.0030     1.7940     1.1600 C.2   1 <1>   0.5690 
  8 C        2.6160     2.0970    -0.8210 C.3   1 <1>  -0.2400 
  9 C       -2.8400    -0.2650     1.1340 C.3   1 <1>  -0.1600 
 10 C       -3.0320     1.7300    -0.4390 C.3   1 <1>  -0.1600 
 11 O        1.4280     2.5050     2.0370 O.2   1 <1>  -0.5700 
 12 C       -3.7210     0.4720     0.1130 C.3   1 <1>  -0.1600 
 13 H        2.5930     0.4560     0.6090 H     1 <1>   0.0800 
 14 H       -0.9950     1.9200     1.6660 H     1 <1>   0.3700 
 15 H       -0.8320    -1.0540     1.2850 H     1 <1>   0.0800 
 16 H       -1.5930    -1.3130    -0.2560 H     1 <1>   0.0800 
 17 H       -1.7940     0.7690    -1.8980 H     1 <1>   0.0800 
 18 H       -1.1540     2.2910    -1.3530 H     1 <1>   0.0800 
 19 H        1.8970     2.7250    -1.3170 H     1 <1>   0.0800 
 20 H        3.1750     1.5490    -1.5560 H     1 <1>   0.0800 
 21 H        3.2910     2.7220    -0.2640 H     1 <1>   0.0800 
 22 H       -2.7170     0.3490     2.0090 H     1 <1>   0.0800 
 23 H       -3.3290    -1.1740     1.4400 H     1 <1>   0.0800 
 24 H       -3.6510     2.1750    -1.1990 H     1 <1>   0.0800 
 25 H       -2.9180     2.4510     0.3520 H     1 <1>   0.0800 
 26 H       -4.6530     0.7480     0.5760 H     1 <1>   0.0800 
 27 H       -3.9490    -0.1930    -0.7030 H     1 <1>   0.0800 
@<TRIPOS>BOND
  1   1   2  1   
  2   1   3  1   
  3   2   4  1   
  4   2   5  1   
  5   2   6  1   
  6   3   7  1   
  7   3   8  1   
  8   3  13  1   
  9   4   7  am  
 10   4  14  1   
 11   5   9  1   
 12   5  15  1   
 13   5  16  1   
 14   6  10  1   
 15   6  17  1   
 16   6  18  1   
 17   7  11  2   
 18   8  19  1   
 19   8  20  1   
 20   8  21  1   
 21   9  12  1   
 22   9  22  1   
 23   9  23  1   
 24  10  12  1   
 25  10  24  1   
 26  10  25  1   
 27  12  26  1   
 28  12  27  1   
@<TRIPOS>SUBSTRUCTURE
  1 ****   2 GROUP 4 **** **** 0

# MOE 2024.06 (io_trps.svl 2023.06)
