@<TRIPOS>MOLECULE
NONAME
47 49 1 0 0 
SMALL
USER_CHARGES


@<TRIPOS>ATOM
  1 S        1.4580     0.0910     1.0610 S.3   1 <1>  -0.3320 
  2 C        1.4380    -1.6980     1.3060 C.ar  1 <1>   0.1020 
  3 C        0.0700     0.5100    -0.0860 C.3   1 <1>   0.2140 
  4 C        2.5670    -2.3130     1.8560 C.ar  1 <1>   0.0860 
  5 C        0.3140    -2.4330     0.9600 C.ar  1 <1>  -0.1500 
  6 C        0.3550     1.8640    -0.7210 C.ar  1 <1>  -0.1440 
  7 C        3.7530    -1.5710     2.2250 C.2   1 <1>   0.5440 
  8 C        2.5220    -3.6930     2.0450 C.ar  1 <1>  -0.1500 
  9 C        0.3020    -3.8030     1.1500 C.ar  1 <1>  -0.1500 
 10 C        0.3790     1.9950    -2.1020 C.ar  1 <1>  -0.1500 
 11 C        0.5810     2.9810     0.0700 C.ar  1 <1>  -0.1500 
 12 O        3.9580    -1.3340     3.4010 O.2   1 <1>  -0.5700 
 13 N        4.6720    -1.1530     1.2830 N.am  1 <1>  -0.6600 
 14 C        1.4080    -4.4330     1.6930 C.ar  1 <1>  -0.1500 
 15 C        0.6220     3.2280    -2.6840 C.ar  1 <1>  -0.1500 
 16 C        0.8260     4.2130    -0.5120 C.ar  1 <1>  -0.1500 
 17 C        4.7020    -1.6300    -0.1240 C.3   1 <1>   0.1400 
 18 C        5.6340    -0.0610     1.5760 C.3   1 <1>   0.1400 
 19 C        0.8450     4.3380    -1.8890 C.ar  1 <1>  -0.1500 
 20 C        4.3920    -0.4680    -1.0720 C.3   1 <1>  -0.1600 
 21 C        5.2840     1.1390     0.6950 C.3   1 <1>  -0.1600 
 22 C        5.2760     0.7670    -0.8020 C.3   1 <1>  -0.0190 
 23 C        4.8530     1.9490    -1.6680 C.2   1 <1>   0.5690 
 24 O        5.6110     2.3860    -2.4950 O.2   1 <1>  -0.5700 
 25 N        3.6330     2.4950    -1.5120 N.am  1 <1>  -0.8000 
 26 H       -0.8340     0.5310     0.4950 H     1 <1>   0.0800 
 27 H        0.0240    -0.2640    -0.8300 H     1 <1>   0.0800 
 28 H       -0.5610    -1.9620     0.5570 H     1 <1>   0.1500 
 29 H        3.3780    -4.1830     2.4780 H     1 <1>   0.1500 
 30 H       -0.5670    -4.3810     0.8820 H     1 <1>   0.1500 
 31 H        0.2080     1.1420    -2.7350 H     1 <1>   0.1500 
 32 H        0.5650     2.8970     1.1440 H     1 <1>   0.1500 
 33 H        1.3990    -5.4990     1.8470 H     1 <1>   0.1500 
 34 H        0.6350     3.3230    -3.7570 H     1 <1>   0.1500 
 35 H        0.9990     5.0750     0.1100 H     1 <1>   0.1500 
 36 H        3.9950    -2.4260    -0.2760 H     1 <1>   0.0800 
 37 H        5.6850    -2.0170    -0.3350 H     1 <1>   0.0800 
 38 H        6.6340    -0.4020     1.3690 H     1 <1>   0.0800 
 39 H        5.5850     0.2260     2.6130 H     1 <1>   0.0800 
 40 H        1.0300     5.2980    -2.3420 H     1 <1>   0.1500 
 41 H        3.3560    -0.2070    -0.9680 H     1 <1>   0.0800 
 42 H        4.5370    -0.7930    -2.0880 H     1 <1>   0.0800 
 43 H        5.9980     1.9250     0.8660 H     1 <1>   0.0800 
 44 H        4.3170     1.5060     0.9930 H     1 <1>   0.0800 
 45 H        6.2850     0.5130    -1.0780 H     1 <1>   0.0800 
 46 H        3.3310     3.2680    -2.1040 H     1 <1>   0.3700 
 47 H        2.9250     2.1590    -0.8530 H     1 <1>   0.3700 
@<TRIPOS>BOND
  1   1   2  1   
  2   1   3  1   
  3   2   4  ar  
  4   2   5  ar  
  5   3   6  1   
  6   3  26  1   
  7   3  27  1   
  8   4   7  1   
  9   4   8  ar  
 10   5   9  ar  
 11   5  28  1   
 12   6  10  ar  
 13   6  11  ar  
 14   7  12  2   
 15   7  13  am  
 16   8  14  ar  
 17   8  29  1   
 18   9  14  ar  
 19   9  30  1   
 20  10  15  ar  
 21  10  31  1   
 22  11  16  ar  
 23  11  32  1   
 24  13  17  1   
 25  13  18  1   
 26  14  33  1   
 27  15  19  ar  
 28  15  34  1   
 29  16  19  ar  
 30  16  35  1   
 31  17  20  1   
 32  17  36  1   
 33  17  37  1   
 34  18  21  1   
 35  18  38  1   
 36  18  39  1   
 37  19  40  1   
 38  20  22  1   
 39  20  41  1   
 40  20  42  1   
 41  21  22  1   
 42  21  43  1   
 43  21  44  1   
 44  22  23  1   
 45  22  45  1   
 46  23  24  2   
 47  23  25  am  
 48  25  46  1   
 49  25  47  1   
@<TRIPOS>SUBSTRUCTURE
  1 ****   1 GROUP 4 **** **** 0

# MOE 2024.06 (io_trps.svl 2023.06)
