@<TRIPOS>MOLECULE
NONAME
43 45 1 0 0 
SMALL
USER_CHARGES


@<TRIPOS>ATOM
  1 O       -0.5280    -0.7350    -1.5210 O.2   1 <1>  -0.5700 
  2 C       -0.7910    -1.7760    -0.9780 C.2   1 <1>   0.5690 
  3 N       -2.0100    -2.1270    -0.4920 N.am  1 <1>  -0.4200 
  4 C        0.2190    -2.8850    -0.7550 C.3   1 <1>  -0.0190 
  5 C       -1.9950    -3.3740     0.0490 C.2   1 <1>   0.5690 
  6 C       -3.2080    -1.2580    -0.5090 C.3   1 <1>   0.1400 
  7 C       -0.6120    -3.9870    -0.0410 C.3   1 <1>  -0.0190 
  8 C        1.4760    -2.3850    -0.0160 C.3   1 <1>  -0.0220 
  9 O       -2.9500    -3.9340     0.5240 O.2   1 <1>  -0.5700 
 10 C       -4.1860    -1.7240    -1.5870 C.3   1 <1>  -0.0990 
 11 C       -0.0930    -4.4550     1.3320 C.3   1 <1>  -0.0220 
 12 C        2.1370    -3.5110     0.7540 C.2   1 <1>  -0.2880 
 13 C       -5.5340    -1.0920    -1.3460 C.2   1 <1>   0.5690 
 14 C        1.4220    -4.4540     1.3680 C.2   1 <1>  -0.2880 
 15 O       -5.7820    -0.0460    -1.8880 O.2   1 <1>  -0.5700 
 16 N       -6.3940    -1.7390    -0.5060 N.am  1 <1>  -0.5470 
 17 C       -7.6900    -1.3640    -0.1290 C.ar  1 <1>   0.1170 
 18 C       -7.9640    -0.1990     0.5940 C.ar  1 <1>  -0.1440 
 19 C       -8.7390    -2.2080    -0.4700 C.ar  1 <1>  -0.1500 
 20 C       -9.2720     0.0970     0.9450 C.ar  1 <1>  -0.1500 
 21 C       -6.8630     0.7650     1.0170 C.3   1 <1>  -0.0970 
 22 C      -10.0400    -1.9090    -0.1130 C.ar  1 <1>  -0.1500 
 23 C      -10.3080    -0.7520     0.5950 C.ar  1 <1>  -0.1500 
 24 H        0.5220    -3.2580    -1.7170 H     1 <1>   0.0800 
 25 H       -2.9210    -0.2350    -0.6910 H     1 <1>   0.0800 
 26 H       -3.6770    -1.3070     0.4600 H     1 <1>   0.0800 
 27 H       -0.6670    -4.8430    -0.6900 H     1 <1>   0.0800 
 28 H        1.2200    -1.6030     0.6780 H     1 <1>   0.0800 
 29 H        2.1640    -1.9740    -0.7350 H     1 <1>   0.0800 
 30 H       -4.2980    -2.7930    -1.5680 H     1 <1>   0.0800 
 31 H       -3.8260    -1.4300    -2.5560 H     1 <1>   0.0800 
 32 H       -0.4670    -5.4460     1.5290 H     1 <1>   0.0800 
 33 H       -0.4520    -3.8070     2.1140 H     1 <1>   0.0800 
 34 H        3.2130    -3.4630     0.7760 H     1 <1>   0.1500 
 35 H        1.8550    -5.2560     1.9450 H     1 <1>   0.1500 
 36 H       -6.0950    -2.6530    -0.1670 H     1 <1>   0.3700 
 37 H       -8.5370    -3.1050    -1.0250 H     1 <1>   0.1500 
 38 H       -9.4950     0.9940     1.4940 H     1 <1>   0.1500 
 39 H       -6.0000     0.2250     1.3600 H     1 <1>   0.0800 
 40 H       -7.1970     1.4030     1.8150 H     1 <1>   0.0800 
 41 H       -6.5820     1.3820     0.1830 H     1 <1>   0.0800 
 42 H      -10.8430    -2.5700    -0.3870 H     1 <1>   0.1500 
 43 H      -11.3190    -0.5110     0.8740 H     1 <1>   0.1500 
@<TRIPOS>BOND
  1   1   2  2   
  2   2   3  am  
  3   2   4  1   
  4   3   5  am  
  5   3   6  1   
  6   4   7  1   
  7   4   8  1   
  8   4  24  1   
  9   5   7  1   
 10   5   9  2   
 11   6  10  1   
 12   6  25  1   
 13   6  26  1   
 14   7  11  1   
 15   7  27  1   
 16   8  12  1   
 17   8  28  1   
 18   8  29  1   
 19  10  13  1   
 20  10  30  1   
 21  10  31  1   
 22  11  14  1   
 23  11  32  1   
 24  11  33  1   
 25  12  14  2   
 26  12  34  1   
 27  13  15  2   
 28  13  16  am  
 29  14  35  1   
 30  16  17  1   
 31  16  36  1   
 32  17  18  ar  
 33  17  19  ar  
 34  18  20  ar  
 35  18  21  1   
 36  19  22  ar  
 37  19  37  1   
 38  20  23  ar  
 39  20  38  1   
 40  21  39  1   
 41  21  40  1   
 42  21  41  1   
 43  22  23  ar  
 44  22  42  1   
 45  23  43  1   
@<TRIPOS>SUBSTRUCTURE
  1 ****   6 GROUP 4 **** **** 0

# MOE 2024.06 (io_trps.svl 2023.06)
