@<TRIPOS>MOLECULE
NONAME
33 34 1 0 0 
SMALL
USER_CHARGES


@<TRIPOS>ATOM
  1 S        0.1420    -0.7240    -0.8650 S.3   1 <1>  -0.4600 
  2 C        1.7720    -0.0290    -1.2480 C.3   1 <1>   0.0700 
  3 C        0.5590    -2.3570    -0.1970 C.3   1 <1>   0.0700 
  4 C        2.6590    -0.1150     0.0000 C.3   1 <1>   0.3430 
  5 C        1.5780    -2.1890     0.9370 C.3   1 <1>   0.3430 
  6 N        2.8430    -1.5300     0.4740 N.4   1 <1>  -0.9590 
  7 C        3.9160    -1.6260     1.4970 C.3   1 <1>   0.4860 
  8 C        5.2310    -1.2430     0.8490 C.ar  1 <1>  -0.1430 
  9 C        5.7100    -1.9600    -0.2460 C.ar  1 <1>   0.0830 
 10 C        5.9610    -0.1740     1.3470 C.ar  1 <1>  -0.1500 
 11 O        4.9540    -2.9970    -0.7010 O.3   1 <1>  -0.3630 
 12 C        6.9180    -1.5930    -0.8310 C.ar  1 <1>  -0.1500 
 13 C        7.1600     0.1850     0.7590 C.ar  1 <1>  -0.1500 
 14 C        5.4760    -3.9180    -1.6400 C.3   1 <1>   0.0400 
 15 C        7.6370    -0.5240    -0.3290 C.ar  1 <1>  -0.1500 
 16 H        1.6160     0.9940    -1.5450 H     1 <1>   0.0800 
 17 H        2.1850    -0.5840    -2.0720 H     1 <1>   0.0800 
 18 H        0.9480    -2.9540    -1.0020 H     1 <1>   0.0800 
 19 H       -0.3570    -2.7910     0.1640 H     1 <1>   0.0800 
 20 H        2.2160     0.4770     0.7840 H     1 <1>   0.0800 
 21 H        3.6190     0.3150    -0.2380 H     1 <1>   0.0800 
 22 H        1.8050    -3.1640     1.3370 H     1 <1>   0.0800 
 23 H        1.1300    -1.6030     1.7230 H     1 <1>   0.0800 
 24 H        3.2340    -2.0730    -0.3170 H     1 <1>   0.4500 
 25 H        3.9910    -2.6380     1.8600 H     1 <1>   0.0800 
 26 H        3.7030    -0.9750     2.3290 H     1 <1>   0.0800 
 27 H        5.6130     0.3890     2.1970 H     1 <1>   0.1500 
 28 H        7.3190    -2.1190    -1.6780 H     1 <1>   0.1500 
 29 H        7.7280     1.0140     1.1480 H     1 <1>   0.1500 
 30 H        5.6450    -3.4130    -2.5750 H     1 <1>   0.0800 
 31 H        4.7570    -4.7060    -1.7790 H     1 <1>   0.0800 
 32 H        6.3940    -4.3290    -1.2570 H     1 <1>   0.0800 
 33 H        8.5720    -0.2420    -0.7830 H     1 <1>   0.1500 
@<TRIPOS>BOND
  1   1   2  1   
  2   1   3  1   
  3   2   4  1   
  4   2  16  1   
  5   2  17  1   
  6   3   5  1   
  7   3  18  1   
  8   3  19  1   
  9   4   6  1   
 10   4  20  1   
 11   4  21  1   
 12   5   6  1   
 13   5  22  1   
 14   5  23  1   
 15   6   7  1   
 16   6  24  1   
 17   7   8  1   
 18   7  25  1   
 19   7  26  1   
 20   8   9  ar  
 21   8  10  ar  
 22   9  11  1   
 23   9  12  ar  
 24  10  13  ar  
 25  10  27  1   
 26  11  14  1   
 27  12  15  ar  
 28  12  28  1   
 29  13  15  ar  
 30  13  29  1   
 31  14  30  1   
 32  14  31  1   
 33  14  32  1   
 34  15  33  1   
@<TRIPOS>SUBSTRUCTURE
  1 ****   8 GROUP 4 **** **** 0

# MOE 2024.06 (io_trps.svl 2023.06)
