@<TRIPOS>MOLECULE
NONAME
38 39 1 0 0 
SMALL
USER_CHARGES


@<TRIPOS>ATOM
  1 CL       0.1660     0.2350    -1.5530 Cl    1 <1>  -0.1770 
  2 C        1.7500     0.8920    -1.1950 C.ar  1 <1>   0.1770 
  3 C        1.8960     2.2420    -0.8950 C.ar  1 <1>   0.0830 
  4 C        2.8320     0.0360    -1.2230 C.ar  1 <1>  -0.1500 
  5 O        0.7820     3.0300    -0.8870 O.3   1 <1>  -0.3630 
  6 C        3.1740     2.7230    -0.6200 C.ar  1 <1>  -0.1500 
  7 C        4.1060     0.5130    -0.9460 C.ar  1 <1>   0.1990 
  8 C        0.8650     4.4130    -0.6250 C.3   1 <1>   0.0400 
  9 C        4.2590     1.8640    -0.6470 C.ar  1 <1>  -0.1500 
 10 N        5.2120    -0.3370    -0.9710 N.am  1 <1>  -0.6930 
 11 S        5.3620    -1.7020     0.0850 S.o2  1 <1>   1.3330 
 12 C        6.3910     0.0160    -1.8240 C.3   1 <1>   0.2570 
 13 O        4.1210    -2.4320     0.0580 O.2   1 <1>  -0.6500 
 14 O        6.6070    -2.3520    -0.2550 O.2   1 <1>  -0.6500 
 15 C        5.5490    -0.9170     1.6720 C.3   1 <1>  -0.1350 
 16 C        7.5740     0.5970    -1.0450 C.2   1 <1>   0.5690 
 17 O        7.7160     1.7980    -1.0180 O.2   1 <1>  -0.5700 
 18 N        8.4210    -0.2510    -0.3990 N.am  1 <1>  -0.5790 
 19 C        9.5790     0.1280     0.4210 C.3   1 <1>   0.0490 
 20 C        9.7080    -0.5270     1.7580 C.3   1 <1>  -0.2000 
 21 C        9.3470     0.9210     1.6670 C.3   1 <1>  -0.2000 
 22 H        2.6800    -1.0010    -1.4630 H     1 <1>   0.1500 
 23 H        3.3440     3.7570    -0.3840 H     1 <1>   0.1500 
 24 H       -0.1280     4.8230    -0.6840 H     1 <1>   0.0800 
 25 H        1.4930     4.8730    -1.3660 H     1 <1>   0.0800 
 26 H        1.2600     4.5590     0.3650 H     1 <1>   0.0800 
 27 H        5.2380     2.2530    -0.4290 H     1 <1>   0.1500 
 28 H        6.0880     0.7390    -2.5610 H     1 <1>   0.0800 
 29 H        6.7180    -0.8610    -2.3540 H     1 <1>   0.0800 
 30 H        6.4020    -0.2670     1.6700 H     1 <1>   0.0800 
 31 H        5.6810    -1.6580     2.4350 H     1 <1>   0.0800 
 32 H        4.6760    -0.3390     1.9030 H     1 <1>   0.0800 
 33 H        8.2020    -1.2590    -0.4100 H     1 <1>   0.3700 
 34 H       10.4660     0.3260    -0.1590 H     1 <1>   0.1000 
 35 H       10.6900    -0.7800     2.1180 H     1 <1>   0.1000 
 36 H        8.9580    -1.2310     2.0720 H     1 <1>   0.1000 
 37 H        8.3440     1.2430     1.8810 H     1 <1>   0.1000 
 38 H       10.0830     1.6530     1.9490 H     1 <1>   0.1000 
@<TRIPOS>BOND
  1   1   2  1   
  2   2   3  ar  
  3   2   4  ar  
  4   3   5  1   
  5   3   6  ar  
  6   4   7  ar  
  7   4  22  1   
  8   5   8  1   
  9   6   9  ar  
 10   6  23  1   
 11   7   9  ar  
 12   7  10  1   
 13   8  24  1   
 14   8  25  1   
 15   8  26  1   
 16   9  27  1   
 17  10  11  am  
 18  10  12  1   
 19  11  13  2   
 20  11  14  2   
 21  11  15  1   
 22  12  16  1   
 23  12  28  1   
 24  12  29  1   
 25  15  30  1   
 26  15  31  1   
 27  15  32  1   
 28  16  17  2   
 29  16  18  am  
 30  18  19  1   
 31  18  33  1   
 32  19  20  1   
 33  19  21  1   
 34  19  34  1   
 35  20  21  1   
 36  20  35  1   
 37  20  36  1   
 38  21  37  1   
 39  21  38  1   
@<TRIPOS>SUBSTRUCTURE
  1 ****  10 GROUP 4 **** **** 0

# MOE 2024.06 (io_trps.svl 2023.06)
