@<TRIPOS>MOLECULE
NONAME
41 42 1 0 0 
SMALL
USER_CHARGES


@<TRIPOS>ATOM
  1 F       -3.2580     2.0750    -1.0060 F     1 <1>  -0.1900 
  2 C       -1.9840     2.3030    -0.8250 C.ar  1 <1>   0.1900 
  3 C       -1.5400     3.6110    -0.7910 C.ar  1 <1>  -0.1500 
  4 C       -1.1290     1.2270    -0.6730 C.ar  1 <1>  -0.1500 
  5 C       -0.1890     3.8520    -0.5980 C.ar  1 <1>  -0.1500 
  6 C        0.2190     1.4780    -0.4810 C.ar  1 <1>  -0.1500 
  7 C        0.6950     2.7830    -0.4420 C.ar  1 <1>   0.0830 
  8 O        2.0300     2.9310    -0.2500 O.3   1 <1>  -0.3630 
  9 C        2.6290     4.2030    -0.1950 C.3   1 <1>   0.1200 
 10 C        4.1280     3.9940     0.0290 C.3   1 <1>  -0.1600 
 11 C        4.8900     5.3250     0.0990 C.3   1 <1>  -0.1600 
 12 C        6.3820     5.0730     0.3310 C.3   1 <1>   0.3430 
 13 N        7.1130     6.3590     0.5040 N.4   1 <1>  -0.9590 
 14 C        7.2350     7.1220    -0.7770 C.3   1 <1>   0.3430 
 15 C        8.4540     6.1150     1.1150 C.3   1 <1>   0.3430 
 16 C        7.8870     8.4800    -0.5090 C.3   1 <1>  -0.1600 
 17 C        9.1320     7.4510     1.4260 C.3   1 <1>  -0.1600 
 18 C        9.2520     8.3310     0.1750 C.3   1 <1>  -0.1600 
 19 H       -2.2400     4.4180    -0.9130 H     1 <1>   0.1500 
 20 H       -1.5120     0.2230    -0.7050 H     1 <1>   0.1500 
 21 H        0.1510     4.8700    -0.5720 H     1 <1>   0.1500 
 22 H        0.9110     0.6640    -0.3600 H     1 <1>   0.1500 
 23 H        2.1870     4.7500     0.6200 H     1 <1>   0.0800 
 24 H        2.4430     4.7040    -1.1300 H     1 <1>   0.0800 
 25 H        4.5140     3.3970    -0.7800 H     1 <1>   0.0800 
 26 H        4.2610     3.4500     0.9490 H     1 <1>   0.0800 
 27 H        4.4920     5.9120     0.9090 H     1 <1>   0.0800 
 28 H        4.7390     5.8550    -0.8250 H     1 <1>   0.0800 
 29 H        6.7950     4.5200    -0.4980 H     1 <1>   0.0800 
 30 H        6.4940     4.4750     1.2210 H     1 <1>   0.0800 
 31 H        6.5860     6.9450     1.1630 H     1 <1>   0.4500 
 32 H        6.2620     7.2770    -1.2140 H     1 <1>   0.0800 
 33 H        7.8370     6.5660    -1.4770 H     1 <1>   0.0800 
 34 H        9.0690     5.5500     0.4320 H     1 <1>   0.0800 
 35 H        8.3480     5.5480     2.0260 H     1 <1>   0.0800 
 36 H        7.2320     9.0770     0.1030 H     1 <1>   0.0800 
 37 H        8.0130     8.9990    -1.4430 H     1 <1>   0.0800 
 38 H       10.1150     7.2620     1.8220 H     1 <1>   0.0800 
 39 H        8.5730     7.9670     2.1870 H     1 <1>   0.0800 
 40 H        9.6340     9.3020     0.4450 H     1 <1>   0.0800 
 41 H        9.9510     7.8850    -0.5130 H     1 <1>   0.0800 
@<TRIPOS>BOND
  1   1   2  1   
  2   2   3  ar  
  3   2   4  ar  
  4   3   5  ar  
  5   3  19  1   
  6   4   6  ar  
  7   4  20  1   
  8   5   7  ar  
  9   5  21  1   
 10   6   7  ar  
 11   6  22  1   
 12   7   8  1   
 13   8   9  1   
 14   9  10  1   
 15   9  23  1   
 16   9  24  1   
 17  10  11  1   
 18  10  25  1   
 19  10  26  1   
 20  11  12  1   
 21  11  27  1   
 22  11  28  1   
 23  12  13  1   
 24  12  29  1   
 25  12  30  1   
 26  13  14  1   
 27  13  15  1   
 28  13  31  1   
 29  14  16  1   
 30  14  32  1   
 31  14  33  1   
 32  15  17  1   
 33  15  34  1   
 34  15  35  1   
 35  16  18  1   
 36  16  36  1   
 37  16  37  1   
 38  17  18  1   
 39  17  38  1   
 40  17  39  1   
 41  18  40  1   
 42  18  41  1   
@<TRIPOS>SUBSTRUCTURE
  1 ****   9 GROUP 4 **** **** 0

# MOE 2024.06 (io_trps.svl 2023.06)
