@<TRIPOS>MOLECULE
NONAME
43 45 1 0 0 
SMALL
USER_CHARGES


@<TRIPOS>ATOM
  1 CL      -0.1370    -0.1970    -0.3670 Cl    1 <1>  -0.1770 
  2 C        0.9050    -1.5940    -0.1910 C.ar  1 <1>   0.1770 
  3 C        0.3590    -2.8470     0.0590 C.ar  1 <1>   0.0830 
  4 C        2.2670    -1.4060    -0.3090 C.ar  1 <1>  -0.1500 
  5 O       -0.9910    -2.9610     0.1630 O.3   1 <1>  -0.3630 
  6 C        1.2290    -3.9250     0.1900 C.ar  1 <1>  -0.1500 
  7 C        3.1500    -2.4770    -0.1800 C.ar  1 <1>   0.0530 
  8 C       -1.6160    -4.1990     0.4150 C.3   1 <1>   0.0400 
  9 C        2.5950    -3.7350     0.0720 C.ar  1 <1>  -0.1500 
 10 C        4.5790    -2.2890    -0.3010 C.2   1 <1>   0.0870 
 11 O        5.4060    -3.3200    -0.1790 O.3   1 <1>  -0.2800 
 12 C        5.3200    -1.1740    -0.5370 C.2   1 <1>  -0.1500 
 13 C        6.6440    -2.9040    -0.3270 C.2   1 <1>  -0.0400 
 14 C        6.6590    -1.5700    -0.5540 C.2   1 <1>  -0.1500 
 15 C        7.7380    -3.9480    -0.2180 C.3   1 <1>   0.5230 
 16 N        9.0640    -3.3110    -0.4020 N.4   1 <1>  -0.9060 
 17 C       10.1860    -4.2930    -0.2880 C.3   1 <1>   0.3430 
 18 C       11.5660    -3.6310    -0.4340 C.3   1 <1>   0.2000 
 19 O       12.5230    -4.5950    -0.1860 O.3   1 <1>  -0.5600 
 20 C       11.8760    -2.5320     0.5760 C.3   1 <1>  -0.1600 
 21 C       13.7330    -4.0060     0.1800 C.3   1 <1>   0.1200 
 22 C       13.3890    -2.6120     0.7000 C.3   1 <1>  -0.1600 
 23 H        2.6330    -0.4160    -0.5020 H     1 <1>   0.1500 
 24 H        0.8630    -4.9160     0.3830 H     1 <1>   0.1500 
 25 H       -2.6780    -4.0340     0.4530 H     1 <1>   0.0800 
 26 H       -1.2720    -4.5780     1.3610 H     1 <1>   0.0800 
 27 H       -1.3810    -4.8790    -0.3840 H     1 <1>   0.0800 
 28 H        3.2460    -4.5840     0.1770 H     1 <1>   0.1500 
 29 H        4.9720    -0.1670    -0.6860 H     1 <1>   0.1500 
 30 H        7.4790    -0.8930    -0.7210 H     1 <1>   0.1500 
 31 H        7.5780    -4.7030    -0.9710 H     1 <1>   0.0800 
 32 H        7.6790    -4.4160     0.7510 H     1 <1>   0.0800 
 33 H        9.1640    -2.5770     0.3090 H     1 <1>   0.4500 
 34 H        9.0740    -2.8560    -1.3220 H     1 <1>   0.4500 
 35 H       10.0900    -5.0500    -1.0500 H     1 <1>   0.0800 
 36 H       10.1490    -4.7740     0.6760 H     1 <1>   0.0800 
 37 H       11.7240    -3.2820    -1.4420 H     1 <1>   0.0800 
 38 H       11.4260    -2.7610     1.5270 H     1 <1>   0.0800 
 39 H       11.5500    -1.5620     0.2450 H     1 <1>   0.0800 
 40 H       14.3670    -3.9580    -0.6890 H     1 <1>   0.0800 
 41 H       14.1960    -4.6180     0.9370 H     1 <1>   0.0800 
 42 H       13.7180    -2.4820     1.7170 H     1 <1>   0.0800 
 43 H       13.8700    -1.8720     0.0840 H     1 <1>   0.0800 
@<TRIPOS>BOND
  1   1   2  1   
  2   2   3  ar  
  3   2   4  ar  
  4   3   5  1   
  5   3   6  ar  
  6   4   7  ar  
  7   4  23  1   
  8   5   8  1   
  9   6   9  ar  
 10   6  24  1   
 11   7   9  ar  
 12   7  10  1   
 13   8  25  1   
 14   8  26  1   
 15   8  27  1   
 16   9  28  1   
 17  10  11  1   
 18  10  12  2   
 19  11  13  1   
 20  12  14  1   
 21  12  29  1   
 22  13  14  2   
 23  13  15  1   
 24  14  30  1   
 25  15  16  1   
 26  15  31  1   
 27  15  32  1   
 28  16  17  1   
 29  16  33  1   
 30  16  34  1   
 31  17  18  1   
 32  17  35  1   
 33  17  36  1   
 34  18  19  1   
 35  18  20  1   
 36  18  37  1   
 37  19  21  1   
 38  20  22  1   
 39  20  38  1   
 40  20  39  1   
 41  21  22  1   
 42  21  40  1   
 43  21  41  1   
 44  22  42  1   
 45  22  43  1   
@<TRIPOS>SUBSTRUCTURE
  1 ****  11 GROUP 4 **** **** 0

# MOE 2024.06 (io_trps.svl 2023.06)
