@<TRIPOS>MOLECULE
NONAME
23 23 1 0 0 
SMALL
USER_CHARGES


@<TRIPOS>ATOM
  1 BR       0.0620    -0.0350     1.2430 Br    1 <1>  -0.1100 
  2 C        1.5980    -0.8600     0.3850 C.2   1 <1>   0.1100 
  3 C        2.7150    -0.0330     0.0850 C.2   1 <1>  -0.1380 
  4 C        1.5760    -2.1930     0.0880 C.2   1 <1>  -0.0290 
  5 C        3.7990    -0.6080    -0.5340 C.2   1 <1>   0.0790 
  6 C        2.6790     1.4540     0.4230 C.3   1 <1>   0.2580 
  7 N        2.6800    -2.7400    -0.5210 N.am  1 <1>  -0.5390 
  8 C        0.4350    -3.1600     0.3630 C.3   1 <1>  -0.1020 
  9 C        4.9740     0.1170    -0.9030 C.1   1 <1>   0.4920 
 10 C        3.7860    -2.0040    -0.8450 C.2   1 <1>   0.6160 
 11 O        2.0590     2.0990    -0.6380 O.3   1 <1>  -0.5600 
 12 N        5.8900     0.7550    -1.1390 N.1   1 <1>  -0.5570 
 13 O        4.7080    -2.6020    -1.3790 O.2   1 <1>  -0.5700 
 14 C        1.9660     3.4790    -0.4910 C.3   1 <1>   0.0400 
 15 H        3.6700     1.8610     0.5350 H     1 <1>   0.0800 
 16 H        2.1290     1.6490     1.3270 H     1 <1>   0.0800 
 17 H        2.7330    -3.7280    -0.7770 H     1 <1>   0.3700 
 18 H        0.7740    -3.9530     1.0050 H     1 <1>   0.0800 
 19 H        0.0900    -3.5880    -0.5620 H     1 <1>   0.0800 
 20 H       -0.3990    -2.6790     0.8380 H     1 <1>   0.0800 
 21 H        1.4700     3.8740    -1.3610 H     1 <1>   0.0800 
 22 H        2.9550     3.8980    -0.4190 H     1 <1>   0.0800 
 23 H        1.3880     3.7070     0.3880 H     1 <1>   0.0800 
@<TRIPOS>BOND
  1   1   2  1   
  2   2   3  1   
  3   2   4  2   
  4   3   5  2   
  5   3   6  1   
  6   4   7  1   
  7   4   8  1   
  8   5   9  1   
  9   5  10  1   
 10   6  11  1   
 11   6  15  1   
 12   6  16  1   
 13   7  10  am  
 14   7  17  1   
 15   8  18  1   
 16   8  19  1   
 17   8  20  1   
 18   9  12  3   
 19  10  13  2   
 20  11  14  1   
 21  14  21  1   
 22  14  22  1   
 23  14  23  1   
@<TRIPOS>SUBSTRUCTURE
  1 ****   3 GROUP 4 **** **** 0

# MOE 2024.06 (io_trps.svl 2023.06)
