@<TRIPOS>MOLECULE
NONAME
40 40 1 0 0 
SMALL
USER_CHARGES


@<TRIPOS>ATOM
  1 CL      -0.1280     0.6160    -0.0070 Cl    1 <1>  -0.1770 
  2 C       -1.8450     0.3000    -0.0050 C.ar  1 <1>   0.1770 
  3 C       -2.7300     1.3610    -0.0040 C.ar  1 <1>  -0.1500 
  4 C       -2.2920    -1.0070    -0.0030 C.ar  1 <1>  -0.1500 
  5 C       -4.0950     1.1180    -0.0030 C.ar  1 <1>  -0.1440 
  6 C       -3.6530    -1.2570    -0.0020 C.ar  1 <1>  -0.1500 
  7 C       -4.5610    -0.1970    -0.0010 C.ar  1 <1>   0.0830 
  8 C       -5.0660     2.2900    -0.0020 C.3   1 <1>  -0.0960 
  9 O       -5.9080    -0.3810     0.0000 O.3   1 <1>  -0.3630 
 10 C       -6.4830    -1.6620     0.0010 C.3   1 <1>   0.1200 
 11 C       -8.0000    -1.4710     0.0030 C.3   1 <1>  -0.1600 
 12 C       -8.7200    -2.8140     0.0050 C.3   1 <1>   0.3430 
 13 N      -10.1820    -2.5710     0.0060 N.4   1 <1>  -0.9060 
 14 C      -10.9710    -3.8250     0.0090 C.3   1 <1>   0.3430 
 15 C      -12.4560    -3.4750     0.0110 C.3   1 <1>  -0.1600 
 16 C      -13.3160    -4.7450     0.0130 C.3   1 <1>  -0.1600 
 17 C      -14.8070    -4.3960     0.0150 C.3   1 <1>  -0.2400 
 18 H       -2.3430     2.3640    -0.0050 H     1 <1>   0.1500 
 19 H       -1.5800    -1.8120    -0.0040 H     1 <1>   0.1500 
 20 H       -3.9790    -2.2790    -0.0010 H     1 <1>   0.1500 
 21 H       -4.5420     3.2290    -0.0040 H     1 <1>   0.0800 
 22 H       -5.6890     2.2480     0.8720 H     1 <1>   0.0800 
 23 H       -5.6910     2.2460    -0.8760 H     1 <1>   0.0800 
 24 H       -6.1510    -2.1780     0.8870 H     1 <1>   0.0800 
 25 H       -6.1530    -2.1790    -0.8840 H     1 <1>   0.0800 
 26 H       -8.2710    -0.9130    -0.8760 H     1 <1>   0.0800 
 27 H       -8.2690    -0.9110     0.8820 H     1 <1>   0.0800 
 28 H       -8.4380    -3.3770     0.8810 H     1 <1>   0.0800 
 29 H       -8.4400    -3.3780    -0.8710 H     1 <1>   0.0800 
 30 H      -10.4390    -2.0120    -0.8170 H     1 <1>   0.4500 
 31 H      -10.4370    -2.0110     0.8300 H     1 <1>   0.4500 
 32 H      -10.7380    -4.4110     0.8840 H     1 <1>   0.0800 
 33 H      -10.7400    -4.4120    -0.8670 H     1 <1>   0.0800 
 34 H      -12.6960    -2.8960    -0.8650 H     1 <1>   0.0800 
 35 H      -12.6940    -2.8950     0.8870 H     1 <1>   0.0800 
 36 H      -13.0980    -5.3390     0.8850 H     1 <1>   0.0800 
 37 H      -13.1010    -5.3400    -0.8590 H     1 <1>   0.0800 
 38 H      -15.0650    -3.8250     0.8900 H     1 <1>   0.0800 
 39 H      -15.3950    -5.2980     0.0160 H     1 <1>   0.0800 
 40 H      -15.0680    -3.8260    -0.8600 H     1 <1>   0.0800 
@<TRIPOS>BOND
  1   1   2  1   
  2   2   3  ar  
  3   2   4  ar  
  4   3   5  ar  
  5   3  18  1   
  6   4   6  ar  
  7   4  19  1   
  8   5   7  ar  
  9   5   8  1   
 10   6   7  ar  
 11   6  20  1   
 12   7   9  1   
 13   8  21  1   
 14   8  22  1   
 15   8  23  1   
 16   9  10  1   
 17  10  11  1   
 18  10  24  1   
 19  10  25  1   
 20  11  12  1   
 21  11  26  1   
 22  11  27  1   
 23  12  13  1   
 24  12  28  1   
 25  12  29  1   
 26  13  14  1   
 27  13  30  1   
 28  13  31  1   
 29  14  15  1   
 30  14  32  1   
 31  14  33  1   
 32  15  16  1   
 33  15  34  1   
 34  15  35  1   
 35  16  17  1   
 36  16  36  1   
 37  16  37  1   
 38  17  38  1   
 39  17  39  1   
 40  17  40  1   
@<TRIPOS>SUBSTRUCTURE
  1 ****  10 GROUP 4 **** **** 0

# MOE 2024.06 (io_trps.svl 2023.06)
