@<TRIPOS>MOLECULE
NONAME
35 36 1 0 0 
SMALL
USER_CHARGES


@<TRIPOS>ATOM
  1 CL       0.8810    -1.5700     1.9070 Cl    1 <1>  -0.1770 
  2 C       -0.3910    -2.2760     0.9370 C.ar  1 <1>   0.1770 
  3 C       -0.1110    -2.9780    -0.2440 C.ar  1 <1>   0.0860 
  4 C       -1.6820    -2.0900     1.3970 C.ar  1 <1>  -0.1500 
  5 C        1.2280    -3.2050    -0.7550 C.2   1 <1>   0.5440 
  6 C       -1.2070    -3.4800    -0.9580 C.ar  1 <1>  -0.1500 
  7 C       -2.7220    -2.6130     0.6580 C.ar  1 <1>   0.1900 
  8 O        1.4220    -3.2060    -1.9550 O.2   1 <1>  -0.5700 
  9 N        2.2820    -3.4560     0.0750 N.am  1 <1>  -0.7300 
 10 C       -2.5070    -3.3060    -0.5180 C.ar  1 <1>  -0.1500 
 11 F       -3.9430    -2.4470     1.0800 F     1 <1>  -0.1900 
 12 C        3.6770    -3.6700    -0.3400 C.3   1 <1>   0.2200 
 13 C        4.1940    -4.9550     0.3140 C.3   1 <1>  -0.1600 
 14 C        4.5080    -2.4560     0.0860 C.3   1 <1>  -0.1600 
 15 C        5.6840    -5.1700     0.0090 C.3   1 <1>  -0.1600 
 16 C        5.9980    -2.6700    -0.2180 C.3   1 <1>  -0.1600 
 17 C        6.5250    -3.9570     0.4370 C.3   1 <1>  -0.0800 
 18 C        7.9990    -4.1740     0.0790 C.3   1 <1>  -0.2400 
 19 H       -1.8750    -1.5500     2.3060 H     1 <1>   0.1500 
 20 H       -1.0260    -4.0150    -1.8760 H     1 <1>   0.1500 
 21 H        2.1540    -3.3450     1.0820 H     1 <1>   0.3700 
 22 H       -3.3420    -3.6960    -1.0730 H     1 <1>   0.1500 
 23 H        3.7290    -3.7760    -1.4120 H     1 <1>   0.0800 
 24 H        3.6310    -5.7920    -0.0580 H     1 <1>   0.0800 
 25 H        4.0600    -4.8970     1.3790 H     1 <1>   0.0800 
 26 H        4.3860    -2.2870     1.1410 H     1 <1>   0.0800 
 27 H        4.1580    -1.5870    -0.4430 H     1 <1>   0.0800 
 28 H        5.8060    -5.3380    -1.0480 H     1 <1>   0.0800 
 29 H        6.0280    -6.0510     0.5240 H     1 <1>   0.0800 
 30 H        6.5580    -1.8230     0.1400 H     1 <1>   0.0800 
 31 H        6.1340    -2.7280    -1.2850 H     1 <1>   0.0800 
 32 H        6.4510    -3.8500     1.5070 H     1 <1>   0.0800 
 33 H        8.1190    -4.2860    -0.9840 H     1 <1>   0.0800 
 34 H        8.3730    -5.0590     0.5620 H     1 <1>   0.0800 
 35 H        8.5890    -3.3360     0.4050 H     1 <1>   0.0800 
@<TRIPOS>BOND
  1   1   2  1   
  2   2   3  ar  
  3   2   4  ar  
  4   3   5  1   
  5   3   6  ar  
  6   4   7  ar  
  7   4  19  1   
  8   5   8  2   
  9   5   9  am  
 10   6  10  ar  
 11   6  20  1   
 12   7  10  ar  
 13   7  11  1   
 14   9  12  1   
 15   9  21  1   
 16  10  22  1   
 17  12  13  1   
 18  12  14  1   
 19  12  23  1   
 20  13  15  1   
 21  13  24  1   
 22  13  25  1   
 23  14  16  1   
 24  14  26  1   
 25  14  27  1   
 26  15  17  1   
 27  15  28  1   
 28  15  29  1   
 29  16  17  1   
 30  16  30  1   
 31  16  31  1   
 32  17  18  1   
 33  17  32  1   
 34  18  33  1   
 35  18  34  1   
 36  18  35  1   
@<TRIPOS>SUBSTRUCTURE
  1 ****   9 GROUP 4 **** **** 0

# MOE 2024.06 (io_trps.svl 2023.06)
