@<TRIPOS>MOLECULE
NONAME
52 55 1 0 0 
SMALL
USER_CHARGES


@<TRIPOS>ATOM
  1 S       -0.3900    -0.5420     0.7330 S.3   1 <1>  -0.2860 
  2 C        1.3620    -0.8630     0.5100 C.2   1 <1>   0.2420 
  3 C       -1.1310    -2.2470     0.6330 C.3   1 <1>   0.1310 
  4 N        1.8500    -2.0320     0.3040 N.2   1 <1>  -0.3380 
  5 N        2.2770     0.1010     0.5470 N.pl3 1 <1>   0.0480 
  6 C       -2.6480    -2.2080     0.7310 C.2   1 <1>   0.5690 
  7 N        3.1700    -1.8570     0.1980 N.2   1 <1>  -0.3380 
  8 C        3.4190    -0.5820     0.3340 C.2   1 <1>   0.1870 
  9 C        2.0820     1.5370     0.8390 C.3   1 <1>   0.0160 
 10 O       -3.2300    -3.2160     1.0500 O.2   1 <1>  -0.5700 
 11 N       -3.3110    -1.0560     0.4520 N.am  1 <1>  -0.7300 
 12 C        4.7230     0.0260     0.2860 C.2   1 <1>  -0.0010 
 13 C       -4.7680    -0.8590     0.5120 C.3   1 <1>   0.2200 
 14 C        5.1110     1.1000    -0.5580 C.ar  1 <1>   0.0000 
 15 C        5.8180    -0.2850     1.0330 C.2   1 <1>  -0.3020 
 16 C       -5.2360    -0.2730    -0.8130 C.3   1 <1>  -0.1600 
 17 C       -5.0680     0.2510     1.5110 C.3   1 <1>  -0.1600 
 18 C        6.4310     1.4090    -0.2440 C.ar  1 <1>  -0.1520 
 19 C        4.4560     1.8170    -1.5660 C.ar  1 <1>  -0.1500 
 20 N        6.8580     0.5400     0.7320 N.pl3 1 <1>   0.0480 
 21 C       -4.9390     1.2290    -0.7340 C.3   1 <1>  -0.1600 
 22 C       -4.8270     1.5650     0.7590 C.3   1 <1>  -0.1600 
 23 C        7.0960     2.4490    -0.9000 C.ar  1 <1>  -0.1500 
 24 C        5.1130     2.8390    -2.2110 C.ar  1 <1>  -0.1500 
 25 C        8.2060     0.4850     1.3330 C.3   1 <1>   0.0960 
 26 C        6.4330     3.1580    -1.8750 C.ar  1 <1>  -0.1500 
 27 C        9.1530    -0.3340     0.4520 C.3   1 <1>  -0.2400 
 28 H       -0.7180    -2.8210     1.4410 H     1 <1>   0.0800 
 29 H       -0.8300    -2.6730    -0.3060 H     1 <1>   0.0800 
 30 H        1.3750     1.6470     1.6410 H     1 <1>   0.0800 
 31 H        1.7080     2.0310    -0.0390 H     1 <1>   0.0800 
 32 H        3.0160     1.9820     1.1310 H     1 <1>   0.0800 
 33 H       -2.7770    -0.2150     0.2300 H     1 <1>   0.3700 
 34 H       -5.2690    -1.7820     0.7570 H     1 <1>   0.0800 
 35 H        5.8990    -1.0640     1.7700 H     1 <1>   0.1500 
 36 H       -6.3000    -0.4150    -0.8880 H     1 <1>   0.0800 
 37 H       -4.7680    -0.7490    -1.6570 H     1 <1>   0.0800 
 38 H       -4.4740     0.1650     2.4050 H     1 <1>   0.0800 
 39 H       -6.1070     0.1890     1.7830 H     1 <1>   0.0800 
 40 H        3.4500     1.5530    -1.8330 H     1 <1>   0.1500 
 41 H       -5.7200     1.7990    -1.2090 H     1 <1>   0.0800 
 42 H       -4.0050     1.4440    -1.2260 H     1 <1>   0.0800 
 43 H       -3.8390     1.9340     0.9750 H     1 <1>   0.0800 
 44 H       -5.5470     2.3100     1.0500 H     1 <1>   0.0800 
 45 H        8.1140     2.6850    -0.6450 H     1 <1>   0.1500 
 46 H        4.6210     3.4000    -2.9870 H     1 <1>   0.1500 
 47 H        8.1300     0.0360     2.3070 H     1 <1>   0.0800 
 48 H        8.5750     1.4880     1.4480 H     1 <1>   0.0800 
 49 H        6.9260     3.9620    -2.3920 H     1 <1>   0.1500 
 50 H        8.7850    -1.3400     0.3460 H     1 <1>   0.0800 
 51 H       10.1290    -0.3710     0.8990 H     1 <1>   0.0800 
 52 H        9.2390     0.1140    -0.5230 H     1 <1>   0.0800 
@<TRIPOS>BOND
  1   1   2  1   
  2   1   3  1   
  3   2   4  2   
  4   2   5  1   
  5   3   6  1   
  6   3  28  1   
  7   3  29  1   
  8   4   7  1   
  9   5   8  1   
 10   5   9  1   
 11   6  10  2   
 12   6  11  am  
 13   7   8  2   
 14   8  12  1   
 15   9  30  1   
 16   9  31  1   
 17   9  32  1   
 18  11  13  1   
 19  11  33  1   
 20  12  14  1   
 21  12  15  2   
 22  13  16  1   
 23  13  17  1   
 24  13  34  1   
 25  14  18  ar  
 26  14  19  ar  
 27  15  20  1   
 28  15  35  1   
 29  16  21  1   
 30  16  36  1   
 31  16  37  1   
 32  17  22  1   
 33  17  38  1   
 34  17  39  1   
 35  18  20  1   
 36  18  23  ar  
 37  19  24  ar  
 38  19  40  1   
 39  20  25  1   
 40  21  22  1   
 41  21  41  1   
 42  21  42  1   
 43  22  43  1   
 44  22  44  1   
 45  23  26  ar  
 46  23  45  1   
 47  24  26  ar  
 48  24  46  1   
 49  25  27  1   
 50  25  47  1   
 51  25  48  1   
 52  26  49  1   
 53  27  50  1   
 54  27  51  1   
 55  27  52  1   
@<TRIPOS>SUBSTRUCTURE
  1 ****   5 GROUP 4 **** **** 0

# MOE 2024.06 (io_trps.svl 2023.06)
