@<TRIPOS>MOLECULE
NONAME
50 52 1 0 0 
SMALL
USER_CHARGES


@<TRIPOS>ATOM
  1 O       -0.9860    -1.3980     0.3410 O.co2 1 <1>  -0.9000 
  2 C       -1.5510    -0.4650    -0.2310 C.2   1 <1>   0.9060 
  3 O       -2.4140    -0.7390    -1.0710 O.co2 1 <1>  -0.9000 
  4 C       -1.3520     0.9730     0.2250 C.3   1 <1>  -0.1860 
  5 C       -2.5400     1.5450     1.2860 C.3   1 <1>  -0.0190 
  6 C       -1.2800     2.0190    -1.0380 C.3   1 <1>  -0.0800 
  7 C       -3.5230     0.5320     1.8910 C.2   1 <1>   0.5690 
  8 C       -3.2860     2.8060     0.5520 C.3   1 <1>  -0.0800 
  9 C       -2.2650     2.4260    -0.2310 C.3   1 <1>  -0.1600 
 10 C       -2.0070     3.3060    -1.7390 C.3   1 <1>  -0.1600 
 11 O       -3.7980     0.6220     3.0650 O.2   1 <1>  -0.5700 
 12 N       -4.0520    -0.4560     1.1270 N.am  1 <1>  -0.7300 
 13 C       -3.1820     3.8650    -0.6880 C.3   1 <1>  -0.1600 
 14 C       -4.5850    -1.7120     1.6720 C.3   1 <1>   0.2200 
 15 C       -3.4460    -2.5370     2.2920 C.3   1 <1>  -0.1600 
 16 C       -5.2660    -2.4950     0.5520 C.3   1 <1>  -0.1600 
 17 C       -2.9320    -3.6920     1.4290 C.3   1 <1>   0.3430 
 18 C       -4.2850    -2.9360    -0.5410 C.3   1 <1>   0.3430 
 19 N       -2.9470    -3.3580    -0.0190 N.4   1 <1>  -0.9590 
 20 C       -2.2660    -4.3360    -0.9050 C.3   1 <1>   0.4230 
 21 C       -0.9050    -4.7490    -0.3410 C.3   1 <1>  -0.2400 
 22 C       -2.0630    -3.7330    -2.2950 C.3   1 <1>  -0.2400 
 23 H       -0.4090     0.9770     0.7440 H     1 <1>   0.0800 
 24 H       -2.0140     1.9420     2.1440 H     1 <1>   0.0800 
 25 H       -0.2700     2.3900    -0.9340 H     1 <1>   0.0800 
 26 H       -4.2850     2.4150     0.4060 H     1 <1>   0.0800 
 27 H       -3.0090     1.7240    -0.8140 H     1 <1>   0.0800 
 28 H       -1.5150     3.1220     0.3470 H     1 <1>   0.0800 
 29 H       -2.4590     3.0050    -2.6730 H     1 <1>   0.0800 
 30 H       -1.2940     4.0850    -1.9590 H     1 <1>   0.0800 
 31 H       -3.6670    -0.5320     0.1670 H     1 <1>   0.3700 
 32 H       -2.9150     4.8440    -0.3170 H     1 <1>   0.0800 
 33 H       -4.1290     3.9570    -1.1960 H     1 <1>   0.0800 
 34 H       -5.3030    -1.4630     2.4370 H     1 <1>   0.0800 
 35 H       -3.7950    -2.9580     3.2160 H     1 <1>   0.0800 
 36 H       -2.6140    -1.9030     2.5460 H     1 <1>   0.0800 
 37 H       -6.0450    -1.8960     0.1150 H     1 <1>   0.0800 
 38 H       -5.7360    -3.3670     0.9700 H     1 <1>   0.0800 
 39 H       -3.5450    -4.5610     1.5930 H     1 <1>   0.0800 
 40 H       -1.9270    -3.9170     1.7430 H     1 <1>   0.0800 
 41 H       -4.1390    -2.1170    -1.2280 H     1 <1>   0.0800 
 42 H       -4.7290    -3.7450    -1.0960 H     1 <1>   0.0800 
 43 H       -2.3380    -2.4920    -0.0940 H     1 <1>   0.4500 
 44 H       -2.8820    -5.2160    -0.9960 H     1 <1>   0.0800 
 45 H       -0.3050    -3.8790    -0.1340 H     1 <1>   0.0800 
 46 H       -0.3790    -5.3510    -1.0600 H     1 <1>   0.0800 
 47 H       -1.0100    -5.3380     0.5490 H     1 <1>   0.0800 
 48 H       -1.4540    -2.8470    -2.2310 H     1 <1>   0.0800 
 49 H       -2.9940    -3.4840    -2.7670 H     1 <1>   0.0800 
 50 H       -1.5570    -4.4370    -2.9300 H     1 <1>   0.0800 
@<TRIPOS>BOND
  1   1   2  ar  
  2   2   3  ar  
  3   2   4  1   
  4   4   5  1   
  5   4   6  1   
  6   4  23  1   
  7   5   7  1   
  8   5   8  1   
  9   5  24  1   
 10   6   9  1   
 11   6  10  1   
 12   6  25  1   
 13   7  11  2   
 14   7  12  am  
 15   8   9  1   
 16   8  13  1   
 17   8  26  1   
 18   9  27  1   
 19   9  28  1   
 20  10  13  1   
 21  10  29  1   
 22  10  30  1   
 23  12  14  1   
 24  12  31  1   
 25  13  32  1   
 26  13  33  1   
 27  14  15  1   
 28  14  16  1   
 29  14  34  1   
 30  15  17  1   
 31  15  35  1   
 32  15  36  1   
 33  16  18  1   
 34  16  37  1   
 35  16  38  1   
 36  17  19  1   
 37  17  39  1   
 38  17  40  1   
 39  18  19  1   
 40  18  41  1   
 41  18  42  1   
 42  19  20  1   
 43  19  43  1   
 44  20  21  1   
 45  20  22  1   
 46  20  44  1   
 47  21  45  1   
 48  21  46  1   
 49  21  47  1   
 50  22  48  1   
 51  22  49  1   
 52  22  50  1   
@<TRIPOS>SUBSTRUCTURE
  1 ****   2 GROUP 4 **** **** 0

# MOE 2024.06 (io_trps.svl 2023.06)
