@<TRIPOS>MOLECULE
NONAME
42 43 1 0 0 
SMALL
USER_CHARGES


@<TRIPOS>ATOM
  1 O        0.8820    -0.3540    -1.1550 O.3   1 <1>  -0.3630 
  2 C        0.4100    -1.5620    -0.7620 C.ar  1 <1>   0.0830 
  3 C        2.1160     0.1450    -0.6850 C.3   1 <1>   0.0400 
  4 C        1.0380    -2.3760     0.1750 C.ar  1 <1>  -0.1500 
  5 C       -0.7740    -1.9750    -1.3500 C.ar  1 <1>  -0.1500 
  6 C        0.4730    -3.6010     0.5130 C.ar  1 <1>   0.0830 
  7 C       -1.3470    -3.1900    -1.0110 C.ar  1 <1>  -0.1430 
  8 O        1.0070    -4.4610     1.4140 O.3   1 <1>  -0.3630 
  9 C       -0.7110    -4.0010    -0.0840 C.ar  1 <1>  -0.1500 
 10 C       -2.6570    -3.6230    -1.6350 C.3   1 <1>   0.4860 
 11 C        2.2410    -4.1970     2.0440 C.3   1 <1>   0.0400 
 12 N       -3.7170    -3.5410    -0.5950 N.4   1 <1>  -0.9590 
 13 C       -4.9260    -4.2960    -1.0190 C.3   1 <1>   0.3430 
 14 C       -3.9780    -2.1250    -0.2040 C.3   1 <1>   0.3430 
 15 C       -5.9280    -4.4710     0.1230 C.3   1 <1>  -0.1600 
 16 C       -4.4230    -2.0690     1.2570 C.3   1 <1>  -0.1600 
 17 C       -6.6650    -3.1740     0.4860 C.3   1 <1>  -0.1600 
 18 C       -5.9270    -2.2870     1.4980 C.3   1 <1>  -0.1600 
 19 H        2.2920     1.0970    -1.1540 H     1 <1>   0.0800 
 20 H        2.8970    -0.5430    -0.9530 H     1 <1>   0.0800 
 21 H        2.0600     0.2710     0.3820 H     1 <1>   0.0800 
 22 H        1.9520    -2.0610     0.6340 H     1 <1>   0.1500 
 23 H       -1.2300    -1.3220    -2.0740 H     1 <1>   0.1500 
 24 H       -1.1130    -4.9590     0.1960 H     1 <1>   0.1500 
 25 H       -2.5580    -4.6370    -1.9890 H     1 <1>   0.0800 
 26 H       -2.9000    -2.9890    -2.4720 H     1 <1>   0.0800 
 27 H        2.4710    -5.0250     2.6910 H     1 <1>   0.0800 
 28 H        2.1530    -3.2950     2.6240 H     1 <1>   0.0800 
 29 H        3.0050    -4.0990     1.2920 H     1 <1>   0.0800 
 30 H       -3.3270    -3.9990     0.2380 H     1 <1>   0.4500 
 31 H       -4.6290    -5.2760    -1.3600 H     1 <1>   0.0800 
 32 H       -5.4050    -3.7910    -1.8430 H     1 <1>   0.0800 
 33 H       -4.7180    -1.6740    -0.8460 H     1 <1>   0.0800 
 34 H       -3.0670    -1.5540    -0.2900 H     1 <1>   0.0800 
 35 H       -5.4590    -4.9070     0.9880 H     1 <1>   0.0800 
 36 H       -6.6680    -5.1750    -0.2180 H     1 <1>   0.0800 
 37 H       -4.1740    -1.0940     1.6400 H     1 <1>   0.0800 
 38 H       -3.8510    -2.7740     1.8350 H     1 <1>   0.0800 
 39 H       -7.6180    -3.4320     0.9190 H     1 <1>   0.0800 
 40 H       -6.8780    -2.6120    -0.4070 H     1 <1>   0.0800 
 41 H       -6.4180    -1.3280     1.5090 H     1 <1>   0.0800 
 42 H       -6.0520    -2.7030     2.4840 H     1 <1>   0.0800 
@<TRIPOS>BOND
  1   1   2  1   
  2   1   3  1   
  3   2   4  ar  
  4   2   5  ar  
  5   3  19  1   
  6   3  20  1   
  7   3  21  1   
  8   4   6  ar  
  9   4  22  1   
 10   5   7  ar  
 11   5  23  1   
 12   6   8  1   
 13   6   9  ar  
 14   7   9  ar  
 15   7  10  1   
 16   8  11  1   
 17   9  24  1   
 18  10  12  1   
 19  10  25  1   
 20  10  26  1   
 21  11  27  1   
 22  11  28  1   
 23  11  29  1   
 24  12  13  1   
 25  12  14  1   
 26  12  30  1   
 27  13  15  1   
 28  13  31  1   
 29  13  32  1   
 30  14  16  1   
 31  14  33  1   
 32  14  34  1   
 33  15  17  1   
 34  15  35  1   
 35  15  36  1   
 36  16  18  1   
 37  16  37  1   
 38  16  38  1   
 39  17  18  1   
 40  17  39  1   
 41  17  40  1   
 42  18  41  1   
 43  18  42  1   
@<TRIPOS>SUBSTRUCTURE
  1 ****   7 GROUP 4 **** **** 0

# MOE 2024.06 (io_trps.svl 2023.06)
