@<TRIPOS>MOLECULE
NONAME
53 55 1 0 0 
SMALL
USER_CHARGES


@<TRIPOS>ATOM
  1 S        0.1050     0.0460     0.5010 S.o2  1 <1>   1.4470 
  2 O        0.3930    -0.8980    -0.5530 O.2   1 <1>  -0.6500 
  3 O        0.2840    -0.3200     1.8840 O.2   1 <1>  -0.6500 
  4 N        1.2290     1.2810     0.3190 N.am  1 <1>  -0.9140 
  5 C       -1.4950     0.8610     0.2320 C.ar  1 <1>  -0.0090 
  6 C        2.5870     0.7520     0.1660 C.3   1 <1>   0.1960 
  7 C       -1.8220     1.4120    -1.0010 C.ar  1 <1>  -0.1500 
  8 C       -2.4360     0.9680     1.2500 C.ar  1 <1>  -0.1500 
  9 C        3.6300     1.8700    -0.0730 C.3   1 <1>   0.4230 
 10 C       -3.0370     2.0390    -1.2080 C.ar  1 <1>  -0.1500 
 11 C       -3.6530     1.5940     1.0440 C.ar  1 <1>  -0.1500 
 12 N        5.0170     1.3630    -0.2580 N.4   1 <1>  -0.9590 
 13 C        3.7580     2.8450     1.0950 C.3   1 <1>  -0.1600 
 14 C       -3.9890     2.1420    -0.1950 C.ar  1 <1>   0.0860 
 15 C        5.9060     2.5320    -0.0230 C.3   1 <1>   0.3430 
 16 C        5.2370     0.7120    -1.5780 C.3   1 <1>   0.3430 
 17 C        5.1990     3.3580     1.0450 C.3   1 <1>  -0.1600 
 18 C       -5.2650     2.7920    -0.4320 C.2   1 <1>   0.5440 
 19 C        6.5800    -0.0070    -1.5730 C.3   1 <1>  -0.2400 
 20 O       -5.3350     3.7310    -1.1990 O.2   1 <1>  -0.5700 
 21 N       -6.3950     2.3170     0.1940 N.am  1 <1>  -0.5470 
 22 C       -7.7050     2.8170     0.2450 C.ar  1 <1>   0.1170 
 23 C       -8.7450     1.9370     0.5260 C.ar  1 <1>  -0.1500 
 24 C       -8.0130     4.1600     0.0500 C.ar  1 <1>  -0.1500 
 25 C      -10.0530     2.3820     0.6070 C.ar  1 <1>  -0.1500 
 26 C       -9.3190     4.6090     0.1280 C.ar  1 <1>  -0.1500 
 27 C      -10.3420     3.7200     0.4070 C.ar  1 <1>  -0.1500 
 28 H        1.1700     1.7570     1.2210 H     1 <1>   0.4200 
 29 H        2.6070     0.0920    -0.6840 H     1 <1>   0.0800 
 30 H        2.8500     0.1840     1.0440 H     1 <1>   0.0800 
 31 H       -1.1160     1.3470    -1.8120 H     1 <1>   0.1500 
 32 H       -2.2130     0.5540     2.2210 H     1 <1>   0.1500 
 33 H        3.3450     2.4220    -0.9540 H     1 <1>   0.0800 
 34 H       -3.2620     2.4610    -2.1740 H     1 <1>   0.1500 
 35 H       -4.3470     1.6680     1.8640 H     1 <1>   0.1500 
 36 H        5.2070     0.6790     0.4850 H     1 <1>   0.4500 
 37 H        3.5830     2.3380     2.0290 H     1 <1>   0.0800 
 38 H        3.0450     3.6460     1.0010 H     1 <1>   0.0800 
 39 H        5.9920     3.1150    -0.9270 H     1 <1>   0.0800 
 40 H        6.8900     2.2260     0.2970 H     1 <1>   0.0800 
 41 H        5.2130     1.4470    -2.3670 H     1 <1>   0.0800 
 42 H        4.4570    -0.0100    -1.7670 H     1 <1>   0.0800 
 43 H        5.6840     3.2280     1.9980 H     1 <1>   0.0800 
 44 H        5.2380     4.4020     0.7850 H     1 <1>   0.0800 
 45 H        7.3970     0.6850    -1.4670 H     1 <1>   0.0800 
 46 H        6.7070    -0.5200    -2.5100 H     1 <1>   0.0800 
 47 H        6.6210    -0.7400    -0.7870 H     1 <1>   0.0800 
 48 H       -6.2780     1.4060     0.6320 H     1 <1>   0.3700 
 49 H       -8.5370     0.8950     0.6800 H     1 <1>   0.1500 
 50 H       -7.2310     4.8650    -0.1640 H     1 <1>   0.1500 
 51 H      -10.8470     1.6880     0.8230 H     1 <1>   0.1500 
 52 H       -9.5370     5.6510    -0.0290 H     1 <1>   0.1500 
 53 H      -11.3590     4.0690     0.4670 H     1 <1>   0.1500 
@<TRIPOS>BOND
  1   1   2  2   
  2   1   3  2   
  3   1   4  am  
  4   1   5  1   
  5   4   6  1   
  6   4  28  1   
  7   5   7  ar  
  8   5   8  ar  
  9   6   9  1   
 10   6  29  1   
 11   6  30  1   
 12   7  10  ar  
 13   7  31  1   
 14   8  11  ar  
 15   8  32  1   
 16   9  12  1   
 17   9  13  1   
 18   9  33  1   
 19  10  14  ar  
 20  10  34  1   
 21  11  14  ar  
 22  11  35  1   
 23  12  15  1   
 24  12  16  1   
 25  12  36  1   
 26  13  17  1   
 27  13  37  1   
 28  13  38  1   
 29  14  18  1   
 30  15  17  1   
 31  15  39  1   
 32  15  40  1   
 33  16  19  1   
 34  16  41  1   
 35  16  42  1   
 36  17  43  1   
 37  17  44  1   
 38  18  20  2   
 39  18  21  am  
 40  19  45  1   
 41  19  46  1   
 42  19  47  1   
 43  21  22  1   
 44  21  48  1   
 45  22  23  ar  
 46  22  24  ar  
 47  23  25  ar  
 48  23  49  1   
 49  24  26  ar  
 50  24  50  1   
 51  25  27  ar  
 52  25  51  1   
 53  26  27  ar  
 54  26  52  1   
 55  27  53  1   
@<TRIPOS>SUBSTRUCTURE
  1 ****   5 GROUP 4 **** **** 0

# MOE 2024.06 (io_trps.svl 2023.06)
