@<TRIPOS>MOLECULE
NONAME
32 32 1 0 0 
SMALL
USER_CHARGES


@<TRIPOS>ATOM
  1 O       -0.6440     0.6670    -1.4020 O.2   1 <1>  -0.5700 
  2 C       -1.4040     1.1330    -0.5700 C.2   1 <1>   0.4140 
  3 C       -1.3480     2.4690    -0.1150 C.3   1 <1>  -0.7150 
  4 C       -2.4560     0.1920     0.0000 C.3   1 <1>   0.0420 
  5 C       -2.3540     2.9290     0.7630 C.2   1 <1>   0.4140 
  6 C       -0.3310     3.3530    -0.5390 C.2   1 <1>   0.4140 
  7 C       -2.4470    -1.1830    -0.6810 C.2   1 <1>   0.6590 
  8 C       -3.8260     0.9190     0.0890 C.3   1 <1>   0.0000 
  9 O       -2.2800     3.9390     1.4380 O.2   1 <1>  -0.5700 
 10 C       -3.6230     2.1310     1.0190 C.3   1 <1>  -0.0990 
 11 O       -0.4780     4.5560    -0.6580 O.2   1 <1>  -0.5700 
 12 C        1.0590     2.8720    -0.8940 C.3   1 <1>  -0.1790 
 13 O       -3.2330    -1.4960    -1.5390 O.2   1 <1>  -0.5700 
 14 O       -1.6160    -2.1200    -0.2160 O.3   1 <1>  -0.4300 
 15 C       -4.9120     0.0160     0.7080 C.3   1 <1>  -0.2400 
 16 C       -4.3340     1.4230    -1.2810 C.3   1 <1>  -0.2400 
 17 C       -0.2960    -1.8800     0.2290 C.3   1 <1>   0.0400 
 18 H       -2.1590     0.0080     1.0130 H     1 <1>   0.0800 
 19 H       -4.4610     2.8000     0.9420 H     1 <1>   0.0800 
 20 H       -3.5730     1.8020     2.0400 H     1 <1>   0.0800 
 21 H        1.2990     1.9890    -0.3350 H     1 <1>   0.0800 
 22 H        1.7760     3.6350    -0.6590 H     1 <1>   0.0800 
 23 H        1.0990     2.6570    -1.9440 H     1 <1>   0.0800 
 24 H       -4.5840    -0.3860     1.6500 H     1 <1>   0.0800 
 25 H       -5.1500    -0.8040     0.0530 H     1 <1>   0.0800 
 26 H       -5.8140     0.5770     0.8730 H     1 <1>   0.0800 
 27 H       -3.6260     2.0950    -1.7340 H     1 <1>   0.0800 
 28 H       -5.2620     1.9530    -1.1670 H     1 <1>   0.0800 
 29 H       -4.5010     0.6080    -1.9610 H     1 <1>   0.0800 
 30 H        0.1240    -2.8160     0.5490 H     1 <1>   0.0800 
 31 H       -0.3020    -1.1840     1.0470 H     1 <1>   0.0800 
 32 H        0.2800    -1.4900    -0.5920 H     1 <1>   0.0800 
@<TRIPOS>BOND
  1   1   2  2   
  2   2   3  1   
  3   2   4  1   
  4   3   5  1   
  5   3   6  1   
  6   4   7  1   
  7   4   8  1   
  8   4  18  1   
  9   5   9  2   
 10   5  10  1   
 11   6  11  2   
 12   6  12  1   
 13   7  13  2   
 14   7  14  1   
 15   8  10  1   
 16   8  15  1   
 17   8  16  1   
 18  10  19  1   
 19  10  20  1   
 20  12  21  1   
 21  12  22  1   
 22  12  23  1   
 23  14  17  1   
 24  15  24  1   
 25  15  25  1   
 26  15  26  1   
 27  16  27  1   
 28  16  28  1   
 29  16  29  1   
 30  17  30  1   
 31  17  31  1   
 32  17  32  1   
@<TRIPOS>SUBSTRUCTURE
  1 ****   2 GROUP 4 **** **** 0

# MOE 2024.06 (io_trps.svl 2023.06)
