@<TRIPOS>MOLECULE
NONAME
40 41 1 0 0 
SMALL
USER_CHARGES


@<TRIPOS>ATOM
  1 S       -0.0410    -0.2420    -0.6240 S.o2  1 <1>   1.4470 
  2 O        0.0340    -0.1690    -2.0660 O.2   1 <1>  -0.6500 
  3 O        0.4480     0.8520     0.1820 O.2   1 <1>  -0.6500 
  4 N        0.9280    -1.5750    -0.2110 N.am  1 <1>  -0.8490 
  5 C       -1.6990    -0.7390    -0.0810 C.ar  1 <1>  -0.0090 
  6 C        0.6660    -2.7540    -1.0640 C.3   1 <1>   0.1960 
  7 C        2.3610    -1.2070    -0.2770 C.3   1 <1>   0.1960 
  8 C       -1.9840    -0.9100     1.2710 C.ar  1 <1>  -0.1500 
  9 C       -2.7170    -0.9790    -1.0000 C.ar  1 <1>  -0.1500 
 10 C        1.5130    -3.9850    -0.6470 C.3   1 <1>   0.3430 
 11 C        3.3140    -2.4040    -0.0300 C.3   1 <1>   0.3430 
 12 C       -3.2390    -1.3140     1.6930 C.ar  1 <1>  -0.1500 
 13 C       -3.9780    -1.3820    -0.5910 C.ar  1 <1>  -0.1500 
 14 N        2.5620    -3.6440     0.3780 N.4   1 <1>  -0.9590 
 15 C       -4.2300    -1.5490     0.7600 C.ar  1 <1>   0.1020 
 16 C        3.4290    -4.8040     0.7090 C.3   1 <1>   0.3430 
 17 S       -5.8360    -2.0730     1.3820 S.3   1 <1>  -0.3320 
 18 C        4.1890    -4.5260     2.0000 C.3   1 <1>  -0.2400 
 19 C       -6.9560    -2.2200    -0.0790 C.3   1 <1>  -0.0100 
 20 H        0.8840    -2.5190    -2.0940 H     1 <1>   0.0800 
 21 H       -0.3770    -3.0200    -1.0120 H     1 <1>   0.0800 
 22 H        2.5660    -0.4510     0.4640 H     1 <1>   0.0800 
 23 H        2.5860    -0.7740    -1.2380 H     1 <1>   0.0800 
 24 H       -1.2160    -0.7200     2.0020 H     1 <1>   0.1500 
 25 H       -2.5260    -0.8440    -2.0520 H     1 <1>   0.1500 
 26 H        1.9780    -4.3980    -1.5270 H     1 <1>   0.0800 
 27 H        0.8530    -4.7380    -0.2480 H     1 <1>   0.0800 
 28 H        4.0200    -2.1270     0.7350 H     1 <1>   0.0800 
 29 H        3.8720    -2.5960    -0.9310 H     1 <1>   0.0800 
 30 H       -3.4550    -1.4420     2.7400 H     1 <1>   0.1500 
 31 H       -4.7410    -1.5570    -1.3250 H     1 <1>   0.1500 
 32 H        2.0330    -3.3680     1.2200 H     1 <1>   0.4500 
 33 H        4.1200    -4.9960    -0.0960 H     1 <1>   0.0800 
 34 H        2.8190    -5.6830     0.8480 H     1 <1>   0.0800 
 35 H        4.8890    -3.7190     1.8810 H     1 <1>   0.0800 
 36 H        4.7490    -5.4030     2.2720 H     1 <1>   0.0800 
 37 H        3.5110    -4.3050     2.8050 H     1 <1>   0.0800 
 38 H       -7.9270    -2.5060     0.2850 H     1 <1>   0.0800 
 39 H       -6.5570    -2.9750    -0.7310 H     1 <1>   0.0800 
 40 H       -6.9990    -1.2600    -0.5630 H     1 <1>   0.0800 
@<TRIPOS>BOND
  1   1   2  2   
  2   1   3  2   
  3   1   4  am  
  4   1   5  1   
  5   4   6  1   
  6   4   7  1   
  7   5   8  ar  
  8   5   9  ar  
  9   6  10  1   
 10   6  20  1   
 11   6  21  1   
 12   7  11  1   
 13   7  22  1   
 14   7  23  1   
 15   8  12  ar  
 16   8  24  1   
 17   9  13  ar  
 18   9  25  1   
 19  10  14  1   
 20  10  26  1   
 21  10  27  1   
 22  11  14  1   
 23  11  28  1   
 24  11  29  1   
 25  12  15  ar  
 26  12  30  1   
 27  13  15  ar  
 28  13  31  1   
 29  14  16  1   
 30  14  32  1   
 31  15  17  1   
 32  16  18  1   
 33  16  33  1   
 34  16  34  1   
 35  17  19  1   
 36  18  35  1   
 37  18  36  1   
 38  18  37  1   
 39  19  38  1   
 40  19  39  1   
 41  19  40  1   
@<TRIPOS>SUBSTRUCTURE
  1 ****   4 GROUP 4 **** **** 0

# MOE 2024.06 (io_trps.svl 2023.06)
