@<TRIPOS>MOLECULE
NONAME
33 36 1 0 0 
SMALL
USER_CHARGES


@<TRIPOS>ATOM
  1 O       -0.1400     0.6840    -1.0370 O.2   1 <1>  -0.5700 
  2 C       -0.4550     1.6050    -0.3300 C.2   1 <1>   0.5690 
  3 N        0.3520     2.5800     0.2280 N.am  1 <1>  -0.2370 
  4 C       -1.8420     1.8590     0.1700 C.3   1 <1>  -0.0190 
  5 C        1.7530     2.6580     0.0830 C.ar  1 <1>   0.1170 
  6 C       -0.4510     3.5660     0.7760 C.2   1 <1>   0.5690 
  7 C       -3.3190     1.6000    -0.1010 C.3   1 <1>   0.3380 
  8 C       -1.8200     3.3840     0.1950 C.3   1 <1>  -0.0190 
  9 C        2.3520     3.7240    -0.5930 C.ar  1 <1>   0.0820 
 10 C        2.5650     1.6650     0.6190 C.ar  1 <1>  -0.1500 
 11 O       -0.1490     4.4330     1.5570 O.2   1 <1>  -0.5700 
 12 O       -3.7690     2.4280     0.9310 O.3   1 <1>  -0.5600 
 13 C       -3.9240     2.3850    -1.2520 C.2   1 <1>  -0.2880 
 14 C       -3.3000     3.6740     0.5100 C.3   1 <1>   0.3380 
 15 O        1.5720     4.6910    -1.1410 O.3   1 <1>  -0.3630 
 16 C        3.7320     3.7860    -0.7230 C.ar  1 <1>  -0.1500 
 17 C        3.9420     1.7330     0.4930 C.ar  1 <1>  -0.1500 
 18 C       -3.9690     3.6530    -0.8510 C.2   1 <1>  -0.2880 
 19 C        1.7810     6.0120    -0.6890 C.3   1 <1>   0.0400 
 20 C        4.5260     2.7930    -0.1770 C.ar  1 <1>  -0.1500 
 21 H       -1.7450     1.4830     1.1790 H     1 <1>   0.0800 
 22 H       -3.6790     0.5950     0.0450 H     1 <1>   0.0800 
 23 H       -1.6650     3.7710    -0.8000 H     1 <1>   0.0800 
 24 H        2.1180     0.8340     1.1340 H     1 <1>   0.1500 
 25 H       -4.2330     1.8960    -2.1590 H     1 <1>   0.1500 
 26 H       -3.5580     4.4650     1.1930 H     1 <1>   0.0800 
 27 H        4.1870     4.6000    -1.2570 H     1 <1>   0.1500 
 28 H        4.5590     0.9570     0.9140 H     1 <1>   0.1500 
 29 H       -4.3300     4.5540    -1.3160 H     1 <1>   0.1500 
 30 H        0.9930     6.6290    -1.0800 H     1 <1>   0.0800 
 31 H        2.7320     6.3630    -1.0450 H     1 <1>   0.0800 
 32 H        1.7530     6.0200     0.3870 H     1 <1>   0.0800 
 33 H        5.5970     2.8430    -0.2780 H     1 <1>   0.1500 
@<TRIPOS>BOND
  1   1   2  2   
  2   2   3  am  
  3   2   4  1   
  4   3   5  1   
  5   3   6  am  
  6   4   7  1   
  7   4   8  1   
  8   4  21  1   
  9   5   9  ar  
 10   5  10  ar  
 11   6   8  1   
 12   6  11  2   
 13   7  12  1   
 14   7  13  1   
 15   7  22  1   
 16   8  14  1   
 17   8  23  1   
 18   9  15  1   
 19   9  16  ar  
 20  10  17  ar  
 21  10  24  1   
 22  12  14  1   
 23  13  18  2   
 24  13  25  1   
 25  14  18  1   
 26  14  26  1   
 27  15  19  1   
 28  16  20  ar  
 29  16  27  1   
 30  17  20  ar  
 31  17  28  1   
 32  18  29  1   
 33  19  30  1   
 34  19  31  1   
 35  19  32  1   
 36  20  33  1   
@<TRIPOS>SUBSTRUCTURE
  1 ****   3 GROUP 4 **** **** 0

# MOE 2024.06 (io_trps.svl 2023.06)
