@<TRIPOS>MOLECULE
NONAME
53 56 1 0 0 
SMALL
USER_CHARGES


@<TRIPOS>ATOM
  1 O        0.4650     1.6540     2.7400 O.2   1 <1>  -0.5700 
  2 C        0.4150     2.2910     1.7090 C.2   1 <1>   0.5950 
  3 C        1.4480     2.2150     0.7120 C.2   1 <1>  -0.0860 
  4 C       -0.8290     3.1650     1.4830 C.3   1 <1>   0.2610 
  5 C        1.8340     3.1830    -0.2670 C.ar  1 <1>   0.0000 
  6 C        2.2520     1.1280     0.4930 C.2   1 <1>  -0.3020 
  7 O       -1.7170     3.0570     2.5740 O.3   1 <1>  -0.6800 
  8 C       -1.5300     2.8350     0.1270 C.3   1 <1>   0.3340 
  9 C        2.8120     2.5830    -1.0570 C.ar  1 <1>  -0.1520 
 10 C        1.4770     4.5090    -0.5530 C.ar  1 <1>  -0.1500 
 11 N        3.0660     1.3320    -0.5640 N.pl3 1 <1>   0.0330 
 12 N       -2.8980     3.4240    -0.0280 N.3   1 <1>  -0.8100 
 13 C       -1.6080     1.3230    -0.1020 C.ar  1 <1>  -0.1430 
 14 C        3.3890     3.2410    -2.1440 C.ar  1 <1>  -0.1500 
 15 C        2.0480     5.1640    -1.6220 C.ar  1 <1>  -0.1500 
 16 C       -2.9820     4.8840     0.2340 C.3   1 <1>   0.1100 
 17 C       -3.5380     3.0970    -1.3320 C.3   1 <1>   0.1100 
 18 C       -0.8720     0.7350    -1.1230 C.ar  1 <1>  -0.1500 
 19 C       -2.4130     0.5220     0.6950 C.ar  1 <1>  -0.1500 
 20 C        2.9990     4.5280    -2.4230 C.ar  1 <1>  -0.1500 
 21 C       -4.4410     5.4040     0.1760 C.3   1 <1>   0.3430 
 22 C       -4.9980     3.6070    -1.4130 C.3   1 <1>   0.3430 
 23 C       -0.9400    -0.6290    -1.3400 C.ar  1 <1>  -0.1500 
 24 C       -2.4810    -0.8430     0.4800 C.ar  1 <1>  -0.1500 
 25 N       -5.3950     4.2910    -0.1390 N.4   1 <1>  -0.9590 
 26 C       -1.7440    -1.4200    -0.5390 C.ar  1 <1>  -0.1500 
 27 C       -6.8290     4.6920    -0.0890 C.3   1 <1>   0.2630 
 28 H       -0.5090     4.1860     1.4740 H     1 <1>   0.0800 
 29 H        2.2560     0.2080     1.0540 H     1 <1>   0.1500 
 30 H       -1.3530     2.3620     3.1730 H     1 <1>   0.4000 
 31 H       -0.9140     3.2420    -0.6560 H     1 <1>   0.0800 
 32 H        0.7740     5.0340     0.0580 H     1 <1>   0.1500 
 33 H        3.7610     0.6790    -0.9410 H     1 <1>   0.2700 
 34 H        4.1310     2.7450    -2.7460 H     1 <1>   0.1500 
 35 H        1.7750     6.1800    -1.8490 H     1 <1>   0.1500 
 36 H       -2.3820     5.4220    -0.4790 H     1 <1>   0.0800 
 37 H       -2.6000     5.1050     1.2160 H     1 <1>   0.0800 
 38 H       -3.5600     2.0310    -1.4800 H     1 <1>   0.0800 
 39 H       -2.9650     3.5200    -2.1400 H     1 <1>   0.0800 
 40 H       -0.2350     1.3310    -1.7540 H     1 <1>   0.1500 
 41 H       -2.9910     0.9630     1.4890 H     1 <1>   0.1500 
 42 H        3.4290     5.0590    -3.2550 H     1 <1>   0.1500 
 43 H       -4.5140     6.1780    -0.5690 H     1 <1>   0.0800 
 44 H       -4.6900     5.8400     1.1300 H     1 <1>   0.0800 
 45 H       -5.6480     2.7680    -1.5970 H     1 <1>   0.0800 
 46 H       -5.0930     4.2860    -2.2440 H     1 <1>   0.0800 
 47 H       -0.3650    -1.0780    -2.1310 H     1 <1>   0.1500 
 48 H       -3.1040    -1.4570     1.1070 H     1 <1>   0.1500 
 49 H       -5.1800     3.5840     0.5880 H     1 <1>   0.4500 
 50 H       -1.7950    -2.4820    -0.7060 H     1 <1>   0.1500 
 51 H       -7.0400     5.4270    -0.8480 H     1 <1>   0.0800 
 52 H       -7.0660     5.1110     0.8760 H     1 <1>   0.0800 
 53 H       -7.4620     3.8340    -0.2530 H     1 <1>   0.0800 
@<TRIPOS>BOND
  1   1   2  2   
  2   2   3  1   
  3   2   4  1   
  4   3   5  1   
  5   3   6  2   
  6   4   7  1   
  7   4   8  1   
  8   4  28  1   
  9   5   9  ar  
 10   5  10  ar  
 11   6  11  1   
 12   6  29  1   
 13   7  30  1   
 14   8  12  1   
 15   8  13  1   
 16   8  31  1   
 17   9  11  1   
 18   9  14  ar  
 19  10  15  ar  
 20  10  32  1   
 21  11  33  1   
 22  12  16  1   
 23  12  17  1   
 24  13  18  ar  
 25  13  19  ar  
 26  14  20  ar  
 27  14  34  1   
 28  15  20  ar  
 29  15  35  1   
 30  16  21  1   
 31  16  36  1   
 32  16  37  1   
 33  17  22  1   
 34  17  38  1   
 35  17  39  1   
 36  18  23  ar  
 37  18  40  1   
 38  19  24  ar  
 39  19  41  1   
 40  20  42  1   
 41  21  25  1   
 42  21  43  1   
 43  21  44  1   
 44  22  25  1   
 45  22  45  1   
 46  22  46  1   
 47  23  26  ar  
 48  23  47  1   
 49  24  26  ar  
 50  24  48  1   
 51  25  27  1   
 52  25  49  1   
 53  26  50  1   
 54  27  51  1   
 55  27  52  1   
 56  27  53  1   
@<TRIPOS>SUBSTRUCTURE
  1 ****   8 GROUP 4 **** **** 0

# MOE 2024.06 (io_trps.svl 2023.06)
