@<TRIPOS>MOLECULE
NONAME
44 46 1 0 0 
SMALL
USER_CHARGES


@<TRIPOS>ATOM
  1 S        0.4500    -0.2410     0.2920 S.3   1 <1>  -0.2860 
  2 C       -1.1660    -1.0150     0.4020 C.2   1 <1>   0.2420 
  3 C        1.5210    -1.3880     1.2920 C.3   1 <1>   0.1310 
  4 N       -1.3660    -2.1180     1.0280 N.2   1 <1>  -0.3380 
  5 N       -2.2630    -0.4980    -0.1440 N.pl3 1 <1>   0.0480 
  6 C        2.9690    -0.9250     1.3140 C.2   1 <1>   0.5690 
  7 N       -2.6640    -2.3680     0.9080 N.2   1 <1>  -0.3380 
  8 C       -3.2110    -1.4030     0.2090 C.2   1 <1>   0.1330 
  9 C       -2.3600     0.7840    -0.8880 C.3   1 <1>   0.0960 
 10 O        3.6780    -1.3020     2.2160 O.2   1 <1>  -0.5700 
 11 N        3.4330    -0.1160     0.3270 N.am  1 <1>  -0.7300 
 12 C       -4.6260    -1.3360    -0.1090 C.ar  1 <1>   0.3630 
 13 C       -2.9110     1.8940     0.0130 C.3   1 <1>  -0.2400 
 14 C        4.7960     0.4250     0.2210 C.3   1 <1>   0.2200 
 15 N       -5.0360    -0.6000    -1.1510 N.ar  1 <1>  -0.6200 
 16 C       -5.5390    -2.0470     0.6760 C.ar  1 <1>  -0.1500 
 17 C        4.7190     1.9460     0.2390 C.3   1 <1>  -0.1600 
 18 C        5.3370     0.1180    -1.1700 C.3   1 <1>  -0.1600 
 19 C       -6.3330    -0.5780    -1.4030 C.ar  1 <1>   0.1600 
 20 C       -6.8880    -2.0150     0.4070 C.ar  1 <1>  -0.1500 
 21 C        4.3420     2.3610    -1.1880 C.3   1 <1>  -0.1600 
 22 C        4.7450     1.1890    -2.0940 C.3   1 <1>  -0.1600 
 23 C       -7.2880    -1.2550    -0.6680 C.ar  1 <1>  -0.1500 
 24 H        1.4470    -2.3640     0.8490 H     1 <1>   0.0800 
 25 H        1.1200    -1.4100     2.2880 H     1 <1>   0.0800 
 26 H       -2.9870     0.6520    -1.7500 H     1 <1>   0.0800 
 27 H       -1.3850     1.0620    -1.2440 H     1 <1>   0.0800 
 28 H        2.7850     0.2180    -0.3880 H     1 <1>   0.3700 
 29 H       -3.9030     1.6480     0.3480 H     1 <1>   0.0800 
 30 H       -2.9600     2.8160    -0.5380 H     1 <1>   0.0800 
 31 H       -2.2700     2.0390     0.8650 H     1 <1>   0.0800 
 32 H        5.4260     0.0340     1.0050 H     1 <1>   0.0800 
 33 H       -5.1780    -2.6290     1.5050 H     1 <1>   0.1500 
 34 H        5.6970     2.3320     0.4680 H     1 <1>   0.0800 
 35 H        4.0260     2.3090     0.9770 H     1 <1>   0.0800 
 36 H        5.1010    -0.8830    -1.4860 H     1 <1>   0.0800 
 37 H        6.4070     0.2270    -1.1490 H     1 <1>   0.0800 
 38 H       -6.6560     0.0120    -2.2430 H     1 <1>   0.1500 
 39 H       -7.5960    -2.5610     1.0080 H     1 <1>   0.1500 
 40 H        4.8460     3.2690    -1.4700 H     1 <1>   0.0800 
 41 H        3.2790     2.5190    -1.2540 H     1 <1>   0.0800 
 42 H        3.8750     0.8010    -2.5950 H     1 <1>   0.0800 
 43 H        5.4650     1.4950    -2.8350 H     1 <1>   0.0800 
 44 H       -8.3280    -1.1870    -0.9350 H     1 <1>   0.1500 
@<TRIPOS>BOND
  1   1   2  1   
  2   1   3  1   
  3   2   4  2   
  4   2   5  1   
  5   3   6  1   
  6   3  24  1   
  7   3  25  1   
  8   4   7  1   
  9   5   8  1   
 10   5   9  1   
 11   6  10  2   
 12   6  11  am  
 13   7   8  2   
 14   8  12  1   
 15   9  13  1   
 16   9  26  1   
 17   9  27  1   
 18  11  14  1   
 19  11  28  1   
 20  12  15  ar  
 21  12  16  ar  
 22  13  29  1   
 23  13  30  1   
 24  13  31  1   
 25  14  17  1   
 26  14  18  1   
 27  14  32  1   
 28  15  19  ar  
 29  16  20  ar  
 30  16  33  1   
 31  17  21  1   
 32  17  34  1   
 33  17  35  1   
 34  18  22  1   
 35  18  36  1   
 36  18  37  1   
 37  19  23  ar  
 38  19  38  1   
 39  20  23  ar  
 40  20  39  1   
 41  21  22  1   
 42  21  40  1   
 43  21  41  1   
 44  22  42  1   
 45  22  43  1   
 46  23  44  1   
@<TRIPOS>SUBSTRUCTURE
  1 ****   2 GROUP 4 **** **** 0

# MOE 2024.06 (io_trps.svl 2023.06)
