@<TRIPOS>MOLECULE
NONAME
52 53 1 0 0 
SMALL
USER_CHARGES


@<TRIPOS>ATOM
  1 O       -0.0690     0.0270     0.6570 O.2   1 <1>  -0.5700 
  2 C       -0.2480     1.2210     0.5660 C.2   1 <1>   0.5690 
  3 N        0.7440     2.0390     0.0670 N.am  1 <1>  -0.6600 
  4 C       -1.6130     1.7400     1.0650 C.3   1 <1>   0.2610 
  5 C        2.0910     1.4950    -0.2880 C.3   1 <1>   0.1400 
  6 C        0.6070     3.5160    -0.1460 C.3   1 <1>   0.1400 
  7 O       -2.1520     2.7310     0.1980 O.3   1 <1>  -0.3630 
  8 C       -1.5300     2.3130     2.4900 C.3   1 <1>  -0.2400 
  9 C        3.2380     2.3660     0.2810 C.3   1 <1>   0.2000 
 10 C        1.9390     4.1870    -0.5410 C.3   1 <1>   0.2000 
 11 C       -3.4760     3.0240     0.1300 C.ar  1 <1>   0.0820 
 12 O        2.9600     3.7430     0.2990 O.3   1 <1>  -0.5600 
 13 C        4.5400     2.1790    -0.4960 C.3   1 <1>  -0.2400 
 14 C        1.8800     5.7070    -0.4100 C.3   1 <1>  -0.2400 
 15 C       -4.4700     2.3550     0.8340 C.ar  1 <1>  -0.1500 
 16 C       -3.8350     4.0650    -0.7070 C.ar  1 <1>  -0.1500 
 17 C       -5.7950     2.7310     0.6960 C.ar  1 <1>  -0.1500 
 18 C       -5.1600     4.4350    -0.8400 C.ar  1 <1>  -0.1500 
 19 C       -6.1690     3.7780    -0.1430 C.ar  1 <1>  -0.1440 
 20 C       -7.6350     4.2280    -0.3270 C.3   1 <1>   0.1430 
 21 C       -7.7780     5.6980     0.0950 C.3   1 <1>  -0.2400 
 22 C       -8.0360     4.0790    -1.8020 C.3   1 <1>  -0.2400 
 23 C       -8.6310     3.4070     0.5100 C.3   1 <1>  -0.2400 
 24 H       -2.2770     0.8970     1.0480 H     1 <1>   0.0800 
 25 H        2.1680     1.4530    -1.3600 H     1 <1>   0.0800 
 26 H        2.2070     0.4890     0.0770 H     1 <1>   0.0800 
 27 H        0.2450     3.9720     0.7570 H     1 <1>   0.0800 
 28 H       -0.1140     3.6970    -0.9230 H     1 <1>   0.0800 
 29 H       -0.8560     3.1480     2.5240 H     1 <1>   0.0800 
 30 H       -1.1600     1.5550     3.1560 H     1 <1>   0.0800 
 31 H       -2.4980     2.6250     2.8360 H     1 <1>   0.0800 
 32 H        3.4020     2.0800     1.3060 H     1 <1>   0.0800 
 33 H        2.1990     3.9270    -1.5530 H     1 <1>   0.0800 
 34 H        4.4170     2.4880    -1.5190 H     1 <1>   0.0800 
 35 H        4.8340     1.1460    -0.4790 H     1 <1>   0.0800 
 36 H        5.3210     2.7620    -0.0410 H     1 <1>   0.0800 
 37 H        1.6650     5.9860     0.6060 H     1 <1>   0.0800 
 38 H        1.1130     6.1040    -1.0490 H     1 <1>   0.0800 
 39 H        2.8230     6.1330    -0.7010 H     1 <1>   0.0800 
 40 H       -4.2420     1.5410     1.4940 H     1 <1>   0.1500 
 41 H       -3.0710     4.5840    -1.2560 H     1 <1>   0.1500 
 42 H       -6.5240     2.1820     1.2620 H     1 <1>   0.1500 
 43 H       -5.3970     5.2490    -1.5010 H     1 <1>   0.1500 
 44 H       -7.4660     5.8190     1.1170 H     1 <1>   0.0800 
 45 H       -8.8000     6.0210     0.0090 H     1 <1>   0.0800 
 46 H       -7.1740     6.3400    -0.5190 H     1 <1>   0.0800 
 47 H       -7.4350     4.7060    -2.4330 H     1 <1>   0.0800 
 48 H       -9.0660     4.3510    -1.9450 H     1 <1>   0.0800 
 49 H       -7.9030     3.0590    -2.1170 H     1 <1>   0.0800 
 50 H       -8.5910     2.3690     0.2320 H     1 <1>   0.0800 
 51 H       -9.6360     3.7550     0.3500 H     1 <1>   0.0800 
 52 H       -8.4110     3.5000     1.5580 H     1 <1>   0.0800 
@<TRIPOS>BOND
  1   1   2  2   
  2   2   3  am  
  3   2   4  1   
  4   3   5  1   
  5   3   6  1   
  6   4   7  1   
  7   4   8  1   
  8   4  24  1   
  9   5   9  1   
 10   5  25  1   
 11   5  26  1   
 12   6  10  1   
 13   6  27  1   
 14   6  28  1   
 15   7  11  1   
 16   8  29  1   
 17   8  30  1   
 18   8  31  1   
 19   9  12  1   
 20   9  13  1   
 21   9  32  1   
 22  10  12  1   
 23  10  14  1   
 24  10  33  1   
 25  11  15  ar  
 26  11  16  ar  
 27  13  34  1   
 28  13  35  1   
 29  13  36  1   
 30  14  37  1   
 31  14  38  1   
 32  14  39  1   
 33  15  17  ar  
 34  15  40  1   
 35  16  18  ar  
 36  16  41  1   
 37  17  19  ar  
 38  17  42  1   
 39  18  19  ar  
 40  18  43  1   
 41  19  20  1   
 42  20  21  1   
 43  20  22  1   
 44  20  23  1   
 45  21  44  1   
 46  21  45  1   
 47  21  46  1   
 48  22  47  1   
 49  22  48  1   
 50  22  49  1   
 51  23  50  1   
 52  23  51  1   
 53  23  52  1   
@<TRIPOS>SUBSTRUCTURE
  1 ****   7 GROUP 4 **** **** 0

# MOE 2024.06 (io_trps.svl 2023.06)
