@<TRIPOS>MOLECULE
NONAME
50 52 1 0 0 
SMALL
USER_CHARGES


@<TRIPOS>ATOM
  1 O        0.6090    -0.9740    -1.6930 O.2   1 <1>  -0.5700 
  2 C        0.4700    -1.9660    -1.0170 C.2   1 <1>   0.4950 
  3 C        1.4810    -2.4600    -0.1300 C.2   1 <1>   0.0290 
  4 C       -0.8630    -2.6730    -1.1760 C.3   1 <1>  -0.0990 
  5 C        1.2360    -3.6920     0.5700 C.2   1 <1>   0.4950 
  6 C        2.6500    -1.7420     0.0180 C.2   1 <1>  -0.0500 
  7 C       -1.2280    -3.4720     0.0740 C.3   1 <1>   0.0640 
  8 O        2.0340    -4.2390     1.3000 O.2   1 <1>  -0.5700 
  9 C       -0.0860    -4.4240     0.4250 C.3   1 <1>  -0.0990 
 10 N        3.6960    -2.0670     0.8140 N.pl3 1 <1>  -0.8690 
 11 C       -2.5450    -4.2210    -0.1070 C.ar  1 <1>  -0.1430 
 12 C        4.9540    -1.3020     0.9720 C.3   1 <1>   0.2090 
 13 C       -3.6180    -3.9350     0.7260 C.ar  1 <1>  -0.1500 
 14 C       -2.7010    -5.1900    -1.0910 C.ar  1 <1>  -0.1500 
 15 C        6.1100    -2.0940     0.3460 C.3   1 <1>   0.1100 
 16 C       -4.8220    -4.6020     0.5800 C.ar  1 <1>  -0.1500 
 17 C       -3.9040    -5.8570    -1.2380 C.ar  1 <1>  -0.1500 
 18 N        7.3980    -1.3610     0.4010 N.3   1 <1>  -0.8100 
 19 C       -4.9660    -5.5640    -0.4020 C.ar  1 <1>  -0.1500 
 20 C        7.4620    -0.2800    -0.6070 C.3   1 <1>   0.1100 
 21 C        8.5310    -2.2980     0.2620 C.3   1 <1>   0.1100 
 22 C        8.8000     0.4840    -0.5260 C.3   1 <1>   0.3430 
 23 C        9.8830    -1.5630     0.3610 C.3   1 <1>   0.3430 
 24 N        9.9740    -0.4440    -0.6360 N.4   1 <1>  -0.9060 
 25 H       -0.8040    -3.3140    -2.0360 H     1 <1>   0.0800 
 26 H       -1.6300    -1.9420    -1.3630 H     1 <1>   0.0800 
 27 H        2.7570    -0.8270    -0.5480 H     1 <1>   0.1500 
 28 H       -1.3390    -2.7760     0.8900 H     1 <1>   0.0800 
 29 H       -0.3160    -4.9210     1.3510 H     1 <1>   0.0800 
 30 H        0.0280    -5.1790    -0.3310 H     1 <1>   0.0800 
 31 H        3.6270    -2.9350     1.3820 H     1 <1>   0.4000 
 32 H        5.1430    -1.1430     2.0200 H     1 <1>   0.0800 
 33 H        4.8440    -0.3490     0.4880 H     1 <1>   0.0800 
 34 H       -3.5280    -3.1900     1.4980 H     1 <1>   0.1500 
 35 H       -1.8910    -5.4370    -1.7540 H     1 <1>   0.1500 
 36 H        5.8650    -2.3350    -0.6750 H     1 <1>   0.0800 
 37 H        6.1980    -3.0150     0.8970 H     1 <1>   0.0800 
 38 H       -5.6470    -4.3720     1.2320 H     1 <1>   0.1500 
 39 H       -4.0160    -6.6060    -2.0030 H     1 <1>   0.1500 
 40 H       -5.9020    -6.0830    -0.5160 H     1 <1>   0.1500 
 41 H        6.6630     0.4210    -0.4380 H     1 <1>   0.0800 
 42 H        7.3360    -0.6880    -1.5960 H     1 <1>   0.0800 
 43 H        8.4660    -2.8210    -0.6770 H     1 <1>   0.0800 
 44 H        8.4820    -3.0300     1.0520 H     1 <1>   0.0800 
 45 H        8.8340     1.0010     0.4200 H     1 <1>   0.0800 
 46 H        8.8370     1.2230    -1.3090 H     1 <1>   0.0800 
 47 H       10.6840    -2.2660     0.2040 H     1 <1>   0.0800 
 48 H        9.9780    -1.1680     1.3590 H     1 <1>   0.0800 
 49 H       10.8490     0.0770    -0.5010 H     1 <1>   0.4500 
 50 H        9.9910    -0.8440    -1.5800 H     1 <1>   0.4500 
@<TRIPOS>BOND
  1   1   2  2   
  2   2   3  1   
  3   2   4  1   
  4   3   5  1   
  5   3   6  2   
  6   4   7  1   
  7   4  25  1   
  8   4  26  1   
  9   5   8  2   
 10   5   9  1   
 11   6  10  1   
 12   6  27  1   
 13   7   9  1   
 14   7  11  1   
 15   7  28  1   
 16   9  29  1   
 17   9  30  1   
 18  10  12  1   
 19  10  31  1   
 20  11  13  ar  
 21  11  14  ar  
 22  12  15  1   
 23  12  32  1   
 24  12  33  1   
 25  13  16  ar  
 26  13  34  1   
 27  14  17  ar  
 28  14  35  1   
 29  15  18  1   
 30  15  36  1   
 31  15  37  1   
 32  16  19  ar  
 33  16  38  1   
 34  17  19  ar  
 35  17  39  1   
 36  18  20  1   
 37  18  21  1   
 38  19  40  1   
 39  20  22  1   
 40  20  41  1   
 41  20  42  1   
 42  21  23  1   
 43  21  43  1   
 44  21  44  1   
 45  22  24  1   
 46  22  45  1   
 47  22  46  1   
 48  23  24  1   
 49  23  47  1   
 50  23  48  1   
 51  24  49  1   
 52  24  50  1   
@<TRIPOS>SUBSTRUCTURE
  1 ****   3 GROUP 4 **** **** 0

# MOE 2024.06 (io_trps.svl 2023.06)
