@<TRIPOS>MOLECULE
NONAME
33 33 1 0 0 
SMALL
USER_CHARGES


@<TRIPOS>ATOM
  1 S       -0.2330     0.7250    -0.0010 S.3   1 <1>  -0.4100 
  2 C       -1.5670    -0.4970     0.0010 C.3   1 <1>   0.0700 
  3 C       -2.8970     0.2580    -0.0010 C.3   1 <1>  -0.1600 
  4 C       -4.0870    -0.7100     0.0010 C.3   1 <1>  -0.1600 
  5 C       -5.4180     0.0540    -0.0010 C.3   1 <1>  -0.1600 
  6 C       -6.6080    -0.9050     0.0000 C.3   1 <1>   0.1200 
  7 O       -7.7900    -0.1380    -0.0020 O.3   1 <1>  -0.3620 
  8 C       -9.0120    -0.7320     0.0000 C.ar  1 <1>   0.0820 
  9 C      -10.1120     0.1100    -0.0020 C.ar  1 <1>  -0.1500 
 10 C       -9.2050    -2.1110     0.0030 C.ar  1 <1>  -0.1500 
 11 C      -11.3930    -0.4130    -0.0010 C.ar  1 <1>  -0.1500 
 12 C      -10.4880    -2.6340     0.0040 C.ar  1 <1>  -0.1500 
 13 C      -11.5910    -1.7840     0.0020 C.ar  1 <1>   0.0820 
 14 O      -12.8790    -2.2150     0.0020 O.3   1 <1>  -0.3630 
 15 C      -13.1870    -3.5910     0.0050 C.3   1 <1>   0.0400 
 16 H        0.8860    -0.0580     0.0010 H     1 <1>   0.1800 
 17 H       -1.4510    -1.0980     0.8860 H     1 <1>   0.0800 
 18 H       -1.4500    -1.1020    -0.8810 H     1 <1>   0.0800 
 19 H       -2.9440     0.8860    -0.8750 H     1 <1>   0.0800 
 20 H       -2.9440     0.8900     0.8700 H     1 <1>   0.0800 
 21 H       -4.0360    -1.3370     0.8750 H     1 <1>   0.0800 
 22 H       -4.0360    -1.3410    -0.8710 H     1 <1>   0.0800 
 23 H       -5.4730     0.6770    -0.8770 H     1 <1>   0.0800 
 24 H       -5.4740     0.6810     0.8720 H     1 <1>   0.0800 
 25 H       -6.6030    -1.5170     0.8860 H     1 <1>   0.0800 
 26 H       -6.6030    -1.5200    -0.8820 H     1 <1>   0.0800 
 27 H       -9.9590     1.1730    -0.0050 H     1 <1>   0.1500 
 28 H       -8.3750    -2.7910     0.0040 H     1 <1>   0.1500 
 29 H      -12.2470     0.2400    -0.0030 H     1 <1>   0.1500 
 30 H      -10.6080    -3.7000     0.0060 H     1 <1>   0.1500 
 31 H      -14.2570    -3.6930     0.0050 H     1 <1>   0.0800 
 32 H      -12.7770    -4.0390     0.8930 H     1 <1>   0.0800 
 33 H      -12.7770    -4.0420    -0.8810 H     1 <1>   0.0800 
@<TRIPOS>BOND
  1   1   2  1   
  2   1  16  1   
  3   2   3  1   
  4   2  17  1   
  5   2  18  1   
  6   3   4  1   
  7   3  19  1   
  8   3  20  1   
  9   4   5  1   
 10   4  21  1   
 11   4  22  1   
 12   5   6  1   
 13   5  23  1   
 14   5  24  1   
 15   6   7  1   
 16   6  25  1   
 17   6  26  1   
 18   7   8  1   
 19   8   9  ar  
 20   8  10  ar  
 21   9  11  ar  
 22   9  27  1   
 23  10  12  ar  
 24  10  28  1   
 25  11  13  ar  
 26  11  29  1   
 27  12  13  ar  
 28  12  30  1   
 29  13  14  1   
 30  14  15  1   
 31  15  31  1   
 32  15  32  1   
 33  15  33  1   
@<TRIPOS>SUBSTRUCTURE
  1 ****   7 GROUP 4 **** **** 0

# MOE 2024.06 (io_trps.svl 2023.06)
