@<TRIPOS>MOLECULE
NONAME
40 41 1 0 0 
SMALL
USER_CHARGES


@<TRIPOS>ATOM
  1 S       -0.1140    -0.2380    -1.3610 S.3   1 <1>  -0.0800 
  2 C        0.4430     1.1770    -0.5010 C.2   1 <1>   0.1040 
  3 C       -1.7870     0.0710    -0.9390 C.2   1 <1>  -0.1400 
  4 N        1.7980     1.4800    -0.4610 N.am  1 <1>  -0.4940 
  5 C       -0.6110     1.8480     0.0580 C.2   1 <1>  -0.0860 
  6 C       -1.8860     1.1790    -0.1670 C.2   1 <1>  -0.1810 
  7 C       -2.7450    -0.9580    -1.5140 C.3   1 <1>  -0.0600 
  8 C        2.9060     0.9280    -1.0550 C.2   1 <1>   0.5690 
  9 C       -0.4050     3.0880     0.7660 C.2   1 <1>   0.8060 
 10 C       -3.1580     1.7460     0.4800 C.3   1 <1>   0.0210 
 11 O        2.8710     0.0060    -1.8310 O.2   1 <1>  -0.5700 
 12 C        4.2690     1.5010    -0.7050 C.3   1 <1>   0.1310 
 13 O        0.6540     3.3730     1.2960 O.2   1 <1>  -0.5700 
 14 O       -1.3930     3.9920     0.8190 O.3   1 <1>  -0.4300 
 15 C       -4.3530     0.7970     0.6060 C.3   1 <1>  -0.2400 
 16 S        4.1530     3.3000    -0.2500 S.3   1 <1>  -0.3310 
 17 C       -1.2260     5.2460     1.4530 C.3   1 <1>   0.0400 
 18 C        5.8290     3.7560     0.1500 C.ar  1 <1>   0.7220 
 19 N        6.7260     2.7860     0.0650 N.ar  1 <1>  -0.6200 
 20 N        5.9910     5.0230     0.4920 N.ar  1 <1>  -0.6200 
 21 C        7.9520     3.1540     0.3680 C.ar  1 <1>   0.1600 
 22 C        7.2270     5.3530     0.7880 C.ar  1 <1>   0.1600 
 23 C        8.2580     4.4430     0.7400 C.ar  1 <1>  -0.1500 
 24 H        2.0170     2.2970     0.1260 H     1 <1>   0.3700 
 25 H       -2.3520    -1.3480    -2.4360 H     1 <1>   0.0800 
 26 H       -3.7000    -0.5250    -1.7320 H     1 <1>   0.0800 
 27 H       -2.8650    -1.7720    -0.8230 H     1 <1>   0.0800 
 28 H       -3.4660     2.6260    -0.0580 H     1 <1>   0.0800 
 29 H       -2.9100     2.0460     1.4830 H     1 <1>   0.0800 
 30 H        4.9320     1.4270    -1.5470 H     1 <1>   0.0800 
 31 H        4.6860     0.9810     0.1370 H     1 <1>   0.0800 
 32 H       -4.8390     0.6690    -0.3420 H     1 <1>   0.0800 
 33 H       -5.0740     1.2150     1.2860 H     1 <1>   0.0800 
 34 H       -4.0380    -0.1570     0.9900 H     1 <1>   0.0800 
 35 H       -2.1450     5.7970     1.3660 H     1 <1>   0.0800 
 36 H       -0.4270     5.7800     0.9670 H     1 <1>   0.0800 
 37 H       -0.9870     5.0840     2.4900 H     1 <1>   0.0800 
 38 H        8.7300     2.4100     0.3180 H     1 <1>   0.1500 
 39 H        7.4220     6.3740     1.0740 H     1 <1>   0.1500 
 40 H        9.2630     4.7280     0.9850 H     1 <1>   0.1500 
@<TRIPOS>BOND
  1   1   2  1   
  2   1   3  1   
  3   2   4  1   
  4   2   5  2   
  5   3   6  2   
  6   3   7  1   
  7   4   8  am  
  8   4  24  1   
  9   5   6  1   
 10   5   9  1   
 11   6  10  1   
 12   7  25  1   
 13   7  26  1   
 14   7  27  1   
 15   8  11  2   
 16   8  12  1   
 17   9  13  2   
 18   9  14  1   
 19  10  15  1   
 20  10  28  1   
 21  10  29  1   
 22  12  16  1   
 23  12  30  1   
 24  12  31  1   
 25  14  17  1   
 26  15  32  1   
 27  15  33  1   
 28  15  34  1   
 29  16  18  1   
 30  17  35  1   
 31  17  36  1   
 32  17  37  1   
 33  18  19  ar  
 34  18  20  ar  
 35  19  21  ar  
 36  20  22  ar  
 37  21  23  ar  
 38  21  38  1   
 39  22  23  ar  
 40  22  39  1   
 41  23  40  1   
@<TRIPOS>SUBSTRUCTURE
  1 ****   4 GROUP 4 **** **** 0

# MOE 2024.06 (io_trps.svl 2023.06)
