@<TRIPOS>MOLECULE
NONAME
41 41 1 0 0 
SMALL
USER_CHARGES


@<TRIPOS>ATOM
  1 S       -0.0020    -0.1450    -0.0120 S.o2  1 <1>   1.4470 
  2 O        0.9210    -0.7540     0.9190 O.2   1 <1>  -0.6500 
  3 O        0.3660     0.0320    -1.3990 O.2   1 <1>  -0.6500 
  4 N       -0.2470     1.3640     0.6930 N.am  1 <1>  -0.9140 
  5 C       -1.6380    -0.9270     0.0790 C.ar  1 <1>  -0.0090 
  6 C        0.5450     2.5050     0.2760 C.3   1 <1>   0.2760 
  7 C       -1.7620    -2.3010    -0.1040 C.ar  1 <1>   0.0820 
  8 C       -2.7950    -0.1890     0.3010 C.ar  1 <1>  -0.1500 
  9 C        0.0360     3.0730    -1.0460 C.3   1 <1>  -0.2400 
 10 C        2.0440     2.2060     0.2600 C.3   1 <1>  -0.2400 
 11 O       -0.6350    -3.0040    -0.3510 O.3   1 <1>  -0.3630 
 12 C       -3.0150    -2.9050    -0.0370 C.ar  1 <1>  -0.1500 
 13 C       -4.0630    -0.7630     0.3660 C.ar  1 <1>   0.0860 
 14 C       -0.6200    -4.4020    -0.5310 C.3   1 <1>   0.0400 
 15 C       -4.1430    -2.1460     0.1990 C.ar  1 <1>  -0.1500 
 16 C       -5.2410     0.0530     0.5980 C.2   1 <1>   0.5440 
 17 O       -5.1640     1.0930     1.2220 O.2   1 <1>  -0.5700 
 18 N       -6.4590    -0.3190     0.1080 N.am  1 <1>  -0.7300 
 19 C       -7.7010     0.4410     0.2920 C.3   1 <1>   0.2780 
 20 C       -8.8450    -0.5430     0.1850 C.2   1 <1>  -0.2880 
 21 C       -9.7710    -0.5540    -0.7800 C.2   1 <1>  -0.3000 
 22 H        0.0170     1.1790     1.6580 H     1 <1>   0.4200 
 23 H        0.3850     3.2720     1.0170 H     1 <1>   0.0800 
 24 H       -2.7260     0.8790     0.4280 H     1 <1>   0.1500 
 25 H        0.2760     2.4350    -1.8740 H     1 <1>   0.0800 
 26 H        0.4950     4.0280    -1.2260 H     1 <1>   0.0800 
 27 H       -1.0290     3.2140    -1.0020 H     1 <1>   0.0800 
 28 H        2.3030     1.5370    -0.5410 H     1 <1>   0.0800 
 29 H        2.3550     1.7780     1.1960 H     1 <1>   0.0800 
 30 H        2.5890     3.1190     0.1100 H     1 <1>   0.0800 
 31 H       -3.1270    -3.9660    -0.1640 H     1 <1>   0.1500 
 32 H        0.3980    -4.7040    -0.7010 H     1 <1>   0.0800 
 33 H       -1.2220    -4.6510    -1.3870 H     1 <1>   0.0800 
 34 H       -0.9960    -4.8740     0.3590 H     1 <1>   0.0800 
 35 H       -5.1000    -2.6330     0.2600 H     1 <1>   0.1500 
 36 H       -6.5420    -1.1020    -0.5380 H     1 <1>   0.3700 
 37 H       -7.7740     1.1950    -0.4740 H     1 <1>   0.0800 
 38 H       -7.7060     0.9240     1.2550 H     1 <1>   0.0800 
 39 H       -8.8400    -1.2560     0.9920 H     1 <1>   0.1500 
 40 H      -10.5770    -1.2670    -0.8290 H     1 <1>   0.1500 
 41 H       -9.8050     0.1440    -1.5990 H     1 <1>   0.1500 
@<TRIPOS>BOND
  1   1   2  2   
  2   1   3  2   
  3   1   4  am  
  4   1   5  1   
  5   4   6  1   
  6   4  22  1   
  7   5   7  ar  
  8   5   8  ar  
  9   6   9  1   
 10   6  10  1   
 11   6  23  1   
 12   7  11  1   
 13   7  12  ar  
 14   8  13  ar  
 15   8  24  1   
 16   9  25  1   
 17   9  26  1   
 18   9  27  1   
 19  10  28  1   
 20  10  29  1   
 21  10  30  1   
 22  11  14  1   
 23  12  15  ar  
 24  12  31  1   
 25  13  15  ar  
 26  13  16  1   
 27  14  32  1   
 28  14  33  1   
 29  14  34  1   
 30  15  35  1   
 31  16  17  2   
 32  16  18  am  
 33  18  19  1   
 34  18  36  1   
 35  19  20  1   
 36  19  37  1   
 37  19  38  1   
 38  20  21  2   
 39  20  39  1   
 40  21  40  1   
 41  21  41  1   
@<TRIPOS>SUBSTRUCTURE
  1 ****   8 GROUP 4 **** **** 0

# MOE 2024.06 (io_trps.svl 2023.06)
