@<TRIPOS>MOLECULE
NONAME
26 26 1 0 0 
SMALL
USER_CHARGES


@<TRIPOS>ATOM
  1 CL      -1.1100    -0.2890    -2.3990 Cl    1 <1>  -0.2900 
  2 C       -1.7890     1.0760    -1.5220 C.3   1 <1>   0.9310 
  3 CL      -0.7150     1.3730    -0.1540 Cl    1 <1>  -0.2900 
  4 CL      -1.6610     2.4850    -2.5680 Cl    1 <1>  -0.2900 
  5 C       -3.2460     0.8160    -1.0580 C.2   1 <1>   0.5690 
  6 O       -4.1060     0.5940    -1.8830 O.2   1 <1>  -0.5700 
  7 N       -3.5400     0.8390     0.2870 N.am  1 <1>  -0.4900 
  8 C       -4.7110     0.6470     0.9420 C.2   1 <1>   0.6900 
  9 O       -4.6880     0.7250     2.1490 O.2   1 <1>  -0.5700 
 10 N       -5.8470     0.3800     0.2670 N.am  1 <1>  -0.7300 
 11 C       -7.1800     0.1500     0.8410 C.3   1 <1>   0.2200 
 12 C       -7.6920    -1.2010     0.3580 C.3   1 <1>  -0.1600 
 13 C       -8.1560     1.1380     0.2150 C.3   1 <1>  -0.1600 
 14 C       -8.2320    -0.9580    -1.0560 C.3   1 <1>  -0.1600 
 15 C       -8.5310     0.5440    -1.1480 C.3   1 <1>  -0.1600 
 16 H       -2.7910     1.0280     0.9520 H     1 <1>   0.3700 
 17 H       -5.7930     0.3280    -0.7560 H     1 <1>   0.3700 
 18 H       -7.1520     0.2220     1.9170 H     1 <1>   0.0800 
 19 H       -8.5040    -1.5040     0.9950 H     1 <1>   0.0800 
 20 H       -6.9290    -1.9590     0.3890 H     1 <1>   0.0800 
 21 H       -7.7410     2.1280     0.1390 H     1 <1>   0.0800 
 22 H       -9.0370     1.1810     0.8310 H     1 <1>   0.0800 
 23 H       -9.1140    -1.5480    -1.2370 H     1 <1>   0.0800 
 24 H       -7.4830    -1.2220    -1.7840 H     1 <1>   0.0800 
 25 H       -7.9220     0.9860    -1.9190 H     1 <1>   0.0800 
 26 H       -9.5670     0.7280    -1.3760 H     1 <1>   0.0800 
@<TRIPOS>BOND
  1   1   2  1   
  2   2   3  1   
  3   2   4  1   
  4   2   5  1   
  5   5   6  2   
  6   5   7  am  
  7   7   8  am  
  8   7  16  1   
  9   8   9  2   
 10   8  10  am  
 11  10  11  1   
 12  10  17  1   
 13  11  12  1   
 14  11  13  1   
 15  11  18  1   
 16  12  14  1   
 17  12  19  1   
 18  12  20  1   
 19  13  15  1   
 20  13  21  1   
 21  13  22  1   
 22  14  15  1   
 23  14  23  1   
 24  14  24  1   
 25  15  25  1   
 26  15  26  1   
@<TRIPOS>SUBSTRUCTURE
  1 ****  10 GROUP 4 **** **** 0

# MOE 2024.06 (io_trps.svl 2023.06)
