@<TRIPOS>MOLECULE
NONAME
39 40 1 0 0 
SMALL
USER_CHARGES


@<TRIPOS>ATOM
  1 O        7.3230     0.6160    -1.7370 O.3   1 <1>  -0.5600 
  2 C        8.2460    -0.3930    -2.0420 C.3   1 <1>   0.2640 
  3 C        6.2800     0.2600    -0.8660 C.3   1 <1>   0.1200 
  4 C        9.3900    -0.3170    -1.0450 C.ar  1 <1>  -0.1440 
  5 C        6.4260     0.9860     0.4840 C.3   1 <1>   0.2000 
  6 C       10.5200     0.4300    -1.3470 C.ar  1 <1>  -0.1500 
  7 C        9.3300    -1.0000     0.1610 C.ar  1 <1>  -0.1500 
  8 O        5.2510     0.8270     1.2080 O.3   1 <1>  -0.6800 
  9 C        6.7280     2.4910     0.3480 C.3   1 <1>   0.3430 
 10 C       11.5750     0.4960    -0.4530 C.ar  1 <1>  -0.1500 
 11 C       10.3820    -0.9280     1.0590 C.ar  1 <1>  -0.1500 
 12 N        8.1320     2.7340    -0.0990 N.4   1 <1>  -0.9590 
 13 C       11.5040    -0.1800     0.7520 C.ar  1 <1>  -0.1500 
 14 C        9.1500     2.5370     0.9710 C.3   1 <1>   0.3430 
 15 C        8.3500     4.0660    -0.7030 C.3   1 <1>   0.3430 
 16 C       10.2270     3.5880     0.7180 C.3   1 <1>  -0.1600 
 17 C        9.8500     4.2650    -0.5970 C.3   1 <1>  -0.1600 
 18 H        8.6120    -0.2080    -3.0370 H     1 <1>   0.0800 
 19 H        7.7690    -1.3590    -2.0360 H     1 <1>   0.0800 
 20 H        6.2590    -0.8060    -0.7140 H     1 <1>   0.0800 
 21 H        5.3650     0.5600    -1.3470 H     1 <1>   0.0800 
 22 H        7.1970     0.5170     1.0680 H     1 <1>   0.0800 
 23 H       10.5910     0.9540    -2.2850 H     1 <1>   0.1500 
 24 H        8.4710    -1.6010     0.4070 H     1 <1>   0.1500 
 25 H        4.4500     1.0000     0.6720 H     1 <1>   0.4000 
 26 H        6.5670     2.9730     1.2980 H     1 <1>   0.0800 
 27 H        6.0470     2.9100    -0.3730 H     1 <1>   0.0800 
 28 H       12.4560     1.0660    -0.6980 H     1 <1>   0.1500 
 29 H       10.3330    -1.4650     1.9910 H     1 <1>   0.1500 
 30 H        8.3180     2.0210    -0.8340 H     1 <1>   0.4500 
 31 H       12.3280    -0.1350     1.4450 H     1 <1>   0.1500 
 32 H        9.5630     1.5430     0.9170 H     1 <1>   0.0800 
 33 H        8.7150     2.6860     1.9460 H     1 <1>   0.0800 
 34 H        7.8440     4.8200    -0.1220 H     1 <1>   0.0800 
 35 H        8.0090     4.1020    -1.7250 H     1 <1>   0.0800 
 36 H       11.2050     3.1430     0.6760 H     1 <1>   0.0800 
 37 H       10.2120     4.3010     1.5240 H     1 <1>   0.0800 
 38 H       10.1160     5.3080    -0.6120 H     1 <1>   0.0800 
 39 H       10.3320     3.7700    -1.4230 H     1 <1>   0.0800 
@<TRIPOS>BOND
  1   1   2  1   
  2   1   3  1   
  3   2   4  1   
  4   2  18  1   
  5   2  19  1   
  6   3   5  1   
  7   3  20  1   
  8   3  21  1   
  9   4   6  ar  
 10   4   7  ar  
 11   5   8  1   
 12   5   9  1   
 13   5  22  1   
 14   6  10  ar  
 15   6  23  1   
 16   7  11  ar  
 17   7  24  1   
 18   8  25  1   
 19   9  12  1   
 20   9  26  1   
 21   9  27  1   
 22  10  13  ar  
 23  10  28  1   
 24  11  13  ar  
 25  11  29  1   
 26  12  14  1   
 27  12  15  1   
 28  12  30  1   
 29  13  31  1   
 30  14  16  1   
 31  14  32  1   
 32  14  33  1   
 33  15  17  1   
 34  15  34  1   
 35  15  35  1   
 36  16  17  1   
 37  16  36  1   
 38  16  37  1   
 39  17  38  1   
 40  17  39  1   
@<TRIPOS>SUBSTRUCTURE
  1 ****  12 GROUP 4 **** **** 0

# MOE 2024.06 (io_trps.svl 2023.06)
