@<TRIPOS>MOLECULE
NONAME
29 31 1 0 0 
SMALL
USER_CHARGES


@<TRIPOS>ATOM
  1 CL      -0.1430     0.2670    -0.4610 Cl    1 <1>  -0.1400 
  2 C       -1.7390     0.9310    -0.1480 C.2   1 <1>   0.1540 
  3 C       -1.8230     2.2240     0.4590 C.2   1 <1>   0.3750 
  4 C       -2.8590     0.2290    -0.4760 C.2   1 <1>  -0.1690 
  5 N       -2.9540     2.7930     0.7280 N.2   1 <1>  -0.5760 
  6 C       -0.5560     2.9790     0.8120 C.3   1 <1>  -0.1790 
  7 N       -4.0580     0.8530    -0.1810 N.pl3 1 <1>   0.6010 
  8 C       -2.9080    -1.1530    -1.1240 C.3   1 <1>  -0.1020 
  9 C       -4.0840     2.0890     0.3990 C.2   1 <1>   0.3120 
 10 N       -5.3050     0.4420    -0.3730 N.2   1 <1>  -0.7070 
 11 N       -5.3020     2.4800     0.5830 N.2   1 <1>  -0.5650 
 12 C       -5.9860     1.4430     0.0980 C.2   1 <1>   0.5790 
 13 N       -7.3720     1.4530     0.1040 N.am  1 <1>  -0.1830 
 14 C       -8.1390     1.9470    -0.9010 C.2   1 <1>   0.5690 
 15 C       -8.1370     0.9950     1.1280 C.2   1 <1>   0.5690 
 16 O       -7.7580     2.4070    -1.9460 O.2   1 <1>  -0.5700 
 17 C       -9.6090     1.8480    -0.5580 C.3   1 <1>  -0.0990 
 18 O       -7.7530     0.4850     2.1480 O.2   1 <1>  -0.5700 
 19 C       -9.6070     1.1940     0.8340 C.3   1 <1>  -0.0990 
 20 H        0.0280     2.4120     1.5140 H     1 <1>   0.0800 
 21 H       -0.7980     3.9280     1.2580 H     1 <1>   0.0800 
 22 H        0.0260     3.1570    -0.0740 H     1 <1>   0.0800 
 23 H       -3.4340    -1.1000    -2.0620 H     1 <1>   0.0800 
 24 H       -3.4320    -1.8410    -0.4830 H     1 <1>   0.0800 
 25 H       -1.9250    -1.5470    -1.3100 H     1 <1>   0.0800 
 26 H      -10.1140     1.2360    -1.2830 H     1 <1>   0.0800 
 27 H      -10.0460     2.8300    -0.5350 H     1 <1>   0.0800 
 28 H      -10.0440     1.8390     1.5760 H     1 <1>   0.0800 
 29 H      -10.1110     0.2440     0.8280 H     1 <1>   0.0800 
@<TRIPOS>BOND
  1   1   2  1   
  2   2   3  1   
  3   2   4  2   
  4   3   5  2   
  5   3   6  1   
  6   4   7  1   
  7   4   8  1   
  8   5   9  1   
  9   6  20  1   
 10   6  21  1   
 11   6  22  1   
 12   7   9  1   
 13   7  10  1   
 14   8  23  1   
 15   8  24  1   
 16   8  25  1   
 17   9  11  2   
 18  10  12  2   
 19  11  12  1   
 20  12  13  1   
 21  13  14  am  
 22  13  15  am  
 23  14  16  2   
 24  14  17  1   
 25  15  18  2   
 26  15  19  1   
 27  17  19  1   
 28  17  26  1   
 29  17  27  1   
 30  19  28  1   
 31  19  29  1   
@<TRIPOS>SUBSTRUCTURE
  1 ****  12 GROUP 4 **** **** 0

# MOE 2024.06 (io_trps.svl 2023.06)
