@<TRIPOS>MOLECULE
NONAME
44 46 1 0 0 
SMALL
USER_CHARGES


@<TRIPOS>ATOM
  1 O        0.6020    -0.5680    -0.9770 O.2   1 <1>  -0.5700 
  2 C        1.0300    -1.4420    -0.2470 C.2   1 <1>   0.5440 
  3 N        2.3660    -1.4260     0.0980 N.am  1 <1>  -0.6600 
  4 C        0.1300    -2.4780     0.2240 C.ar  1 <1>   0.0860 
  5 C        3.1240    -2.6350     0.5520 C.3   1 <1>   0.1400 
  6 C        3.2530    -0.2660    -0.2320 C.3   1 <1>   0.1400 
  7 C       -0.6730    -3.1880    -0.6680 C.ar  1 <1>  -0.1500 
  8 C        0.0300    -2.8000     1.5780 C.ar  1 <1>  -0.1500 
  9 C        4.2140    -3.0380    -0.4600 C.3   1 <1>   0.2090 
 10 C        4.3340    -0.6510    -1.2560 C.3   1 <1>   0.2090 
 11 C       -1.5250    -4.1870    -0.2330 C.ar  1 <1>  -0.1500 
 12 C       -0.8180    -3.7980     2.0210 C.ar  1 <1>  -0.1500 
 13 N        5.0750    -1.8880    -0.8610 N.pl3 1 <1>  -0.8380 
 14 C       -1.5960    -4.4960     1.1140 C.ar  1 <1>  -0.1500 
 15 C        6.3230    -1.7520    -0.2540 C.ar  1 <1>   0.1000 
 16 C        7.4940    -2.0610    -0.9460 C.ar  1 <1>  -0.1430 
 17 C        6.4220    -1.3060     1.0600 C.ar  1 <1>  -0.1500 
 18 C        8.7240    -1.9220    -0.3220 C.ar  1 <1>  -0.1500 
 19 C        7.4300    -2.5500    -2.3850 C.3   1 <1>  -0.0970 
 20 C        7.6510    -1.1700     1.6760 C.ar  1 <1>  -0.1500 
 21 C        8.8120    -1.4760     0.9870 C.ar  1 <1>  -0.1430 
 22 C       10.1660    -1.3310     1.6560 C.3   1 <1>  -0.0970 
 23 H        2.4650    -3.4730     0.6890 H     1 <1>   0.0800 
 24 H        3.5880    -2.4240     1.4980 H     1 <1>   0.0800 
 25 H        3.7290     0.0780     0.6680 H     1 <1>   0.0800 
 26 H        2.6770     0.5540    -0.6220 H     1 <1>   0.0800 
 27 H       -0.6250    -2.9420    -1.7150 H     1 <1>   0.1500 
 28 H        0.6270    -2.2530     2.2870 H     1 <1>   0.1500 
 29 H        3.7440    -3.4390    -1.3410 H     1 <1>   0.0800 
 30 H        4.8290    -3.8110    -0.0350 H     1 <1>   0.0800 
 31 H        5.0300     0.1620    -1.3650 H     1 <1>   0.0800 
 32 H        3.8670    -0.8150    -2.2110 H     1 <1>   0.0800 
 33 H       -2.1340    -4.7230    -0.9410 H     1 <1>   0.1500 
 34 H       -0.8790    -4.0310     3.0700 H     1 <1>   0.1500 
 35 H       -2.2580    -5.2730     1.4550 H     1 <1>   0.1500 
 36 H        5.5280    -1.0670     1.6000 H     1 <1>   0.1500 
 37 H        9.6240    -2.1620    -0.8580 H     1 <1>   0.1500 
 38 H        6.9480    -1.8090    -2.9970 H     1 <1>   0.0800 
 39 H        6.8560    -3.4580    -2.4320 H     1 <1>   0.0800 
 40 H        8.4110    -2.7400    -2.7790 H     1 <1>   0.0800 
 41 H        7.7010    -0.8250     2.6930 H     1 <1>   0.1500 
 42 H       10.4630    -2.2730     2.0810 H     1 <1>   0.0800 
 43 H       10.1240    -0.5940     2.4380 H     1 <1>   0.0800 
 44 H       10.9050    -1.0220     0.9390 H     1 <1>   0.0800 
@<TRIPOS>BOND
  1   1   2  2   
  2   2   3  am  
  3   2   4  1   
  4   3   5  1   
  5   3   6  1   
  6   4   7  ar  
  7   4   8  ar  
  8   5   9  1   
  9   5  23  1   
 10   5  24  1   
 11   6  10  1   
 12   6  25  1   
 13   6  26  1   
 14   7  11  ar  
 15   7  27  1   
 16   8  12  ar  
 17   8  28  1   
 18   9  13  1   
 19   9  29  1   
 20   9  30  1   
 21  10  13  1   
 22  10  31  1   
 23  10  32  1   
 24  11  14  ar  
 25  11  33  1   
 26  12  14  ar  
 27  12  34  1   
 28  13  15  1   
 29  14  35  1   
 30  15  16  ar  
 31  15  17  ar  
 32  16  18  ar  
 33  16  19  1   
 34  17  20  ar  
 35  17  36  1   
 36  18  21  ar  
 37  18  37  1   
 38  19  38  1   
 39  19  39  1   
 40  19  40  1   
 41  20  21  ar  
 42  20  41  1   
 43  21  22  1   
 44  22  42  1   
 45  22  43  1   
 46  22  44  1   
@<TRIPOS>SUBSTRUCTURE
  1 ****   5 GROUP 4 **** **** 0

# MOE 2024.06 (io_trps.svl 2023.06)
