@<TRIPOS>MOLECULE
NONAME
44 45 1 0 0 
SMALL
USER_CHARGES


@<TRIPOS>ATOM
  1 O        0.5670    -0.6120    -2.8590 O.2   1 <1>  -0.5700 
  2 C        0.8490    -1.3410    -1.9390 C.2   1 <1>   0.5690 
  3 N        1.7890    -1.0410    -0.9900 N.am  1 <1>  -0.5470 
  4 C        0.1040    -2.6750    -1.8010 C.3   1 <1>   0.1710 
  5 C        2.5700     0.1000    -0.7340 C.ar  1 <1>   0.1170 
  6 N       -1.1970    -2.5960    -1.0710 N.3   1 <1>  -0.8100 
  7 C        3.2520     0.1600     0.4860 C.ar  1 <1>   0.0830 
  8 C        2.7000     1.1560    -1.6300 C.ar  1 <1>  -0.1500 
  9 C       -1.9200    -3.8870    -1.0560 C.3   1 <1>   0.1100 
 10 C       -1.0940    -2.0190     0.2940 C.3   1 <1>   0.1100 
 11 O        3.1010    -0.9000     1.3390 O.3   1 <1>  -0.3630 
 12 C        4.0410     1.2660     0.7890 C.ar  1 <1>  -0.1500 
 13 C        3.4860     2.2520    -1.3230 C.ar  1 <1>  -0.1500 
 14 C       -3.3230    -3.7610    -0.4080 C.3   1 <1>   0.3430 
 15 C       -2.4710    -1.9260     0.9980 C.3   1 <1>   0.3430 
 16 C        3.8680    -0.9940     2.5210 C.3   1 <1>   0.0400 
 17 C        4.1560     2.3080    -0.1150 C.ar  1 <1>  -0.1500 
 18 N       -3.5770    -2.3660     0.0810 N.4   1 <1>  -0.9590 
 19 C       -4.9470    -2.1760     0.6150 C.3   1 <1>   0.3430 
 20 C       -5.2610    -0.6880     0.7110 C.3   1 <1>  -0.2400 
 21 H        1.9390    -1.7440    -0.2660 H     1 <1>   0.3700 
 22 H        0.7500    -3.3840    -1.3150 H     1 <1>   0.0800 
 23 H       -0.0810    -3.0350    -2.7980 H     1 <1>   0.0800 
 24 H        2.1920     1.1310    -2.5760 H     1 <1>   0.1500 
 25 H       -1.3450    -4.6230    -0.5190 H     1 <1>   0.0800 
 26 H       -2.0380    -4.2420    -2.0660 H     1 <1>   0.0800 
 27 H       -0.6860    -1.0240     0.2330 H     1 <1>   0.0800 
 28 H       -0.4250    -2.6080     0.8970 H     1 <1>   0.0800 
 29 H        4.5730     1.3420     1.7180 H     1 <1>   0.1500 
 30 H        3.5750     3.0610    -2.0280 H     1 <1>   0.1500 
 31 H       -3.3990    -4.4590     0.4090 H     1 <1>   0.0800 
 32 H       -4.0670    -4.0320    -1.1400 H     1 <1>   0.0800 
 33 H       -2.6290    -0.9070     1.3090 H     1 <1>   0.0800 
 34 H       -2.4600    -2.5410     1.8830 H     1 <1>   0.0800 
 35 H        3.6360    -1.9280     3.0010 H     1 <1>   0.0800 
 36 H        3.6100    -0.1770     3.1720 H     1 <1>   0.0800 
 37 H        4.9120    -0.9660     2.2640 H     1 <1>   0.0800 
 38 H        4.7660     3.1630     0.1210 H     1 <1>   0.1500 
 39 H       -3.4420    -1.7810    -0.7600 H     1 <1>   0.4500 
 40 H       -5.0380    -2.6400     1.5840 H     1 <1>   0.0800 
 41 H       -5.6600    -2.6390    -0.0500 H     1 <1>   0.0800 
 42 H       -4.6420    -0.2010     1.4430 H     1 <1>   0.0800 
 43 H       -6.2850    -0.5630     1.0160 H     1 <1>   0.0800 
 44 H       -5.1390    -0.2090    -0.2440 H     1 <1>   0.0800 
@<TRIPOS>BOND
  1   1   2  2   
  2   2   3  am  
  3   2   4  1   
  4   3   5  1   
  5   3  21  1   
  6   4   6  1   
  7   4  22  1   
  8   4  23  1   
  9   5   7  ar  
 10   5   8  ar  
 11   6   9  1   
 12   6  10  1   
 13   7  11  1   
 14   7  12  ar  
 15   8  13  ar  
 16   8  24  1   
 17   9  14  1   
 18   9  25  1   
 19   9  26  1   
 20  10  15  1   
 21  10  27  1   
 22  10  28  1   
 23  11  16  1   
 24  12  17  ar  
 25  12  29  1   
 26  13  17  ar  
 27  13  30  1   
 28  14  18  1   
 29  14  31  1   
 30  14  32  1   
 31  15  18  1   
 32  15  33  1   
 33  15  34  1   
 34  16  35  1   
 35  16  36  1   
 36  16  37  1   
 37  17  38  1   
 38  18  19  1   
 39  18  39  1   
 40  19  20  1   
 41  19  40  1   
 42  19  41  1   
 43  20  42  1   
 44  20  43  1   
 45  20  44  1   
@<TRIPOS>SUBSTRUCTURE
  1 ****   3 GROUP 4 **** **** 0

# MOE 2024.06 (io_trps.svl 2023.06)
