@<TRIPOS>MOLECULE
Structure2545
23 24 1 0 0 
SMALL
USER_CHARGES


@<TRIPOS>ATOM
  1 BR      -0.2320     0.0830     0.3310 Br    1 <1>  -0.1110 
  2 C        1.6410     0.4700     0.1100 C.ar  1 <1>   0.1110 
  3 C        2.3910    -0.3290    -0.7330 C.ar  1 <1>  -0.1500 
  4 C        2.1860     1.5380     0.7970 C.ar  1 <1>  -0.1500 
  5 C        3.7390    -0.0510    -0.8910 C.ar  1 <1>  -0.1500 
  6 C        3.5340     1.8080     0.6350 C.ar  1 <1>  -0.1500 
  7 C        4.3150     1.0160    -0.1980 C.ar  1 <1>   0.0830 
  8 O        5.6290     1.3390    -0.2850 O.3   1 <1>  -0.3400 
  9 C        6.5810     0.3850    -0.7110 C.3   1 <1>   0.2580 
 10 C        6.8540    -0.6870     0.3720 C.3   1 <1>   0.4720 
 11 C        8.0180     0.8880    -0.4410 C.3   1 <1>   0.4720 
 12 N        8.3280    -0.4260     0.2220 N.4   1 <1>  -0.8440 
 13 H        1.9220    -1.1440    -1.2550 H     1 <1>   0.1500 
 14 H        1.5680     2.1410     1.4390 H     1 <1>   0.1500 
 15 H        4.3050    -0.6670    -1.5630 H     1 <1>   0.1500 
 16 H        3.9800     2.6370     1.1550 H     1 <1>   0.1500 
 17 H        6.4070     0.0330    -1.7120 H     1 <1>   0.0000 
 18 H        6.5990    -1.6890     0.0770 H     1 <1>   0.0000 
 19 H        6.5110    -0.4010     1.3500 H     1 <1>   0.0000 
 20 H        8.0600     1.6950     0.2690 H     1 <1>   0.0000 
 21 H        8.6110     1.0320    -1.3260 H     1 <1>   0.0000 
 22 H        8.7930    -1.0910    -0.4060 H     1 <1>   0.4500 
 23 H        8.8110    -0.3180     1.1210 H     1 <1>   0.4500 
@<TRIPOS>BOND
  1   1   2  1   
  2   2   3  ar  
  3   2   4  ar  
  4   3   5  ar  
  5   3  13  1   
  6   4   6  ar  
  7   4  14  1   
  8   5   7  ar  
  9   5  15  1   
 10   6   7  ar  
 11   6  16  1   
 12   7   8  1   
 13   8   9  1   
 14   9  10  1   
 15   9  11  1   
 16   9  17  1   
 17  10  12  1   
 18  10  18  1   
 19  10  19  1   
 20  11  12  1   
 21  11  20  1   
 22  11  21  1   
 23  12  22  1   
 24  12  23  1   
@<TRIPOS>SUBSTRUCTURE
  1 ****   7 GROUP 4 **** **** 0

# MOE 2024.06 (io_trps.svl 2023.06)
