@<TRIPOS>MOLECULE
NONAME
30 30 1 0 0 
SMALL
USER_CHARGES


@<TRIPOS>ATOM
  1 S        0.0850    -0.1500     0.6620 S.o2  1 <1>   1.4470 
  2 O        0.0460     1.2510     0.3140 O.2   1 <1>  -0.6500 
  3 O        0.7220    -0.5790     1.8870 O.2   1 <1>  -0.6500 
  4 N        0.9240    -0.8510    -0.6080 N.am  1 <1>  -0.9140 
  5 C       -1.5680    -0.8860     0.5230 C.ar  1 <1>  -0.0090 
  6 C        2.3590    -0.7480    -0.4550 C.3   1 <1>   0.1960 
  7 C       -2.5650    -0.2800    -0.2250 C.ar  1 <1>  -0.1500 
  8 C       -1.8690    -2.0930     1.1390 C.ar  1 <1>  -0.1500 
  9 C        3.0080    -1.2740    -1.7270 C.3   1 <1>  -0.2400 
 10 C       -3.8400    -0.8250    -0.3720 C.ar  1 <1>   0.0860 
 11 C       -3.1190    -2.6670     1.0070 C.ar  1 <1>  -0.1500 
 12 C       -4.1030    -2.0500     0.2540 C.ar  1 <1>  -0.1430 
 13 C       -4.8180    -0.1000    -1.1610 C.2   1 <1>   0.5440 
 14 C       -5.4530    -2.7440     0.1120 C.3   1 <1>  -0.0970 
 15 O       -4.5900     0.2250    -2.3050 O.2   1 <1>  -0.5700 
 16 N       -6.0090     0.2830    -0.6490 N.am  1 <1>  -0.8000 
 17 H        0.6720    -0.2750    -1.4080 H     1 <1>   0.4200 
 18 H        2.6790    -1.3370     0.3910 H     1 <1>   0.0800 
 19 H        2.6440     0.2790    -0.2890 H     1 <1>   0.0800 
 20 H       -2.3550     0.6550    -0.7190 H     1 <1>   0.1500 
 21 H       -1.1120    -2.5900     1.7250 H     1 <1>   0.1500 
 22 H        2.7240    -2.2980    -1.8920 H     1 <1>   0.0800 
 23 H        4.0780    -1.2290    -1.6300 H     1 <1>   0.0800 
 24 H        2.7180    -0.6790    -2.5740 H     1 <1>   0.0800 
 25 H       -3.3160    -3.6070     1.4950 H     1 <1>   0.1500 
 26 H       -5.3820    -3.7810     0.3890 H     1 <1>   0.0800 
 27 H       -6.1810    -2.2720     0.7460 H     1 <1>   0.0800 
 28 H       -5.7940    -2.6970    -0.9070 H     1 <1>   0.0800 
 29 H       -6.6360     0.8410    -1.2290 H     1 <1>   0.3700 
 30 H       -6.2620     0.1670     0.3310 H     1 <1>   0.3700 
@<TRIPOS>BOND
  1   1   2  2   
  2   1   3  2   
  3   1   4  am  
  4   1   5  1   
  5   4   6  1   
  6   4  17  1   
  7   5   7  ar  
  8   5   8  ar  
  9   6   9  1   
 10   6  18  1   
 11   6  19  1   
 12   7  10  ar  
 13   7  20  1   
 14   8  11  ar  
 15   8  21  1   
 16   9  22  1   
 17   9  23  1   
 18   9  24  1   
 19  10  12  ar  
 20  10  13  1   
 21  11  12  ar  
 22  11  25  1   
 23  12  14  1   
 24  13  15  2   
 25  13  16  am  
 26  14  26  1   
 27  14  27  1   
 28  14  28  1   
 29  16  29  1   
 30  16  30  1   
@<TRIPOS>SUBSTRUCTURE
  1 ****   5 GROUP 4 **** **** 0

# MOE 2024.06 (io_trps.svl 2023.06)
