@<TRIPOS>MOLECULE
NONAME
47 49 1 0 0 
SMALL
USER_CHARGES


@<TRIPOS>ATOM
  1 O        0.8910     1.7910    -1.8690 O.2   1 <1>  -0.5700 
  2 C       -0.1640     1.7720    -1.2580 C.2   1 <1>   0.5440 
  3 N       -0.7970     0.5640    -1.0700 N.am  1 <1>  -0.6600 
  4 C       -0.7040     3.0020    -0.7170 C.ar  1 <1>   0.0860 
  5 C       -0.2290    -0.7160    -1.5530 C.3   1 <1>   0.1400 
  6 C       -1.8310     0.3230    -0.0360 C.3   1 <1>   0.1400 
  7 C        0.0620     3.8040     0.1440 C.ar  1 <1>   0.1170 
  8 C       -2.0000     3.4110    -1.0350 C.ar  1 <1>  -0.1500 
  9 C       -0.7210    -1.7590    -0.5570 C.3   1 <1>  -0.1600 
 10 C       -2.0290    -1.1890    -0.0180 C.3   1 <1>  -0.1600 
 11 N        1.3800     3.4260     0.4370 N.am  1 <1>  -0.5470 
 12 C       -0.5000     4.9640     0.6720 C.ar  1 <1>  -0.1500 
 13 C       -2.5430     4.5640    -0.5040 C.ar  1 <1>  -0.1500 
 14 C        2.2270     3.7040     1.4760 C.2   1 <1>   0.5690 
 15 C       -1.7900     5.3420     0.3560 C.ar  1 <1>  -0.1500 
 16 O        1.9320     4.4180     2.4050 O.2   1 <1>  -0.5700 
 17 C        3.6100     3.0670     1.4650 C.3   1 <1>   0.1810 
 18 O        3.7160     2.1090     0.4220 O.3   1 <1>  -0.3630 
 19 C        4.8640     1.4280     0.1940 C.ar  1 <1>   0.0820 
 20 C        6.0000     1.5310     0.9910 C.ar  1 <1>  -0.1500 
 21 C        4.8770     0.5880    -0.9070 C.ar  1 <1>  -0.1500 
 22 C        7.1300     0.7950     0.6800 C.ar  1 <1>  -0.1500 
 23 C        6.0090    -0.1460    -1.2140 C.ar  1 <1>  -0.1500 
 24 C        7.1410    -0.0470    -0.4210 C.ar  1 <1>  -0.1430 
 25 C        8.3830    -0.8520    -0.7620 C.3   1 <1>  -0.0970 
 26 H        0.8470    -0.6820    -1.5860 H     1 <1>   0.0800 
 27 H       -0.6140    -0.9190    -2.5370 H     1 <1>   0.0800 
 28 H       -2.7490     0.8300    -0.2780 H     1 <1>   0.0800 
 29 H       -1.4650     0.6660     0.9170 H     1 <1>   0.0800 
 30 H       -2.5830     2.8090    -1.7110 H     1 <1>   0.1500 
 31 H       -0.0020    -1.8450     0.2390 H     1 <1>   0.0800 
 32 H       -0.8500    -2.7220    -1.0190 H     1 <1>   0.0800 
 33 H       -2.8380    -1.4430    -0.6800 H     1 <1>   0.0800 
 34 H       -2.2580    -1.5500     0.9690 H     1 <1>   0.0800 
 35 H        1.7790     2.7590    -0.2430 H     1 <1>   0.3700 
 36 H        0.0780     5.5850     1.3330 H     1 <1>   0.1500 
 37 H       -3.5470     4.8610    -0.7590 H     1 <1>   0.1500 
 38 H       -2.2060     6.2420     0.7760 H     1 <1>   0.1500 
 39 H        3.7800     2.5700     2.4020 H     1 <1>   0.0800 
 40 H        4.3530     3.8260     1.3070 H     1 <1>   0.0800 
 41 H        6.0250     2.1710     1.8510 H     1 <1>   0.1500 
 42 H        3.9960     0.5150    -1.5210 H     1 <1>   0.1500 
 43 H        8.0060     0.8800     1.3000 H     1 <1>   0.1500 
 44 H        6.0030    -0.7920    -2.0740 H     1 <1>   0.1500 
 45 H        8.1100    -1.7930    -1.2030 H     1 <1>   0.0800 
 46 H        8.9600    -1.0480     0.1240 H     1 <1>   0.0800 
 47 H        8.9900    -0.3040    -1.4590 H     1 <1>   0.0800 
@<TRIPOS>BOND
  1   1   2  2   
  2   2   3  am  
  3   2   4  1   
  4   3   5  1   
  5   3   6  1   
  6   4   7  ar  
  7   4   8  ar  
  8   5   9  1   
  9   5  26  1   
 10   5  27  1   
 11   6  10  1   
 12   6  28  1   
 13   6  29  1   
 14   7  11  1   
 15   7  12  ar  
 16   8  13  ar  
 17   8  30  1   
 18   9  10  1   
 19   9  31  1   
 20   9  32  1   
 21  10  33  1   
 22  10  34  1   
 23  11  14  am  
 24  11  35  1   
 25  12  15  ar  
 26  12  36  1   
 27  13  15  ar  
 28  13  37  1   
 29  14  16  2   
 30  14  17  1   
 31  15  38  1   
 32  17  18  1   
 33  17  39  1   
 34  17  40  1   
 35  18  19  1   
 36  19  20  ar  
 37  19  21  ar  
 38  20  22  ar  
 39  20  41  1   
 40  21  23  ar  
 41  21  42  1   
 42  22  24  ar  
 43  22  43  1   
 44  23  24  ar  
 45  23  44  1   
 46  24  25  1   
 47  25  45  1   
 48  25  46  1   
 49  25  47  1   
@<TRIPOS>SUBSTRUCTURE
  1 ****  11 GROUP 4 **** **** 0

# MOE 2024.06 (io_trps.svl 2023.06)
