@<TRIPOS>MOLECULE
NONAME
42 44 1 0 0 
SMALL
USER_CHARGES


@<TRIPOS>ATOM
  1 S        0.3050    -0.6630     0.7070 S.3   1 <1>  -0.0800 
  2 C        1.0720     0.2220    -0.5570 C.2   1 <1>   0.4340 
  3 C       -1.0120     0.4570     0.5430 C.2   1 <1>   0.4420 
  4 S        2.6940    -0.3350    -1.0520 S.3   1 <1>  -0.2860 
  5 N        0.3950     1.1950    -1.0100 N.2   1 <1>  -0.3380 
  6 N       -0.8130     1.3280    -0.3800 N.2   1 <1>  -0.3380 
  7 N       -2.0830     0.2840     1.3900 N.am  1 <1>  -0.4940 
  8 C        3.3350     1.0770    -2.0730 C.3   1 <1>   0.1310 
  9 C       -3.2390     0.9920     1.5500 C.2   1 <1>   0.5440 
 10 C        3.8180     2.2090    -1.1770 C.2   1 <1>   0.5690 
 11 O       -4.0950     0.4300     2.1980 O.2   1 <1>  -0.5700 
 12 C       -3.4750     2.3200     1.0110 C.ar  1 <1>   0.0860 
 13 O        3.1830     3.2360    -1.1700 O.2   1 <1>  -0.5700 
 14 N        4.9550     2.0730    -0.4240 N.am  1 <1>  -0.6600 
 15 C       -4.6780     2.6120     0.3670 C.ar  1 <1>  -0.1500 
 16 C       -2.5450     3.3540     1.1300 C.ar  1 <1>  -0.1500 
 17 C        5.4690     3.1700     0.4250 C.3   1 <1>   0.1400 
 18 C        5.8640     0.9050    -0.3900 C.3   1 <1>   0.1400 
 19 C       -4.9440     3.8690    -0.1490 C.ar  1 <1>  -0.1430 
 20 C       -2.7980     4.6110     0.6150 C.ar  1 <1>  -0.1500 
 21 C        6.9010     2.7650     0.7540 C.3   1 <1>  -0.1600 
 22 C        6.8940     1.2410     0.6830 C.3   1 <1>  -0.1600 
 23 C       -3.9960     4.8690    -0.0260 C.ar  1 <1>  -0.1500 
 24 C       -6.2600     4.1550    -0.8500 C.3   1 <1>  -0.0970 
 25 H       -2.0890    -0.5710     1.9410 H     1 <1>   0.3700 
 26 H        2.5320     1.4120    -2.7040 H     1 <1>   0.0800 
 27 H        4.1390     0.7010    -2.6760 H     1 <1>   0.0800 
 28 H       -5.4110     1.8300     0.2780 H     1 <1>   0.1500 
 29 H       -1.6090     3.1700     1.6260 H     1 <1>   0.1500 
 30 H        4.8740     3.2260     1.3210 H     1 <1>   0.0800 
 31 H        5.4280     4.1130    -0.0940 H     1 <1>   0.0800 
 32 H        6.3440     0.8010    -1.3480 H     1 <1>   0.0800 
 33 H        5.3340     0.0010    -0.1430 H     1 <1>   0.0800 
 34 H       -2.0600     5.3890     0.7090 H     1 <1>   0.1500 
 35 H        7.2080     3.1320     1.7180 H     1 <1>   0.0800 
 36 H        7.5570     3.1660     0.0010 H     1 <1>   0.0800 
 37 H        7.8630     0.8370     0.4490 H     1 <1>   0.0800 
 38 H        6.5640     0.8350     1.6230 H     1 <1>   0.0800 
 39 H       -4.1850     5.8500    -0.4270 H     1 <1>   0.1500 
 40 H       -6.9890     3.3990    -0.6190 H     1 <1>   0.0800 
 41 H       -6.1090     4.1770    -1.9140 H     1 <1>   0.0800 
 42 H       -6.6490     5.1070    -0.5330 H     1 <1>   0.0800 
@<TRIPOS>BOND
  1   1   2  1   
  2   1   3  1   
  3   2   4  1   
  4   2   5  2   
  5   3   6  2   
  6   3   7  1   
  7   4   8  1   
  8   5   6  1   
  9   7   9  am  
 10   7  25  1   
 11   8  10  1   
 12   8  26  1   
 13   8  27  1   
 14   9  11  2   
 15   9  12  1   
 16  10  13  2   
 17  10  14  am  
 18  12  15  ar  
 19  12  16  ar  
 20  14  17  1   
 21  14  18  1   
 22  15  19  ar  
 23  15  28  1   
 24  16  20  ar  
 25  16  29  1   
 26  17  21  1   
 27  17  30  1   
 28  17  31  1   
 29  18  22  1   
 30  18  32  1   
 31  18  33  1   
 32  19  23  ar  
 33  19  24  1   
 34  20  23  ar  
 35  20  34  1   
 36  21  22  1   
 37  21  35  1   
 38  21  36  1   
 39  22  37  1   
 40  22  38  1   
 41  23  39  1   
 42  24  40  1   
 43  24  41  1   
 44  24  42  1   
@<TRIPOS>SUBSTRUCTURE
  1 ****   6 GROUP 4 **** **** 0

# MOE 2024.06 (io_trps.svl 2023.06)
