@<TRIPOS>MOLECULE
NONAME
46 49 1 0 0 
SMALL
USER_CHARGES


@<TRIPOS>ATOM
  1 CL      -5.1500     2.3420    -4.6170 Cl    1 <1>  -0.1770 
  2 C       -4.5480     1.9890    -3.0140 C.ar  1 <1>   0.1770 
  3 C       -3.2720     2.3710    -2.6330 C.ar  1 <1>   0.1770 
  4 C       -5.3720     1.3240    -2.1250 C.ar  1 <1>  -0.1500 
  5 CL      -2.2180     3.2140    -3.7440 Cl    1 <1>  -0.1770 
  6 C       -2.8130     2.0910    -1.3590 C.ar  1 <1>  -0.1500 
  7 C       -4.9220     1.0410    -0.8420 C.ar  1 <1>  -0.1440 
  8 C       -3.6400     1.4260    -0.4660 C.ar  1 <1>  -0.1500 
  9 C       -5.8340     0.3130     0.1360 C.3   1 <1>   0.2540 
 10 N       -7.0760     1.0810     0.3470 N.3   1 <1>  -0.8100 
 11 C       -8.0770     0.3030     1.1160 C.3   1 <1>   0.1100 
 12 C       -6.8280     2.3960     0.9930 C.3   1 <1>   0.1100 
 13 C       -9.3940     1.0900     1.3370 C.3   1 <1>   0.3430 
 14 C       -8.1300     3.2120     1.1880 C.3   1 <1>   0.3430 
 15 N       -9.3220     2.4490     0.7010 N.4   1 <1>  -0.9590 
 16 C      -10.5970     3.2090     0.7390 C.3   1 <1>   0.4860 
 17 C      -11.6690     2.3900     0.0470 C.ar  1 <1>  -0.1430 
 18 C      -11.6140     2.2010    -1.3320 C.ar  1 <1>  -0.1500 
 19 C      -12.7030     1.8170     0.7910 C.ar  1 <1>  -0.1500 
 20 C      -12.5940     1.4280    -1.9210 C.ar  1 <1>   0.0830 
 21 C      -13.6800     1.0450     0.1750 C.ar  1 <1>  -0.1500 
 22 O      -12.7290     1.1120    -3.2120 O.3   1 <1>  -0.3630 
 23 C      -13.5970     0.8650    -1.1910 C.ar  1 <1>   0.0830 
 24 C      -13.9040     0.3070    -3.3150 C.3   1 <1>   0.4000 
 25 O      -14.4110     0.1680    -1.9880 O.3   1 <1>  -0.3620 
 26 H       -6.3590     1.0320    -2.4370 H     1 <1>   0.1500 
 27 H       -1.8200     2.3900    -1.0740 H     1 <1>   0.1500 
 28 H       -3.2750     1.2090     0.5240 H     1 <1>   0.1500 
 29 H       -5.3300     0.1570     1.0760 H     1 <1>   0.0800 
 30 H       -6.0740    -0.6520    -0.2780 H     1 <1>   0.0800 
 31 H       -7.6700     0.0230     2.0730 H     1 <1>   0.0800 
 32 H       -8.3070    -0.6050     0.5840 H     1 <1>   0.0800 
 33 H       -6.1530     2.9770     0.3880 H     1 <1>   0.0800 
 34 H       -6.3550     2.2500     1.9500 H     1 <1>   0.0800 
 35 H       -9.5800     1.1840     2.3930 H     1 <1>   0.0800 
 36 H      -10.2080     0.5260     0.9100 H     1 <1>   0.0800 
 37 H       -8.0400     4.1390     0.6450 H     1 <1>   0.0800 
 38 H       -8.2440     3.4530     2.2320 H     1 <1>   0.0800 
 39 H       -9.1020     2.2310    -0.2830 H     1 <1>   0.4500 
 40 H      -10.4830     4.1510     0.2280 H     1 <1>   0.0800 
 41 H      -10.8840     3.4050     1.7590 H     1 <1>   0.0800 
 42 H      -10.8460     2.6300    -1.9510 H     1 <1>   0.1500 
 43 H      -12.7630     1.9650     1.8560 H     1 <1>   0.1500 
 44 H      -14.4860     0.5960     0.7290 H     1 <1>   0.1500 
 45 H      -13.6470    -0.6610    -3.7080 H     1 <1>   0.0800 
 46 H      -14.6320     0.8070    -3.9290 H     1 <1>   0.0800 
@<TRIPOS>BOND
  1   1   2  1   
  2   2   3  ar  
  3   2   4  ar  
  4   3   5  1   
  5   3   6  ar  
  6   4   7  ar  
  7   4  26  1   
  8   6   8  ar  
  9   6  27  1   
 10   7   8  ar  
 11   7   9  1   
 12   8  28  1   
 13   9  10  1   
 14   9  29  1   
 15   9  30  1   
 16  10  11  1   
 17  10  12  1   
 18  11  13  1   
 19  11  31  1   
 20  11  32  1   
 21  12  14  1   
 22  12  33  1   
 23  12  34  1   
 24  13  15  1   
 25  13  35  1   
 26  13  36  1   
 27  14  15  1   
 28  14  37  1   
 29  14  38  1   
 30  15  16  1   
 31  15  39  1   
 32  16  17  1   
 33  16  40  1   
 34  16  41  1   
 35  17  18  ar  
 36  17  19  ar  
 37  18  20  ar  
 38  18  42  1   
 39  19  21  ar  
 40  19  43  1   
 41  20  22  1   
 42  20  23  ar  
 43  21  23  ar  
 44  21  44  1   
 45  22  24  1   
 46  23  25  1   
 47  24  25  1   
 48  24  45  1   
 49  24  46  1   
@<TRIPOS>SUBSTRUCTURE
  1 ****  15 GROUP 4 **** **** 0

# MOE 2024.06 (io_trps.svl 2023.06)
