@<TRIPOS>MOLECULE
NONAME
54 57 1 0 0 
SMALL
USER_CHARGES


@<TRIPOS>ATOM
  1 S        0.2230     1.0850     1.8020 S.o2  1 <1>   1.3330 
  2 O        0.8630     1.7920     2.8860 O.2   1 <1>  -0.6500 
  3 O        0.6950    -0.2150     1.3970 O.2   1 <1>  -0.6500 
  4 N        0.2500     2.1400     0.4320 N.am  1 <1>  -0.6930 
  5 C       -1.5180     0.9980     2.1610 C.3   1 <1>  -0.1350 
  6 C       -0.4210     1.8260    -0.7430 C.ar  1 <1>   0.1990 
  7 C        1.4190     3.0370     0.3320 C.3   1 <1>   0.3390 
  8 C       -0.1040     0.6930    -1.4840 C.ar  1 <1>  -0.1500 
  9 C       -1.4330     2.6610    -1.2010 C.ar  1 <1>  -0.1500 
 10 C        2.6290     2.2840    -0.2080 C.ar  1 <1>  -0.1430 
 11 C       -0.7860     0.3980    -2.6510 C.ar  1 <1>  -0.1500 
 12 C       -2.1170     2.3710    -2.3680 C.ar  1 <1>  -0.1500 
 13 C        2.8940     2.2640    -1.5680 C.ar  1 <1>  -0.1500 
 14 C        3.4770     1.6020     0.6490 C.ar  1 <1>  -0.1500 
 15 C       -1.7940     1.2370    -3.0940 C.ar  1 <1>  -0.1500 
 16 C        3.9910     1.5780    -2.0560 C.ar  1 <1>  -0.1500 
 17 C        4.5680     0.9130     0.1530 C.ar  1 <1>  -0.1500 
 18 C        4.8620     0.8880    -1.2120 C.ar  1 <1>   0.0860 
 19 C        6.0150     0.1790    -1.7460 C.2   1 <1>   0.5440 
 20 O        6.0650    -0.1350    -2.9190 O.2   1 <1>  -0.5700 
 21 N        7.0750    -0.1330    -0.9410 N.am  1 <1>  -0.7300 
 22 C        8.2940    -0.8670    -1.3580 C.3   1 <1>   0.2200 
 23 C        8.5000    -2.2340    -0.4800 C.3   1 <1>  -0.0800 
 24 C        9.6350     0.0950    -1.1130 C.3   1 <1>  -0.1600 
 25 C        9.6210    -1.5110    -0.3620 C.3   1 <1>  -0.1600 
 26 C        9.5890    -3.1040     0.3790 C.3   1 <1>  -0.1600 
 27 C       10.7230    -0.7640    -0.2420 C.3   1 <1>  -0.0800 
 28 C       10.9350    -2.1390     0.6190 C.3   1 <1>  -0.1600 
 29 H       -1.6830     0.3870     3.0260 H     1 <1>   0.0800 
 30 H       -2.0460     0.5700     1.3310 H     1 <1>   0.0800 
 31 H       -1.9060     1.9790     2.3510 H     1 <1>   0.0800 
 32 H        1.6470     3.4620     1.2940 H     1 <1>   0.0800 
 33 H        1.1810     3.8500    -0.3310 H     1 <1>   0.0800 
 34 H        0.6860     0.0450    -1.1460 H     1 <1>   0.1500 
 35 H       -1.6820     3.5410    -0.6370 H     1 <1>   0.1500 
 36 H       -0.5290    -0.4830    -3.2140 H     1 <1>   0.1500 
 37 H       -2.9000     3.0240    -2.7130 H     1 <1>   0.1500 
 38 H        2.2420     2.7770    -2.2550 H     1 <1>   0.1500 
 39 H        3.2830     1.5950     1.7090 H     1 <1>   0.1500 
 40 H       -2.3250     1.0070    -4.0020 H     1 <1>   0.1500 
 41 H        4.1820     1.5700    -3.1160 H     1 <1>   0.1500 
 42 H        5.1910     0.3780     0.8460 H     1 <1>   0.1500 
 43 H        7.0860     0.2020     0.0200 H     1 <1>   0.3700 
 44 H        8.2220    -1.1240    -2.4050 H     1 <1>   0.0800 
 45 H        7.6940    -2.1620     0.2370 H     1 <1>   0.0800 
 46 H        9.3670     0.9980    -0.5890 H     1 <1>   0.0800 
 47 H       10.0520     0.3810    -2.0650 H     1 <1>   0.0800 
 48 H       10.0580    -2.0020    -1.3400 H     1 <1>   0.0800 
 49 H        9.1780    -1.0070     0.6060 H     1 <1>   0.0800 
 50 H        9.8620    -3.9960    -0.1660 H     1 <1>   0.0800 
 51 H        9.1750    -3.4170     1.3250 H     1 <1>   0.0800 
 52 H       11.5380    -0.8400    -0.9490 H     1 <1>   0.0800 
 53 H       11.8300    -2.6570     0.3080 H     1 <1>   0.0800 
 54 H       11.0450    -1.9070     1.6680 H     1 <1>   0.0800 
@<TRIPOS>BOND
  1   1   2  2   
  2   1   3  2   
  3   1   4  am  
  4   1   5  1   
  5   4   6  1   
  6   4   7  1   
  7   5  29  1   
  8   5  30  1   
  9   5  31  1   
 10   6   8  ar  
 11   6   9  ar  
 12   7  10  1   
 13   7  32  1   
 14   7  33  1   
 15   8  11  ar  
 16   8  34  1   
 17   9  12  ar  
 18   9  35  1   
 19  10  13  ar  
 20  10  14  ar  
 21  11  15  ar  
 22  11  36  1   
 23  12  15  ar  
 24  12  37  1   
 25  13  16  ar  
 26  13  38  1   
 27  14  17  ar  
 28  14  39  1   
 29  15  40  1   
 30  16  18  ar  
 31  16  41  1   
 32  17  18  ar  
 33  17  42  1   
 34  18  19  1   
 35  19  20  2   
 36  19  21  am  
 37  21  22  1   
 38  21  43  1   
 39  22  23  1   
 40  22  24  1   
 41  22  44  1   
 42  23  25  1   
 43  23  26  1   
 44  23  45  1   
 45  24  27  1   
 46  24  46  1   
 47  24  47  1   
 48  25  27  1   
 49  25  48  1   
 50  25  49  1   
 51  26  28  1   
 52  26  50  1   
 53  26  51  1   
 54  27  28  1   
 55  27  52  1   
 56  28  53  1   
 57  28  54  1   
@<TRIPOS>SUBSTRUCTURE
  1 ****  17 GROUP 4 **** **** 0

# MOE 2024.06 (io_trps.svl 2023.06)
