@<TRIPOS>MOLECULE
NONAME
50 52 1 0 0 
SMALL
USER_CHARGES


@<TRIPOS>ATOM
  1 O        0.4440     0.7900    -0.3130 O.2   1 <1>  -0.5700 
  2 C        0.7100     1.8900     0.1010 C.2   1 <1>   0.5690 
  3 N       -0.1580     2.8600     0.4760 N.am  1 <1>  -0.6600 
  4 C        2.1290     2.3550     0.2570 C.3   1 <1>  -0.0990 
  5 C       -1.6380     2.8440     0.3990 C.3   1 <1>   0.2200 
  6 C        0.5360     4.0820     0.9210 C.3   1 <1>   0.1400 
  7 C        1.9920     3.6290     1.1150 C.3   1 <1>  -0.0190 
  8 C       -2.2150     1.7430     1.2980 C.3   1 <1>  -0.1600 
  9 C       -2.1030     2.6850    -1.0540 C.3   1 <1>  -0.1600 
 10 C        3.0100     4.7200     0.8080 C.2   1 <1>   0.5690 
 11 C       -3.7480     1.7110     1.2150 C.3   1 <1>  -0.1600 
 12 C       -3.6370     2.6550    -1.1400 C.3   1 <1>  -0.1600 
 13 O        2.6500     5.8700     0.8310 O.2   1 <1>  -0.5700 
 14 N        4.2950     4.3390     0.5300 N.am  1 <1>  -0.5470 
 15 C       -4.2200     1.5580    -0.2390 C.3   1 <1>  -0.1600 
 16 C        5.4270     5.1020     0.2040 C.ar  1 <1>   0.1170 
 17 C        6.4410     4.5060    -0.5320 C.ar  1 <1>  -0.1500 
 18 C        5.5870     6.4270     0.6000 C.ar  1 <1>  -0.1500 
 19 C        7.5920     5.2000    -0.8750 C.ar  1 <1>   0.1170 
 20 C        6.7250     7.1340     0.2590 C.ar  1 <1>  -0.1500 
 21 N        8.5880     4.5630    -1.6230 N.am  1 <1>  -0.5470 
 22 C        7.7230     6.5240    -0.4780 C.ar  1 <1>  -0.1500 
 23 C        9.9140     4.4110    -1.3750 C.2   1 <1>   0.5690 
 24 O       10.6110     3.8450    -2.1740 O.2   1 <1>  -0.5700 
 25 C       10.5330     4.9250    -0.0960 C.3   1 <1>  -0.1790 
 26 H        2.5140     2.5720    -0.7230 H     1 <1>   0.0800 
 27 H        2.7230     1.6010     0.7380 H     1 <1>   0.0800 
 28 H       -2.0060     3.7900     0.7610 H     1 <1>   0.0800 
 29 H        0.1180     4.4560     1.8400 H     1 <1>   0.0800 
 30 H        0.4540     4.8320     0.1510 H     1 <1>   0.0800 
 31 H        2.1050     3.3590     2.1490 H     1 <1>   0.0800 
 32 H       -1.9130     1.9140     2.3150 H     1 <1>   0.0800 
 33 H       -1.8320     0.7860     0.9850 H     1 <1>   0.0800 
 34 H       -1.7170     1.7660    -1.4570 H     1 <1>   0.0800 
 35 H       -1.7260     3.5010    -1.6440 H     1 <1>   0.0800 
 36 H       -4.1480     2.6230     1.6250 H     1 <1>   0.0800 
 37 H       -4.1230     0.8920     1.8030 H     1 <1>   0.0800 
 38 H       -3.9360     2.4800    -2.1590 H     1 <1>   0.0800 
 39 H       -4.0310     3.6110    -0.8400 H     1 <1>   0.0800 
 40 H        4.4500     3.3330     0.5070 H     1 <1>   0.3700 
 41 H       -5.2950     1.5930    -0.2750 H     1 <1>   0.0800 
 42 H       -3.9100     0.5950    -0.6100 H     1 <1>   0.0800 
 43 H        6.3410     3.4840    -0.8470 H     1 <1>   0.1500 
 44 H        4.8220     6.9140     1.1780 H     1 <1>   0.1500 
 45 H        6.8310     8.1610     0.5670 H     1 <1>   0.1500 
 46 H        8.2960     4.1050    -2.4870 H     1 <1>   0.3700 
 47 H        8.6010     7.0810    -0.7520 H     1 <1>   0.1500 
 48 H        9.8710     4.7580     0.7330 H     1 <1>   0.0800 
 49 H       10.7360     5.9740    -0.1890 H     1 <1>   0.0800 
 50 H       11.4560     4.4080     0.0890 H     1 <1>   0.0800 
@<TRIPOS>BOND
  1   1   2  2   
  2   2   3  am  
  3   2   4  1   
  4   3   5  1   
  5   3   6  1   
  6   4   7  1   
  7   4  26  1   
  8   4  27  1   
  9   5   8  1   
 10   5   9  1   
 11   5  28  1   
 12   6   7  1   
 13   6  29  1   
 14   6  30  1   
 15   7  10  1   
 16   7  31  1   
 17   8  11  1   
 18   8  32  1   
 19   8  33  1   
 20   9  12  1   
 21   9  34  1   
 22   9  35  1   
 23  10  13  2   
 24  10  14  am  
 25  11  15  1   
 26  11  36  1   
 27  11  37  1   
 28  12  15  1   
 29  12  38  1   
 30  12  39  1   
 31  14  16  1   
 32  14  40  1   
 33  15  41  1   
 34  15  42  1   
 35  16  17  ar  
 36  16  18  ar  
 37  17  19  ar  
 38  17  43  1   
 39  18  20  ar  
 40  18  44  1   
 41  19  21  1   
 42  19  22  ar  
 43  20  22  ar  
 44  20  45  1   
 45  21  23  am  
 46  21  46  1   
 47  22  47  1   
 48  23  24  2   
 49  23  25  1   
 50  25  48  1   
 51  25  49  1   
 52  25  50  1   
@<TRIPOS>SUBSTRUCTURE
  1 ****  10 GROUP 4 **** **** 0

# MOE 2024.06 (io_trps.svl 2023.06)
