@<TRIPOS>MOLECULE
NONAME
32 32 1 0 0 
SMALL
USER_CHARGES


@<TRIPOS>ATOM
  1 O        0.3490    -0.2440    -0.6850 O.2   1 <1>  -0.5700 
  2 C        1.4230    -0.7970    -0.4400 C.2   1 <1>   0.5410 
  3 C        1.6620    -2.1900    -0.3040 C.2   1 <1>   0.0290 
  4 C        2.6740    -0.1270    -0.2810 C.2   1 <1>   0.1140 
  5 C        3.0120    -2.3410    -0.0970 C.2   1 <1>  -0.0380 
  6 C        0.6410    -3.1810    -0.3960 C.2   1 <1>   0.7060 
  7 N        3.6230    -1.1410    -0.0800 N.pl3 1 <1>  -0.6000 
  8 C        2.9220     1.2190    -0.3300 C.2   1 <1>  -0.0500 
  9 C        3.8310    -3.6030     0.1010 C.3   1 <1>  -0.1020 
 10 O        0.8620    -4.3340    -0.7240 O.2   1 <1>  -0.5700 
 11 O       -0.6160    -2.8480    -0.0840 O.3   1 <1>  -0.4300 
 12 N        4.0940     1.9260    -0.1410 N.pl3 1 <1>  -0.8380 
 13 C       -1.6760    -3.7710    -0.1730 C.3   1 <1>   0.1200 
 14 C        5.3450     1.3620     0.4330 C.3   1 <1>   0.1290 
 15 C        4.1420     3.3850    -0.4260 C.3   1 <1>   0.1290 
 16 C       -2.9590    -3.0550     0.2390 C.3   1 <1>  -0.2400 
 17 H        4.6200    -0.9260     0.0160 H     1 <1>   0.4000 
 18 H        2.0640     1.8320    -0.5580 H     1 <1>   0.1500 
 19 H        4.4100    -3.5260     1.0030 H     1 <1>   0.0800 
 20 H        4.4980    -3.7390    -0.7310 H     1 <1>   0.0800 
 21 H        3.2030    -4.4710     0.1790 H     1 <1>   0.0800 
 22 H       -1.7390    -4.1210    -1.1900 H     1 <1>   0.0800 
 23 H       -1.4660    -4.5980     0.4840 H     1 <1>   0.0800 
 24 H        5.9380     2.1440     0.8750 H     1 <1>   0.0800 
 25 H        5.9160     0.8850    -0.3430 H     1 <1>   0.0800 
 26 H        5.1060     0.6500     1.2030 H     1 <1>   0.0800 
 27 H        4.9550     3.5990    -1.0970 H     1 <1>   0.0800 
 28 H        4.2820     3.9320     0.4900 H     1 <1>   0.0800 
 29 H        3.2240     3.7090    -0.8850 H     1 <1>   0.0800 
 30 H       -3.1410    -2.2220    -0.4170 H     1 <1>   0.0800 
 31 H       -2.8760    -2.7030     1.2510 H     1 <1>   0.0800 
 32 H       -3.7910    -3.7320     0.1750 H     1 <1>   0.0800 
@<TRIPOS>BOND
  1   1   2  2   
  2   2   3  1   
  3   2   4  1   
  4   3   5  2   
  5   3   6  1   
  6   4   7  1   
  7   4   8  2   
  8   5   7  1   
  9   5   9  1   
 10   6  10  2   
 11   6  11  1   
 12   7  17  1   
 13   8  12  1   
 14   8  18  1   
 15   9  19  1   
 16   9  20  1   
 17   9  21  1   
 18  11  13  1   
 19  12  14  1   
 20  12  15  1   
 21  13  16  1   
 22  13  22  1   
 23  13  23  1   
 24  14  24  1   
 25  14  25  1   
 26  14  26  1   
 27  15  27  1   
 28  15  28  1   
 29  15  29  1   
 30  16  30  1   
 31  16  31  1   
 32  16  32  1   
@<TRIPOS>SUBSTRUCTURE
  1 ****   2 GROUP 4 **** **** 0

# MOE 2024.06 (io_trps.svl 2023.06)
