@<TRIPOS>MOLECULE
NONAME
54 57 1 0 0 
SMALL
USER_CHARGES


@<TRIPOS>ATOM
  1 BR      -2.0870    -0.9800    -4.0660 Br    1 <1>  -0.1110 
  2 C       -1.6510    -2.2900    -2.7150 C.ar  1 <1>   0.1110 
  3 C       -0.3940    -2.2850    -2.1270 C.ar  1 <1>   0.0820 
  4 C       -2.6260    -3.2040    -2.3710 C.ar  1 <1>  -0.1500 
  5 O        0.5020    -1.3440    -2.5300 O.3   1 <1>  -0.3630 
  6 C       -0.1230    -3.2420    -1.1540 C.ar  1 <1>  -0.1500 
  7 C       -2.3510    -4.1560    -1.4020 C.ar  1 <1>  -0.1430 
  8 C        1.8070    -1.2850    -1.9990 C.3   1 <1>   0.0400 
  9 C       -1.0970    -4.1740    -0.7900 C.ar  1 <1>   0.0830 
 10 C       -3.4380    -5.1560    -1.0300 C.3   1 <1>   0.2540 
 11 O       -0.8800    -5.1170     0.1670 O.3   1 <1>  -0.3630 
 12 N       -4.4900    -4.4920    -0.2350 N.3   1 <1>  -0.8100 
 13 C        0.4220    -5.4160     0.6250 C.3   1 <1>   0.0400 
 14 C       -5.6490    -5.3850    -0.0120 C.3   1 <1>   0.1100 
 15 C       -3.9580    -3.9960     1.0630 C.3   1 <1>   0.1100 
 16 C       -6.7760    -4.6870     0.7900 C.3   1 <1>   0.3430 
 17 C       -5.0520    -3.3400     1.9390 C.3   1 <1>   0.3430 
 18 N       -6.3600    -3.3080     1.2140 N.4   1 <1>  -0.9590 
 19 C       -7.4240    -2.5230     1.8880 C.3   1 <1>   0.4860 
 20 C       -8.6160    -2.4240     0.9550 C.ar  1 <1>  -0.1430 
 21 C       -8.5230    -1.6630    -0.2080 C.ar  1 <1>  -0.1500 
 22 C       -9.7990    -3.1020     1.2540 C.ar  1 <1>  -0.1500 
 23 C       -9.6200    -1.6170    -1.0440 C.ar  1 <1>   0.0830 
 24 C      -10.8920    -3.0390     0.3990 C.ar  1 <1>  -0.1500 
 25 O       -9.7480    -0.9640    -2.2020 O.3   1 <1>  -0.3630 
 26 C      -10.7710    -2.2860    -0.7510 C.ar  1 <1>   0.0830 
 27 C      -11.0710    -1.2200    -2.6720 C.3   1 <1>   0.4000 
 28 O      -11.6770    -2.0840    -1.7120 O.3   1 <1>  -0.3620 
 29 H       -3.5870    -3.1660    -2.8530 H     1 <1>   0.1500 
 30 H        0.8360    -3.2580    -0.6800 H     1 <1>   0.1500 
 31 H        2.3230    -0.4700    -2.4750 H     1 <1>   0.0800 
 32 H        2.3130    -2.2100    -2.2100 H     1 <1>   0.0800 
 33 H        1.7460    -1.1080    -0.9400 H     1 <1>   0.0800 
 34 H       -3.0290    -5.9900    -0.4860 H     1 <1>   0.0800 
 35 H       -3.8680    -5.5410    -1.9390 H     1 <1>   0.0800 
 36 H        1.0480    -5.6430    -0.2200 H     1 <1>   0.0800 
 37 H        0.3600    -6.2730     1.2720 H     1 <1>   0.0800 
 38 H        0.8040    -4.5740     1.1740 H     1 <1>   0.0800 
 39 H       -5.3340    -6.2700     0.5170 H     1 <1>   0.0800 
 40 H       -6.0470    -5.7010    -0.9620 H     1 <1>   0.0800 
 41 H       -3.1910    -3.2630     0.8810 H     1 <1>   0.0800 
 42 H       -3.5010    -4.8050     1.6070 H     1 <1>   0.0800 
 43 H       -7.0240    -5.2840     1.6520 H     1 <1>   0.0800 
 44 H       -7.6550    -4.6280     0.1680 H     1 <1>   0.0800 
 45 H       -4.7400    -2.3390     2.1890 H     1 <1>   0.0800 
 46 H       -5.1510    -3.8950     2.8570 H     1 <1>   0.0800 
 47 H       -6.1340    -2.8540     0.3150 H     1 <1>   0.4500 
 48 H       -7.0660    -1.5320     2.1150 H     1 <1>   0.0800 
 49 H       -7.7150    -3.0040     2.8070 H     1 <1>   0.0800 
 50 H       -7.6390    -1.1140    -0.4790 H     1 <1>   0.1500 
 51 H       -9.8870    -3.6860     2.1550 H     1 <1>   0.1500 
 52 H      -11.8140    -3.5530     0.6110 H     1 <1>   0.1500 
 53 H      -11.0280    -1.7130    -3.6270 H     1 <1>   0.0800 
 54 H      -11.6210    -0.2970    -2.7240 H     1 <1>   0.0800 
@<TRIPOS>BOND
  1   1   2  1   
  2   2   3  ar  
  3   2   4  ar  
  4   3   5  1   
  5   3   6  ar  
  6   4   7  ar  
  7   4  29  1   
  8   5   8  1   
  9   6   9  ar  
 10   6  30  1   
 11   7   9  ar  
 12   7  10  1   
 13   8  31  1   
 14   8  32  1   
 15   8  33  1   
 16   9  11  1   
 17  10  12  1   
 18  10  34  1   
 19  10  35  1   
 20  11  13  1   
 21  12  14  1   
 22  12  15  1   
 23  13  36  1   
 24  13  37  1   
 25  13  38  1   
 26  14  16  1   
 27  14  39  1   
 28  14  40  1   
 29  15  17  1   
 30  15  41  1   
 31  15  42  1   
 32  16  18  1   
 33  16  43  1   
 34  16  44  1   
 35  17  18  1   
 36  17  45  1   
 37  17  46  1   
 38  18  19  1   
 39  18  47  1   
 40  19  20  1   
 41  19  48  1   
 42  19  49  1   
 43  20  21  ar  
 44  20  22  ar  
 45  21  23  ar  
 46  21  50  1   
 47  22  24  ar  
 48  22  51  1   
 49  23  25  1   
 50  23  26  ar  
 51  24  26  ar  
 52  24  52  1   
 53  25  27  1   
 54  26  28  1   
 55  27  28  1   
 56  27  53  1   
 57  27  54  1   
@<TRIPOS>SUBSTRUCTURE
  1 ****  12 GROUP 4 **** **** 0

# MOE 2024.06 (io_trps.svl 2023.06)
