@<TRIPOS>MOLECULE
NONAME
44 47 1 0 0 
SMALL
USER_CHARGES


@<TRIPOS>ATOM
  1 S       -0.1460    -0.5120    -0.5660 S.3   1 <1>  -0.0800 
  2 C       -1.3780     0.7370    -0.3740 C.ar  1 <1>   0.2970 
  3 C        1.1060     0.5830     0.0100 C.2   1 <1>  -0.1400 
  4 N       -2.6480     0.5200    -0.6410 N.ar  1 <1>  -0.5670 
  5 C       -0.8240     1.9110     0.0820 C.ar  1 <1>   0.0000 
  6 C        0.5990     1.7870     0.3160 C.2   1 <1>  -0.1810 
  7 C        2.5370     0.1080     0.1250 C.3   1 <1>   0.0200 
  8 C       -3.3980     1.5790    -0.4230 C.ar  1 <1>   0.4770 
  9 C       -1.7390     2.9590     0.2320 C.ar  1 <1>   0.4100 
 10 C        1.4870     2.8870     0.8780 C.3   1 <1>   0.0210 
 11 C        3.4520     1.3200     0.3770 C.3   1 <1>  -0.1600 
 12 N       -3.0280     2.7770    -0.0020 N.ar  1 <1>  -0.6200 
 13 C       -4.8760     1.4190    -0.6870 C.3   1 <1>  -0.0960 
 14 N       -1.3580     4.2310     0.5980 N.pl3 1 <1>  -0.8380 
 15 C        2.8300     2.3140     1.3790 C.3   1 <1>  -0.1600 
 16 C       -0.7120     5.1000    -0.4170 C.3   1 <1>   0.2090 
 17 C       -2.0830     4.9410     1.6860 C.3   1 <1>   0.2090 
 18 C       -1.7290     6.0850    -0.9990 C.3   1 <1>  -0.1600 
 19 C       -3.0810     5.9500     1.1080 C.3   1 <1>  -0.1600 
 20 C       -2.4180     6.9040     0.1030 C.3   1 <1>  -0.0800 
 21 C       -3.4530     7.8590    -0.5000 C.3   1 <1>  -0.2400 
 22 H        2.8340    -0.3970    -0.7780 H     1 <1>   0.0800 
 23 H        2.6060    -0.5850     0.9450 H     1 <1>   0.0800 
 24 H        0.9870     3.3790     1.6940 H     1 <1>   0.0800 
 25 H        1.6720     3.6100     0.1060 H     1 <1>   0.0800 
 26 H        3.6170     1.8290    -0.5570 H     1 <1>   0.0800 
 27 H        4.4060     0.9790     0.7400 H     1 <1>   0.0800 
 28 H       -5.0890     0.4390    -1.0710 H     1 <1>   0.0800 
 29 H       -5.1910     2.1530    -1.4040 H     1 <1>   0.0800 
 30 H       -5.4180     1.5650     0.2280 H     1 <1>   0.0800 
 31 H        2.6610     1.8060     2.3130 H     1 <1>   0.0800 
 32 H        3.5140     3.1240     1.5640 H     1 <1>   0.0800 
 33 H       -0.3070     4.4930    -1.2090 H     1 <1>   0.0800 
 34 H        0.0960     5.6390     0.0450 H     1 <1>   0.0800 
 35 H       -1.3660     5.4500     2.3060 H     1 <1>   0.0800 
 36 H       -2.6060     4.2240     2.2970 H     1 <1>   0.0800 
 37 H       -2.4630     5.5260    -1.5540 H     1 <1>   0.0800 
 38 H       -1.2270     6.7430    -1.6850 H     1 <1>   0.0800 
 39 H       -3.5160     6.5120     1.9140 H     1 <1>   0.0800 
 40 H       -3.8720     5.4040     0.6250 H     1 <1>   0.0800 
 41 H       -1.6720     7.4860     0.6190 H     1 <1>   0.0800 
 42 H       -4.2140     7.3090    -1.0250 H     1 <1>   0.0800 
 43 H       -2.9800     8.5350    -1.1900 H     1 <1>   0.0800 
 44 H       -3.9220     8.4390     0.2750 H     1 <1>   0.0800 
@<TRIPOS>BOND
  1   1   2  1   
  2   1   3  1   
  3   2   4  ar  
  4   2   5  ar  
  5   3   6  2   
  6   3   7  1   
  7   4   8  ar  
  8   5   6  1   
  9   5   9  ar  
 10   6  10  1   
 11   7  11  1   
 12   7  22  1   
 13   7  23  1   
 14   8  12  ar  
 15   8  13  1   
 16   9  12  ar  
 17   9  14  1   
 18  10  15  1   
 19  10  24  1   
 20  10  25  1   
 21  11  15  1   
 22  11  26  1   
 23  11  27  1   
 24  13  28  1   
 25  13  29  1   
 26  13  30  1   
 27  14  16  1   
 28  14  17  1   
 29  15  31  1   
 30  15  32  1   
 31  16  18  1   
 32  16  33  1   
 33  16  34  1   
 34  17  19  1   
 35  17  35  1   
 36  17  36  1   
 37  18  20  1   
 38  18  37  1   
 39  18  38  1   
 40  19  20  1   
 41  19  39  1   
 42  19  40  1   
 43  20  21  1   
 44  20  41  1   
 45  21  42  1   
 46  21  43  1   
 47  21  44  1   
@<TRIPOS>SUBSTRUCTURE
  1 ****   9 GROUP 4 **** **** 0

# MOE 2024.06 (io_trps.svl 2023.06)
