@<TRIPOS>MOLECULE
NONAME
38 39 1 0 0 
SMALL
USER_CHARGES


@<TRIPOS>ATOM
  1 S       -0.2430     0.2920     1.1110 S.o2  1 <1>   1.4470 
  2 O       -0.7110     0.8350     2.3670 O.2   1 <1>  -0.6500 
  3 O       -0.1840    -1.1370     0.9090 O.2   1 <1>  -0.6500 
  4 N       -1.2660     0.8360    -0.0980 N.am  1 <1>  -0.9140 
  5 C        1.3440     1.0500     0.6660 C.ar  1 <1>  -0.0090 
  6 C       -2.6460     1.0270     0.2950 C.3   1 <1>   0.2760 
  7 C        2.1230     0.5350    -0.3580 C.ar  1 <1>  -0.1500 
  8 C        1.8110     2.1820     1.3190 C.ar  1 <1>  -0.1500 
  9 C       -3.3570    -0.3150     0.4600 C.3   1 <1>  -0.1600 
 10 C       -3.3760     1.6380    -0.8950 C.3   1 <1>  -0.1600 
 11 C        3.3410     1.0910    -0.7580 C.ar  1 <1>   0.0860 
 12 C        3.0100     2.7660     0.9620 C.ar  1 <1>  -0.1500 
 13 C       -3.6740    -0.7950    -0.9610 C.3   1 <1>  -0.1600 
 14 C       -3.7140     0.4690    -1.8290 C.3   1 <1>  -0.1600 
 15 C        3.7820     2.2360    -0.0700 C.ar  1 <1>   0.0830 
 16 C        4.0680     0.4610    -1.8510 C.2   1 <1>   0.5440 
 17 O        4.9560     2.8140    -0.4300 O.3   1 <1>  -0.3630 
 18 O        3.5110    -0.2810    -2.6340 O.2   1 <1>  -0.5700 
 19 N        5.3890     0.6390    -2.0630 N.am  1 <1>  -0.8000 
 20 C        5.4360     4.0150     0.1390 C.3   1 <1>   0.0400 
 21 H       -1.2770     0.0790    -0.7770 H     1 <1>   0.4200 
 22 H       -2.7190     1.6540     1.1690 H     1 <1>   0.0800 
 23 H        1.7690    -0.3440    -0.8730 H     1 <1>   0.1500 
 24 H        1.2250     2.6090     2.1180 H     1 <1>   0.1500 
 25 H       -4.2840    -0.1390     0.9770 H     1 <1>   0.0800 
 26 H       -2.7980    -1.0370     1.0270 H     1 <1>   0.0800 
 27 H       -2.7960     2.4040    -1.3800 H     1 <1>   0.0800 
 28 H       -4.2930     2.0770    -0.5410 H     1 <1>   0.0800 
 29 H        3.3220     3.6380     1.5050 H     1 <1>   0.1500 
 30 H       -4.6110    -1.3240    -0.9880 H     1 <1>   0.0800 
 31 H       -2.8950    -1.4520    -1.3080 H     1 <1>   0.0800 
 32 H       -2.9750     0.3970    -2.6100 H     1 <1>   0.0800 
 33 H       -4.6820     0.6070    -2.2800 H     1 <1>   0.0800 
 34 H        5.8280     0.2230    -2.8830 H     1 <1>   0.3700 
 35 H        5.9020     1.3700    -1.5650 H     1 <1>   0.3700 
 36 H        6.3570     4.2740    -0.3500 H     1 <1>   0.0800 
 37 H        5.6120     3.8600     1.1890 H     1 <1>   0.0800 
 38 H        4.7090     4.7930    -0.0200 H     1 <1>   0.0800 
@<TRIPOS>BOND
  1   1   2  2   
  2   1   3  2   
  3   1   4  am  
  4   1   5  1   
  5   4   6  1   
  6   4  21  1   
  7   5   7  ar  
  8   5   8  ar  
  9   6   9  1   
 10   6  10  1   
 11   6  22  1   
 12   7  11  ar  
 13   7  23  1   
 14   8  12  ar  
 15   8  24  1   
 16   9  13  1   
 17   9  25  1   
 18   9  26  1   
 19  10  14  1   
 20  10  27  1   
 21  10  28  1   
 22  11  15  ar  
 23  11  16  1   
 24  12  15  ar  
 25  12  29  1   
 26  13  14  1   
 27  13  30  1   
 28  13  31  1   
 29  14  32  1   
 30  14  33  1   
 31  15  17  1   
 32  16  18  2   
 33  16  19  am  
 34  17  20  1   
 35  19  34  1   
 36  19  35  1   
 37  20  36  1   
 38  20  37  1   
 39  20  38  1   
@<TRIPOS>SUBSTRUCTURE
  1 ****   5 GROUP 4 **** **** 0

# MOE 2024.06 (io_trps.svl 2023.06)
