@<TRIPOS>MOLECULE
NONAME
35 37 1 0 0 
SMALL
USER_CHARGES


@<TRIPOS>ATOM
  1 O       -2.5250    -0.8480     2.8190 O.2   1 <1>  -0.5700 
  2 C       -2.8040    -1.1230     1.6440 C.2   1 <1>   0.5330 
  3 C       -3.3840    -0.0630     0.8400 C.ar  1 <1>   0.0860 
  4 C       -2.5680    -2.4590     1.1770 C.cat 1 <1>   0.7510 
  5 C       -4.4480    -0.2730    -0.0390 C.ar  1 <1>  -0.1500 
  6 C       -2.9120     1.2460     0.9550 C.ar  1 <1>  -0.1500 
  7 N       -2.2330    -3.4950     2.0230 N.pl3 1 <1>  -0.7000 
  8 N       -2.5970    -2.9890    -0.0790 N.pl3 1 <1>  -0.8080 
  9 C       -5.0070     0.7630    -0.7640 C.ar  1 <1>  -0.1500 
 10 C       -3.4670     2.2870     0.2340 C.ar  1 <1>  -0.1500 
 11 C       -2.0740    -4.6270     1.2890 C.2   1 <1>   0.1820 
 12 O       -2.7800    -2.3840    -1.1880 O.3   1 <1>  -0.4420 
 13 C       -2.2900    -4.3190     0.0020 C.2   1 <1>   0.1820 
 14 C       -4.5220     2.0520    -0.6310 C.ar  1 <1>  -0.1430 
 15 C       -1.7080    -6.0090     1.7910 C.3   1 <1>   0.0080 
 16 C       -2.2020    -5.2820    -1.1600 C.3   1 <1>   0.0080 
 17 C       -5.1330     3.1870    -1.4320 C.3   1 <1>  -0.0970 
 18 C       -1.9800    -7.0570     0.6890 C.3   1 <1>  -0.1600 
 19 C       -1.5100    -6.5870    -0.7070 C.3   1 <1>  -0.1600 
 20 H       -4.8390    -1.2680    -0.1710 H     1 <1>   0.1500 
 21 H       -2.0970     1.4500     1.6270 H     1 <1>   0.1500 
 22 H       -2.1160    -3.3300     3.0220 H     1 <1>   0.4500 
 23 H       -5.8180     0.5560    -1.4400 H     1 <1>   0.1500 
 24 H       -3.0740     3.2820     0.3480 H     1 <1>   0.1500 
 25 H       -2.2830    -6.2450     2.6680 H     1 <1>   0.0800 
 26 H       -0.6650    -6.0130     2.0520 H     1 <1>   0.0800 
 27 H       -1.6510    -4.8230    -1.9610 H     1 <1>   0.0800 
 28 H       -3.1990    -5.4810    -1.5080 H     1 <1>   0.0800 
 29 H       -4.6510     3.2530    -2.3910 H     1 <1>   0.0800 
 30 H       -5.0100     4.1220    -0.9150 H     1 <1>   0.0800 
 31 H       -6.1840     3.0170    -1.5810 H     1 <1>   0.0800 
 32 H       -3.0380    -7.2500     0.6460 H     1 <1>   0.0800 
 33 H       -1.4900    -7.9810     0.9460 H     1 <1>   0.0800 
 34 H       -0.4470    -6.4190    -0.6770 H     1 <1>   0.0800 
 35 H       -1.6970    -7.3570    -1.4360 H     1 <1>   0.0800 
@<TRIPOS>BOND
  1   1   2  2   
  2   2   3  1   
  3   2   4  1   
  4   3   5  ar  
  5   3   6  ar  
  6   4   7  ar  
  7   4   8  ar  
  8   5   9  ar  
  9   5  20  1   
 10   6  10  ar  
 11   6  21  1   
 12   7  11  1   
 13   7  22  1   
 14   8  12  1   
 15   8  13  1   
 16   9  14  ar  
 17   9  23  1   
 18  10  14  ar  
 19  10  24  1   
 20  11  13  2   
 21  11  15  1   
 22  13  16  1   
 23  14  17  1   
 24  15  18  1   
 25  15  25  1   
 26  15  26  1   
 27  16  19  1   
 28  16  27  1   
 29  16  28  1   
 30  17  29  1   
 31  17  30  1   
 32  17  31  1   
 33  18  19  1   
 34  18  32  1   
 35  18  33  1   
 36  19  34  1   
 37  19  35  1   
@<TRIPOS>SUBSTRUCTURE
  1 ****   4 GROUP 4 **** **** 0

# MOE 2024.06 (io_trps.svl 2023.06)
