@<TRIPOS>MOLECULE
NONAME
49 51 1 0 0 
SMALL
USER_CHARGES


@<TRIPOS>ATOM
  1 O        0.3900     1.5390     1.6930 O.2   1 <1>  -0.5700 
  2 C        0.3950     2.0840     0.6060 C.2   1 <1>   0.5440 
  3 N       -0.7790     2.1580    -0.0770 N.am  1 <1>  -0.7300 
  4 C        1.6170     2.6420     0.0490 C.ar  1 <1>   0.0860 
  5 C       -2.1050     1.7540     0.4560 C.3   1 <1>   0.4250 
  6 C        1.6010     3.6960    -0.8670 C.ar  1 <1>  -0.1500 
  7 C        2.8650     2.1400     0.4180 C.ar  1 <1>  -0.1500 
  8 C       -2.4320     0.3560    -0.0690 C.ar  1 <1>  -0.1430 
  9 C       -3.2140     2.7770     0.1230 C.2   1 <1>   0.5690 
 10 C        2.7700     4.2120    -1.3960 C.ar  1 <1>  -0.1500 
 11 C        4.0380     2.6530    -0.1070 C.ar  1 <1>  -0.1500 
 12 C       -3.1280     0.1620    -1.2560 C.ar  1 <1>  -0.1500 
 13 C       -2.0190    -0.7520     0.6570 C.ar  1 <1>  -0.1500 
 14 O       -3.0060     3.6110    -0.7340 O.2   1 <1>  -0.5700 
 15 N       -4.4100     2.6960     0.7850 N.am  1 <1>  -0.7300 
 16 C        3.9970     3.6920    -1.0210 C.ar  1 <1>  -0.1430 
 17 C       -3.4220    -1.1180    -1.6960 C.ar  1 <1>  -0.1500 
 18 C       -2.3120    -2.0320     0.2180 C.ar  1 <1>  -0.1500 
 19 C       -5.6170     3.5380     0.6120 C.3   1 <1>   0.2200 
 20 C        5.2810     4.2590    -1.5990 C.3   1 <1>  -0.0970 
 21 C       -3.0170    -2.2150    -0.9580 C.ar  1 <1>  -0.1500 
 22 C       -6.2460     3.3350    -0.7700 C.3   1 <1>  -0.1600 
 23 C       -5.3190     5.0370     0.7470 C.3   1 <1>  -0.1600 
 24 C       -6.6690     4.7280    -1.2350 C.3   1 <1>  -0.1600 
 25 C       -5.6330     5.6580    -0.6150 C.3   1 <1>  -0.1600 
 26 H       -0.8440     2.6450    -0.9720 H     1 <1>   0.3700 
 27 H       -2.0410     1.7070     1.5290 H     1 <1>   0.0800 
 28 H        0.6630     4.1270    -1.1670 H     1 <1>   0.1500 
 29 H        2.9110     1.3330     1.1290 H     1 <1>   0.1500 
 30 H        2.7220     5.0250    -2.1000 H     1 <1>   0.1500 
 31 H        4.9820     2.2400     0.2010 H     1 <1>   0.1500 
 32 H       -3.4470     1.0010    -1.8510 H     1 <1>   0.1500 
 33 H       -1.4570    -0.6210     1.5680 H     1 <1>   0.1500 
 34 H       -4.5550     1.9030     1.4130 H     1 <1>   0.3700 
 35 H       -3.9640    -1.2580    -2.6150 H     1 <1>   0.1500 
 36 H       -1.9870    -2.8830     0.7900 H     1 <1>   0.1500 
 37 H       -6.3350     3.2680     1.3670 H     1 <1>   0.0800 
 38 H        5.1170     4.6210    -2.5980 H     1 <1>   0.0800 
 39 H        6.0450     3.5020    -1.6350 H     1 <1>   0.0800 
 40 H        5.6270     5.0720    -0.9870 H     1 <1>   0.0800 
 41 H       -3.2450    -3.2090    -1.3010 H     1 <1>   0.1500 
 42 H       -7.0860     2.6650    -0.7290 H     1 <1>   0.0800 
 43 H       -5.5180     2.9490    -1.4630 H     1 <1>   0.0800 
 44 H       -4.3040     5.2360     1.0440 H     1 <1>   0.0800 
 45 H       -5.9830     5.4560     1.4810 H     1 <1>   0.0800 
 46 H       -7.6440     4.9620    -0.8430 H     1 <1>   0.0800 
 47 H       -6.6890     4.8060    -2.3090 H     1 <1>   0.0800 
 48 H       -4.7420     5.6500    -1.2210 H     1 <1>   0.0800 
 49 H       -5.9910     6.6700    -0.5300 H     1 <1>   0.0800 
@<TRIPOS>BOND
  1   1   2  2   
  2   2   3  am  
  3   2   4  1   
  4   3   5  1   
  5   3  26  1   
  6   4   6  ar  
  7   4   7  ar  
  8   5   8  1   
  9   5   9  1   
 10   5  27  1   
 11   6  10  ar  
 12   6  28  1   
 13   7  11  ar  
 14   7  29  1   
 15   8  12  ar  
 16   8  13  ar  
 17   9  14  2   
 18   9  15  am  
 19  10  16  ar  
 20  10  30  1   
 21  11  16  ar  
 22  11  31  1   
 23  12  17  ar  
 24  12  32  1   
 25  13  18  ar  
 26  13  33  1   
 27  15  19  1   
 28  15  34  1   
 29  16  20  1   
 30  17  21  ar  
 31  17  35  1   
 32  18  21  ar  
 33  18  36  1   
 34  19  22  1   
 35  19  23  1   
 36  19  37  1   
 37  20  38  1   
 38  20  39  1   
 39  20  40  1   
 40  21  41  1   
 41  22  24  1   
 42  22  42  1   
 43  22  43  1   
 44  23  25  1   
 45  23  44  1   
 46  23  45  1   
 47  24  25  1   
 48  24  46  1   
 49  24  47  1   
 50  25  48  1   
 51  25  49  1   
@<TRIPOS>SUBSTRUCTURE
  1 ****   3 GROUP 4 **** **** 0

# MOE 2024.06 (io_trps.svl 2023.06)
