@<TRIPOS>MOLECULE
NONAME
44 45 1 0 0 
SMALL
USER_CHARGES


@<TRIPOS>ATOM
  1 O        0.5370    -0.6450     1.5460 O.2   1 <1>  -0.5700 
  2 C        1.5260    -0.8810     0.8960 C.2   1 <1>   0.5690 
  3 N        1.7020    -2.0200     0.1670 N.am  1 <1>  -0.5470 
  4 C        2.6460     0.1520     0.8890 C.3   1 <1>   0.1810 
  5 C        0.9390    -3.1430    -0.0620 C.ar  1 <1>   0.4270 
  6 O        3.7250    -0.2880     0.0780 O.3   1 <1>  -0.3630 
  7 N        1.5390    -4.0120    -0.8620 N.ar  1 <1>  -0.6200 
  8 C       -0.3270    -3.3500     0.4830 C.ar  1 <1>  -0.1500 
  9 C        4.8580     0.4380    -0.0990 C.ar  1 <1>   0.0830 
 10 C        0.8610    -5.1160    -1.1250 C.ar  1 <1>   0.1600 
 11 C       -1.0240    -4.5040     0.2020 C.ar  1 <1>  -0.1430 
 12 C        5.8640    -0.0950    -0.9100 C.ar  1 <1>  -0.1430 
 13 C        5.0340     1.6830     0.5020 C.ar  1 <1>  -0.1500 
 14 C       -0.3970    -5.4080    -0.6310 C.ar  1 <1>  -0.1500 
 15 C       -2.4040    -4.7770     0.7700 C.3   1 <1>  -0.0970 
 16 C        7.0250     0.6430    -1.0950 C.ar  1 <1>  -0.1500 
 17 C        5.7630    -1.4570    -1.6140 C.3   1 <1>   0.0630 
 18 C        6.1980     2.4050     0.3080 C.ar  1 <1>  -0.1430 
 19 C        7.1920     1.8780    -0.4950 C.ar  1 <1>  -0.1500 
 20 C        4.6260    -1.4980    -2.6420 C.3   1 <1>  -0.2400 
 21 C        5.6620    -2.6200    -0.6190 C.3   1 <1>  -0.2400 
 22 C        6.3870     3.7610     0.9630 C.3   1 <1>  -0.0970 
 23 H        2.5940    -2.0690    -0.3270 H     1 <1>   0.3700 
 24 H        3.0080     0.2940     1.8900 H     1 <1>   0.0800 
 25 H        2.2750     1.0780     0.4910 H     1 <1>   0.0800 
 26 H       -0.7610    -2.6090     1.1240 H     1 <1>   0.1500 
 27 H        1.3360    -5.8330    -1.7740 H     1 <1>   0.1500 
 28 H        4.2730     2.1100     1.1260 H     1 <1>   0.1500 
 29 H       -0.8790    -6.3320    -0.8960 H     1 <1>   0.1500 
 30 H       -2.7280    -3.9630     1.3940 H     1 <1>   0.0800 
 31 H       -2.3870    -5.6750     1.3610 H     1 <1>   0.0800 
 32 H       -3.1130    -4.8980    -0.0290 H     1 <1>   0.0800 
 33 H        7.8180     0.2620    -1.7140 H     1 <1>   0.1500 
 34 H        6.6740    -1.6110    -2.1660 H     1 <1>   0.0800 
 35 H        8.1030     2.4270    -0.6590 H     1 <1>   0.1500 
 36 H        3.6650    -1.4370    -2.1680 H     1 <1>   0.0800 
 37 H        4.6670    -2.4140    -3.2030 H     1 <1>   0.0800 
 38 H        4.7220    -0.6730    -3.3240 H     1 <1>   0.0800 
 39 H        4.7350    -2.5950    -0.0780 H     1 <1>   0.0800 
 40 H        6.4710    -2.5660     0.0880 H     1 <1>   0.0800 
 41 H        5.7240    -3.5590    -1.1390 H     1 <1>   0.0800 
 42 H        5.7930     3.8390     1.8560 H     1 <1>   0.0800 
 43 H        6.0930     4.5380     0.2800 H     1 <1>   0.0800 
 44 H        7.4180     3.9060     1.2300 H     1 <1>   0.0800 
@<TRIPOS>BOND
  1   1   2  2   
  2   2   3  am  
  3   2   4  1   
  4   3   5  1   
  5   3  23  1   
  6   4   6  1   
  7   4  24  1   
  8   4  25  1   
  9   5   7  ar  
 10   5   8  ar  
 11   6   9  1   
 12   7  10  ar  
 13   8  11  ar  
 14   8  26  1   
 15   9  12  ar  
 16   9  13  ar  
 17  10  14  ar  
 18  10  27  1   
 19  11  14  ar  
 20  11  15  1   
 21  12  16  ar  
 22  12  17  1   
 23  13  18  ar  
 24  13  28  1   
 25  14  29  1   
 26  15  30  1   
 27  15  31  1   
 28  15  32  1   
 29  16  19  ar  
 30  16  33  1   
 31  17  20  1   
 32  17  21  1   
 33  17  34  1   
 34  18  19  ar  
 35  18  22  1   
 36  19  35  1   
 37  20  36  1   
 38  20  37  1   
 39  20  38  1   
 40  21  39  1   
 41  21  40  1   
 42  21  41  1   
 43  22  42  1   
 44  22  43  1   
 45  22  44  1   
@<TRIPOS>SUBSTRUCTURE
  1 ****   6 GROUP 4 **** **** 0

# MOE 2024.06 (io_trps.svl 2023.06)
