@<TRIPOS>MOLECULE
NONAME
44 45 1 0 0 
SMALL
USER_CHARGES


@<TRIPOS>ATOM
  1 CL      -0.2580     0.5890     0.1570 Cl    1 <1>  -0.1770 
  2 C        1.3950     1.1670     0.1360 C.ar  1 <1>   0.1770 
  3 C        1.6840     2.4880     0.4560 C.ar  1 <1>  -0.1440 
  4 C        2.3850     0.2650    -0.2080 C.ar  1 <1>  -0.1500 
  5 C        3.0160     2.8830     0.4200 C.ar  1 <1>  -0.1500 
  6 C        0.5380     3.4340     0.8280 C.3   1 <1>  -0.0160 
  7 C        3.7050     0.6740    -0.2390 C.ar  1 <1>  -0.1500 
  8 C        4.0240     1.9930     0.0770 C.ar  1 <1>   0.0830 
  9 C        0.9520     4.8710     1.1650 C.3   1 <1>  -0.2400 
 10 O        5.2890     2.4830     0.0730 O.3   1 <1>  -0.3620 
 11 C        6.3890     1.6750    -0.2570 C.3   1 <1>   0.1200 
 12 C        7.6360     2.5520    -0.1530 C.3   1 <1>  -0.1600 
 13 C        8.8910     1.7590    -0.4920 C.3   1 <1>   0.3430 
 14 N       10.0670     2.6510    -0.3650 N.4   1 <1>  -0.9060 
 15 C       11.3580     1.9990    -0.6550 C.3   1 <1>   0.4230 
 16 C       11.7680     1.1310     0.5310 C.3   1 <1>  -0.1600 
 17 C       12.4330     3.0780    -0.6670 C.3   1 <1>  -0.1600 
 18 C       12.3440     2.0940     1.5760 C.3   1 <1>  -0.1600 
 19 C       12.7740     3.3480     0.8040 C.3   1 <1>  -0.1600 
 20 H        2.1170    -0.7480    -0.4490 H     1 <1>   0.1500 
 21 H        3.3050     3.8900     0.6560 H     1 <1>   0.1500 
 22 H        0.0180     3.0230     1.6760 H     1 <1>   0.0800 
 23 H       -0.1580     3.4660     0.0070 H     1 <1>   0.0800 
 24 H        4.4570    -0.0420    -0.5090 H     1 <1>   0.1500 
 25 H        1.6170     4.8830     2.0110 H     1 <1>   0.0800 
 26 H        0.0810     5.4520     1.4120 H     1 <1>   0.0800 
 27 H        1.4380     5.3300     0.3230 H     1 <1>   0.0800 
 28 H        6.2480     1.3100    -1.2610 H     1 <1>   0.0800 
 29 H        6.4250     0.8550     0.4410 H     1 <1>   0.0800 
 30 H        7.7030     2.9260     0.8550 H     1 <1>   0.0800 
 31 H        7.5290     3.3770    -0.8360 H     1 <1>   0.0800 
 32 H        8.8220     1.3800    -1.5000 H     1 <1>   0.0800 
 33 H        8.9840     0.9230     0.1830 H     1 <1>   0.0800 
 34 H       10.1310     3.0250     0.5890 H     1 <1>   0.4500 
 35 H        9.9600     3.4580    -0.9890 H     1 <1>   0.4500 
 36 H       11.3220     1.4500    -1.5840 H     1 <1>   0.0800 
 37 H       12.5580     0.4740     0.2060 H     1 <1>   0.0800 
 38 H       10.9740     0.5210     0.9240 H     1 <1>   0.0800 
 39 H       12.1430     3.9670    -1.1980 H     1 <1>   0.0800 
 40 H       13.3080     2.6740    -1.1490 H     1 <1>   0.0800 
 41 H       13.1810     1.6470     2.0870 H     1 <1>   0.0800 
 42 H       11.5980     2.3500     2.3100 H     1 <1>   0.0800 
 43 H       12.2360     4.2080     1.1670 H     1 <1>   0.0800 
 44 H       13.8290     3.5350     0.9230 H     1 <1>   0.0800 
@<TRIPOS>BOND
  1   1   2  1   
  2   2   3  ar  
  3   2   4  ar  
  4   3   5  ar  
  5   3   6  1   
  6   4   7  ar  
  7   4  20  1   
  8   5   8  ar  
  9   5  21  1   
 10   6   9  1   
 11   6  22  1   
 12   6  23  1   
 13   7   8  ar  
 14   7  24  1   
 15   8  10  1   
 16   9  25  1   
 17   9  26  1   
 18   9  27  1   
 19  10  11  1   
 20  11  12  1   
 21  11  28  1   
 22  11  29  1   
 23  12  13  1   
 24  12  30  1   
 25  12  31  1   
 26  13  14  1   
 27  13  32  1   
 28  13  33  1   
 29  14  15  1   
 30  14  34  1   
 31  14  35  1   
 32  15  16  1   
 33  15  17  1   
 34  15  36  1   
 35  16  18  1   
 36  16  37  1   
 37  16  38  1   
 38  17  19  1   
 39  17  39  1   
 40  17  40  1   
 41  18  19  1   
 42  18  41  1   
 43  18  42  1   
 44  19  43  1   
 45  19  44  1   
@<TRIPOS>SUBSTRUCTURE
  1 ****  11 GROUP 4 **** **** 0

# MOE 2024.06 (io_trps.svl 2023.06)
