@<TRIPOS>MOLECULE
NONAME
55 56 1 0 0 
SMALL
USER_CHARGES


@<TRIPOS>ATOM
  1 O       -1.6370    -1.0370    -1.1020 O.2   1 <1>  -0.5700 
  2 C       -1.6520    -1.9610    -0.3210 C.2   1 <1>   0.6160 
  3 N       -2.5500    -1.8670     0.6930 N.am  1 <1>  -0.7300 
  4 C       -0.7960    -3.0960    -0.5130 C.2   1 <1>  -0.1360 
  5 C       -3.5340    -2.9080     1.0400 C.3   1 <1>   0.1400 
  6 C       -0.4620    -4.0620     0.3760 C.2   1 <1>  -0.1780 
  7 C       -4.7980    -2.6630     0.2140 C.3   1 <1>  -0.1600 
  8 C        0.3820    -5.2140     0.1760 C.ar  1 <1>   0.0280 
  9 C       -5.8320    -3.7630     0.4570 C.3   1 <1>   0.3430 
 10 C        0.8580    -5.5980    -1.0750 C.ar  1 <1>  -0.1500 
 11 C        0.7520    -6.0040     1.2600 C.ar  1 <1>  -0.1500 
 12 N       -6.9840    -3.6080    -0.4750 N.4   1 <1>  -0.9590 
 13 C        1.6580    -6.7140    -1.2300 C.ar  1 <1>  -0.1500 
 14 C        1.5520    -7.1210     1.1070 C.ar  1 <1>  -0.1500 
 15 C       -7.8190    -2.3860    -0.1790 C.3   1 <1>   0.3430 
 16 C       -7.8530    -4.8390    -0.4630 C.3   1 <1>   0.3430 
 17 C        2.0240    -7.5030    -0.1450 C.ar  1 <1>  -0.1430 
 18 C       -9.0720    -2.3220    -1.0730 C.3   1 <1>   0.1200 
 19 C       -9.1030    -4.6630    -1.3460 C.3   1 <1>   0.1200 
 20 C        2.9200    -8.7400    -0.3700 C.3   1 <1>   0.1440 
 21 O       -9.8000    -3.5110    -0.9700 O.3   1 <1>  -0.5600 
 22 C        3.2330    -9.5060     0.9260 C.3   1 <1>  -0.2400 
 23 C        4.2580    -8.3000    -0.9830 C.3   1 <1>  -0.2400 
 24 C        2.2180    -9.7160    -1.3260 C.3   1 <1>  -0.2400 
 25 H       -2.8750    -0.9070     0.8290 H     1 <1>   0.3700 
 26 H       -0.3880    -3.1160    -1.5050 H     1 <1>   0.1500 
 27 H       -3.1300    -3.8810     0.8180 H     1 <1>   0.0800 
 28 H       -3.7460    -2.8550     2.0960 H     1 <1>   0.0800 
 29 H       -0.8490    -3.9880     1.3760 H     1 <1>   0.1500 
 30 H       -4.5270    -2.6530    -0.8280 H     1 <1>   0.0800 
 31 H       -5.2040    -1.7050     0.4870 H     1 <1>   0.0800 
 32 H       -6.1740    -3.7300     1.4790 H     1 <1>   0.0800 
 33 H       -5.3640    -4.7200     0.2900 H     1 <1>   0.0800 
 34 H        0.6050    -5.0270    -1.9470 H     1 <1>   0.1500 
 35 H        0.4130    -5.7410     2.2450 H     1 <1>   0.1500 
 36 H       -6.6160    -3.5040    -1.4310 H     1 <1>   0.4500 
 37 H        1.9970    -6.9650    -2.2180 H     1 <1>   0.1500 
 38 H        1.7960    -7.6810     1.9900 H     1 <1>   0.1500 
 39 H       -8.1390    -2.4040     0.8500 H     1 <1>   0.0800 
 40 H       -7.2350    -1.4930    -0.3290 H     1 <1>   0.0800 
 41 H       -7.2920    -5.6910    -0.8100 H     1 <1>   0.0800 
 42 H       -8.1790    -5.0450     0.5430 H     1 <1>   0.0800 
 43 H       -8.8100    -2.1620    -2.1050 H     1 <1>   0.0800 
 44 H       -9.7140    -1.5190    -0.7550 H     1 <1>   0.0800 
 45 H       -9.7680    -5.5010    -1.2200 H     1 <1>   0.0800 
 46 H       -8.8410    -4.5880    -2.3870 H     1 <1>   0.0800 
 47 H        3.8570   -10.3580     0.7220 H     1 <1>   0.0800 
 48 H        2.3260    -9.8610     1.3840 H     1 <1>   0.0800 
 49 H        3.7530    -8.8730     1.6230 H     1 <1>   0.0800 
 50 H        4.9120    -9.1440    -1.1150 H     1 <1>   0.0800 
 51 H        4.7420    -7.5900    -0.3350 H     1 <1>   0.0800 
 52 H        4.1140    -7.8380    -1.9410 H     1 <1>   0.0800 
 53 H        1.2640   -10.0040    -0.9220 H     1 <1>   0.0800 
 54 H        2.8110   -10.6020    -1.4690 H     1 <1>   0.0800 
 55 H        2.0540    -9.2670    -2.2880 H     1 <1>   0.0800 
@<TRIPOS>BOND
  1   1   2  2   
  2   2   3  am  
  3   2   4  1   
  4   3   5  1   
  5   3  25  1   
  6   4   6  2   
  7   4  26  1   
  8   5   7  1   
  9   5  27  1   
 10   5  28  1   
 11   6   8  1   
 12   6  29  1   
 13   7   9  1   
 14   7  30  1   
 15   7  31  1   
 16   8  10  ar  
 17   8  11  ar  
 18   9  12  1   
 19   9  32  1   
 20   9  33  1   
 21  10  13  ar  
 22  10  34  1   
 23  11  14  ar  
 24  11  35  1   
 25  12  15  1   
 26  12  16  1   
 27  12  36  1   
 28  13  17  ar  
 29  13  37  1   
 30  14  17  ar  
 31  14  38  1   
 32  15  18  1   
 33  15  39  1   
 34  15  40  1   
 35  16  19  1   
 36  16  41  1   
 37  16  42  1   
 38  17  20  1   
 39  18  21  1   
 40  18  43  1   
 41  18  44  1   
 42  19  21  1   
 43  19  45  1   
 44  19  46  1   
 45  20  22  1   
 46  20  23  1   
 47  20  24  1   
 48  22  47  1   
 49  22  48  1   
 50  22  49  1   
 51  23  50  1   
 52  23  51  1   
 53  23  52  1   
 54  24  53  1   
 55  24  54  1   
 56  24  55  1   
@<TRIPOS>SUBSTRUCTURE
  1 ****   6 GROUP 4 **** **** 0

# MOE 2024.06 (io_trps.svl 2023.06)
