@<TRIPOS>MOLECULE
Structure1972
21 22 1 0 0 
SMALL
USER_CHARGES


@<TRIPOS>ATOM
  1 O        0.2970    -0.4140     1.1760 O.co2 1 <1>  -0.9000 
  2 C        0.9740    -1.1260     0.4120 C.2   1 <1>   1.0330 
  3 O        0.4360    -2.1340    -0.0820 O.co2 1 <1>  -0.9000 
  4 C        2.3610    -0.8080     0.1130 C.2   1 <1>  -0.2330 
  5 C        2.9110     0.4800     0.0870 C.2   1 <1>   0.2030 
  6 C        3.4250    -1.6060    -0.2060 C.2   1 <1>  -0.3320 
  7 N        4.1770     0.4880    -0.2080 N.2   1 <1>  -0.7070 
  8 C        2.1320     1.7580     0.3590 C.3   1 <1>  -0.0140 
  9 N        4.4850    -0.8040    -0.3900 N.pl3 1 <1>   0.3000 
 10 C        3.4770    -3.1170    -0.3450 C.3   1 <1>  -0.0600 
 11 C        1.2070     2.2770    -0.7000 C.3   1 <1>  -0.2000 
 12 C        2.4430     3.0440    -0.3490 C.3   1 <1>  -0.2000 
 13 H        1.7790     1.8020     1.3740 H     1 <1>   0.1000 
 14 H        5.4310    -1.1070    -0.6400 H     1 <1>   0.2700 
 15 H        2.5290    -3.5500    -0.0780 H     1 <1>   0.0800 
 16 H        4.2290    -3.5260     0.3050 H     1 <1>   0.0800 
 17 H        3.6950    -3.3880    -1.3620 H     1 <1>   0.0800 
 18 H        0.2380     2.6050    -0.3700 H     1 <1>   0.1000 
 19 H        1.1630     1.7250    -1.6230 H     1 <1>   0.1000 
 20 H        3.2730     3.0470    -1.0320 H     1 <1>   0.1000 
 21 H        2.3550     3.9600     0.2060 H     1 <1>   0.1000 
@<TRIPOS>BOND
  1   1   2  ar  
  2   2   3  ar  
  3   2   4  1   
  4   4   5  1   
  5   4   6  2   
  6   5   7  2   
  7   5   8  1   
  8   6   9  1   
  9   6  10  1   
 10   7   9  1   
 11   8  11  1   
 12   8  12  1   
 13   8  13  1   
 14   9  14  1   
 15  10  15  1   
 16  10  16  1   
 17  10  17  1   
 18  11  12  1   
 19  11  18  1   
 20  11  19  1   
 21  12  20  1   
 22  12  21  1   
@<TRIPOS>SUBSTRUCTURE
  1 ****   4 GROUP 4 **** **** 0

# MOE 2024.06 (io_trps.svl 2023.06)
