@<TRIPOS>MOLECULE
NONAME
29 29 1 0 0 
SMALL
USER_CHARGES


@<TRIPOS>ATOM
  1 CL       0.3180    -0.3050     0.6290 Cl    1 <1>  -0.1770 
  2 C        1.6810     0.7300     0.2680 C.ar  1 <1>   0.1770 
  3 C        1.4720     2.0310    -0.1660 C.ar  1 <1>  -0.1440 
  4 C        2.9510     0.2130     0.4280 C.ar  1 <1>  -0.1500 
  5 C        2.5830     2.8140    -0.4420 C.ar  1 <1>  -0.1500 
  6 C        0.0700     2.5930    -0.3390 C.3   1 <1>  -0.0960 
  7 C        4.0650     0.9960     0.1560 C.ar  1 <1>   0.1170 
  8 C        3.8590     2.3010    -0.2850 C.ar  1 <1>  -0.1500 
  9 N        5.3390     0.4340     0.3250 N.am  1 <1>  -0.5470 
 10 C        6.5730     0.9950     0.4350 C.2   1 <1>   0.7800 
 11 O        6.7980     2.1860     0.4280 O.2   1 <1>  -0.5700 
 12 O        7.5730     0.1270     0.5740 O.3   1 <1>  -0.4300 
 13 C        8.9360     0.5490     0.6110 C.3   1 <1>   0.1200 
 14 C        9.6010     0.5600    -0.7820 C.3   1 <1>   0.6800 
 15 F        9.5130    -0.6610    -1.3120 F     1 <1>  -0.3400 
 16 F        8.8980     1.3170    -1.6230 F     1 <1>  -0.3400 
 17 C       11.0760     1.0180    -0.7840 C.3   1 <1>   0.6000 
 18 F       11.8220     0.2380    -0.0020 F     1 <1>  -0.3400 
 19 F       11.2080     2.2320    -0.2500 F     1 <1>  -0.3400 
 20 H        3.0640    -0.7990     0.7680 H     1 <1>   0.1500 
 21 H        2.4620     3.8280    -0.7830 H     1 <1>   0.1500 
 22 H       -0.4550     2.5640     0.6000 H     1 <1>   0.0800 
 23 H       -0.4740     2.0090    -1.0590 H     1 <1>   0.0800 
 24 H        0.1010     3.6120    -0.6800 H     1 <1>   0.0800 
 25 H        4.6990     2.9320    -0.5140 H     1 <1>   0.1500 
 26 H        5.3720    -0.5790     0.4010 H     1 <1>   0.3700 
 27 H        9.4670    -0.1370     1.2440 H     1 <1>   0.0800 
 28 H        9.0030     1.5230     1.0640 H     1 <1>   0.0800 
 29 H       11.5120     1.0310    -1.7650 H     1 <1>   0.0800 
@<TRIPOS>BOND
  1   1   2  1   
  2   2   3  ar  
  3   2   4  ar  
  4   3   5  ar  
  5   3   6  1   
  6   4   7  ar  
  7   4  20  1   
  8   5   8  ar  
  9   5  21  1   
 10   6  22  1   
 11   6  23  1   
 12   6  24  1   
 13   7   8  ar  
 14   7   9  1   
 15   8  25  1   
 16   9  10  am  
 17   9  26  1   
 18  10  11  2   
 19  10  12  1   
 20  12  13  1   
 21  13  14  1   
 22  13  27  1   
 23  13  28  1   
 24  14  15  1   
 25  14  16  1   
 26  14  17  1   
 27  17  18  1   
 28  17  19  1   
 29  17  29  1   
@<TRIPOS>SUBSTRUCTURE
  1 ****  10 GROUP 4 **** **** 0

# MOE 2024.06 (io_trps.svl 2023.06)
