@<TRIPOS>MOLECULE
NONAME
38 40 1 0 0 
SMALL
USER_CHARGES


@<TRIPOS>ATOM
  1 F        0.4820    -0.2740    -0.1490 F     1 <1>  -0.1900 
  2 C        1.6890     0.2050     0.0150 C.ar  1 <1>   0.1900 
  3 C        2.7890    -0.6530    -0.0500 C.ar  1 <1>   0.1170 
  4 C        1.8010     1.5640     0.2340 C.ar  1 <1>  -0.1500 
  5 N        2.6250    -2.0380    -0.2820 N.am  1 <1>  -0.5470 
  6 C        4.0410    -0.0580     0.1030 C.ar  1 <1>  -0.1500 
  7 C        3.0600     2.1160     0.3930 C.ar  1 <1>  -0.1500 
  8 C        3.4810    -3.0920    -0.0970 C.2   1 <1>   0.5690 
  9 C        4.1820     1.3040     0.3260 C.ar  1 <1>  -0.1440 
 10 O        4.5230    -2.9710     0.5080 O.2   1 <1>  -0.5700 
 11 C        3.1790    -4.4510    -0.7620 C.3   1 <1>  -0.0190 
 12 C        5.5660     1.9050     0.4950 C.3   1 <1>  -0.0970 
 13 C        1.7140    -5.2110    -0.4090 C.3   1 <1>  -0.1860 
 14 C        4.3680    -5.5430    -0.4440 C.3   1 <1>  -0.0800 
 15 C        0.6810    -4.3070     0.2410 C.2   1 <1>   0.9060 
 16 C        2.0540    -6.6360     0.3340 C.3   1 <1>  -0.0800 
 17 C        3.2110    -6.0970    -0.0730 C.3   1 <1>  -0.1600 
 18 C        4.7010    -6.9790     0.2620 C.3   1 <1>  -0.1600 
 19 O        0.2490    -3.3840    -0.4570 O.co2 1 <1>  -0.9000 
 20 O        0.3200    -4.4760     1.4070 O.co2 1 <1>  -0.9000 
 21 C        3.2450    -7.7130     0.6320 C.3   1 <1>  -0.1600 
 22 H        0.9170     2.1710     0.2790 H     1 <1>   0.1500 
 23 H        1.6400    -2.3290    -0.4700 H     1 <1>   0.3700 
 24 H        4.9210    -0.6690     0.0450 H     1 <1>   0.1500 
 25 H        3.1620     3.1730     0.5650 H     1 <1>   0.1500 
 26 H        3.1790    -4.2410    -1.8190 H     1 <1>   0.0800 
 27 H        6.2490     1.1690     0.8810 H     1 <1>   0.0800 
 28 H        5.5360     2.7310     1.1820 H     1 <1>   0.0800 
 29 H        5.9310     2.2520    -0.4550 H     1 <1>   0.0800 
 30 H        1.2490    -5.4540    -1.3530 H     1 <1>   0.0800 
 31 H        4.7800    -5.6940    -1.4310 H     1 <1>   0.0800 
 32 H        1.6760    -6.4730     1.3350 H     1 <1>   0.0800 
 33 H        3.3160    -5.5880     0.9840 H     1 <1>   0.0800 
 34 H        3.1090    -6.5910    -1.1340 H     1 <1>   0.0800 
 35 H        5.2730    -6.8170     1.1640 H     1 <1>   0.0800 
 36 H        5.2890    -7.6070    -0.3890 H     1 <1>   0.0800 
 37 H        3.1060    -8.5960     0.0260 H     1 <1>   0.0800 
 38 H        3.2310    -8.0220     1.6650 H     1 <1>   0.0800 
@<TRIPOS>BOND
  1   1   2  1   
  2   2   3  ar  
  3   2   4  ar  
  4   3   5  1   
  5   3   6  ar  
  6   4   7  ar  
  7   4  22  1   
  8   5   8  am  
  9   5  23  1   
 10   6   9  ar  
 11   6  24  1   
 12   7   9  ar  
 13   7  25  1   
 14   8  10  2   
 15   8  11  1   
 16   9  12  1   
 17  11  13  1   
 18  11  14  1   
 19  11  26  1   
 20  12  27  1   
 21  12  28  1   
 22  12  29  1   
 23  13  15  1   
 24  13  16  1   
 25  13  30  1   
 26  14  17  1   
 27  14  18  1   
 28  14  31  1   
 29  15  19  ar  
 30  15  20  ar  
 31  16  17  1   
 32  16  21  1   
 33  16  32  1   
 34  17  33  1   
 35  17  34  1   
 36  18  21  1   
 37  18  35  1   
 38  18  36  1   
 39  21  37  1   
 40  21  38  1   
@<TRIPOS>SUBSTRUCTURE
  1 ****   5 GROUP 4 **** **** 0

# MOE 2024.06 (io_trps.svl 2023.06)
