@<TRIPOS>MOLECULE
NONAME
24 25 1 0 0 
SMALL
USER_CHARGES


@<TRIPOS>ATOM
  1 S       -0.0750    -0.6540    -0.0130 S.3   1 <1>  -0.0800 
  2 C        1.4050     0.3020    -0.0130 C.ar  1 <1>   0.2970 
  3 C       -1.0850     0.7970    -0.0030 C.2   1 <1>  -0.1400 
  4 N        2.6150    -0.2160    -0.0190 N.ar  1 <1>  -0.5670 
  5 C        1.1010     1.6420    -0.0070 C.ar  1 <1>   0.0000 
  6 C       -0.3160     1.9020    -0.0010 C.2   1 <1>  -0.1500 
  7 C       -2.5860     0.5660     0.0000 C.3   1 <1>   0.0200 
  8 C        3.5710     0.6940    -0.0180 C.ar  1 <1>   0.4700 
  9 C        2.2140     2.4620    -0.0060 C.ar  1 <1>   0.4120 
 10 C       -3.3720     1.8800     0.0080 C.3   1 <1>  -0.2400 
 11 N        3.4530     2.0220    -0.0120 N.ar  1 <1>  -0.6200 
 12 S        1.9880     4.2320     0.0020 S.3   1 <1>  -0.3320 
 13 C        3.7180     4.8910    -0.0010 C.3   1 <1>   0.2700 
 14 C        3.6840     6.3800     0.0060 C.1   1 <1>   0.3570 
 15 N        3.6900     7.5180     0.0110 N.1   1 <1>  -0.5570 
 16 H       -0.6760     2.9160     0.0040 H     1 <1>   0.1500 
 17 H       -2.8490    -0.0120     0.8690 H     1 <1>   0.0800 
 18 H       -2.8550    -0.0050    -0.8720 H     1 <1>   0.0800 
 19 H        4.5790     0.3130    -0.0230 H     1 <1>   0.1500 
 20 H       -3.1300     2.4530     0.8860 H     1 <1>   0.0800 
 21 H       -4.4280     1.6770     0.0110 H     1 <1>   0.0800 
 22 H       -3.1350     2.4610    -0.8660 H     1 <1>   0.0800 
 23 H        4.2020     4.5230    -0.8860 H     1 <1>   0.0800 
 24 H        4.2080     4.5160     0.8790 H     1 <1>   0.0800 
@<TRIPOS>BOND
  1   1   2  1   
  2   1   3  1   
  3   2   4  ar  
  4   2   5  ar  
  5   3   6  2   
  6   3   7  1   
  7   4   8  ar  
  8   5   6  1   
  9   5   9  ar  
 10   6  16  1   
 11   7  10  1   
 12   7  17  1   
 13   7  18  1   
 14   8  11  ar  
 15   8  19  1   
 16   9  11  ar  
 17   9  12  1   
 18  10  20  1   
 19  10  21  1   
 20  10  22  1   
 21  12  13  1   
 22  13  14  1   
 23  13  23  1   
 24  13  24  1   
 25  14  15  3   
@<TRIPOS>SUBSTRUCTURE
  1 ****   5 GROUP 4 **** **** 0

# MOE 2024.06 (io_trps.svl 2023.06)
