@<TRIPOS>MOLECULE
NONAME
45 47 1 0 0 
SMALL
USER_CHARGES


@<TRIPOS>ATOM
  1 S       -0.4340     0.3230     1.7550 S.3   1 <1>  -0.0800 
  2 C        0.4600     1.6890     1.1170 C.2   1 <1>   0.1040 
  3 C       -1.9830     1.1050     1.4790 C.2   1 <1>  -0.0450 
  4 N        1.8420     1.6680     1.0890 N.am  1 <1>  -0.4940 
  5 C       -0.3980     2.6890     0.7270 C.2   1 <1>  -0.0860 
  6 C       -3.2190     0.4640     1.7840 C.2   1 <1>   0.5940 
  7 C       -1.7750     2.3390     0.9570 C.2   1 <1>  -0.1810 
  8 C        2.8100     0.7000     1.1550 C.2   1 <1>   0.5690 
  9 C        0.0740     3.9230     0.1500 C.2   1 <1>   0.8060 
 10 O       -3.3470    -0.6220     2.2940 O.2   1 <1>  -0.5700 
 11 C       -4.4650     1.2490     1.4060 C.3   1 <1>  -0.0990 
 12 C       -2.9840     3.2290     0.6670 C.3   1 <1>   0.0210 
 13 O        3.9590     1.0380     1.2760 O.2   1 <1>  -0.5700 
 14 C        2.5110    -0.7890     1.0560 C.3   1 <1>   0.1310 
 15 O        1.2210     4.3140     0.2730 O.2   1 <1>  -0.5700 
 16 O       -0.7740     4.6700    -0.5650 O.3   1 <1>  -0.4300 
 17 C       -4.2300     2.7760     1.4580 C.3   1 <1>  -0.1600 
 18 S        1.7890    -1.1940    -0.6080 S.3   1 <1>  -0.3310 
 19 C       -0.3700     5.8770    -1.1720 C.3   1 <1>   0.1200 
 20 C        1.2080    -2.8960    -0.5180 C.ar  1 <1>   0.1010 
 21 C       -1.5800     6.4780    -1.8800 C.3   1 <1>  -0.2400 
 22 C        1.4350    -3.6990     0.5900 C.ar  1 <1>  -0.1500 
 23 C        0.5150    -3.3780    -1.6130 C.ar  1 <1>  -0.1500 
 24 C        0.9540    -4.9970     0.5940 C.ar  1 <1>  -0.1500 
 25 C        0.0370    -4.6770    -1.6030 C.ar  1 <1>  -0.1500 
 26 C        0.2560    -5.4850    -0.4990 C.ar  1 <1>  -0.1500 
 27 H        2.2730     2.5900     0.9500 H     1 <1>   0.3700 
 28 H       -5.2620     0.9830     2.0770 H     1 <1>   0.0800 
 29 H       -4.7540     0.9580     0.4130 H     1 <1>   0.0800 
 30 H       -3.1920     3.2020    -0.3890 H     1 <1>   0.0800 
 31 H       -2.7690     4.2480     0.9390 H     1 <1>   0.0800 
 32 H        1.8200    -1.0990     1.8130 H     1 <1>   0.0800 
 33 H        3.4210    -1.3530     1.1430 H     1 <1>   0.0800 
 34 H       -4.0970     3.0610     2.4880 H     1 <1>   0.0800 
 35 H       -5.0990     3.2920     1.0890 H     1 <1>   0.0800 
 36 H        0.4200     5.6610    -1.8730 H     1 <1>   0.0800 
 37 H       -0.0020     6.5410    -0.4070 H     1 <1>   0.0800 
 38 H       -1.9430     5.8020    -2.6340 H     1 <1>   0.0800 
 39 H       -1.3000     7.4010    -2.3550 H     1 <1>   0.0800 
 40 H       -2.3620     6.6830    -1.1710 H     1 <1>   0.0800 
 41 H        1.9760    -3.3400     1.4420 H     1 <1>   0.1500 
 42 H        0.3510    -2.7400    -2.4630 H     1 <1>   0.1500 
 43 H        1.1210    -5.6300     1.4490 H     1 <1>   0.1500 
 44 H       -0.5050    -5.0580    -2.4510 H     1 <1>   0.1500 
 45 H       -0.1170    -6.4940    -0.4910 H     1 <1>   0.1500 
@<TRIPOS>BOND
  1   1   2  1   
  2   1   3  1   
  3   2   4  1   
  4   2   5  2   
  5   3   6  1   
  6   3   7  2   
  7   4   8  am  
  8   4  27  1   
  9   5   7  1   
 10   5   9  1   
 11   6  10  2   
 12   6  11  1   
 13   7  12  1   
 14   8  13  2   
 15   8  14  1   
 16   9  15  2   
 17   9  16  1   
 18  11  17  1   
 19  11  28  1   
 20  11  29  1   
 21  12  17  1   
 22  12  30  1   
 23  12  31  1   
 24  14  18  1   
 25  14  32  1   
 26  14  33  1   
 27  16  19  1   
 28  17  34  1   
 29  17  35  1   
 30  18  20  1   
 31  19  21  1   
 32  19  36  1   
 33  19  37  1   
 34  20  22  ar  
 35  20  23  ar  
 36  21  38  1   
 37  21  39  1   
 38  21  40  1   
 39  22  24  ar  
 40  22  41  1   
 41  23  25  ar  
 42  23  42  1   
 43  24  26  ar  
 44  24  43  1   
 45  25  26  ar  
 46  25  44  1   
 47  26  45  1   
@<TRIPOS>SUBSTRUCTURE
  1 ****   1 GROUP 4 **** **** 0

# MOE 2024.06 (io_trps.svl 2023.06)
