@<TRIPOS>MOLECULE
NONAME
41 44 1 0 0 
SMALL
USER_CHARGES


@<TRIPOS>ATOM
  1 S        0.0380     0.2030    -1.0810 S.o   1 <1>   0.3680 
  2 O       -0.9920    -0.6480    -0.3890 O.2   1 <1>  -0.5000 
  3 N        1.6010    -0.4070    -0.6650 N.am  1 <1>  -0.6020 
  4 C        0.0060     1.8880    -0.3560 C.3   1 <1>   0.1930 
  5 C        2.2930    -0.9980    -1.8140 C.3   1 <1>   0.1100 
  6 C        1.5750    -1.3830     0.4370 C.3   1 <1>   0.1100 
  7 C        0.2570     1.8640     1.1710 C.3   1 <1>  -0.1600 
  8 C       -1.3740     2.5390    -0.6060 C.3   1 <1>  -0.1600 
  9 C        1.0850     2.7830    -1.0080 C.3   1 <1>  -0.1600 
 10 C        3.7000    -1.4770    -1.4190 C.3   1 <1>   0.1200 
 11 C        2.9960    -1.8560     0.7840 C.3   1 <1>   0.1200 
 12 C        0.2090     3.2850     1.7640 C.3   1 <1>  -0.0800 
 13 C       -1.4320     3.9650    -0.0270 C.3   1 <1>  -0.0800 
 14 C        1.0460     4.2110    -0.4290 C.3   1 <1>  -0.0800 
 15 O        3.6300    -2.3770    -0.3500 O.3   1 <1>  -0.5600 
 16 C       -1.1750     3.9020     1.4900 C.3   1 <1>  -0.1600 
 17 C        1.2910     4.1480     1.0890 C.3   1 <1>  -0.1600 
 18 C       -0.3420     4.8250    -0.6920 C.3   1 <1>  -0.1600 
 19 H        2.3750    -0.2620    -2.5940 H     1 <1>   0.0800 
 20 H        1.7250    -1.8300    -2.1930 H     1 <1>   0.0800 
 21 H        0.9770    -2.2330     0.1560 H     1 <1>   0.0800 
 22 H        1.1230    -0.9350     1.3030 H     1 <1>   0.0800 
 23 H        1.2200     1.4320     1.3710 H     1 <1>   0.0800 
 24 H       -0.4850     1.2450     1.6440 H     1 <1>   0.0800 
 25 H       -2.1400     1.9330    -0.1520 H     1 <1>   0.0800 
 26 H       -1.5720     2.5700    -1.6620 H     1 <1>   0.0800 
 27 H        2.0570     2.3550    -0.8370 H     1 <1>   0.0800 
 28 H        0.9290     2.8200    -2.0710 H     1 <1>   0.0800 
 29 H        4.3160    -0.6440    -1.1280 H     1 <1>   0.0800 
 30 H        4.1680    -1.9850    -2.2440 H     1 <1>   0.0800 
 31 H        2.9580    -2.6340     1.5260 H     1 <1>   0.0800 
 32 H        3.5840    -1.0400     1.1650 H     1 <1>   0.0800 
 33 H        0.3840     3.2430     2.8250 H     1 <1>   0.0800 
 34 H       -2.4020     4.3960    -0.2140 H     1 <1>   0.0800 
 35 H        1.8050     4.8160    -0.8960 H     1 <1>   0.0800 
 36 H       -1.9380     3.3100     1.9640 H     1 <1>   0.0800 
 37 H       -1.2230     4.8920     1.9090 H     1 <1>   0.0800 
 38 H        2.2640     3.7310     1.2850 H     1 <1>   0.0800 
 39 H        1.2740     5.1420     1.5030 H     1 <1>   0.0800 
 40 H       -0.3780     5.8260    -0.2990 H     1 <1>   0.0800 
 41 H       -0.5200     4.8850    -1.7520 H     1 <1>   0.0800 
@<TRIPOS>BOND
  1   1   2  2   
  2   1   3  am  
  3   1   4  1   
  4   3   5  1   
  5   3   6  1   
  6   4   7  1   
  7   4   8  1   
  8   4   9  1   
  9   5  10  1   
 10   5  19  1   
 11   5  20  1   
 12   6  11  1   
 13   6  21  1   
 14   6  22  1   
 15   7  12  1   
 16   7  23  1   
 17   7  24  1   
 18   8  13  1   
 19   8  25  1   
 20   8  26  1   
 21   9  14  1   
 22   9  27  1   
 23   9  28  1   
 24  10  15  1   
 25  10  29  1   
 26  10  30  1   
 27  11  15  1   
 28  11  31  1   
 29  11  32  1   
 30  12  16  1   
 31  12  17  1   
 32  12  33  1   
 33  13  16  1   
 34  13  18  1   
 35  13  34  1   
 36  14  17  1   
 37  14  18  1   
 38  14  35  1   
 39  16  36  1   
 40  16  37  1   
 41  17  38  1   
 42  17  39  1   
 43  18  40  1   
 44  18  41  1   
@<TRIPOS>SUBSTRUCTURE
  1 ****   4 GROUP 4 **** **** 0

# MOE 2024.06 (io_trps.svl 2023.06)
