@<TRIPOS>MOLECULE
NONAME
43 44 1 0 0 
SMALL
USER_CHARGES


@<TRIPOS>ATOM
  1 CL      -0.0820    -1.6550     2.2980 Cl    1 <1>  -0.1400 
  2 C       -0.3520    -1.9090     0.5920 C.2   1 <1>   0.0020 
  3 C        0.5770    -1.6620    -0.3500 C.2   1 <1>  -0.1780 
  4 C       -1.7520    -2.4390     0.3380 C.3   1 <1>   0.4810 
  5 C        1.9160    -1.1420    -0.2020 C.ar  1 <1>   0.0280 
  6 N       -2.7540    -1.4660     0.8660 N.4   1 <1>  -0.9590 
  7 C        2.9410    -1.6490    -0.9950 C.ar  1 <1>  -0.1500 
  8 C        2.2350    -0.1250     0.6960 C.ar  1 <1>  -0.1500 
  9 C       -4.1490    -2.0380     0.8530 C.3   1 <1>   0.3430 
 10 C       -2.6760    -0.1410     0.1440 C.3   1 <1>   0.3430 
 11 C        4.2340    -1.1700    -0.8930 C.ar  1 <1>  -0.1500 
 12 C        3.5270     0.3570     0.8050 C.ar  1 <1>  -0.1500 
 13 C       -5.1960    -1.0360     1.3780 C.3   1 <1>   0.1400 
 14 C       -3.7090     0.8670     0.6750 C.3   1 <1>   0.1400 
 15 C        4.5300    -0.1650     0.0100 C.ar  1 <1>  -0.1500 
 16 N       -5.0730     0.2630     0.6550 N.am  1 <1>  -0.6600 
 17 C       -6.0780     0.7970    -0.1090 C.2   1 <1>   0.7800 
 18 O       -5.9060     1.7740    -0.8090 O.2   1 <1>  -0.5700 
 19 O       -7.2620     0.1870    -0.0880 O.3   1 <1>  -0.4300 
 20 C       -8.3460     0.6890    -0.8370 C.3   1 <1>   0.1200 
 21 C       -9.5460    -0.2230    -0.6030 C.3   1 <1>  -0.2400 
 22 H        0.3450    -1.8730    -1.3800 H     1 <1>   0.1500 
 23 H       -1.8590    -3.3870     0.8390 H     1 <1>   0.0800 
 24 H       -1.9000    -2.5910    -0.7190 H     1 <1>   0.0800 
 25 H       -2.4890    -1.2890     1.8470 H     1 <1>   0.4500 
 26 H        2.7310    -2.4320    -1.7010 H     1 <1>   0.1500 
 27 H        1.4730     0.3060     1.3170 H     1 <1>   0.1500 
 28 H       -4.4190    -2.3080    -0.1550 H     1 <1>   0.0800 
 29 H       -4.1860    -2.9320     1.4550 H     1 <1>   0.0800 
 30 H       -1.6890     0.2820     0.2520 H     1 <1>   0.0800 
 31 H       -2.8580    -0.2870    -0.9080 H     1 <1>   0.0800 
 32 H        5.0130    -1.5780    -1.5140 H     1 <1>   0.1500 
 33 H        3.7550     1.1410     1.5070 H     1 <1>   0.1500 
 34 H       -5.0500    -0.8710     2.4320 H     1 <1>   0.0800 
 35 H       -6.1790    -1.4560     1.2510 H     1 <1>   0.0800 
 36 H       -3.6770     1.7580     0.0690 H     1 <1>   0.0800 
 37 H       -3.4610     1.1540     1.6820 H     1 <1>   0.0800 
 38 H        5.5360     0.2080     0.0930 H     1 <1>   0.1500 
 39 H       -8.5540     1.6930    -0.5070 H     1 <1>   0.0800 
 40 H       -8.0680     0.7020    -1.8780 H     1 <1>   0.0800 
 41 H       -9.8080    -0.2320     0.4400 H     1 <1>   0.0800 
 42 H       -9.3240    -1.2230    -0.9300 H     1 <1>   0.0800 
 43 H      -10.3890     0.1390    -1.1630 H     1 <1>   0.0800 
@<TRIPOS>BOND
  1   1   2  1   
  2   2   3  2   
  3   2   4  1   
  4   3   5  1   
  5   3  22  1   
  6   4   6  1   
  7   4  23  1   
  8   4  24  1   
  9   5   7  ar  
 10   5   8  ar  
 11   6   9  1   
 12   6  10  1   
 13   6  25  1   
 14   7  11  ar  
 15   7  26  1   
 16   8  12  ar  
 17   8  27  1   
 18   9  13  1   
 19   9  28  1   
 20   9  29  1   
 21  10  14  1   
 22  10  30  1   
 23  10  31  1   
 24  11  15  ar  
 25  11  32  1   
 26  12  15  ar  
 27  12  33  1   
 28  13  16  1   
 29  13  34  1   
 30  13  35  1   
 31  14  16  1   
 32  14  36  1   
 33  14  37  1   
 34  15  38  1   
 35  16  17  am  
 36  17  18  2   
 37  17  19  1   
 38  19  20  1   
 39  20  21  1   
 40  20  39  1   
 41  20  40  1   
 42  21  41  1   
 43  21  42  1   
 44  21  43  1   
@<TRIPOS>SUBSTRUCTURE
  1 ****  10 GROUP 4 **** **** 0

# MOE 2024.06 (io_trps.svl 2023.06)
