@<TRIPOS>MOLECULE
NONAME
38 39 1 0 0 
SMALL
USER_CHARGES


@<TRIPOS>ATOM
  1 CL      -0.1740    -0.4370    -0.6670 Cl    1 <1>  -0.1770 
  2 C        1.2410     0.5530    -0.3750 C.ar  1 <1>   0.1770 
  3 C        1.1090     1.9310    -0.2200 C.ar  1 <1>   0.0830 
  4 C        2.4730    -0.0600    -0.3040 C.ar  1 <1>  -0.1500 
  5 O       -0.0880     2.5430    -0.2930 O.3   1 <1>  -0.3630 
  6 C        2.2410     2.6930    -0.0060 C.ar  1 <1>  -0.1500 
  7 C        3.6340     0.6910    -0.0780 C.ar  1 <1>   0.0280 
  8 C       -0.9000     2.4970     0.8670 C.3   1 <1>   0.1810 
  9 C        3.4830     2.0830     0.0690 C.ar  1 <1>   0.0830 
 10 C        4.9590     0.1350     0.0130 C.2   1 <1>  -0.1670 
 11 C       -2.2340     3.1780     0.6110 C.2   1 <1>   0.4480 
 12 O        4.5560     2.8730     0.2900 O.3   1 <1>  -0.2330 
 13 C        5.9880     0.9880     0.2380 C.2   1 <1>  -0.1360 
 14 C        5.1340    -1.3790    -0.1500 C.3   1 <1>  -0.0220 
 15 O       -2.6570     4.0180     1.3470 O.2   1 <1>  -0.5700 
 16 C       -3.0240     2.7350    -0.6030 C.3   1 <1>  -0.1790 
 17 C        5.7960     2.3940     0.3840 C.2   1 <1>   0.7060 
 18 C        6.5800    -1.8850    -0.0400 C.3   1 <1>  -0.1600 
 19 O        6.7030     3.1720     0.5920 O.2   1 <1>  -0.5700 
 20 C        6.6540    -3.4070    -0.2160 C.3   1 <1>  -0.1600 
 21 C        8.0990    -3.9030    -0.1050 C.3   1 <1>  -0.2400 
 22 H        2.5180    -1.1250    -0.4300 H     1 <1>   0.1500 
 23 H        2.1580     3.7600     0.1020 H     1 <1>   0.1500 
 24 H       -0.3820     3.0020     1.6620 H     1 <1>   0.0800 
 25 H       -1.0620     1.4710     1.1380 H     1 <1>   0.0800 
 26 H        7.0110     0.6790     0.3230 H     1 <1>   0.1500 
 27 H        4.7490    -1.6660    -1.1140 H     1 <1>   0.0800 
 28 H        4.5450    -1.8750     0.6030 H     1 <1>   0.0800 
 29 H       -3.1770     1.6730    -0.5750 H     1 <1>   0.0800 
 30 H       -2.4900     2.9920    -1.4990 H     1 <1>   0.0800 
 31 H       -3.9790     3.2280    -0.6150 H     1 <1>   0.0800 
 32 H        6.9780    -1.6240     0.9260 H     1 <1>   0.0800 
 33 H        7.1830    -1.4150    -0.7980 H     1 <1>   0.0800 
 34 H        6.2610    -3.6820    -1.1800 H     1 <1>   0.0800 
 35 H        6.0570    -3.8910     0.5390 H     1 <1>   0.0800 
 36 H        8.7120    -3.4520    -0.8650 H     1 <1>   0.0800 
 37 H        8.1320    -4.9710    -0.2300 H     1 <1>   0.0800 
 38 H        8.5080    -3.6610     0.8610 H     1 <1>   0.0800 
@<TRIPOS>BOND
  1   1   2  1   
  2   2   3  ar  
  3   2   4  ar  
  4   3   5  1   
  5   3   6  ar  
  6   4   7  ar  
  7   4  22  1   
  8   5   8  1   
  9   6   9  ar  
 10   6  23  1   
 11   7   9  ar  
 12   7  10  1   
 13   8  11  1   
 14   8  24  1   
 15   8  25  1   
 16   9  12  1   
 17  10  13  2   
 18  10  14  1   
 19  11  15  2   
 20  11  16  1   
 21  12  17  1   
 22  13  17  1   
 23  13  26  1   
 24  14  18  1   
 25  14  27  1   
 26  14  28  1   
 27  16  29  1   
 28  16  30  1   
 29  16  31  1   
 30  17  19  2   
 31  18  20  1   
 32  18  32  1   
 33  18  33  1   
 34  20  21  1   
 35  20  34  1   
 36  20  35  1   
 37  21  36  1   
 38  21  37  1   
 39  21  38  1   
@<TRIPOS>SUBSTRUCTURE
  1 ****   7 GROUP 4 **** **** 0

# MOE 2024.06 (io_trps.svl 2023.06)
