@<TRIPOS>MOLECULE
NONAME
26 26 1 0 0 
SMALL
USER_CHARGES


@<TRIPOS>ATOM
  1 O       -0.4440     1.0550     2.0420 O.2   1 <1>  -0.5700 
  2 C       -1.1360     1.4210     1.1120 C.2   1 <1>   0.6160 
  3 N       -2.3900     0.9350     0.9540 N.am  1 <1>  -0.7300 
  4 C       -0.8000     2.3580     0.0880 C.2   1 <1>   0.0290 
  5 C       -3.0420     1.5370    -0.2280 C.3   1 <1>   0.2010 
  6 C       -1.9420     2.4510    -0.7500 C.2   1 <1>   0.4950 
  7 C        0.3800     3.0400    -0.0650 C.2   1 <1>  -0.0500 
  8 O       -2.0890     3.1310    -1.7410 O.2   1 <1>  -0.5700 
  9 N        1.4510     2.9360     0.7630 N.pl3 1 <1>  -0.8690 
 10 C        2.7310     3.6990     0.6450 C.3   1 <1>   0.2090 
 11 C        3.9070     2.7550     0.3420 C.3   1 <1>   0.2000 
 12 O        3.5120     1.8800    -0.6640 O.3   1 <1>  -0.6800 
 13 C        5.1740     3.5070    -0.0950 C.3   1 <1>   0.1200 
 14 O        6.1170     2.5940    -0.5350 O.3   1 <1>  -0.6800 
 15 H       -2.8280     0.2850     1.6120 H     1 <1>   0.3700 
 16 H       -3.2940     0.7860    -0.9560 H     1 <1>   0.0800 
 17 H       -3.9090     2.1060     0.0550 H     1 <1>   0.0800 
 18 H        0.4710     3.7160    -0.9040 H     1 <1>   0.1500 
 19 H        1.3840     2.3130     1.5920 H     1 <1>   0.4000 
 20 H        2.6430     4.4240    -0.1460 H     1 <1>   0.0800 
 21 H        2.9190     4.2310     1.5620 H     1 <1>   0.0800 
 22 H        4.1220     2.1690     1.2190 H     1 <1>   0.0800 
 23 H        2.5460     1.7330    -0.5320 H     1 <1>   0.4000 
 24 H        5.5990     4.0660     0.7200 H     1 <1>   0.0800 
 25 H        4.9530     4.1750    -0.9090 H     1 <1>   0.0800 
 26 H        5.6330     1.8990    -1.0350 H     1 <1>   0.4000 
@<TRIPOS>BOND
  1   1   2  2   
  2   2   3  am  
  3   2   4  1   
  4   3   5  1   
  5   3  15  1   
  6   4   6  1   
  7   4   7  2   
  8   5   6  1   
  9   5  16  1   
 10   5  17  1   
 11   6   8  2   
 12   7   9  1   
 13   7  18  1   
 14   9  10  1   
 15   9  19  1   
 16  10  11  1   
 17  10  20  1   
 18  10  21  1   
 19  11  12  1   
 20  11  13  1   
 21  11  22  1   
 22  12  23  1   
 23  13  14  1   
 24  13  24  1   
 25  13  25  1   
 26  14  26  1   
@<TRIPOS>SUBSTRUCTURE
  1 ****   7 GROUP 4 **** **** 0

# MOE 2024.06 (io_trps.svl 2023.06)
