@<TRIPOS>MOLECULE
NONAME
35 36 1 0 0 
SMALL
USER_CHARGES


@<TRIPOS>ATOM
  1 CL       1.5540     0.6480     0.2640 Cl    1 <1>  -0.1770 
  2 C        1.0150    -1.0090     0.1030 C.ar  1 <1>   0.1770 
  3 C        1.8650    -1.9620    -0.4420 C.ar  1 <1>   0.0830 
  4 C       -0.2560    -1.3450     0.5370 C.ar  1 <1>  -0.1500 
  5 O        3.0970    -1.6150    -0.8860 O.3   1 <1>  -0.3630 
  6 C        1.4100    -3.2720    -0.5410 C.ar  1 <1>   0.1770 
  7 C       -0.6940    -2.6570     0.4290 C.ar  1 <1>  -0.1500 
  8 C        4.1630    -1.8100     0.0080 C.3   1 <1>   0.1200 
  9 CL       2.4510    -4.5110    -1.2070 Cl    1 <1>  -0.1770 
 10 C        0.1420    -3.6240    -0.1110 C.ar  1 <1>  -0.1500 
 11 C        5.4510    -1.4460    -0.7360 C.3   1 <1>   0.3430 
 12 N        6.6840    -1.6660     0.0890 N.4   1 <1>  -0.9590 
 13 C        7.8570    -1.0160    -0.5660 C.3   1 <1>   0.3430 
 14 C        6.9420    -3.1180     0.3400 C.3   1 <1>   0.3430 
 15 C        9.0820    -1.1240     0.3440 C.3   1 <1>  -0.1600 
 16 C        8.1470    -3.2740     1.2700 C.3   1 <1>  -0.1600 
 17 C        9.3940    -2.5810     0.7060 C.3   1 <1>  -0.1600 
 18 H       -0.8950    -0.5870     0.9550 H     1 <1>   0.1500 
 19 H       -1.6820    -2.9250     0.7640 H     1 <1>   0.1500 
 20 H        4.1600    -2.8420     0.3110 H     1 <1>   0.0800 
 21 H        4.0090    -1.1660     0.8570 H     1 <1>   0.0800 
 22 H       -0.1880    -4.6440    -0.2000 H     1 <1>   0.1500 
 23 H        5.3890    -0.4070    -1.0180 H     1 <1>   0.0800 
 24 H        5.5110    -2.0370    -1.6360 H     1 <1>   0.0800 
 25 H        6.5630    -1.2070     1.0020 H     1 <1>   0.4500 
 26 H        7.6460     0.0240    -0.7600 H     1 <1>   0.0800 
 27 H        8.0650    -1.5010    -1.5070 H     1 <1>   0.0800 
 28 H        7.1420    -3.6200    -0.5930 H     1 <1>   0.0800 
 29 H        6.0820    -3.5810     0.7950 H     1 <1>   0.0800 
 30 H        8.9150    -0.5490     1.2390 H     1 <1>   0.0800 
 31 H        9.9320    -0.6940    -0.1580 H     1 <1>   0.0800 
 32 H        8.3540    -4.3220     1.4050 H     1 <1>   0.0800 
 33 H        7.9070    -2.8690     2.2380 H     1 <1>   0.0800 
 34 H       10.1920    -2.6170     1.4300 H     1 <1>   0.0800 
 35 H        9.7290    -3.1060    -0.1740 H     1 <1>   0.0800 
@<TRIPOS>BOND
  1   1   2  1   
  2   2   3  ar  
  3   2   4  ar  
  4   3   5  1   
  5   3   6  ar  
  6   4   7  ar  
  7   4  18  1   
  8   5   8  1   
  9   6   9  1   
 10   6  10  ar  
 11   7  10  ar  
 12   7  19  1   
 13   8  11  1   
 14   8  20  1   
 15   8  21  1   
 16  10  22  1   
 17  11  12  1   
 18  11  23  1   
 19  11  24  1   
 20  12  13  1   
 21  12  14  1   
 22  12  25  1   
 23  13  15  1   
 24  13  26  1   
 25  13  27  1   
 26  14  16  1   
 27  14  28  1   
 28  14  29  1   
 29  15  17  1   
 30  15  30  1   
 31  15  31  1   
 32  16  17  1   
 33  16  32  1   
 34  16  33  1   
 35  17  34  1   
 36  17  35  1   
@<TRIPOS>SUBSTRUCTURE
  1 ****   8 GROUP 4 **** **** 0

# MOE 2024.06 (io_trps.svl 2023.06)
