@<TRIPOS>MOLECULE
NONAME
37 37 1 0 0 
SMALL
USER_CHARGES


@<TRIPOS>ATOM
  1 P        0.4580    -0.1770     0.5720 P.3   1 <1>   0.9000 
  2 O       -0.9770     0.0630     0.9320 O.co2 1 <1>  -0.9500 
  3 O        1.4140    -0.6030     1.6440 O.co2 1 <1>  -0.9500 
  4 C        1.0990     1.2980    -0.3050 C.3   1 <1>   0.1100 
  5 C        0.5250    -1.4050    -0.7750 C.3   1 <1>   0.1400 
  6 N        1.3340     2.5950     0.4120 N.3   1 <1>  -0.8100 
  7 N       -0.0890    -2.7850    -0.6200 N.am  1 <1>  -0.6600 
  8 C        1.5850     3.7310    -0.4980 C.3   1 <1>   0.1100 
  9 C        0.2400     2.8570     1.3730 C.3   1 <1>   0.1100 
 10 C       -0.5020    -3.4700    -1.7290 C.2   1 <1>   0.5690 
 11 C       -0.1910    -3.2980     0.7770 C.3   1 <1>   0.1400 
 12 C        0.4080     4.7250    -0.5460 C.3   1 <1>   0.1200 
 13 C        0.2070     4.3340     1.8080 C.3   1 <1>   0.1200 
 14 O       -0.3280    -3.0550    -2.8520 O.2   1 <1>  -0.5700 
 15 C       -1.1910    -4.8080    -1.5930 C.3   1 <1>  -0.1790 
 16 C        1.1410    -3.9200     1.1860 C.3   1 <1>  -0.2400 
 17 O        0.1040     5.2350     0.7260 O.3   1 <1>  -0.5600 
 18 H        0.4210     1.5140    -1.1090 H     1 <1>   0.0800 
 19 H        2.0360     1.0450    -0.7620 H     1 <1>   0.0800 
 20 H        1.5510    -1.5680    -1.0440 H     1 <1>   0.0800 
 21 H        0.0610    -0.9680    -1.6380 H     1 <1>   0.0800 
 22 H        1.8020     3.3740    -1.4890 H     1 <1>   0.0800 
 23 H        2.4550     4.2580    -0.1480 H     1 <1>   0.0800 
 24 H        0.3720     2.2240     2.2350 H     1 <1>   0.0800 
 25 H       -0.7120     2.6070     0.9340 H     1 <1>   0.0800 
 26 H       -0.9700    -4.0330     0.8520 H     1 <1>   0.0800 
 27 H       -0.4530    -2.5040     1.4570 H     1 <1>   0.0800 
 28 H       -0.4700     4.2350    -0.9290 H     1 <1>   0.0800 
 29 H        0.6450     5.5570    -1.1830 H     1 <1>   0.0800 
 30 H        1.1120     4.5630     2.3410 H     1 <1>   0.0800 
 31 H       -0.6290     4.5060     2.4610 H     1 <1>   0.0800 
 32 H       -2.1200    -4.6810    -1.0700 H     1 <1>   0.0800 
 33 H       -0.5590    -5.4910    -1.0580 H     1 <1>   0.0800 
 34 H       -1.3940    -5.2120    -2.5670 H     1 <1>   0.0800 
 35 H        1.4100    -4.7160     0.5180 H     1 <1>   0.0800 
 36 H        1.0630    -4.3080     2.1850 H     1 <1>   0.0800 
 37 H        1.9100    -3.1680     1.1820 H     1 <1>   0.0800 
@<TRIPOS>BOND
  1   1   2  ar  
  2   1   3  ar  
  3   1   4  1   
  4   1   5  1   
  5   4   6  1   
  6   4  18  1   
  7   4  19  1   
  8   5   7  1   
  9   5  20  1   
 10   5  21  1   
 11   6   8  1   
 12   6   9  1   
 13   7  10  am  
 14   7  11  1   
 15   8  12  1   
 16   8  22  1   
 17   8  23  1   
 18   9  13  1   
 19   9  24  1   
 20   9  25  1   
 21  10  14  2   
 22  10  15  1   
 23  11  16  1   
 24  11  26  1   
 25  11  27  1   
 26  12  17  1   
 27  12  28  1   
 28  12  29  1   
 29  13  17  1   
 30  13  30  1   
 31  13  31  1   
 32  15  32  1   
 33  15  33  1   
 34  15  34  1   
 35  16  35  1   
 36  16  36  1   
 37  16  37  1   
@<TRIPOS>SUBSTRUCTURE
  1 ****   1 GROUP 4 **** **** 0

# MOE 2024.06 (io_trps.svl 2023.06)
