@<TRIPOS>MOLECULE
NONAME
36 36 1 0 0 
SMALL
USER_CHARGES


@<TRIPOS>ATOM
  1 O       -0.1170     0.8060    -1.8750 O.2   1 <1>  -0.5700 
  2 C        0.4400     1.7010    -1.2720 C.2   1 <1>   0.5440 
  3 N        1.5870     1.3580    -0.6260 N.am  1 <1>  -0.7300 
  4 C       -0.1110     3.0380    -1.2370 C.ar  1 <1>   0.0860 
  5 C        2.1970     2.0420     0.5200 C.3   1 <1>   0.2200 
  6 C       -1.4430     3.2660    -0.8530 C.ar  1 <1>   0.1170 
  7 C        0.6830     4.1330    -1.5820 C.ar  1 <1>  -0.1500 
  8 C        3.6720     2.2680     0.2100 C.3   1 <1>  -0.2400 
  9 C        2.0170     1.1580     1.7480 C.3   1 <1>  -0.2400 
 10 N       -2.2650     2.1770    -0.5230 N.am  1 <1>  -0.5470 
 11 C       -1.9230     4.5730    -0.8180 C.ar  1 <1>  -0.1500 
 12 C        0.1930     5.4230    -1.5400 C.ar  1 <1>  -0.1500 
 13 C       -3.4050     2.0620     0.2250 C.2   1 <1>   0.5690 
 14 C       -1.1170     5.6430    -1.1540 C.ar  1 <1>  -0.1500 
 15 O       -3.9340     2.9890     0.7900 O.2   1 <1>  -0.5700 
 16 C       -4.0340     0.6770     0.3580 C.3   1 <1>   0.1810 
 17 O       -3.1890    -0.3270    -0.1480 O.3   1 <1>  -0.5600 
 18 C       -3.7190    -1.6100    -0.0720 C.3   1 <1>   0.0400 
 19 H        1.8650     0.3840    -0.7450 H     1 <1>   0.3700 
 20 H        1.7130     2.9900     0.6910 H     1 <1>   0.0800 
 21 H        1.7000     3.9610    -1.8880 H     1 <1>   0.1500 
 22 H        4.1740     1.3320     0.0440 H     1 <1>   0.0800 
 23 H        3.7750     2.8840    -0.6650 H     1 <1>   0.0800 
 24 H        4.1460     2.7710     1.0330 H     1 <1>   0.0800 
 25 H        2.4970     0.2060     1.6080 H     1 <1>   0.0800 
 26 H        2.4470     1.6350     2.6090 H     1 <1>   0.0800 
 27 H        0.9690     1.0030     1.9380 H     1 <1>   0.0800 
 28 H       -1.9300     1.2630    -0.8690 H     1 <1>   0.3700 
 29 H       -2.9410     4.7620    -0.5300 H     1 <1>   0.1500 
 30 H        0.8220     6.2550    -1.8070 H     1 <1>   0.1500 
 31 H       -1.5090     6.6450    -1.1180 H     1 <1>   0.1500 
 32 H       -4.9580     0.6590    -0.1900 H     1 <1>   0.0800 
 33 H       -4.2240     0.4760     1.3970 H     1 <1>   0.0800 
 34 H       -2.9970    -2.2940    -0.4830 H     1 <1>   0.0800 
 35 H       -4.6280    -1.6550    -0.6480 H     1 <1>   0.0800 
 36 H       -3.9080    -1.8580     0.9580 H     1 <1>   0.0800 
@<TRIPOS>BOND
  1   1   2  2   
  2   2   3  am  
  3   2   4  1   
  4   3   5  1   
  5   3  19  1   
  6   4   6  ar  
  7   4   7  ar  
  8   5   8  1   
  9   5   9  1   
 10   5  20  1   
 11   6  10  1   
 12   6  11  ar  
 13   7  12  ar  
 14   7  21  1   
 15   8  22  1   
 16   8  23  1   
 17   8  24  1   
 18   9  25  1   
 19   9  26  1   
 20   9  27  1   
 21  10  13  am  
 22  10  28  1   
 23  11  14  ar  
 24  11  29  1   
 25  12  14  ar  
 26  12  30  1   
 27  13  15  2   
 28  13  16  1   
 29  14  31  1   
 30  16  17  1   
 31  16  32  1   
 32  16  33  1   
 33  17  18  1   
 34  18  34  1   
 35  18  35  1   
 36  18  36  1   
@<TRIPOS>SUBSTRUCTURE
  1 ****   6 GROUP 4 **** **** 0

# MOE 2024.06 (io_trps.svl 2023.06)
