@<TRIPOS>MOLECULE
Structure1681
37 37 1 0 0 
SMALL
USER_CHARGES


@<TRIPOS>ATOM
  1 BR       0.5330     1.0540     3.6350 Br    1 <1>  -0.1110 
  2 C        1.0830     1.6770     1.8990 C.ar  1 <1>   0.1110 
  3 C        2.4040     2.0360     1.7090 C.ar  1 <1>  -0.1500 
  4 C        0.1420     1.7460     0.8900 C.ar  1 <1>  -0.1500 
  5 C        2.8060     2.4840     0.4590 C.ar  1 <1>  -0.1440 
  6 C        0.5450     2.1960    -0.3550 C.ar  1 <1>  -0.1500 
  7 C        1.8660     2.5610    -0.5650 C.ar  1 <1>  -0.1500 
  8 C        4.2650     2.8790     0.2260 C.3   1 <1>   0.3640 
  9 N        4.3380     4.2010    -0.4040 N.am  1 <1>  -0.7300 
 10 C        4.9460     1.8640    -0.6770 C.3   1 <1>  -0.2660 
 11 C        4.1250     5.3600     0.2440 C.2   1 <1>   0.7800 
 12 C        6.3740     2.2570    -0.8740 C.2   1 <1>   0.9060 
 13 O        3.6270     5.4170     1.3510 O.2   1 <1>  -0.5700 
 14 O        4.5100     6.4560    -0.4070 O.3   1 <1>  -0.4300 
 15 O        6.6140     3.1670    -1.6740 O.co2 1 <1>  -0.9000 
 16 O        7.2400     1.6880    -0.2110 O.co2 1 <1>  -0.9000 
 17 C        4.4510     7.7880     0.0520 C.3   1 <1>   0.2800 
 18 C        5.3210     7.9550     1.3040 C.3   1 <1>  -0.2400 
 19 C        2.9950     8.2040     0.2890 C.3   1 <1>  -0.2400 
 20 C        5.0380     8.6260    -1.0840 C.3   1 <1>  -0.2400 
 21 H        3.1020     1.9710     2.5240 H     1 <1>   0.1500 
 22 H       -0.8760     1.4580     1.0770 H     1 <1>   0.1500 
 23 H       -0.1640     2.2660    -1.1610 H     1 <1>   0.1500 
 24 H        2.1730     2.9160    -1.5340 H     1 <1>   0.1500 
 25 H        4.7900     2.9190     1.1670 H     1 <1>   0.0800 
 26 H        5.0820     4.2210    -1.1230 H     1 <1>   0.3700 
 27 H        4.4620     1.8110    -1.6310 H     1 <1>   0.0800 
 28 H        4.9180     0.8940    -0.2200 H     1 <1>   0.0800 
 29 H        4.8960     7.4340     2.1420 H     1 <1>   0.0800 
 30 H        5.3920     8.9930     1.5670 H     1 <1>   0.0800 
 31 H        6.3110     7.5770     1.1200 H     1 <1>   0.0800 
 32 H        2.9440     9.2560     0.5020 H     1 <1>   0.0800 
 33 H        2.4040     8.0020    -0.5860 H     1 <1>   0.0800 
 34 H        2.5740     7.6800     1.1270 H     1 <1>   0.0800 
 35 H        6.0510     8.3220    -1.2820 H     1 <1>   0.0800 
 36 H        5.0390     9.6680    -0.8220 H     1 <1>   0.0800 
 37 H        4.4550     8.4980    -1.9780 H     1 <1>   0.0800 
@<TRIPOS>BOND
  1   1   2  1   
  2   2   3  ar  
  3   2   4  ar  
  4   3   5  ar  
  5   3  21  1   
  6   4   6  ar  
  7   4  22  1   
  8   5   7  ar  
  9   5   8  1   
 10   6   7  ar  
 11   6  23  1   
 12   7  24  1   
 13   8   9  1   
 14   8  10  1   
 15   8  25  1   
 16   9  11  am  
 17   9  26  1   
 18  10  12  1   
 19  10  27  1   
 20  10  28  1   
 21  11  13  2   
 22  11  14  1   
 23  12  15  ar  
 24  12  16  ar  
 25  14  17  1   
 26  17  18  1   
 27  17  19  1   
 28  17  20  1   
 29  18  29  1   
 30  18  30  1   
 31  18  31  1   
 32  19  32  1   
 33  19  33  1   
 34  19  34  1   
 35  20  35  1   
 36  20  36  1   
 37  20  37  1   
@<TRIPOS>SUBSTRUCTURE
  1 ****   9 GROUP 4 **** **** 0

# MOE 2024.06 (io_trps.svl 2023.06)
