@<TRIPOS>MOLECULE
NONAME
44 46 1 0 0 
SMALL
USER_CHARGES


@<TRIPOS>ATOM
  1 CL      -0.2200    -3.3000     2.9820 Cl    1 <1>  -0.1770 
  2 C       -1.3110    -2.4990     1.8640 C.ar  1 <1>   0.1770 
  3 C       -1.0220    -2.4530     0.4940 C.ar  1 <1>   0.1000 
  4 C       -2.4520    -1.9220     2.3870 C.ar  1 <1>  -0.1500 
  5 N        0.1150    -3.0160    -0.0990 N.pl3 1 <1>  -0.8380 
  6 C       -1.9320    -1.8010    -0.3300 C.ar  1 <1>  -0.1500 
  7 C       -3.3420    -1.2790     1.5440 C.ar  1 <1>  -0.1500 
  8 C        0.1720    -4.5090    -0.1190 C.3   1 <1>   0.2090 
  9 C        1.4140    -2.3420     0.2080 C.3   1 <1>   0.2090 
 10 C       -3.0780    -1.2200     0.1850 C.ar  1 <1>  -0.1500 
 11 C        1.3170    -5.0100    -1.0250 C.3   1 <1>   0.3430 
 12 C        2.5420    -2.8710    -0.7000 C.3   1 <1>   0.3430 
 13 N        2.6420    -4.3800    -0.6780 N.4   1 <1>  -0.9590 
 14 C        3.7410    -4.8750    -1.5490 C.3   1 <1>   0.4860 
 15 C        5.0510    -4.3080    -1.0360 C.ar  1 <1>  -0.1430 
 16 C        5.6220    -4.7990     0.1310 C.ar  1 <1>  -0.1500 
 17 C        5.6790    -3.2820    -1.7300 C.ar  1 <1>  -0.1500 
 18 C        6.8070    -4.2520     0.6130 C.ar  1 <1>   0.0830 
 19 C        6.8580    -2.7390    -1.2510 C.ar  1 <1>  -0.1500 
 20 O        7.4240    -4.6670     1.7450 O.3   1 <1>  -0.3630 
 21 C        7.4150    -3.2200    -0.0820 C.ar  1 <1>  -0.1500 
 22 C        7.0240    -5.8320     2.4330 C.3   1 <1>   0.0400 
 23 H       -2.6440    -1.9760     3.4440 H     1 <1>   0.1500 
 24 H       -1.7350    -1.7500    -1.3850 H     1 <1>   0.1500 
 25 H       -4.2340    -0.8260     1.9410 H     1 <1>   0.1500 
 26 H       -0.7660    -4.8920    -0.4860 H     1 <1>   0.0800 
 27 H        0.3120    -4.8860     0.8780 H     1 <1>   0.0800 
 28 H        1.6790    -2.5030     1.2390 H     1 <1>   0.0800 
 29 H        1.3050    -1.2810     0.0590 H     1 <1>   0.0800 
 30 H       -3.7690    -0.7200    -0.4720 H     1 <1>   0.1500 
 31 H        1.0610    -4.7730    -2.0440 H     1 <1>   0.0800 
 32 H        1.3840    -6.0820    -0.9400 H     1 <1>   0.0800 
 33 H        3.4760    -2.4350    -0.3820 H     1 <1>   0.0800 
 34 H        2.3480    -2.5360    -1.7050 H     1 <1>   0.0800 
 35 H        2.8810    -4.6370     0.2880 H     1 <1>   0.4500 
 36 H        3.5800    -4.5640    -2.5680 H     1 <1>   0.0800 
 37 H        3.7840    -5.9510    -1.5210 H     1 <1>   0.0800 
 38 H        5.1490    -5.6020     0.6640 H     1 <1>   0.1500 
 39 H        5.2660    -2.8940    -2.6460 H     1 <1>   0.1500 
 40 H        7.3470    -1.9420    -1.7870 H     1 <1>   0.1500 
 41 H        8.3310    -2.8030     0.2980 H     1 <1>   0.1500 
 42 H        7.7140    -5.9920     3.2420 H     1 <1>   0.0800 
 43 H        7.0580    -6.6670     1.7560 H     1 <1>   0.0800 
 44 H        6.0340    -5.6870     2.8250 H     1 <1>   0.0800 
@<TRIPOS>BOND
  1   1   2  1   
  2   2   3  ar  
  3   2   4  ar  
  4   3   5  1   
  5   3   6  ar  
  6   4   7  ar  
  7   4  23  1   
  8   5   8  1   
  9   5   9  1   
 10   6  10  ar  
 11   6  24  1   
 12   7  10  ar  
 13   7  25  1   
 14   8  11  1   
 15   8  26  1   
 16   8  27  1   
 17   9  12  1   
 18   9  28  1   
 19   9  29  1   
 20  10  30  1   
 21  11  13  1   
 22  11  31  1   
 23  11  32  1   
 24  12  13  1   
 25  12  33  1   
 26  12  34  1   
 27  13  14  1   
 28  13  35  1   
 29  14  15  1   
 30  14  36  1   
 31  14  37  1   
 32  15  16  ar  
 33  15  17  ar  
 34  16  18  ar  
 35  16  38  1   
 36  17  19  ar  
 37  17  39  1   
 38  18  20  1   
 39  18  21  ar  
 40  19  21  ar  
 41  19  40  1   
 42  20  22  1   
 43  21  41  1   
 44  22  42  1   
 45  22  43  1   
 46  22  44  1   
@<TRIPOS>SUBSTRUCTURE
  1 ****  12 GROUP 4 **** **** 0

# MOE 2024.06 (io_trps.svl 2023.06)
