@<TRIPOS>MOLECULE
NONAME
47 49 1 0 0 
SMALL
USER_CHARGES


@<TRIPOS>ATOM
  1 BR      -0.2950     0.2390     1.0030 Br    1 <1>  -0.1110 
  2 C       -1.9170    -0.7110     0.5980 C.ar  1 <1>   0.1110 
  3 C       -2.4870    -1.5040     1.5750 C.ar  1 <1>  -0.1500 
  4 C       -2.4720    -0.5780    -0.6590 C.ar  1 <1>  -0.1500 
  5 C       -3.6570    -2.1830     1.2810 C.ar  1 <1>  -0.1500 
  6 C       -3.6420    -1.2610    -0.9450 C.ar  1 <1>  -0.1500 
  7 C       -4.2410    -2.0600     0.0240 C.ar  1 <1>  -0.1430 
  8 C       -5.5330    -2.7930    -0.2860 C.3   1 <1>   0.4870 
  9 N       -6.6480    -1.8100    -0.2900 N.4   1 <1>  -0.9590 
 10 C       -6.8360    -1.1630     1.0620 C.3   1 <1>   0.3430 
 11 C       -7.9390    -2.4200    -0.7720 C.3   1 <1>   0.3430 
 12 C       -7.9860    -0.1360     1.0670 C.3   1 <1>   0.2090 
 13 C       -9.0990    -1.4040    -0.7860 C.3   1 <1>   0.2090 
 14 N       -9.2480    -0.7400     0.5430 N.pl3 1 <1>  -0.8380 
 15 C      -10.3690     0.0970     0.6440 C.ar  1 <1>   0.1000 
 16 C      -10.5230     1.2930    -0.0820 C.ar  1 <1>   0.0830 
 17 C      -11.3770    -0.2910     1.5140 C.ar  1 <1>  -0.1500 
 18 O       -9.5190     1.6670    -0.9380 O.3   1 <1>  -0.3630 
 19 C      -11.6760     2.0550     0.0860 C.ar  1 <1>  -0.1500 
 20 C      -12.5190     0.4720     1.6750 C.ar  1 <1>  -0.1500 
 21 C       -9.5880     2.8730    -1.6640 C.3   1 <1>   0.1200 
 22 C      -12.6680     1.6460     0.9610 C.ar  1 <1>  -0.1500 
 23 C       -8.3120     2.9990    -2.4900 C.3   1 <1>  -0.2400 
 24 H       -2.0180    -1.5860     2.5410 H     1 <1>   0.1500 
 25 H       -1.9910     0.0440    -1.3940 H     1 <1>   0.1500 
 26 H       -4.0980    -2.8070     2.0410 H     1 <1>   0.1500 
 27 H       -4.0690    -1.1640    -1.9290 H     1 <1>   0.1500 
 28 H       -5.7120    -3.5560     0.4550 H     1 <1>   0.0800 
 29 H       -5.4500    -3.2660    -1.2510 H     1 <1>   0.0800 
 30 H       -6.3910    -1.0550    -0.9370 H     1 <1>   0.4500 
 31 H       -5.9280    -0.6660     1.3630 H     1 <1>   0.0800 
 32 H       -7.0600    -1.9170     1.7970 H     1 <1>   0.0800 
 33 H       -8.2200    -3.2330    -0.1230 H     1 <1>   0.0800 
 34 H       -7.8130    -2.8160    -1.7660 H     1 <1>   0.0800 
 35 H       -7.7080     0.7160     0.4720 H     1 <1>   0.0800 
 36 H       -8.1540     0.2080     2.0730 H     1 <1>   0.0800 
 37 H      -10.0170    -1.9110    -1.0270 H     1 <1>   0.0800 
 38 H       -8.9220    -0.6660    -1.5490 H     1 <1>   0.0800 
 39 H      -11.2610    -1.2030     2.0690 H     1 <1>   0.1500 
 40 H      -11.8310     2.9720    -0.4490 H     1 <1>   0.1500 
 41 H      -13.2890     0.1530     2.3560 H     1 <1>   0.1500 
 42 H       -9.6710     3.6890    -0.9660 H     1 <1>   0.0800 
 43 H      -10.4530     2.8380    -2.3040 H     1 <1>   0.0800 
 44 H      -13.5560     2.2410     1.0860 H     1 <1>   0.1500 
 45 H       -7.4530     3.0220    -1.8450 H     1 <1>   0.0800 
 46 H       -8.3380     3.9130    -3.0560 H     1 <1>   0.0800 
 47 H       -8.2310     2.1760    -3.1770 H     1 <1>   0.0800 
@<TRIPOS>BOND
  1   1   2  1   
  2   2   3  ar  
  3   2   4  ar  
  4   3   5  ar  
  5   3  24  1   
  6   4   6  ar  
  7   4  25  1   
  8   5   7  ar  
  9   5  26  1   
 10   6   7  ar  
 11   6  27  1   
 12   7   8  1   
 13   8   9  1   
 14   8  28  1   
 15   8  29  1   
 16   9  10  1   
 17   9  11  1   
 18   9  30  1   
 19  10  12  1   
 20  10  31  1   
 21  10  32  1   
 22  11  13  1   
 23  11  33  1   
 24  11  34  1   
 25  12  14  1   
 26  12  35  1   
 27  12  36  1   
 28  13  14  1   
 29  13  37  1   
 30  13  38  1   
 31  14  15  1   
 32  15  16  ar  
 33  15  17  ar  
 34  16  18  1   
 35  16  19  ar  
 36  17  20  ar  
 37  17  39  1   
 38  18  21  1   
 39  19  22  ar  
 40  19  40  1   
 41  20  22  ar  
 42  20  41  1   
 43  21  23  1   
 44  21  42  1   
 45  21  43  1   
 46  22  44  1   
 47  23  45  1   
 48  23  46  1   
 49  23  47  1   
@<TRIPOS>SUBSTRUCTURE
  1 ****  12 GROUP 4 **** **** 0

# MOE 2024.06 (io_trps.svl 2023.06)
