@<TRIPOS>MOLECULE
NONAME
32 33 1 0 0 
SMALL
USER_CHARGES


@<TRIPOS>ATOM
  1 F        2.2020     1.6420    -0.1990 F     1 <1>  -0.1900 
  2 C        1.3160     2.5910    -0.3130 C.ar  1 <1>   0.1900 
  3 C        1.0580     3.4070     0.7690 C.ar  1 <1>  -0.1500 
  4 C        0.6580     2.7540    -1.5150 C.ar  1 <1>  -0.1500 
  5 C        0.1100     4.4060     0.6410 C.ar  1 <1>  -0.1500 
  6 C       -0.2840     3.7610    -1.6210 C.ar  1 <1>  -0.1500 
  7 C       -0.5980     4.6170    -0.5540 C.ar  1 <1>   0.0860 
  8 C       -1.6260     5.6350    -0.7430 C.2   1 <1>   0.4230 
  9 O       -2.1750     5.7590    -1.8140 O.2   1 <1>  -0.5700 
 10 C       -2.1230     6.5270     0.4210 C.3   1 <1>  -0.0190 
 11 C       -1.3450     7.8590     0.5430 C.3   1 <1>  -0.1860 
 12 C       -3.6530     6.8070     0.3660 C.3   1 <1>  -0.1600 
 13 C        0.1260     7.6210     0.8510 C.2   1 <1>   0.9060 
 14 C       -1.6040     8.7840    -0.6700 C.3   1 <1>  -0.1600 
 15 C       -4.0290     8.2420    -0.0590 C.3   1 <1>  -0.1600 
 16 O        0.9600     7.5910    -0.0570 O.co2 1 <1>  -0.9000 
 17 O        0.4300     7.3970     2.0280 O.co2 1 <1>  -0.9000 
 18 C       -3.0760     8.7880    -1.1300 C.3   1 <1>  -0.1600 
 19 H        1.5950     3.2740     1.6900 H     1 <1>   0.1500 
 20 H        0.8830     2.1110    -2.3450 H     1 <1>   0.1500 
 21 H       -0.0540     5.0350     1.4950 H     1 <1>   0.1500 
 22 H       -0.7930     3.8960    -2.5600 H     1 <1>   0.1500 
 23 H       -1.9650     5.9830     1.3320 H     1 <1>   0.0800 
 24 H       -1.7210     8.3650     1.4120 H     1 <1>   0.0800 
 25 H       -4.1260     6.1080    -0.3020 H     1 <1>   0.0800 
 26 H       -4.0720     6.6320     1.3410 H     1 <1>   0.0800 
 27 H       -1.2990     9.7810    -0.4070 H     1 <1>   0.0800 
 28 H       -0.9880     8.4710    -1.4970 H     1 <1>   0.0800 
 29 H       -5.0400     8.2550    -0.4280 H     1 <1>   0.0800 
 30 H       -3.9880     8.8900     0.8000 H     1 <1>   0.0800 
 31 H       -3.3630     9.7870    -1.4060 H     1 <1>   0.0800 
 32 H       -3.1650     8.1720    -2.0090 H     1 <1>   0.0800 
@<TRIPOS>BOND
  1   1   2  1   
  2   2   3  ar  
  3   2   4  ar  
  4   3   5  ar  
  5   3  19  1   
  6   4   6  ar  
  7   4  20  1   
  8   5   7  ar  
  9   5  21  1   
 10   6   7  ar  
 11   6  22  1   
 12   7   8  1   
 13   8   9  2   
 14   8  10  1   
 15  10  11  1   
 16  10  12  1   
 17  10  23  1   
 18  11  13  1   
 19  11  14  1   
 20  11  24  1   
 21  12  15  1   
 22  12  25  1   
 23  12  26  1   
 24  13  16  ar  
 25  13  17  ar  
 26  14  18  1   
 27  14  27  1   
 28  14  28  1   
 29  15  18  1   
 30  15  29  1   
 31  15  30  1   
 32  18  31  1   
 33  18  32  1   
@<TRIPOS>SUBSTRUCTURE
  1 ****   8 GROUP 4 **** **** 0

# MOE 2024.06 (io_trps.svl 2023.06)
