@<TRIPOS>MOLECULE
NONAME
37 37 1 0 0 
SMALL
USER_CHARGES


@<TRIPOS>ATOM
  1 O       -3.4810     0.4610     0.0050 O.3   1 <1>  -0.5600 
  2 C       -4.6600     1.1560    -0.2120 C.3   1 <1>   0.1200 
  3 C       -2.3250     1.1560    -0.3510 C.3   1 <1>   0.0400 
  4 C       -5.8020     0.2390     0.2340 C.3   1 <1>   0.3430 
  5 N       -7.1340     0.8830     0.0480 N.4   1 <1>  -0.9060 
  6 C       -8.2560     0.0220     0.4710 C.3   1 <1>   0.4860 
  7 C       -9.5100     0.8250     0.2220 C.ar  1 <1>  -0.1430 
  8 C      -10.1610     0.7440    -0.9990 C.ar  1 <1>  -0.1500 
  9 C      -10.0110     1.6610     1.2080 C.ar  1 <1>  -0.1500 
 10 C      -11.2960     1.5010    -1.2320 C.ar  1 <1>  -0.1500 
 11 C      -11.1460     2.4150     0.9680 C.ar  1 <1>  -0.1500 
 12 C      -11.7980     2.3440    -0.2540 C.ar  1 <1>  -0.1430 
 13 C      -13.0530     3.1710    -0.5310 C.3   1 <1>   0.0630 
 14 C      -12.7500     4.6710    -0.4470 C.3   1 <1>  -0.2400 
 15 C      -14.1830     2.7900     0.4300 C.3   1 <1>  -0.2400 
 16 H       -4.7310     1.3830    -1.2620 H     1 <1>   0.0800 
 17 H       -4.6340     2.0580     0.3740 H     1 <1>   0.0800 
 18 H       -1.4770     0.5260    -0.1410 H     1 <1>   0.0800 
 19 H       -2.2540     2.0580     0.2320 H     1 <1>   0.0800 
 20 H       -2.3510     1.3840    -1.4030 H     1 <1>   0.0800 
 21 H       -5.6560    -0.0050     1.2740 H     1 <1>   0.0800 
 22 H       -5.7530    -0.6710    -0.3420 H     1 <1>   0.0800 
 23 H       -7.2940     1.1340    -0.9340 H     1 <1>   0.4500 
 24 H       -7.2030     1.7590     0.5800 H     1 <1>   0.4500 
 25 H       -8.1760    -0.2240     1.5180 H     1 <1>   0.0800 
 26 H       -8.2790    -0.8890    -0.1050 H     1 <1>   0.0800 
 27 H       -9.8050     0.0960    -1.7820 H     1 <1>   0.1500 
 28 H       -9.5370     1.7380     2.1720 H     1 <1>   0.1500 
 29 H      -11.7920     1.4280    -2.1850 H     1 <1>   0.1500 
 30 H      -11.5260     3.0600     1.7420 H     1 <1>   0.1500 
 31 H      -13.3920     2.9630    -1.5320 H     1 <1>   0.0800 
 32 H      -12.4570     4.9490     0.5490 H     1 <1>   0.0800 
 33 H      -13.6210     5.2410    -0.7190 H     1 <1>   0.0800 
 34 H      -11.9530     4.9230    -1.1240 H     1 <1>   0.0800 
 35 H      -13.9220     3.0270     1.4450 H     1 <1>   0.0800 
 36 H      -14.3800     1.7350     0.3630 H     1 <1>   0.0800 
 37 H      -15.0830     3.3210     0.1750 H     1 <1>   0.0800 
@<TRIPOS>BOND
  1   1   2  1   
  2   1   3  1   
  3   2   4  1   
  4   2  16  1   
  5   2  17  1   
  6   3  18  1   
  7   3  19  1   
  8   3  20  1   
  9   4   5  1   
 10   4  21  1   
 11   4  22  1   
 12   5   6  1   
 13   5  23  1   
 14   5  24  1   
 15   6   7  1   
 16   6  25  1   
 17   6  26  1   
 18   7   8  ar  
 19   7   9  ar  
 20   8  10  ar  
 21   8  27  1   
 22   9  11  ar  
 23   9  28  1   
 24  10  12  ar  
 25  10  29  1   
 26  11  12  ar  
 27  11  30  1   
 28  12  13  1   
 29  13  14  1   
 30  13  15  1   
 31  13  31  1   
 32  14  32  1   
 33  14  33  1   
 34  14  34  1   
 35  15  35  1   
 36  15  36  1   
 37  15  37  1   
@<TRIPOS>SUBSTRUCTURE
  1 ****   7 GROUP 4 **** **** 0

# MOE 2024.06 (io_trps.svl 2023.06)
