@<TRIPOS>MOLECULE
NONAME
44 47 1 0 0 
SMALL
USER_CHARGES


@<TRIPOS>ATOM
  1 S        0.0640     0.0180     0.4510 S.3   1 <1>  -0.3320 
  2 C        0.8760     1.6020     0.2730 C.ar  1 <1>   0.7220 
  3 C       -1.7450     0.3820     0.3240 C.3   1 <1>  -0.0100 
  4 N        0.0840     2.6590     0.1160 N.ar  1 <1>  -0.3100 
  5 N        2.1790     1.5710     0.3210 N.ar  1 <1>  -0.6200 
  6 N        0.6290     3.8340    -0.0180 N.ar  1 <1>  -0.3100 
  7 C        2.7270     2.7630     0.1790 C.ar  1 <1>   0.3930 
  8 C        1.9660     3.9440     0.0070 C.ar  1 <1>   0.3100 
  9 O        4.0660     2.6730     0.2340 O.3   1 <1>  -0.3620 
 10 C        2.4700     5.3060    -0.1600 C.ar  1 <1>   0.0000 
 11 C        4.9180     3.7640     0.3230 C.3   1 <1>   0.5690 
 12 C        3.7530     5.5860    -0.6590 C.ar  1 <1>   0.1000 
 13 C        1.6640     6.4130     0.1380 C.ar  1 <1>  -0.1500 
 14 N        4.6580     4.5740    -0.8620 N.pl3 1 <1>  -0.8690 
 15 C        6.3770     3.2770     0.3780 C.3   1 <1>  -0.0800 
 16 C        4.1550     6.8910    -0.9120 C.ar  1 <1>  -0.1500 
 17 C        2.0760     7.7120    -0.0900 C.ar  1 <1>  -0.1500 
 18 C        7.3440     4.4500     0.6400 C.3   1 <1>  -0.0220 
 19 C        6.8160     2.4760    -0.8680 C.3   1 <1>  -0.1600 
 20 C        3.3250     7.9540    -0.6290 C.ar  1 <1>  -0.1500 
 21 C        8.7920     4.0170     0.5000 C.2   1 <1>  -0.2880 
 22 C        8.2140     1.8710    -0.6790 C.3   1 <1>  -0.0220 
 23 C        9.1850     2.8750    -0.0720 C.2   1 <1>  -0.2760 
 24 C       10.6430     2.4580    -0.1690 C.3   1 <1>  -0.1020 
 25 H       -2.2740    -0.5490     0.4200 H     1 <1>   0.0800 
 26 H       -1.9260     0.8300    -0.6370 H     1 <1>   0.0800 
 27 H       -2.0040     1.0570     1.1190 H     1 <1>   0.0800 
 28 H        4.6720     4.3050     1.2230 H     1 <1>   0.0800 
 29 H        0.6800     6.2660     0.5510 H     1 <1>   0.1500 
 30 H        5.5350     4.8280    -1.3230 H     1 <1>   0.4000 
 31 H        6.4490     2.6190     1.2270 H     1 <1>   0.0800 
 32 H        5.1300     7.0760    -1.3250 H     1 <1>   0.1500 
 33 H        1.4230     8.5350     0.1450 H     1 <1>   0.1500 
 34 H        7.1820     4.8240     1.6360 H     1 <1>   0.0800 
 35 H        7.1670     5.2550    -0.0510 H     1 <1>   0.0800 
 36 H        6.8340     3.1250    -1.7260 H     1 <1>   0.0800 
 37 H        6.1160     1.6840    -1.0700 H     1 <1>   0.0800 
 38 H        3.6440     8.9640    -0.8220 H     1 <1>   0.1500 
 39 H        9.4850     4.7320     0.9130 H     1 <1>   0.1500 
 40 H        8.5770     1.5390    -1.6360 H     1 <1>   0.0800 
 41 H        8.1520     1.0140    -0.0310 H     1 <1>   0.0800 
 42 H       10.9300     2.3510    -1.2000 H     1 <1>   0.0800 
 43 H       10.7930     1.5200     0.3340 H     1 <1>   0.0800 
 44 H       11.2790     3.1950     0.2860 H     1 <1>   0.0800 
@<TRIPOS>BOND
  1   1   2  1   
  2   1   3  1   
  3   2   4  ar  
  4   2   5  ar  
  5   3  25  1   
  6   3  26  1   
  7   3  27  1   
  8   4   6  ar  
  9   5   7  ar  
 10   6   8  ar  
 11   7   8  ar  
 12   7   9  1   
 13   8  10  1   
 14   9  11  1   
 15  10  12  ar  
 16  10  13  ar  
 17  11  14  1   
 18  11  15  1   
 19  11  28  1   
 20  12  14  1   
 21  12  16  ar  
 22  13  17  ar  
 23  13  29  1   
 24  14  30  1   
 25  15  18  1   
 26  15  19  1   
 27  15  31  1   
 28  16  20  ar  
 29  16  32  1   
 30  17  20  ar  
 31  17  33  1   
 32  18  21  1   
 33  18  34  1   
 34  18  35  1   
 35  19  22  1   
 36  19  36  1   
 37  19  37  1   
 38  20  38  1   
 39  21  23  2   
 40  21  39  1   
 41  22  23  1   
 42  22  40  1   
 43  22  41  1   
 44  23  24  1   
 45  24  42  1   
 46  24  43  1   
 47  24  44  1   
@<TRIPOS>SUBSTRUCTURE
  1 ****  11 GROUP 4 **** **** 0

# MOE 2024.06 (io_trps.svl 2023.06)
