@<TRIPOS>MOLECULE
NONAME
48 51 1 0 0 
SMALL
USER_CHARGES


@<TRIPOS>ATOM
  1 O        0.7930    -0.4940    -0.7080 O.2   1 <1>  -0.5700 
  2 C        0.2870    -1.3490    -0.0260 C.2   1 <1>   0.5690 
  3 N        0.9590    -2.3660     0.5850 N.am  1 <1>  -0.4200 
  4 C       -1.2030    -1.4180     0.2710 C.3   1 <1>  -0.0190 
  5 C        0.1550    -3.2160     1.2850 C.2   1 <1>   0.5690 
  6 C        2.4410    -2.3910     0.6790 C.3   1 <1>   0.2010 
  7 C       -1.3090    -2.8080     1.1840 C.3   1 <1>  -0.0190 
  8 C       -2.1940    -1.5850    -1.0250 C.3   1 <1>  -0.0800 
  9 O        0.5310    -4.1820     1.8990 O.2   1 <1>  -0.5700 
 10 C        2.9810    -1.3470     1.6610 C.2   1 <1>   0.5690 
 11 C       -2.2760    -3.8630     0.3820 C.3   1 <1>  -0.0800 
 12 C       -2.2610    -2.7190    -0.3170 C.3   1 <1>  -0.1600 
 13 C       -3.1820    -2.6280    -1.8110 C.3   1 <1>  -0.1600 
 14 O        2.2930    -0.9690     2.5790 O.2   1 <1>  -0.5700 
 15 N        4.2260    -0.8200     1.5050 N.am  1 <1>  -0.5470 
 16 C       -3.3090    -4.0140    -0.8780 C.3   1 <1>  -0.1600 
 17 C        5.2170    -1.0500     0.5350 C.ar  1 <1>   0.1170 
 18 C        5.8610     0.0350    -0.0670 C.ar  1 <1>   0.0830 
 19 C        5.5820    -2.3380     0.1700 C.ar  1 <1>  -0.1500 
 20 O        5.4990     1.2870     0.3430 O.3   1 <1>  -0.3630 
 21 C        6.8290    -0.1860    -1.0410 C.ar  1 <1>  -0.1500 
 22 C        6.5400    -2.5600    -0.8030 C.ar  1 <1>   0.0830 
 23 C        5.7920     2.4170    -0.4500 C.3   1 <1>   0.0400 
 24 C        7.1650    -1.4770    -1.4130 C.ar  1 <1>  -0.1500 
 25 O        6.8120    -3.8570    -1.1010 O.3   1 <1>  -0.3620 
 26 C        7.7960    -4.1950    -2.0530 C.3   1 <1>   0.0400 
 27 H       -1.4660    -0.5540     0.8580 H     1 <1>   0.0800 
 28 H        2.8460    -2.2000    -0.2990 H     1 <1>   0.0800 
 29 H        2.7630    -3.3650     0.9970 H     1 <1>   0.0800 
 30 H       -1.6860    -2.6020     2.1720 H     1 <1>   0.0800 
 31 H       -2.8770    -0.7660    -0.8510 H     1 <1>   0.0800 
 32 H       -1.5900    -4.6750     0.1790 H     1 <1>   0.0800 
 33 H       -3.1600    -2.2950     0.3130 H     1 <1>   0.0800 
 34 H       -1.3560    -3.1380    -0.9440 H     1 <1>   0.0800 
 35 H       -2.7710    -2.8680    -2.7810 H     1 <1>   0.0800 
 36 H       -4.1570    -2.1940    -1.9730 H     1 <1>   0.0800 
 37 H        4.3690     0.0270     2.0600 H     1 <1>   0.3700 
 38 H       -4.3210    -4.1310    -0.5190 H     1 <1>   0.0800 
 39 H       -3.0740    -4.8870    -1.4680 H     1 <1>   0.0800 
 40 H        5.1340    -3.1880     0.6460 H     1 <1>   0.1500 
 41 H        7.3360     0.6320    -1.5170 H     1 <1>   0.1500 
 42 H        5.2920     3.2660    -0.0190 H     1 <1>   0.0800 
 43 H        5.4280     2.2480    -1.4480 H     1 <1>   0.0800 
 44 H        6.8550     2.5820    -0.4470 H     1 <1>   0.0800 
 45 H        7.9120    -1.6170    -2.1700 H     1 <1>   0.1500 
 46 H        7.8480    -5.2680    -2.1140 H     1 <1>   0.0800 
 47 H        8.7450    -3.8030    -1.7310 H     1 <1>   0.0800 
 48 H        7.5140    -3.7890    -3.0080 H     1 <1>   0.0800 
@<TRIPOS>BOND
  1   1   2  2   
  2   2   3  am  
  3   2   4  1   
  4   3   5  am  
  5   3   6  1   
  6   4   7  1   
  7   4   8  1   
  8   4  27  1   
  9   5   7  1   
 10   5   9  2   
 11   6  10  1   
 12   6  28  1   
 13   6  29  1   
 14   7  11  1   
 15   7  30  1   
 16   8  12  1   
 17   8  13  1   
 18   8  31  1   
 19  10  14  2   
 20  10  15  am  
 21  11  12  1   
 22  11  16  1   
 23  11  32  1   
 24  12  33  1   
 25  12  34  1   
 26  13  16  1   
 27  13  35  1   
 28  13  36  1   
 29  15  17  1   
 30  15  37  1   
 31  16  38  1   
 32  16  39  1   
 33  17  18  ar  
 34  17  19  ar  
 35  18  20  1   
 36  18  21  ar  
 37  19  22  ar  
 38  19  40  1   
 39  20  23  1   
 40  21  24  ar  
 41  21  41  1   
 42  22  24  ar  
 43  22  25  1   
 44  23  42  1   
 45  23  43  1   
 46  23  44  1   
 47  24  45  1   
 48  25  26  1   
 49  26  46  1   
 50  26  47  1   
 51  26  48  1   
@<TRIPOS>SUBSTRUCTURE
  1 ****   6 GROUP 4 **** **** 0

# MOE 2024.06 (io_trps.svl 2023.06)
