@<TRIPOS>MOLECULE
NONAME
52 56 1 0 0 
SMALL
USER_CHARGES


@<TRIPOS>ATOM
  1 S        1.2230     0.5120     0.1880 S.3   1 <1>  -0.4600 
  2 C       -0.4680     1.0990     0.4330 C.3   1 <1>   0.5940 
  3 C        0.9790    -0.2390    -1.4370 C.3   1 <1>   0.1310 
  4 N       -1.1860     0.6700    -0.7850 N.am  1 <1>  -0.6600 
  5 C       -0.4540     2.6140     0.6080 C.ar  1 <1>  -0.1440 
  6 C       -0.4870    -0.0150    -1.7300 C.2   1 <1>   0.5690 
  7 C       -2.6480     0.9280    -0.8710 C.3   1 <1>   0.1400 
  8 C       -0.8880     3.1730     1.8030 C.ar  1 <1>  -0.1500 
  9 C       -0.0130     3.4540    -0.4070 C.ar  1 <1>  -0.1500 
 10 O       -0.9760    -0.4320    -2.7520 O.2   1 <1>  -0.5700 
 11 C       -2.9550     1.9660    -1.9500 C.3   1 <1>   0.0700 
 12 C       -0.8810     4.5460     1.9800 C.ar  1 <1>  -0.1500 
 13 C       -0.0070     4.8270    -0.2320 C.ar  1 <1>  -0.1500 
 14 S       -4.7220     2.3800    -1.8320 S.3   1 <1>  -0.4600 
 15 C       -0.4400     5.3730     0.9630 C.ar  1 <1>  -0.1500 
 16 C       -4.8060     4.1110    -1.2820 C.3   1 <1>   0.2300 
 17 C       -6.2930     4.4480    -1.0850 C.3   1 <1>  -0.1600 
 18 C       -4.2080     5.0320    -2.3610 C.3   1 <1>  -0.1600 
 19 C       -4.0580     4.2870     0.0520 C.3   1 <1>  -0.1600 
 20 C       -6.4360     5.9110    -0.6240 C.3   1 <1>  -0.0800 
 21 C       -4.3350     6.4980    -1.9020 C.3   1 <1>  -0.0800 
 22 C       -4.1840     5.7520     0.5140 C.3   1 <1>  -0.0800 
 23 C       -5.8240     6.8370    -1.6930 C.3   1 <1>  -0.1600 
 24 C       -5.6740     6.0970     0.7030 C.3   1 <1>  -0.1600 
 25 C       -3.5860     6.6760    -0.5670 C.3   1 <1>  -0.1600 
 26 H       -0.8570     0.5980     1.3030 H     1 <1>   0.0800 
 27 H        1.2160    -1.2840    -1.3700 H     1 <1>   0.0800 
 28 H        1.6070     0.2670    -2.1450 H     1 <1>   0.0800 
 29 H       -3.0130     1.2810     0.0780 H     1 <1>   0.0800 
 30 H       -3.1560     0.0100    -1.1120 H     1 <1>   0.0800 
 31 H       -1.2320     2.5450     2.6060 H     1 <1>   0.1500 
 32 H        0.3320     3.0390    -1.3390 H     1 <1>   0.1500 
 33 H       -2.7900     1.5620    -2.9330 H     1 <1>   0.0800 
 34 H       -2.3820     2.8610    -1.8130 H     1 <1>   0.0800 
 35 H       -1.2170     4.9720     2.9090 H     1 <1>   0.1500 
 36 H        0.3380     5.4690    -1.0240 H     1 <1>   0.1500 
 37 H       -0.4330     6.4410     1.1010 H     1 <1>   0.1500 
 38 H       -6.8240     4.3030    -2.0100 H     1 <1>   0.0800 
 39 H       -6.7210     3.7890    -0.3510 H     1 <1>   0.0800 
 40 H       -4.7310     4.8900    -3.2900 H     1 <1>   0.0800 
 41 H       -3.1720     4.8000    -2.5230 H     1 <1>   0.0800 
 42 H       -3.0190     4.0470    -0.0630 H     1 <1>   0.0800 
 43 H       -4.4750     3.6300     0.7940 H     1 <1>   0.0800 
 44 H       -7.4770     6.1500    -0.4850 H     1 <1>   0.0800 
 45 H       -3.9140     7.1510    -2.6480 H     1 <1>   0.0800 
 46 H       -3.6560     5.8870     1.4420 H     1 <1>   0.0800 
 47 H       -5.9240     7.8630    -1.3850 H     1 <1>   0.0800 
 48 H       -6.3570     6.7230    -2.6210 H     1 <1>   0.0800 
 49 H       -6.1020     5.4630     1.4610 H     1 <1>   0.0800 
 50 H       -5.7720     7.1150     1.0380 H     1 <1>   0.0800 
 51 H       -2.5440     6.4490    -0.7040 H     1 <1>   0.0800 
 52 H       -3.6560     7.7010    -0.2450 H     1 <1>   0.0800 
@<TRIPOS>BOND
  1   1   2  1   
  2   1   3  1   
  3   2   4  1   
  4   2   5  1   
  5   2  26  1   
  6   3   6  1   
  7   3  27  1   
  8   3  28  1   
  9   4   6  am  
 10   4   7  1   
 11   5   8  ar  
 12   5   9  ar  
 13   6  10  2   
 14   7  11  1   
 15   7  29  1   
 16   7  30  1   
 17   8  12  ar  
 18   8  31  1   
 19   9  13  ar  
 20   9  32  1   
 21  11  14  1   
 22  11  33  1   
 23  11  34  1   
 24  12  15  ar  
 25  12  35  1   
 26  13  15  ar  
 27  13  36  1   
 28  14  16  1   
 29  15  37  1   
 30  16  17  1   
 31  16  18  1   
 32  16  19  1   
 33  17  20  1   
 34  17  38  1   
 35  17  39  1   
 36  18  21  1   
 37  18  40  1   
 38  18  41  1   
 39  19  22  1   
 40  19  42  1   
 41  19  43  1   
 42  20  23  1   
 43  20  24  1   
 44  20  44  1   
 45  21  23  1   
 46  21  25  1   
 47  21  45  1   
 48  22  24  1   
 49  22  25  1   
 50  22  46  1   
 51  23  47  1   
 52  23  48  1   
 53  24  49  1   
 54  24  50  1   
 55  25  51  1   
 56  25  52  1   
@<TRIPOS>SUBSTRUCTURE
  1 ****  19 GROUP 4 **** **** 0

# MOE 2024.06 (io_trps.svl 2023.06)
