@<TRIPOS>MOLECULE
NONAME
43 46 1 0 0 
SMALL
USER_CHARGES


@<TRIPOS>ATOM
  1 S       -2.1980    -2.8010     0.2630 S.3   1 <1>  -0.0800 
  2 C       -2.1820    -4.5210     0.5140 C.2   1 <1>  -0.1120 
  3 C       -3.7960    -2.9960    -0.4810 C.2   1 <1>   0.1980 
  4 N       -1.3210    -5.4290     1.0330 N.pl3 1 <1>   0.0480 
  5 C       -3.3090    -5.0660     0.0320 C.2   1 <1>   0.2270 
  6 N       -4.2280    -4.1950    -0.5340 N.2   1 <1>  -0.5650 
  7 C       -4.4790    -1.7420    -0.9730 C.3   1 <1>  -0.0600 
  8 C       -1.9360    -6.6580     0.8540 C.ar  1 <1>  -0.1520 
  9 C        0.0890    -5.1770     1.3470 C.3   1 <1>   0.0960 
 10 C       -3.1810    -6.4610     0.2370 C.ar  1 <1>   0.0000 
 11 C       -1.5090    -7.9500     1.1780 C.ar  1 <1>  -0.1500 
 12 C        0.8700    -5.2310     0.0310 C.3   1 <1>   0.3430 
 13 C       -3.9960    -7.5560    -0.0580 C.ar  1 <1>  -0.1500 
 14 C       -2.3240    -9.0180     0.8790 C.ar  1 <1>  -0.1500 
 15 N        2.3290    -4.9210     0.1980 N.4   1 <1>  -0.9590 
 16 C       -3.5650    -8.8230     0.2620 C.ar  1 <1>  -0.1500 
 17 C        2.5680    -3.4900     0.5660 C.3   1 <1>   0.3430 
 18 C        3.0680    -5.2800    -1.0500 C.3   1 <1>   0.3430 
 19 C        4.0590    -3.2650     0.8240 C.3   1 <1>  -0.1600 
 20 C        4.5720    -5.0980    -0.8300 C.3   1 <1>  -0.1600 
 21 C        4.9120    -3.6700    -0.3860 C.3   1 <1>  -0.1600 
 22 H       -3.8750    -1.2640    -1.7210 H     1 <1>   0.0800 
 23 H       -4.6350    -1.0650    -0.1530 H     1 <1>   0.0800 
 24 H       -5.4320    -1.9940    -1.4020 H     1 <1>   0.0800 
 25 H        0.4330    -5.9290     2.0320 H     1 <1>   0.0800 
 26 H        0.1600    -4.2080     1.8050 H     1 <1>   0.0800 
 27 H       -0.5640    -8.1130     1.6620 H     1 <1>   0.1500 
 28 H        0.4340    -4.5310    -0.6640 H     1 <1>   0.0800 
 29 H        0.7610    -6.2210    -0.3830 H     1 <1>   0.0800 
 30 H       -4.9470    -7.3850    -0.5310 H     1 <1>   0.1500 
 31 H       -2.0180   -10.0210     1.1220 H     1 <1>   0.1500 
 32 H        2.7220    -5.5050     0.9480 H     1 <1>   0.4500 
 33 H       -4.1820    -9.6760     0.0410 H     1 <1>   0.1500 
 34 H        2.0140    -3.2310     1.4540 H     1 <1>   0.0800 
 35 H        2.2420    -2.8460    -0.2360 H     1 <1>   0.0800 
 36 H        2.7460    -4.6470    -1.8620 H     1 <1>   0.0800 
 37 H        2.8680    -6.3050    -1.3200 H     1 <1>   0.0800 
 38 H        4.3620    -3.8260     1.6910 H     1 <1>   0.0800 
 39 H        4.2260    -2.2240     1.0410 H     1 <1>   0.0800 
 40 H        5.0900    -5.3160    -1.7480 H     1 <1>   0.0800 
 41 H        4.9150    -5.8050    -0.0940 H     1 <1>   0.0800 
 42 H        5.9580    -3.6040    -0.1350 H     1 <1>   0.0800 
 43 H        4.7280    -2.9880    -1.1990 H     1 <1>   0.0800 
@<TRIPOS>BOND
  1   1   2  1   
  2   1   3  1   
  3   2   4  1   
  4   2   5  2   
  5   3   6  2   
  6   3   7  1   
  7   4   8  1   
  8   4   9  1   
  9   5   6  1   
 10   5  10  1   
 11   7  22  1   
 12   7  23  1   
 13   7  24  1   
 14   8  10  ar  
 15   8  11  ar  
 16   9  12  1   
 17   9  25  1   
 18   9  26  1   
 19  10  13  ar  
 20  11  14  ar  
 21  11  27  1   
 22  12  15  1   
 23  12  28  1   
 24  12  29  1   
 25  13  16  ar  
 26  13  30  1   
 27  14  16  ar  
 28  14  31  1   
 29  15  17  1   
 30  15  18  1   
 31  15  32  1   
 32  16  33  1   
 33  17  19  1   
 34  17  34  1   
 35  17  35  1   
 36  18  20  1   
 37  18  36  1   
 38  18  37  1   
 39  19  21  1   
 40  19  38  1   
 41  19  39  1   
 42  20  21  1   
 43  20  40  1   
 44  20  41  1   
 45  21  42  1   
 46  21  43  1   
@<TRIPOS>SUBSTRUCTURE
  1 ****   4 GROUP 4 **** **** 0

# MOE 2024.06 (io_trps.svl 2023.06)
