@<TRIPOS>MOLECULE
NONAME
49 50 1 0 0 
SMALL
USER_CHARGES


@<TRIPOS>ATOM
  1 N       -0.5200     0.5050    -0.2720 N.4   1 <1>  -0.9590 
  2 C       -1.6990     1.1180     0.3980 C.3   1 <1>   0.3430 
  3 C       -0.2020    -0.8500     0.2550 C.3   1 <1>   0.3430 
  4 C        0.6760     1.4040    -0.1440 C.3   1 <1>   0.2630 
  5 C       -2.9270     0.2190     0.2340 C.3   1 <1>  -0.1600 
  6 C       -1.4090    -1.7720     0.0800 C.3   1 <1>  -0.1600 
  7 C       -2.6720    -1.2070     0.7510 C.3   1 <1>   0.4230 
  8 N       -3.8490    -2.0990     0.4790 N.4   1 <1>  -0.9590 
  9 C       -5.1630    -1.5920     0.9970 C.3   1 <1>   0.4860 
 10 C       -3.6640    -3.5060     0.9610 C.3   1 <1>   0.3430 
 11 C       -6.2690    -2.3620     0.3060 C.ar  1 <1>  -0.1430 
 12 C       -3.6030    -4.4490    -0.2400 C.3   1 <1>  -0.1600 
 13 C       -6.5690    -2.1080    -1.0260 C.ar  1 <1>  -0.1500 
 14 C       -6.9850    -3.3330     0.9930 C.ar  1 <1>  -0.1500 
 15 C       -3.4070    -5.8980     0.2190 C.3   1 <1>  -0.1600 
 16 C       -7.5580    -2.8310    -1.6680 C.ar  1 <1>  -0.1500 
 17 C       -7.9740    -4.0550     0.3490 C.ar  1 <1>  -0.1500 
 18 C       -3.3520    -6.8470    -0.9810 C.3   1 <1>  -0.2400 
 19 C       -8.2580    -3.8070    -0.9810 C.ar  1 <1>  -0.1500 
 20 H       -0.7200     0.4260    -1.2830 H     1 <1>   0.4500 
 21 H       -1.9020     2.0870    -0.0310 H     1 <1>   0.0800 
 22 H       -1.4870     1.2580     1.4470 H     1 <1>   0.0800 
 23 H        0.0590    -0.7830     1.3000 H     1 <1>   0.0800 
 24 H        0.6450    -1.2600    -0.2740 H     1 <1>   0.0800 
 25 H        0.9440     1.5330     0.8930 H     1 <1>   0.0800 
 26 H        0.4650     2.3740    -0.5660 H     1 <1>   0.0800 
 27 H        1.5200     0.9840    -0.6670 H     1 <1>   0.0800 
 28 H       -3.2060     0.2000    -0.8050 H     1 <1>   0.0800 
 29 H       -3.7200     0.6830     0.7900 H     1 <1>   0.0800 
 30 H       -1.1430    -2.7190     0.5150 H     1 <1>   0.0800 
 31 H       -1.5780    -1.9230    -0.9720 H     1 <1>   0.0800 
 32 H       -2.5060    -1.1620     1.8170 H     1 <1>   0.0800 
 33 H       -3.9930    -2.1790    -0.5360 H     1 <1>   0.4500 
 34 H       -5.2940    -0.5480     0.7700 H     1 <1>   0.0800 
 35 H       -5.2280    -1.7220     2.0650 H     1 <1>   0.0800 
 36 H       -4.4900    -3.8030     1.5890 H     1 <1>   0.0800 
 37 H       -2.7630    -3.5970     1.5440 H     1 <1>   0.0800 
 38 H       -2.7890    -4.1790    -0.8890 H     1 <1>   0.0800 
 39 H       -4.5250    -4.3890    -0.7950 H     1 <1>   0.0800 
 40 H       -6.0490    -1.3480    -1.5840 H     1 <1>   0.1500 
 41 H       -6.7900    -3.5420     2.0310 H     1 <1>   0.1500 
 42 H       -4.2240    -6.1950     0.8570 H     1 <1>   0.0800 
 43 H       -2.4920    -5.9930     0.7800 H     1 <1>   0.0800 
 44 H       -7.7920    -2.6370    -2.7010 H     1 <1>   0.1500 
 45 H       -8.5280    -4.8100     0.8810 H     1 <1>   0.1500 
 46 H       -4.2660    -6.7980    -1.5480 H     1 <1>   0.0800 
 47 H       -3.2210    -7.8600    -0.6420 H     1 <1>   0.0800 
 48 H       -2.5290    -6.6000    -1.6290 H     1 <1>   0.0800 
 49 H       -9.0290    -4.3690    -1.4810 H     1 <1>   0.1500 
@<TRIPOS>BOND
  1   1   2  1   
  2   1   3  1   
  3   1   4  1   
  4   1  20  1   
  5   2   5  1   
  6   2  21  1   
  7   2  22  1   
  8   3   6  1   
  9   3  23  1   
 10   3  24  1   
 11   4  25  1   
 12   4  26  1   
 13   4  27  1   
 14   5   7  1   
 15   5  28  1   
 16   5  29  1   
 17   6   7  1   
 18   6  30  1   
 19   6  31  1   
 20   7   8  1   
 21   7  32  1   
 22   8   9  1   
 23   8  10  1   
 24   8  33  1   
 25   9  11  1   
 26   9  34  1   
 27   9  35  1   
 28  10  12  1   
 29  10  36  1   
 30  10  37  1   
 31  11  13  ar  
 32  11  14  ar  
 33  12  15  1   
 34  12  38  1   
 35  12  39  1   
 36  13  16  ar  
 37  13  40  1   
 38  14  17  ar  
 39  14  41  1   
 40  15  18  1   
 41  15  42  1   
 42  15  43  1   
 43  16  19  ar  
 44  16  44  1   
 45  17  19  ar  
 46  17  45  1   
 47  18  46  1   
 48  18  47  1   
 49  18  48  1   
 50  19  49  1   
@<TRIPOS>SUBSTRUCTURE
  1 ****   8 GROUP 4 **** **** 0

# MOE 2024.06 (io_trps.svl 2023.06)
