@<TRIPOS>MOLECULE
NONAME
55 57 1 0 0 
SMALL
USER_CHARGES


@<TRIPOS>ATOM
  1 S       -0.4770    -0.0110    -0.8630 S.3   1 <1>  -0.3320 
  2 C       -1.8430     0.5690     0.1600 C.ar  1 <1>   0.1020 
  3 C        1.0770     0.3710     0.0590 C.3   1 <1>  -0.0100 
  4 C       -3.1180     0.3770    -0.3340 C.ar  1 <1>  -0.1500 
  5 C       -1.6380     1.1800     1.3870 C.ar  1 <1>  -0.1500 
  6 C       -4.2270     0.7930     0.3920 C.ar  1 <1>   0.1170 
  7 C       -2.7360     1.6010     2.1170 C.ar  1 <1>  -0.1500 
  8 N       -5.5010     0.5840    -0.1600 N.am  1 <1>  -0.5470 
  9 C       -4.0150     1.4110     1.6220 C.ar  1 <1>  -0.1500 
 10 C       -6.7450     0.5620     0.4120 C.2   1 <1>   0.5690 
 11 O       -6.9370     0.7220     1.5920 O.2   1 <1>  -0.5700 
 12 C       -7.9310     0.3020    -0.5190 C.3   1 <1>  -0.0190 
 13 C       -9.2590     0.8670     0.0250 C.3   1 <1>  -0.1600 
 14 C       -8.0880    -1.2030    -0.8060 C.3   1 <1>  -0.1600 
 15 C      -10.4330     0.5790    -0.9140 C.3   1 <1>   0.1400 
 16 C       -9.2610    -1.4750    -1.7520 C.3   1 <1>   0.1400 
 17 N      -10.5070    -0.8840    -1.1900 N.am  1 <1>  -0.6600 
 18 C      -11.5830    -1.6760    -0.8350 C.2   1 <1>   0.5440 
 19 O      -11.4370    -2.8830    -0.7880 O.2   1 <1>  -0.5700 
 20 C      -12.8800    -1.1160    -0.5030 C.ar  1 <1>   0.0860 
 21 C      -13.5280    -0.2230    -1.3530 C.ar  1 <1>  -0.1500 
 22 C      -13.5210    -1.4670     0.6820 C.ar  1 <1>  -0.1500 
 23 C      -14.7560     0.3250    -1.0300 C.ar  1 <1>   0.0830 
 24 C      -14.7580    -0.9290     1.0190 C.ar  1 <1>   0.0830 
 25 O      -15.2880     1.1960    -1.9230 O.3   1 <1>  -0.3630 
 26 C      -15.3710    -0.0310     0.1640 C.ar  1 <1>  -0.1500 
 27 O      -15.4240    -1.2340     2.1600 O.3   1 <1>  -0.3630 
 28 C      -16.5610     1.7670    -1.7140 C.3   1 <1>   0.0400 
 29 C      -14.9220    -2.1920     3.0670 C.3   1 <1>   0.0400 
 30 H        1.9010     0.0270    -0.5390 H     1 <1>   0.0800 
 31 H        1.0430    -0.1520     0.9980 H     1 <1>   0.0800 
 32 H        1.1270     1.4350     0.2010 H     1 <1>   0.0800 
 33 H       -3.2380    -0.1030    -1.2870 H     1 <1>   0.1500 
 34 H       -0.6530     1.3330     1.7800 H     1 <1>   0.1500 
 35 H       -2.5980     2.0790     3.0720 H     1 <1>   0.1500 
 36 H       -5.4860     0.3590    -1.1520 H     1 <1>   0.3700 
 37 H       -4.8510     1.7520     2.2050 H     1 <1>   0.1500 
 38 H       -7.7260     0.8030    -1.4490 H     1 <1>   0.0800 
 39 H       -9.1690     1.9300     0.1670 H     1 <1>   0.0800 
 40 H       -9.4740     0.4300     0.9860 H     1 <1>   0.0800 
 41 H       -8.2580    -1.7330     0.1160 H     1 <1>   0.0800 
 42 H       -7.1870    -1.5930    -1.2450 H     1 <1>   0.0800 
 43 H      -10.3020     1.1060    -1.8440 H     1 <1>   0.0800 
 44 H      -11.3380     0.9330    -0.4530 H     1 <1>   0.0800 
 45 H       -9.3700    -2.5370    -1.8930 H     1 <1>   0.0800 
 46 H       -9.0700    -1.0340    -2.7140 H     1 <1>   0.0800 
 47 H      -13.0670     0.0490    -2.2850 H     1 <1>   0.1500 
 48 H      -13.0220    -2.1690     1.3240 H     1 <1>   0.1500 
 49 H      -16.3230     0.3700     0.4530 H     1 <1>   0.1500 
 50 H      -16.7850     2.4010    -2.5530 H     1 <1>   0.0800 
 51 H      -16.5390     2.3500    -0.8110 H     1 <1>   0.0800 
 52 H      -17.2900     0.9780    -1.6470 H     1 <1>   0.0800 
 53 H      -15.6270    -2.2920     3.8720 H     1 <1>   0.0800 
 54 H      -13.9770    -1.8500     3.4490 H     1 <1>   0.0800 
 55 H      -14.8140    -3.1330     2.5570 H     1 <1>   0.0800 
@<TRIPOS>BOND
  1   1   2  1   
  2   1   3  1   
  3   2   4  ar  
  4   2   5  ar  
  5   3  30  1   
  6   3  31  1   
  7   3  32  1   
  8   4   6  ar  
  9   4  33  1   
 10   5   7  ar  
 11   5  34  1   
 12   6   8  1   
 13   6   9  ar  
 14   7   9  ar  
 15   7  35  1   
 16   8  10  am  
 17   8  36  1   
 18   9  37  1   
 19  10  11  2   
 20  10  12  1   
 21  12  13  1   
 22  12  14  1   
 23  12  38  1   
 24  13  15  1   
 25  13  39  1   
 26  13  40  1   
 27  14  16  1   
 28  14  41  1   
 29  14  42  1   
 30  15  17  1   
 31  15  43  1   
 32  15  44  1   
 33  16  17  1   
 34  16  45  1   
 35  16  46  1   
 36  17  18  am  
 37  18  19  2   
 38  18  20  1   
 39  20  21  ar  
 40  20  22  ar  
 41  21  23  ar  
 42  21  47  1   
 43  22  24  ar  
 44  22  48  1   
 45  23  25  1   
 46  23  26  ar  
 47  24  26  ar  
 48  24  27  1   
 49  25  28  1   
 50  26  49  1   
 51  27  29  1   
 52  28  50  1   
 53  28  51  1   
 54  28  52  1   
 55  29  53  1   
 56  29  54  1   
 57  29  55  1   
@<TRIPOS>SUBSTRUCTURE
  1 ****  13 GROUP 4 **** **** 0

# MOE 2024.06 (io_trps.svl 2023.06)
