@<TRIPOS>MOLECULE
NONAME
49 51 1 0 0 
SMALL
USER_CHARGES


@<TRIPOS>ATOM
  1 S        0.5200    -0.6680     1.7110 S.o2  1 <1>   1.4470 
  2 O        1.9200    -0.8010     2.0520 O.2   1 <1>  -0.6500 
  3 O       -0.3460     0.1260     2.5540 O.2   1 <1>  -0.6500 
  4 N        0.4530     0.0130     0.1610 N.am  1 <1>  -0.8490 
  5 C       -0.2230    -2.3060     1.4670 C.ar  1 <1>  -0.0090 
  6 C        0.6900     1.4640     0.2020 C.3   1 <1>   0.1960 
  7 C        1.4040    -0.6070    -0.7760 C.3   1 <1>   0.1960 
  8 C       -1.4080    -2.4490     0.7620 C.ar  1 <1>  -0.1500 
  9 C        0.3680    -3.4520     1.9770 C.ar  1 <1>  -0.1500 
 10 C        0.6310     2.0760    -1.2100 C.3   1 <1>   0.1200 
 11 C        1.3160     0.0500    -2.1650 C.3   1 <1>   0.1200 
 12 C       -2.0130    -3.6860     0.5390 C.ar  1 <1>   0.0860 
 13 C       -0.2060    -4.6950     1.7800 C.ar  1 <1>  -0.1500 
 14 O        1.5290     1.4300    -2.0680 O.3   1 <1>  -0.5600 
 15 C       -1.3870    -4.8200     1.0680 C.ar  1 <1>  -0.1430 
 16 C       -3.2510    -3.7340    -0.2200 C.2   1 <1>   0.5440 
 17 C       -1.9870    -6.2090     0.8800 C.3   1 <1>  -0.0960 
 18 O       -3.3820    -4.4720    -1.1760 O.2   1 <1>  -0.5700 
 19 N       -4.2810    -2.9090     0.1210 N.am  1 <1>  -0.7300 
 20 C       -5.5140    -2.6710    -0.6640 C.3   1 <1>   0.1400 
 21 C       -5.6320    -1.1780    -1.0050 C.3   1 <1>   0.2000 
 22 O       -5.4180    -0.4010     0.1330 O.3   1 <1>  -0.5600 
 23 C       -7.0050    -0.7490    -1.5000 C.3   1 <1>  -0.1600 
 24 C       -5.9830     0.8600    -0.0310 C.3   1 <1>   0.1200 
 25 C       -7.0620     0.7170    -1.1040 C.3   1 <1>  -0.1600 
 26 H        1.6540     1.6690     0.6380 H     1 <1>   0.0800 
 27 H       -0.0590     1.9360     0.8150 H     1 <1>   0.0800 
 28 H        1.1890    -1.6580    -0.8710 H     1 <1>   0.0800 
 29 H        2.4130    -0.5050    -0.4090 H     1 <1>   0.0800 
 30 H       -1.8770    -1.5650     0.3620 H     1 <1>   0.1500 
 31 H        1.2880    -3.3740     2.5340 H     1 <1>   0.1500 
 32 H        0.9000     3.1170    -1.1760 H     1 <1>   0.0800 
 33 H       -0.3610     1.9860    -1.6170 H     1 <1>   0.0800 
 34 H        0.3480    -0.1210    -2.6030 H     1 <1>   0.0800 
 35 H        2.0690    -0.3540    -2.8170 H     1 <1>   0.0800 
 36 H        0.2780    -5.5660     2.1870 H     1 <1>   0.1500 
 37 H       -3.0280    -6.2050     1.1530 H     1 <1>   0.0800 
 38 H       -1.4820    -6.9390     1.4850 H     1 <1>   0.0800 
 39 H       -1.9060    -6.5040    -0.1520 H     1 <1>   0.0800 
 40 H       -4.1560    -2.2150     0.8650 H     1 <1>   0.3700 
 41 H       -6.3630    -2.9780    -0.0790 H     1 <1>   0.0800 
 42 H       -5.5020    -3.2520    -1.5700 H     1 <1>   0.0800 
 43 H       -4.8790    -0.9080    -1.7260 H     1 <1>   0.0800 
 44 H       -7.7700    -1.3000    -0.9810 H     1 <1>   0.0800 
 45 H       -7.1150    -0.8990    -2.5590 H     1 <1>   0.0800 
 46 H       -5.2070     1.5390    -0.3420 H     1 <1>   0.0800 
 47 H       -6.3900     1.1750     0.9140 H     1 <1>   0.0800 
 48 H       -8.0300     0.9900    -0.7220 H     1 <1>   0.0800 
 49 H       -6.8250     1.3520    -1.9400 H     1 <1>   0.0800 
@<TRIPOS>BOND
  1   1   2  2   
  2   1   3  2   
  3   1   4  am  
  4   1   5  1   
  5   4   6  1   
  6   4   7  1   
  7   5   8  ar  
  8   5   9  ar  
  9   6  10  1   
 10   6  26  1   
 11   6  27  1   
 12   7  11  1   
 13   7  28  1   
 14   7  29  1   
 15   8  12  ar  
 16   8  30  1   
 17   9  13  ar  
 18   9  31  1   
 19  10  14  1   
 20  10  32  1   
 21  10  33  1   
 22  11  14  1   
 23  11  34  1   
 24  11  35  1   
 25  12  15  ar  
 26  12  16  1   
 27  13  15  ar  
 28  13  36  1   
 29  15  17  1   
 30  16  18  2   
 31  16  19  am  
 32  17  37  1   
 33  17  38  1   
 34  17  39  1   
 35  19  20  1   
 36  19  40  1   
 37  20  21  1   
 38  20  41  1   
 39  20  42  1   
 40  21  22  1   
 41  21  23  1   
 42  21  43  1   
 43  22  24  1   
 44  23  25  1   
 45  23  44  1   
 46  23  45  1   
 47  24  25  1   
 48  24  46  1   
 49  24  47  1   
 50  25  48  1   
 51  25  49  1   
@<TRIPOS>SUBSTRUCTURE
  1 ****   8 GROUP 4 **** **** 0

# MOE 2024.06 (io_trps.svl 2023.06)
