@<TRIPOS>MOLECULE
NONAME
38 39 1 0 0 
SMALL
USER_CHARGES


@<TRIPOS>ATOM
  1 O        2.0260    -5.2260     0.0100 O.3   1 <1>  -0.3630 
  2 C        3.2520    -5.8050     0.0080 C.ar  1 <1>   0.0830 
  3 C        0.8450    -5.9870     0.0040 C.3   1 <1>   0.1200 
  4 C        4.3410    -4.9750     0.0150 C.ar  1 <1>  -0.1500 
  5 C        3.4450    -7.2000     0.0010 C.ar  1 <1>  -0.1500 
  6 C       -0.3230    -4.9990     0.0070 C.3   1 <1>   0.3430 
  7 C        5.6550    -5.4780     0.0140 C.ar  1 <1>   0.0000 
  8 C        4.7120    -7.7130     0.0000 C.ar  1 <1>  -0.1500 
  9 N       -1.6460    -5.6960     0.0010 N.4   1 <1>  -0.9060 
 10 C        5.8470    -6.8760     0.0070 C.ar  1 <1>   0.0000 
 11 C        6.7890    -4.6400     0.0210 C.ar  1 <1>  -0.1500 
 12 C       -2.7740    -4.7140     0.0050 C.3   1 <1>   0.3430 
 13 C        7.1630    -7.3800     0.0060 C.ar  1 <1>  -0.1500 
 14 C        8.0550    -5.1570     0.0200 C.ar  1 <1>  -0.1500 
 15 C       -4.1390    -5.4080    -0.0010 C.3   1 <1>   0.1200 
 16 C        8.2440    -6.5430     0.0130 C.ar  1 <1>  -0.1500 
 17 O       -5.0960    -4.4070     0.0030 O.3   1 <1>  -0.5600 
 18 C       -6.4130    -4.8640    -0.0020 C.3   1 <1>   0.0400 
 19 H        0.8400    -6.5990     0.8880 H     1 <1>   0.0800 
 20 H        0.8430    -6.5900    -0.8880 H     1 <1>   0.0800 
 21 H        4.2020    -3.9110     0.0210 H     1 <1>   0.1500 
 22 H        2.6120    -7.8760    -0.0040 H     1 <1>   0.1500 
 23 H       -0.2420    -4.3680    -0.8640 H     1 <1>   0.0800 
 24 H       -0.2450    -4.3780     0.8850 H     1 <1>   0.0800 
 25 H        4.8700    -8.7770    -0.0060 H     1 <1>   0.1500 
 26 H       -1.7230    -6.3030     0.8290 H     1 <1>   0.4500 
 27 H       -1.7200    -6.2940    -0.8330 H     1 <1>   0.4500 
 28 H        6.6380    -3.5750     0.0270 H     1 <1>   0.1500 
 29 H       -2.7090    -4.0820    -0.8660 H     1 <1>   0.0800 
 30 H       -2.7120    -4.0910     0.8830 H     1 <1>   0.0800 
 31 H        7.3040    -8.4460     0.0000 H     1 <1>   0.1500 
 32 H        8.9160    -4.5110     0.0250 H     1 <1>   0.1500 
 33 H       -4.2740    -6.0090     0.8820 H     1 <1>   0.0800 
 34 H       -4.2710    -5.9990    -0.8920 H     1 <1>   0.0800 
 35 H        9.2470    -6.9340     0.0120 H     1 <1>   0.1500 
 36 H       -7.0650    -4.0070     0.0020 H     1 <1>   0.0800 
 37 H       -6.5930    -5.4550     0.8800 H     1 <1>   0.0800 
 38 H       -6.5900    -5.4450    -0.8910 H     1 <1>   0.0800 
@<TRIPOS>BOND
  1   1   2  1   
  2   1   3  1   
  3   2   4  ar  
  4   2   5  ar  
  5   3   6  1   
  6   3  19  1   
  7   3  20  1   
  8   4   7  ar  
  9   4  21  1   
 10   5   8  ar  
 11   5  22  1   
 12   6   9  1   
 13   6  23  1   
 14   6  24  1   
 15   7  10  ar  
 16   7  11  ar  
 17   8  10  ar  
 18   8  25  1   
 19   9  12  1   
 20   9  26  1   
 21   9  27  1   
 22  10  13  ar  
 23  11  14  ar  
 24  11  28  1   
 25  12  15  1   
 26  12  29  1   
 27  12  30  1   
 28  13  16  ar  
 29  13  31  1   
 30  14  16  ar  
 31  14  32  1   
 32  15  17  1   
 33  15  33  1   
 34  15  34  1   
 35  16  35  1   
 36  17  18  1   
 37  18  36  1   
 38  18  37  1   
 39  18  38  1   
@<TRIPOS>SUBSTRUCTURE
  1 ****   1 GROUP 4 **** **** 0

# MOE 2024.06 (io_trps.svl 2023.06)
