@<TRIPOS>MOLECULE
NONAME
49 53 1 0 0 
SMALL
USER_CHARGES


@<TRIPOS>ATOM
  1 N        0.1880    -0.2690     0.3950 N.pl3 1 <1>   0.0330 
  2 C       -0.3380    -1.4030    -0.1640 C.ar  1 <1>  -0.1520 
  3 C        1.5410    -0.4360     0.5050 C.2   1 <1>  -0.3020 
  4 C        0.7000    -2.2950    -0.4090 C.ar  1 <1>   0.0000 
  5 C       -1.6590    -1.7280    -0.4820 C.ar  1 <1>  -0.1500 
  6 C        1.8850    -1.6580     0.0250 C.2   1 <1>  -0.1810 
  7 C        0.4150    -3.5390    -0.9830 C.ar  1 <1>  -0.1500 
  8 C       -1.9230    -2.9550    -1.0460 C.ar  1 <1>  -0.1500 
  9 C        3.2460    -2.3150    -0.0760 C.3   1 <1>   0.0210 
 10 C       -0.8850    -3.8600    -1.2970 C.ar  1 <1>  -0.1500 
 11 C        4.3360    -1.3850     0.4510 C.3   1 <1>   0.3430 
 12 N        5.6790    -2.0220     0.3420 N.4   1 <1>  -0.9060 
 13 C        6.7870    -1.1710     0.8360 C.3   1 <1>   0.4230 
 14 C        7.0240     0.0380    -0.1020 C.3   1 <1>  -0.0800 
 15 C        8.0770    -2.0180     0.9140 C.3   1 <1>  -0.0800 
 16 C        7.4620    -0.4330    -1.5090 C.3   1 <1>  -0.1600 
 17 C        8.1510     0.9050     0.4970 C.3   1 <1>  -0.1600 
 18 C        8.5170    -2.4900    -0.4920 C.3   1 <1>  -0.1600 
 19 C        9.1990    -1.1440     1.5110 C.3   1 <1>  -0.1600 
 20 C        8.7510    -1.2710    -1.4060 C.3   1 <1>  -0.0800 
 21 C        9.4480     0.0820     0.6110 C.3   1 <1>  -0.0800 
 22 C        9.8620    -0.3990    -0.7920 C.3   1 <1>  -0.1600 
 23 H       -0.3590     0.5510     0.6770 H     1 <1>   0.2700 
 24 H        2.1520     0.3440     0.9240 H     1 <1>   0.1500 
 25 H       -2.4510    -1.0270    -0.2860 H     1 <1>   0.1500 
 26 H        1.2120    -4.2330    -1.1750 H     1 <1>   0.1500 
 27 H       -2.9320    -3.2300    -1.3010 H     1 <1>   0.1500 
 28 H        3.4310    -2.5510    -1.1090 H     1 <1>   0.0800 
 29 H        3.2270    -3.2240     0.4980 H     1 <1>   0.0800 
 30 H       -1.1210    -4.8130    -1.7390 H     1 <1>   0.1500 
 31 H        4.1230    -1.1450     1.4800 H     1 <1>   0.0800 
 32 H        4.3130    -0.4700    -0.1190 H     1 <1>   0.0800 
 33 H        5.8930    -2.2430    -0.6370 H     1 <1>   0.4500 
 34 H        5.6930    -2.9050     0.8630 H     1 <1>   0.4500 
 35 H        6.5510    -0.8100     1.8240 H     1 <1>   0.0800 
 36 H        6.1390     0.6440    -0.1730 H     1 <1>   0.0800 
 37 H        7.9250    -2.8650     1.5610 H     1 <1>   0.0800 
 38 H        6.6870    -1.0020    -1.9900 H     1 <1>   0.0800 
 39 H        7.6490     0.4270    -2.1330 H     1 <1>   0.0800 
 40 H        7.8650     1.2700     1.4690 H     1 <1>   0.0800 
 41 H        8.3250     1.7640    -0.1290 H     1 <1>   0.0800 
 42 H        7.7870    -3.1460    -0.9320 H     1 <1>   0.0800 
 43 H        9.4320    -3.0520    -0.4110 H     1 <1>   0.0800 
 44 H        8.9340    -0.8190     2.5030 H     1 <1>   0.0800 
 45 H       10.1070    -1.7180     1.5940 H     1 <1>   0.0800 
 46 H        9.0560    -1.6000    -2.3860 H     1 <1>   0.0800 
 47 H       10.2320     0.6910     1.0310 H     1 <1>   0.0800 
 48 H       10.0540     0.4500    -1.4260 H     1 <1>   0.0800 
 49 H       10.7780    -0.9630    -0.7280 H     1 <1>   0.0800 
@<TRIPOS>BOND
  1   1   2  1   
  2   1   3  1   
  3   1  23  1   
  4   2   4  ar  
  5   2   5  ar  
  6   3   6  2   
  7   3  24  1   
  8   4   6  1   
  9   4   7  ar  
 10   5   8  ar  
 11   5  25  1   
 12   6   9  1   
 13   7  10  ar  
 14   7  26  1   
 15   8  10  ar  
 16   8  27  1   
 17   9  11  1   
 18   9  28  1   
 19   9  29  1   
 20  10  30  1   
 21  11  12  1   
 22  11  31  1   
 23  11  32  1   
 24  12  13  1   
 25  12  33  1   
 26  12  34  1   
 27  13  14  1   
 28  13  15  1   
 29  13  35  1   
 30  14  16  1   
 31  14  17  1   
 32  14  36  1   
 33  15  18  1   
 34  15  19  1   
 35  15  37  1   
 36  16  20  1   
 37  16  38  1   
 38  16  39  1   
 39  17  21  1   
 40  17  40  1   
 41  17  41  1   
 42  18  20  1   
 43  18  42  1   
 44  18  43  1   
 45  19  21  1   
 46  19  44  1   
 47  19  45  1   
 48  20  22  1   
 49  20  46  1   
 50  21  22  1   
 51  21  47  1   
 52  22  48  1   
 53  22  49  1   
@<TRIPOS>SUBSTRUCTURE
  1 ****  11 GROUP 4 **** **** 0

# MOE 2024.06 (io_trps.svl 2023.06)
