@<TRIPOS>MOLECULE
NONAME
46 48 1 0 0 
SMALL
USER_CHARGES


@<TRIPOS>ATOM
  1 O        0.3570     0.0060     0.1600 O.2   1 <1>  -0.5700 
  2 C        0.2630    -0.9740    -0.5360 C.2   1 <1>   0.5690 
  3 N        1.2910    -1.8180    -0.8550 N.am  1 <1>  -0.2370 
  4 C       -1.0400    -1.4210    -1.1860 C.3   1 <1>  -0.0190 
  5 C        2.6470    -1.5930    -0.5380 C.ar  1 <1>   0.1170 
  6 C        0.8530    -2.8130    -1.6770 C.2   1 <1>   0.5690 
  7 C       -2.1700    -1.8060    -0.1990 C.3   1 <1>   0.0640 
  8 C       -0.5950    -2.6200    -2.0500 C.3   1 <1>  -0.0990 
  9 C        3.3480    -0.5240    -1.1010 C.ar  1 <1>   0.0830 
 10 C        3.3030    -2.4400     0.3450 C.ar  1 <1>  -0.1500 
 11 O        1.4890    -3.7610    -2.0570 O.2   1 <1>  -0.5700 
 12 C       -2.9590    -0.5770     0.2580 C.ar  1 <1>  -0.1440 
 13 C       -1.6970    -2.6630     0.9880 C.3   1 <1>  -0.2400 
 14 O        2.7230     0.2970    -1.9840 O.3   1 <1>  -0.3630 
 15 C        4.6800    -0.3100    -0.7780 C.ar  1 <1>  -0.1500 
 16 C        4.6380    -2.2250     0.6720 C.ar  1 <1>   0.0830 
 17 C       -4.1620    -0.2750    -0.3660 C.ar  1 <1>  -0.1500 
 18 C       -2.5130     0.2550     1.2770 C.ar  1 <1>  -0.1500 
 19 C        2.6120     1.6530    -1.6110 C.3   1 <1>   0.0400 
 20 C        5.3180    -1.1570     0.1090 C.ar  1 <1>  -0.1500 
 21 O        5.3430    -3.0140     1.5240 O.3   1 <1>  -0.3630 
 22 C       -4.9040     0.8290     0.0190 C.ar  1 <1>  -0.1500 
 23 C       -3.2510     1.3590     1.6630 C.ar  1 <1>  -0.1500 
 24 C        4.7940    -4.2140     2.0230 C.3   1 <1>   0.0400 
 25 C       -4.4490     1.6480     1.0350 C.ar  1 <1>  -0.1500 
 26 H       -1.3870    -0.6310    -1.8290 H     1 <1>   0.0800 
 27 H       -2.8690    -2.4180    -0.7460 H     1 <1>   0.0800 
 28 H       -0.6590    -2.3850    -3.0970 H     1 <1>   0.0800 
 29 H       -1.1450    -3.5210    -1.8500 H     1 <1>   0.0800 
 30 H        2.7540    -3.2610     0.7630 H     1 <1>   0.1500 
 31 H       -0.9760    -2.1420     1.5910 H     1 <1>   0.0800 
 32 H       -1.2570    -3.5830     0.6470 H     1 <1>   0.0800 
 33 H       -2.5390    -2.9060     1.6130 H     1 <1>   0.0800 
 34 H        5.2190     0.5060    -1.2230 H     1 <1>   0.1500 
 35 H       -4.5370    -0.8970    -1.1600 H     1 <1>   0.1500 
 36 H       -1.5830     0.0580     1.7800 H     1 <1>   0.1500 
 37 H        1.9540     2.1410    -2.3070 H     1 <1>   0.0800 
 38 H        3.5840     2.1110    -1.6410 H     1 <1>   0.0800 
 39 H        2.1990     1.7100    -0.6180 H     1 <1>   0.0800 
 40 H        6.3500    -1.0000     0.3670 H     1 <1>   0.1500 
 41 H       -5.8350     1.0510    -0.4730 H     1 <1>   0.1500 
 42 H       -2.8900     1.9940     2.4530 H     1 <1>   0.1500 
 43 H        5.5450    -4.7030     2.6170 H     1 <1>   0.0800 
 44 H        4.5170    -4.8430     1.1940 H     1 <1>   0.0800 
 45 H        3.9400    -3.9810     2.6340 H     1 <1>   0.0800 
 46 H       -5.0230     2.5070     1.3360 H     1 <1>   0.1500 
@<TRIPOS>BOND
  1   1   2  2   
  2   2   3  am  
  3   2   4  1   
  4   3   5  1   
  5   3   6  am  
  6   4   7  1   
  7   4   8  1   
  8   4  26  1   
  9   5   9  ar  
 10   5  10  ar  
 11   6   8  1   
 12   6  11  2   
 13   7  12  1   
 14   7  13  1   
 15   7  27  1   
 16   8  28  1   
 17   8  29  1   
 18   9  14  1   
 19   9  15  ar  
 20  10  16  ar  
 21  10  30  1   
 22  12  17  ar  
 23  12  18  ar  
 24  13  31  1   
 25  13  32  1   
 26  13  33  1   
 27  14  19  1   
 28  15  20  ar  
 29  15  34  1   
 30  16  20  ar  
 31  16  21  1   
 32  17  22  ar  
 33  17  35  1   
 34  18  23  ar  
 35  18  36  1   
 36  19  37  1   
 37  19  38  1   
 38  19  39  1   
 39  20  40  1   
 40  21  24  1   
 41  22  25  ar  
 42  22  41  1   
 43  23  25  ar  
 44  23  42  1   
 45  24  43  1   
 46  24  44  1   
 47  24  45  1   
 48  25  46  1   
@<TRIPOS>SUBSTRUCTURE
  1 ****   2 GROUP 4 **** **** 0

# MOE 2024.06 (io_trps.svl 2023.06)
