@<TRIPOS>MOLECULE
NONAME
44 46 1 0 0 
SMALL
USER_CHARGES


@<TRIPOS>ATOM
  1 F        0.6390    -0.5130    -0.1320 F     1 <1>  -0.1900 
  2 C        1.7280    -1.2090     0.0700 C.ar  1 <1>   0.1900 
  3 C        2.9340    -0.7070    -0.3800 C.ar  1 <1>  -0.1500 
  4 C        1.6320    -2.4210     0.7260 C.ar  1 <1>  -0.1500 
  5 C        4.0820    -1.4490    -0.1640 C.ar  1 <1>  -0.1500 
  6 C        2.7890    -3.1510     0.9350 C.ar  1 <1>  -0.1500 
  7 C        4.0230    -2.6780     0.4930 C.ar  1 <1>   0.1000 
  8 N        5.1650    -3.4470     0.7120 N.pl3 1 <1>  -0.8380 
  9 C        5.3060    -4.7420    -0.0200 C.3   1 <1>   0.2090 
 10 C        6.4260    -2.8220     1.2180 C.3   1 <1>   0.2090 
 11 C        6.4180    -4.6680    -1.0880 C.3   1 <1>   0.3430 
 12 C        7.5260    -2.7970     0.1340 C.3   1 <1>   0.3430 
 13 N        7.7100    -4.1350    -0.5340 N.4   1 <1>  -0.9590 
 14 C        8.8050    -4.1220    -1.5340 C.3   1 <1>   0.4860 
 15 C       10.1050    -3.8220    -0.8140 C.ar  1 <1>  -0.1430 
 16 C       10.5620    -4.6710     0.1910 C.ar  1 <1>   0.0830 
 17 C       10.8410    -2.6980    -1.1580 C.ar  1 <1>  -0.1500 
 18 O        9.8000    -5.7570     0.4940 O.3   1 <1>  -0.3630 
 19 C       11.7560    -4.3790     0.8450 C.ar  1 <1>  -0.1500 
 20 C       12.0260    -2.4150    -0.5020 C.ar  1 <1>  -0.1500 
 21 C       10.3010    -6.7870     1.3250 C.3   1 <1>   0.0400 
 22 C       12.4810    -3.2540     0.4980 C.ar  1 <1>  -0.1500 
 23 H        2.9630     0.2420    -0.8840 H     1 <1>   0.1500 
 24 H        0.6760    -2.7770     1.0650 H     1 <1>   0.1500 
 25 H        5.0220    -1.0710    -0.5130 H     1 <1>   0.1500 
 26 H        2.7430    -4.0920     1.4510 H     1 <1>   0.1500 
 27 H        4.3740    -4.9920    -0.4980 H     1 <1>   0.0800 
 28 H        5.5310    -5.5220     0.6860 H     1 <1>   0.0800 
 29 H        6.7750    -3.3820     2.0680 H     1 <1>   0.0800 
 30 H        6.2270    -1.8190     1.5550 H     1 <1>   0.0800 
 31 H        6.0750    -4.0260    -1.8820 H     1 <1>   0.0800 
 32 H        6.5730    -5.6520    -1.4990 H     1 <1>   0.0800 
 33 H        8.4520    -2.4810     0.5860 H     1 <1>   0.0800 
 34 H        7.2530    -2.0620    -0.6040 H     1 <1>   0.0800 
 35 H        8.0540    -4.7880     0.1920 H     1 <1>   0.4500 
 36 H        8.6150    -3.3800    -2.2910 H     1 <1>   0.0800 
 37 H        8.8850    -5.0880    -2.0060 H     1 <1>   0.0800 
 38 H       10.5100    -2.0320    -1.9380 H     1 <1>   0.1500 
 39 H       12.1400    -5.0080     1.6270 H     1 <1>   0.1500 
 40 H       12.5990    -1.5420    -0.7700 H     1 <1>   0.1500 
 41 H       10.4460    -6.4020     2.3190 H     1 <1>   0.0800 
 42 H       11.2300    -7.1480     0.9170 H     1 <1>   0.0800 
 43 H        9.5820    -7.5870     1.3470 H     1 <1>   0.0800 
 44 H       13.4060    -3.0310     1.0040 H     1 <1>   0.1500 
@<TRIPOS>BOND
  1   1   2  1   
  2   2   3  ar  
  3   2   4  ar  
  4   3   5  ar  
  5   3  23  1   
  6   4   6  ar  
  7   4  24  1   
  8   5   7  ar  
  9   5  25  1   
 10   6   7  ar  
 11   6  26  1   
 12   7   8  1   
 13   8   9  1   
 14   8  10  1   
 15   9  11  1   
 16   9  27  1   
 17   9  28  1   
 18  10  12  1   
 19  10  29  1   
 20  10  30  1   
 21  11  13  1   
 22  11  31  1   
 23  11  32  1   
 24  12  13  1   
 25  12  33  1   
 26  12  34  1   
 27  13  14  1   
 28  13  35  1   
 29  14  15  1   
 30  14  36  1   
 31  14  37  1   
 32  15  16  ar  
 33  15  17  ar  
 34  16  18  1   
 35  16  19  ar  
 36  17  20  ar  
 37  17  38  1   
 38  18  21  1   
 39  19  22  ar  
 40  19  39  1   
 41  20  22  ar  
 42  20  40  1   
 43  21  41  1   
 44  21  42  1   
 45  21  43  1   
 46  22  44  1   
@<TRIPOS>SUBSTRUCTURE
  1 ****  12 GROUP 4 **** **** 0

# MOE 2024.06 (io_trps.svl 2023.06)
