@<TRIPOS>MOLECULE
NONAME
41 41 1 0 0 
SMALL
USER_CHARGES


@<TRIPOS>ATOM
  1 O        0.1670    -0.5510     0.8870 O.3   1 <1>  -0.3630 
  2 C       -1.0790    -0.9370     0.5330 C.ar  1 <1>   0.0820 
  3 C        1.1620    -0.7750    -0.0760 C.3   1 <1>   0.1200 
  4 C       -1.5080    -2.2300     0.8230 C.ar  1 <1>  -0.1440 
  5 C       -1.9230    -0.0380    -0.1140 C.ar  1 <1>  -0.1440 
  6 C        2.4820    -0.2740     0.5090 C.3   1 <1>  -0.1600 
  7 C       -2.7720    -2.6270     0.4190 C.ar  1 <1>  -0.1500 
  8 C       -0.6290    -3.2150     1.5800 C.3   1 <1>  -0.0960 
  9 C       -3.1820    -0.4590    -0.5080 C.ar  1 <1>  -0.1500 
 10 C       -1.5000     1.3980    -0.3920 C.3   1 <1>  -0.0970 
 11 C        3.6220    -0.4820    -0.4800 C.3   1 <1>   0.3430 
 12 C       -3.6090    -1.7510    -0.2520 C.ar  1 <1>  -0.1440 
 13 N        4.8810     0.0170     0.1270 N.4   1 <1>  -0.9060 
 14 C       -4.9920    -2.1990    -0.6890 C.3   1 <1>  -0.0970 
 15 C        6.0490    -0.1540    -0.7880 C.3   1 <1>   0.3430 
 16 C        7.3510     0.3610    -0.1610 C.3   1 <1>   0.1200 
 17 O        8.3620     0.1580    -1.0820 O.3   1 <1>  -0.6800 
 18 H        0.8920    -0.2360    -0.9690 H     1 <1>   0.0800 
 19 H        1.1940    -1.8300    -0.2860 H     1 <1>   0.0800 
 20 H        2.6780    -0.8200     1.4150 H     1 <1>   0.0800 
 21 H        2.3760     0.7730     0.7330 H     1 <1>   0.0800 
 22 H       -3.1120    -3.6250     0.6300 H     1 <1>   0.1500 
 23 H       -0.0900    -2.7090     2.3600 H     1 <1>   0.0800 
 24 H        0.0710    -3.6760     0.9080 H     1 <1>   0.0800 
 25 H       -1.2270    -3.9840     2.0350 H     1 <1>   0.0800 
 26 H       -3.8390     0.2240    -1.0160 H     1 <1>   0.1500 
 27 H       -0.8950     1.4380    -1.2780 H     1 <1>   0.0800 
 28 H       -0.9400     1.7880     0.4390 H     1 <1>   0.0800 
 29 H       -2.3620     2.0250    -0.5350 H     1 <1>   0.0800 
 30 H        3.4130     0.0550    -1.3930 H     1 <1>   0.0800 
 31 H        3.7140    -1.5310    -0.7130 H     1 <1>   0.0800 
 32 H        5.0510    -0.4870     1.0080 H     1 <1>   0.4500 
 33 H        4.7680     1.0110     0.3660 H     1 <1>   0.4500 
 34 H       -4.9960    -3.2540    -0.9000 H     1 <1>   0.0800 
 35 H       -5.2930    -1.6750    -1.5780 H     1 <1>   0.0800 
 36 H       -5.7020    -1.9970     0.0920 H     1 <1>   0.0800 
 37 H        5.8750     0.3860    -1.7050 H     1 <1>   0.0800 
 38 H        6.1750    -1.1980    -1.0270 H     1 <1>   0.0800 
 39 H        7.6010    -0.1870     0.7320 H     1 <1>   0.0800 
 40 H        7.2970     1.4170     0.0450 H     1 <1>   0.0800 
 41 H        9.2320     0.4660    -0.7480 H     1 <1>   0.4000 
@<TRIPOS>BOND
  1   1   2  1   
  2   1   3  1   
  3   2   4  ar  
  4   2   5  ar  
  5   3   6  1   
  6   3  18  1   
  7   3  19  1   
  8   4   7  ar  
  9   4   8  1   
 10   5   9  ar  
 11   5  10  1   
 12   6  11  1   
 13   6  20  1   
 14   6  21  1   
 15   7  12  ar  
 16   7  22  1   
 17   8  23  1   
 18   8  24  1   
 19   8  25  1   
 20   9  12  ar  
 21   9  26  1   
 22  10  27  1   
 23  10  28  1   
 24  10  29  1   
 25  11  13  1   
 26  11  30  1   
 27  11  31  1   
 28  12  14  1   
 29  13  15  1   
 30  13  32  1   
 31  13  33  1   
 32  14  34  1   
 33  14  35  1   
 34  14  36  1   
 35  15  16  1   
 36  15  37  1   
 37  15  38  1   
 38  16  17  1   
 39  16  39  1   
 40  16  40  1   
 41  17  41  1   
@<TRIPOS>SUBSTRUCTURE
  1 ****   3 GROUP 4 **** **** 0

# MOE 2024.06 (io_trps.svl 2023.06)
