@<TRIPOS>MOLECULE
NONAME
26 26 1 0 0 
SMALL
USER_CHARGES


@<TRIPOS>ATOM
  1 F       -0.1600    -0.6210     0.1470 F     1 <1>  -0.3400 
  2 C        0.6250    -1.6410    -0.1790 C.3   1 <1>   1.1640 
  3 F        0.1730    -2.6900     0.4950 F     1 <1>  -0.3400 
  4 F        0.3920    -1.8950    -1.4600 F     1 <1>  -0.3400 
  5 C        2.1010    -1.3770     0.0910 C.ar  1 <1>  -0.1440 
  6 C        3.0110    -2.3890    -0.1720 C.ar  1 <1>   0.1600 
  7 C        2.5810    -0.1730     0.5890 C.ar  1 <1>  -0.1500 
  8 N        4.3180    -2.3060     0.0110 N.ar  1 <1>  -0.6200 
  9 C        3.9380    -0.0760     0.7870 C.ar  1 <1>  -0.1500 
 10 C        4.7610    -1.1560     0.4840 C.ar  1 <1>   0.4100 
 11 N        6.1110    -1.1160     0.6590 N.pl3 1 <1>  -0.8690 
 12 C        6.9050    -0.0440     0.0360 C.3   1 <1>   0.2090 
 13 C        8.3860    -0.3700     0.2070 C.3   1 <1>  -0.1600 
 14 C        9.2550     0.7480    -0.3650 C.3   1 <1>   0.1200 
 15 O       10.5790     0.3860    -0.2240 O.3   1 <1>  -0.6800 
 16 H        2.6490    -3.3280    -0.5580 H     1 <1>   0.1500 
 17 H        1.9300     0.6540     0.8190 H     1 <1>   0.1500 
 18 H        4.3750     0.8210     1.1810 H     1 <1>   0.1500 
 19 H        6.4920    -2.0440     0.4530 H     1 <1>   0.4000 
 20 H        6.6770     0.8940     0.5140 H     1 <1>   0.0800 
 21 H        6.6560     0.0280    -1.0110 H     1 <1>   0.0800 
 22 H        8.6050    -1.2870    -0.3120 H     1 <1>   0.0800 
 23 H        8.5970    -0.4880     1.2550 H     1 <1>   0.0800 
 24 H        9.1000     1.6760     0.1590 H     1 <1>   0.0800 
 25 H        9.0630     0.8920    -1.4160 H     1 <1>   0.0800 
 26 H       10.7930     0.2160     0.7140 H     1 <1>   0.4000 
@<TRIPOS>BOND
  1   1   2  1   
  2   2   3  1   
  3   2   4  1   
  4   2   5  1   
  5   5   6  ar  
  6   5   7  ar  
  7   6   8  ar  
  8   6  16  1   
  9   7   9  ar  
 10   7  17  1   
 11   8  10  ar  
 12   9  10  ar  
 13   9  18  1   
 14  10  11  1   
 15  11  12  1   
 16  11  19  1   
 17  12  13  1   
 18  12  20  1   
 19  12  21  1   
 20  13  14  1   
 21  13  22  1   
 22  13  23  1   
 23  14  15  1   
 24  14  24  1   
 25  14  25  1   
 26  15  26  1   
@<TRIPOS>SUBSTRUCTURE
  1 ****  10 GROUP 4 **** **** 0

# MOE 2024.06 (io_trps.svl 2023.06)
