@<TRIPOS>MOLECULE
NONAME
57 59 1 0 0 
SMALL
USER_CHARGES


@<TRIPOS>ATOM
  1 O        1.8910     1.2690    -1.1230 O.3   1 <1>  -0.3630 
  2 C        0.9680     2.1710    -0.6870 C.ar  1 <1>   0.0830 
  3 C        1.6100     0.4250    -2.2220 C.3   1 <1>   0.0400 
  4 C        1.1770     2.7620     0.5580 C.ar  1 <1>  -0.1440 
  5 C       -0.1550     2.5200    -1.4330 C.ar  1 <1>  -0.1500 
  6 C        0.2640     3.6850     1.0430 C.ar  1 <1>  -0.1500 
  7 C        2.4010     2.4010     1.3810 C.3   1 <1>  -0.0160 
  8 C       -1.0570     3.4440    -0.9410 C.ar  1 <1>  -0.1500 
  9 C       -0.8490     4.0260     0.2960 C.ar  1 <1>  -0.1500 
 10 C        3.6350     2.9430     0.6630 C.3   1 <1>   0.3430 
 11 N        4.8900     2.4460     1.3030 N.4   1 <1>  -0.9060 
 12 C        6.1200     2.8110     0.5610 C.3   1 <1>   0.4230 
 13 C        7.2980     2.0150     1.1240 C.3   1 <1>  -0.1600 
 14 C        6.3970     4.3140     0.6730 C.3   1 <1>  -0.1600 
 15 C        8.6060     2.4000     0.4290 C.3   1 <1>   0.3430 
 16 C        7.7130     4.6800    -0.0170 C.3   1 <1>   0.3430 
 17 N        8.8360     3.8730     0.5450 N.4   1 <1>  -0.9590 
 18 C       10.1180     4.2820    -0.1280 C.3   1 <1>   0.3430 
 19 C       11.3580     3.7700     0.6100 C.3   1 <1>  -0.0170 
 20 C       12.5820     4.3280    -0.0870 C.ar  1 <1>  -0.1430 
 21 C       13.1110     5.5490     0.3030 C.ar  1 <1>  -0.1500 
 22 C       13.1760     3.6290    -1.1270 C.ar  1 <1>  -0.1500 
 23 C       14.2160     6.0700    -0.3470 C.ar  1 <1>  -0.1500 
 24 C       14.2810     4.1500    -1.7760 C.ar  1 <1>  -0.1500 
 25 C       14.8010     5.3710    -1.3870 C.ar  1 <1>  -0.1500 
 26 H        2.4100    -0.2870    -2.3160 H     1 <1>   0.0800 
 27 H        1.5460     1.0200    -3.1160 H     1 <1>   0.0800 
 28 H        0.6840    -0.0920    -2.0400 H     1 <1>   0.0800 
 29 H       -0.3460     2.0890    -2.3980 H     1 <1>   0.1500 
 30 H        0.4000     4.1490     2.0050 H     1 <1>   0.1500 
 31 H        2.4490     1.3290     1.4660 H     1 <1>   0.0800 
 32 H        2.3240     2.8240     2.3670 H     1 <1>   0.0800 
 33 H       -1.9250     3.7120    -1.5200 H     1 <1>   0.1500 
 34 H       -1.5570     4.7430     0.6770 H     1 <1>   0.1500 
 35 H        3.6020     4.0210     0.6760 H     1 <1>   0.0800 
 36 H        3.6030     2.6220    -0.3660 H     1 <1>   0.0800 
 37 H        4.8100     1.4200     1.3490 H     1 <1>   0.4500 
 38 H        4.9260     2.7760     2.2760 H     1 <1>   0.4500 
 39 H        5.9940     2.5520    -0.4800 H     1 <1>   0.0800 
 40 H        7.1330     0.9630     0.9660 H     1 <1>   0.0800 
 41 H        7.4030     2.1830     2.1820 H     1 <1>   0.0800 
 42 H        6.4470     4.6180     1.7040 H     1 <1>   0.0800 
 43 H        5.6120     4.8720     0.1950 H     1 <1>   0.0800 
 44 H        8.5620     2.1200    -0.6120 H     1 <1>   0.0800 
 45 H        9.4230     1.8610     0.8840 H     1 <1>   0.0800 
 46 H        7.9120     5.7320     0.1230 H     1 <1>   0.0800 
 47 H        7.6300     4.4990    -1.0780 H     1 <1>   0.0800 
 48 H        8.9450     4.1170     1.5410 H     1 <1>   0.4500 
 49 H       10.1790     5.3580    -0.1630 H     1 <1>   0.0800 
 50 H       10.1380     3.9230    -1.1440 H     1 <1>   0.0800 
 51 H       11.4050     2.6960     0.5920 H     1 <1>   0.0800 
 52 H       11.3520     4.1010     1.6330 H     1 <1>   0.0800 
 53 H       12.6770     6.1090     1.1130 H     1 <1>   0.1500 
 54 H       12.7940     2.6740    -1.4450 H     1 <1>   0.1500 
 55 H       14.6260     7.0180    -0.0420 H     1 <1>   0.1500 
 56 H       14.7420     3.6060    -2.5830 H     1 <1>   0.1500 
 57 H       15.6620     5.7760    -1.8920 H     1 <1>   0.1500 
@<TRIPOS>BOND
  1   1   2  1   
  2   1   3  1   
  3   2   4  ar  
  4   2   5  ar  
  5   3  26  1   
  6   3  27  1   
  7   3  28  1   
  8   4   6  ar  
  9   4   7  1   
 10   5   8  ar  
 11   5  29  1   
 12   6   9  ar  
 13   6  30  1   
 14   7  10  1   
 15   7  31  1   
 16   7  32  1   
 17   8   9  ar  
 18   8  33  1   
 19   9  34  1   
 20  10  11  1   
 21  10  35  1   
 22  10  36  1   
 23  11  12  1   
 24  11  37  1   
 25  11  38  1   
 26  12  13  1   
 27  12  14  1   
 28  12  39  1   
 29  13  15  1   
 30  13  40  1   
 31  13  41  1   
 32  14  16  1   
 33  14  42  1   
 34  14  43  1   
 35  15  17  1   
 36  15  44  1   
 37  15  45  1   
 38  16  17  1   
 39  16  46  1   
 40  16  47  1   
 41  17  18  1   
 42  17  48  1   
 43  18  19  1   
 44  18  49  1   
 45  18  50  1   
 46  19  20  1   
 47  19  51  1   
 48  19  52  1   
 49  20  21  ar  
 50  20  22  ar  
 51  21  23  ar  
 52  21  53  1   
 53  22  24  ar  
 54  22  54  1   
 55  23  25  ar  
 56  23  55  1   
 57  24  25  ar  
 58  24  56  1   
 59  25  57  1   
@<TRIPOS>SUBSTRUCTURE
  1 ****  12 GROUP 4 **** **** 0

# MOE 2024.06 (io_trps.svl 2023.06)
