@<TRIPOS>MOLECULE
NONAME
47 49 1 0 0 
SMALL
USER_CHARGES


@<TRIPOS>ATOM
  1 O       -0.9720     1.0320     0.5280 O.2   1 <1>  -0.5700 
  2 C       -0.4520     2.1250     0.6290 C.2   1 <1>   0.5440 
  3 N       -1.2820     3.1660     0.9070 N.am  1 <1>  -0.5470 
  4 C        0.9740     2.2870     0.4680 C.ar  1 <1>   0.0860 
  5 C       -1.5160     4.3070     0.1270 C.ar  1 <1>   0.1170 
  6 C        1.6520     1.6090    -0.5420 C.ar  1 <1>   0.1600 
  7 C        1.7320     3.1000     1.3030 C.ar  1 <1>  -0.1500 
  8 C       -2.8510     4.5600    -0.2240 C.ar  1 <1>   0.1000 
  9 C       -0.5160     5.1720    -0.2970 C.ar  1 <1>  -0.1500 
 10 N        2.9510     1.6860    -0.7920 N.ar  1 <1>  -0.6200 
 11 C        3.0860     3.1900     1.0650 C.ar  1 <1>  -0.1500 
 12 N       -3.8570     3.6640     0.1840 N.pl3 1 <1>  -0.8380 
 13 C       -3.1460     5.6810    -0.9900 C.ar  1 <1>  -0.1500 
 14 C       -0.8280     6.2840    -1.0590 C.ar  1 <1>  -0.1500 
 15 C        3.6390     2.4750     0.0170 C.ar  1 <1>   0.1600 
 16 C       -4.0430     2.4520    -0.6730 C.3   1 <1>   0.2090 
 17 C       -5.1530     4.2020     0.6980 C.3   1 <1>   0.2090 
 18 C       -2.1430     6.5390    -1.4050 C.ar  1 <1>  -0.1500 
 19 C       -4.8020     1.3520     0.0910 C.3   1 <1>   0.1400 
 20 C       -5.9210     3.1160     1.4720 C.3   1 <1>   0.1400 
 21 N       -6.0950     1.8740     0.6480 N.am  1 <1>  -0.6600 
 22 C       -7.3400     1.3440     0.4160 C.2   1 <1>   0.5690 
 23 O       -8.3390     1.8860     0.8280 O.2   1 <1>  -0.5700 
 24 C       -7.4850     0.0480    -0.3790 C.3   1 <1>  -0.0990 
 25 C       -8.9120    -0.5270    -0.4320 C.3   1 <1>  -0.2400 
 26 H       -2.2000     2.8220     1.2110 H     1 <1>   0.3700 
 27 H        1.0750     0.9630    -1.1830 H     1 <1>   0.1500 
 28 H        1.2670     3.6390     2.1100 H     1 <1>   0.1500 
 29 H        0.5070     4.9930    -0.0360 H     1 <1>   0.1500 
 30 H        3.7120     3.8080     1.6840 H     1 <1>   0.1500 
 31 H       -4.1620     5.8800    -1.2720 H     1 <1>   0.1500 
 32 H       -0.0470     6.9510    -1.3840 H     1 <1>   0.1500 
 33 H        4.6980     2.5520    -0.1630 H     1 <1>   0.1500 
 34 H       -3.0830     2.0730    -0.9820 H     1 <1>   0.0800 
 35 H       -4.5940     2.7200    -1.5570 H     1 <1>   0.0800 
 36 H       -5.7600     4.5410    -0.1240 H     1 <1>   0.0800 
 37 H       -4.9620     5.0380     1.3470 H     1 <1>   0.0800 
 38 H       -2.3860     7.4040    -1.9980 H     1 <1>   0.1500 
 39 H       -4.1840     1.0050     0.9010 H     1 <1>   0.0800 
 40 H       -4.9670     0.5250    -0.5730 H     1 <1>   0.0800 
 41 H       -6.8760     3.5110     1.7730 H     1 <1>   0.0800 
 42 H       -5.3740     2.8700     2.3640 H     1 <1>   0.0800 
 43 H       -6.8410    -0.6910     0.0620 H     1 <1>   0.0800 
 44 H       -7.1530     0.2330    -1.3840 H     1 <1>   0.0800 
 45 H       -9.2660    -0.7280     0.5640 H     1 <1>   0.0800 
 46 H       -8.9280    -1.4400    -0.9980 H     1 <1>   0.0800 
 47 H       -9.5790     0.1800    -0.8940 H     1 <1>   0.0800 
@<TRIPOS>BOND
  1   1   2  2   
  2   2   3  am  
  3   2   4  1   
  4   3   5  1   
  5   3  26  1   
  6   4   6  ar  
  7   4   7  ar  
  8   5   8  ar  
  9   5   9  ar  
 10   6  10  ar  
 11   6  27  1   
 12   7  11  ar  
 13   7  28  1   
 14   8  12  1   
 15   8  13  ar  
 16   9  14  ar  
 17   9  29  1   
 18  10  15  ar  
 19  11  15  ar  
 20  11  30  1   
 21  12  16  1   
 22  12  17  1   
 23  13  18  ar  
 24  13  31  1   
 25  14  18  ar  
 26  14  32  1   
 27  15  33  1   
 28  16  19  1   
 29  16  34  1   
 30  16  35  1   
 31  17  20  1   
 32  17  36  1   
 33  17  37  1   
 34  18  38  1   
 35  19  21  1   
 36  19  39  1   
 37  19  40  1   
 38  20  21  1   
 39  20  41  1   
 40  20  42  1   
 41  21  22  am  
 42  22  23  2   
 43  22  24  1   
 44  24  25  1   
 45  24  43  1   
 46  24  44  1   
 47  25  45  1   
 48  25  46  1   
 49  25  47  1   
@<TRIPOS>SUBSTRUCTURE
  1 ****   3 GROUP 4 **** **** 0

# MOE 2024.06 (io_trps.svl 2023.06)
