@<TRIPOS>MOLECULE
NONAME
52 55 1 0 0 
SMALL
USER_CHARGES


@<TRIPOS>ATOM
  1 O        3.1590    -5.8190    -1.8730 O.co2 1 <1>  -0.9000 
  2 C        2.7140    -4.7550    -1.4360 C.2   1 <1>   0.9060 
  3 O        1.6580    -4.7710    -0.7990 O.co2 1 <1>  -0.9000 
  4 C        3.5930    -3.5270    -1.5090 C.3   1 <1>  -0.1860 
  5 C        4.1240    -2.8900    -0.0190 C.3   1 <1>  -0.0190 
  6 C        2.9520    -2.2860    -2.3760 C.3   1 <1>   0.0580 
  7 C        3.5520    -3.5710     1.2490 C.2   1 <1>   0.5690 
  8 C        3.8530    -1.2480    -0.1010 C.3   1 <1>   0.0580 
  9 C        2.8930    -0.6670    -2.3580 C.2   1 <1>  -0.2880 
 10 C        3.3970    -1.8040    -1.2150 C.3   1 <1>  -0.1600 
 11 O        2.7850    -2.9470     1.9460 O.2   1 <1>  -0.5700 
 12 N        3.9110    -4.8470     1.6370 N.am  1 <1>  -0.6600 
 13 C        3.3640    -0.1180    -1.1630 C.2   1 <1>  -0.2880 
 14 C        4.6500    -5.8530     0.8040 C.3   1 <1>   0.1400 
 15 C        3.1090    -5.5120     2.7070 C.3   1 <1>   0.1400 
 16 C        3.8170    -7.1460     0.5610 C.3   1 <1>   0.3430 
 17 C        1.9550    -6.3030     2.0610 C.3   1 <1>   0.3430 
 18 N        2.3390    -6.9320     0.7530 N.4   1 <1>  -0.9590 
 19 C        1.4610    -8.0610     0.3600 C.3   1 <1>   0.3430 
 20 C        1.4360    -8.2810    -1.1520 C.3   1 <1>  -0.0170 
 21 C        0.5220    -9.4560    -1.4550 C.ar  1 <1>  -0.1440 
 22 C        1.0250   -10.7470    -1.5000 C.ar  1 <1>  -0.1500 
 23 C       -0.8300    -9.2420    -1.6780 C.ar  1 <1>  -0.1500 
 24 C        0.1820   -11.8150    -1.7560 C.ar  1 <1>  -0.1500 
 25 C       -1.6720   -10.3100    -1.9350 C.ar  1 <1>  -0.1500 
 26 C       -1.1670   -11.5980    -1.9720 C.ar  1 <1>  -0.1500 
 27 H        4.4690    -3.8620    -2.0440 H     1 <1>   0.0800 
 28 H        5.1900    -3.0330     0.0420 H     1 <1>   0.0800 
 29 H        1.9100    -2.5580    -2.4850 H     1 <1>   0.0800 
 30 H        3.1960    -1.0210     0.7230 H     1 <1>   0.0800 
 31 H        2.5070    -0.1600    -3.2270 H     1 <1>   0.1500 
 32 H        2.3460    -1.9530    -0.7300 H     1 <1>   0.0800 
 33 H        4.5210    -1.7110    -1.6780 H     1 <1>   0.0800 
 34 H        3.4330     0.9180    -0.8780 H     1 <1>   0.1500 
 35 H        5.5650    -6.1180     1.3030 H     1 <1>   0.0800 
 36 H        4.9290    -5.4320    -0.1430 H     1 <1>   0.0800 
 37 H        2.7110    -4.7950     3.4040 H     1 <1>   0.0800 
 38 H        3.7420    -6.1790     3.2630 H     1 <1>   0.0800 
 39 H        4.1570    -7.9130     1.2340 H     1 <1>   0.0800 
 40 H        4.0050    -7.4820    -0.4460 H     1 <1>   0.0800 
 41 H        1.1380    -5.6210     1.8820 H     1 <1>   0.0800 
 42 H        1.6160    -7.0550     2.7520 H     1 <1>   0.0800 
 43 H        2.1200    -6.1740     0.0460 H     1 <1>   0.4500 
 44 H        0.4530    -7.8500     0.6760 H     1 <1>   0.0800 
 45 H        1.7830    -8.9640     0.8500 H     1 <1>   0.0800 
 46 H        2.4210    -8.4810    -1.5300 H     1 <1>   0.0800 
 47 H        1.0630    -7.3970    -1.6400 H     1 <1>   0.0800 
 48 H        2.0720   -10.9300    -1.3400 H     1 <1>   0.1500 
 49 H       -1.2330    -8.2440    -1.6570 H     1 <1>   0.1500 
 50 H        0.5760   -12.8170    -1.7910 H     1 <1>   0.1500 
 51 H       -2.7200   -10.1390    -2.1080 H     1 <1>   0.1500 
 52 H       -1.8220   -12.4270    -2.1730 H     1 <1>   0.1500 
@<TRIPOS>BOND
  1   1   2  ar  
  2   2   3  ar  
  3   2   4  1   
  4   4   5  1   
  5   4   6  1   
  6   4  27  1   
  7   5   7  1   
  8   5   8  1   
  9   5  28  1   
 10   6   9  1   
 11   6  10  1   
 12   6  29  1   
 13   7  11  2   
 14   7  12  am  
 15   8  10  1   
 16   8  13  1   
 17   8  30  1   
 18   9  13  2   
 19   9  31  1   
 20  10  32  1   
 21  10  33  1   
 22  12  14  1   
 23  12  15  1   
 24  13  34  1   
 25  14  16  1   
 26  14  35  1   
 27  14  36  1   
 28  15  17  1   
 29  15  37  1   
 30  15  38  1   
 31  16  18  1   
 32  16  39  1   
 33  16  40  1   
 34  17  18  1   
 35  17  41  1   
 36  17  42  1   
 37  18  19  1   
 38  18  43  1   
 39  19  20  1   
 40  19  44  1   
 41  19  45  1   
 42  20  21  1   
 43  20  46  1   
 44  20  47  1   
 45  21  22  ar  
 46  21  23  ar  
 47  22  24  ar  
 48  22  48  1   
 49  23  25  ar  
 50  23  49  1   
 51  24  26  ar  
 52  24  50  1   
 53  25  26  ar  
 54  25  51  1   
 55  26  52  1   
@<TRIPOS>SUBSTRUCTURE
  1 ****   3 GROUP 4 **** **** 0

# MOE 2024.06 (io_trps.svl 2023.06)
