@<TRIPOS>MOLECULE
NONAME
52 54 1 0 0 
SMALL
USER_CHARGES


@<TRIPOS>ATOM
  1 O       -3.4400    -5.4880     1.4000 O.3   1 <1>  -0.5600 
  2 C       -3.0120    -5.7030     0.0910 C.3   1 <1>   0.2800 
  3 C       -4.6390    -4.7990     1.5860 C.3   1 <1>   0.1200 
  4 C       -2.9100    -4.3480    -0.6540 C.3   1 <1>  -0.1600 
  5 C       -1.6460    -6.3750     0.2300 C.3   1 <1>  -0.2400 
  6 C       -3.9680    -6.6810    -0.6060 C.3   1 <1>  -0.2400 
  7 C       -4.5750    -3.4200     0.9130 C.3   1 <1>  -0.1600 
  8 C       -3.2180    -3.1170     0.2350 C.3   1 <1>   0.1440 
  9 C       -3.3360    -1.7930    -0.5610 C.ar  1 <1>  -0.1440 
 10 C       -2.1100    -2.9670     1.3200 C.3   1 <1>   0.3430 
 11 C       -3.7860    -0.6430     0.0840 C.ar  1 <1>  -0.1500 
 12 C       -2.9740    -1.6880    -1.9020 C.ar  1 <1>  -0.1500 
 13 N       -1.1260    -1.8590     1.0570 N.4   1 <1>  -0.9060 
 14 C       -3.8550     0.5690    -0.5790 C.ar  1 <1>  -0.1500 
 15 C       -3.0430    -0.4760    -2.5660 C.ar  1 <1>  -0.1500 
 16 C       -0.1370    -2.1230    -0.0190 C.3   1 <1>   0.4860 
 17 C       -3.4800     0.6550    -1.9050 C.ar  1 <1>  -0.1500 
 18 C        0.7010    -3.3520     0.2900 C.ar  1 <1>  -0.1440 
 19 C        1.2380    -3.5770     1.5540 C.ar  1 <1>  -0.1500 
 20 C        0.9490    -4.2670    -0.7260 C.ar  1 <1>  -0.1500 
 21 C        1.9880    -4.7130     1.7990 C.ar  1 <1>  -0.1500 
 22 C        1.7040    -5.4010    -0.4830 C.ar  1 <1>  -0.1500 
 23 C        2.2160    -5.6220     0.7840 C.ar  1 <1>   0.0820 
 24 O        2.9430    -6.7170     1.0430 O.3   1 <1>  -0.5330 
 25 H       -4.7820    -4.6930     2.6480 H     1 <1>   0.0800 
 26 H       -5.4520    -5.3910     1.2000 H     1 <1>   0.0800 
 27 H       -3.6160    -4.3630    -1.4670 H     1 <1>   0.0800 
 28 H       -1.9400    -4.2580    -1.1040 H     1 <1>   0.0800 
 29 H       -0.9670    -5.7630     0.7900 H     1 <1>   0.0800 
 30 H       -1.2200    -6.5690    -0.7370 H     1 <1>   0.0800 
 31 H       -1.7490    -7.3160     0.7410 H     1 <1>   0.0800 
 32 H       -4.9290    -6.2360    -0.7860 H     1 <1>   0.0800 
 33 H       -4.0960    -7.5660    -0.0080 H     1 <1>   0.0800 
 34 H       -3.5630    -6.9750    -1.5580 H     1 <1>   0.0800 
 35 H       -4.8220    -2.6800     1.6500 H     1 <1>   0.0800 
 36 H       -5.3530    -3.3790     0.1700 H     1 <1>   0.0800 
 37 H       -1.5920    -3.9040     1.4430 H     1 <1>   0.0800 
 38 H       -2.6030    -2.7640     2.2560 H     1 <1>   0.0800 
 39 H       -4.0980    -0.6610     1.1140 H     1 <1>   0.1500 
 40 H       -2.6360    -2.5350    -2.4710 H     1 <1>   0.1500 
 41 H       -0.6190    -1.6370     1.9180 H     1 <1>   0.4500 
 42 H       -1.6700    -1.0300     0.7750 H     1 <1>   0.4500 
 43 H       -4.2110     1.4490    -0.0690 H     1 <1>   0.1500 
 44 H       -2.7640    -0.4120    -3.6050 H     1 <1>   0.1500 
 45 H        0.5160    -1.2720    -0.1310 H     1 <1>   0.0800 
 46 H       -0.6510    -2.2690    -0.9550 H     1 <1>   0.0800 
 47 H       -3.5380     1.5970    -2.4250 H     1 <1>   0.1500 
 48 H        1.0930    -2.8850     2.3630 H     1 <1>   0.1500 
 49 H        0.5610    -4.1100    -1.7190 H     1 <1>   0.1500 
 50 H        2.4060    -4.9030     2.7730 H     1 <1>   0.1500 
 51 H        1.8900    -6.1060    -1.2740 H     1 <1>   0.1500 
 52 H        3.0710    -7.2970     0.2700 H     1 <1>   0.4500 
@<TRIPOS>BOND
  1   1   2  1   
  2   1   3  1   
  3   2   4  1   
  4   2   5  1   
  5   2   6  1   
  6   3   7  1   
  7   3  25  1   
  8   3  26  1   
  9   4   8  1   
 10   4  27  1   
 11   4  28  1   
 12   5  29  1   
 13   5  30  1   
 14   5  31  1   
 15   6  32  1   
 16   6  33  1   
 17   6  34  1   
 18   7   8  1   
 19   7  35  1   
 20   7  36  1   
 21   8   9  1   
 22   8  10  1   
 23   9  11  ar  
 24   9  12  ar  
 25  10  13  1   
 26  10  37  1   
 27  10  38  1   
 28  11  14  ar  
 29  11  39  1   
 30  12  15  ar  
 31  12  40  1   
 32  13  16  1   
 33  13  41  1   
 34  13  42  1   
 35  14  17  ar  
 36  14  43  1   
 37  15  17  ar  
 38  15  44  1   
 39  16  18  1   
 40  16  45  1   
 41  16  46  1   
 42  17  47  1   
 43  18  19  ar  
 44  18  20  ar  
 45  19  21  ar  
 46  19  48  1   
 47  20  22  ar  
 48  20  49  1   
 49  21  23  ar  
 50  21  50  1   
 51  22  23  ar  
 52  22  51  1   
 53  23  24  1   
 54  24  52  1   
@<TRIPOS>SUBSTRUCTURE
  1 ****  10 GROUP 4 **** **** 0

# MOE 2024.06 (io_trps.svl 2023.06)
