@<TRIPOS>MOLECULE
NONAME
39 40 1 0 0 
SMALL
USER_CHARGES


@<TRIPOS>ATOM
  1 BR       1.2110     1.1020     2.4910 Br    1 <1>  -0.1110 
  2 C        2.3100     1.7070     1.0240 C.ar  1 <1>   0.1110 
  3 C        2.0260     2.9130     0.3980 C.ar  1 <1>   0.0820 
  4 C        3.3620     0.8960     0.6420 C.ar  1 <1>  -0.1500 
  5 O        0.9610     3.6410     0.8130 O.3   1 <1>  -0.3630 
  6 C        2.8630     3.3230    -0.6490 C.ar  1 <1>   0.0820 
  7 C        4.1750     1.2990    -0.4080 C.ar  1 <1>  -0.1440 
  8 C       -0.2490     3.3880     0.1390 C.3   1 <1>   0.1200 
  9 O        2.7430     4.4880    -1.3390 O.3   1 <1>  -0.3630 
 10 C        3.9110     2.5050    -1.0450 C.ar  1 <1>  -0.1500 
 11 C        5.3430     0.4460    -0.8500 C.3   1 <1>   0.4860 
 12 C       -1.3230     4.2890     0.7420 C.3   1 <1>  -0.2400 
 13 C        2.3140     5.6680    -0.6900 C.3   1 <1>   0.0400 
 14 N        6.5230     0.9410    -0.1170 N.4   1 <1>  -0.9060 
 15 C        7.7760     0.2180    -0.4340 C.3   1 <1>   0.5230 
 16 C        8.9190     0.7900     0.3810 C.2   1 <1>  -0.0400 
 17 O       10.0980     0.2260     0.2220 O.3   1 <1>  -0.2800 
 18 C        8.9990     1.7990     1.2810 C.2   1 <1>  -0.1500 
 19 C       10.9550     0.8510     1.0040 C.2   1 <1>  -0.0100 
 20 C       10.3380     1.8370     1.6880 C.2   1 <1>  -0.1500 
 21 H        3.5190    -0.0310     1.1680 H     1 <1>   0.1500 
 22 H       -0.5050     2.3510     0.2700 H     1 <1>   0.0800 
 23 H       -0.1100     3.6010    -0.9070 H     1 <1>   0.0800 
 24 H        4.5170     2.8440    -1.8690 H     1 <1>   0.1500 
 25 H        5.4860     0.5440    -1.9140 H     1 <1>   0.0800 
 26 H        5.1540    -0.5890    -0.6150 H     1 <1>   0.0800 
 27 H       -1.4410     4.0720     1.7890 H     1 <1>   0.0800 
 28 H       -2.2620     4.1160     0.2480 H     1 <1>   0.0800 
 29 H       -1.0540     5.3230     0.6180 H     1 <1>   0.0800 
 30 H        2.6540     6.5110    -1.2650 H     1 <1>   0.0800 
 31 H        2.7340     5.7040     0.3000 H     1 <1>   0.0800 
 32 H        1.2400     5.6740    -0.6460 H     1 <1>   0.0800 
 33 H        6.3450     0.8770     0.8910 H     1 <1>   0.4500 
 34 H        6.6490     1.9390    -0.3220 H     1 <1>   0.4500 
 35 H        8.0110     0.3150    -1.4820 H     1 <1>   0.0800 
 36 H        7.6730    -0.8290    -0.2020 H     1 <1>   0.0800 
 37 H        8.2470     2.4720     1.6540 H     1 <1>   0.1500 
 38 H       11.9840     0.5310     1.0150 H     1 <1>   0.1500 
 39 H       10.7630     2.5220     2.4020 H     1 <1>   0.1500 
@<TRIPOS>BOND
  1   1   2  1   
  2   2   3  ar  
  3   2   4  ar  
  4   3   5  1   
  5   3   6  ar  
  6   4   7  ar  
  7   4  21  1   
  8   5   8  1   
  9   6   9  1   
 10   6  10  ar  
 11   7  10  ar  
 12   7  11  1   
 13   8  12  1   
 14   8  22  1   
 15   8  23  1   
 16   9  13  1   
 17  10  24  1   
 18  11  14  1   
 19  11  25  1   
 20  11  26  1   
 21  12  27  1   
 22  12  28  1   
 23  12  29  1   
 24  13  30  1   
 25  13  31  1   
 26  13  32  1   
 27  14  15  1   
 28  14  33  1   
 29  14  34  1   
 30  15  16  1   
 31  15  35  1   
 32  15  36  1   
 33  16  17  1   
 34  16  18  2   
 35  17  19  1   
 36  18  20  1   
 37  18  37  1   
 38  19  20  2   
 39  19  38  1   
 40  20  39  1   
@<TRIPOS>SUBSTRUCTURE
  1 ****   7 GROUP 4 **** **** 0

# MOE 2024.06 (io_trps.svl 2023.06)
