@<TRIPOS>MOLECULE
NONAME
49 50 1 0 0 
SMALL
USER_CHARGES


@<TRIPOS>ATOM
  1 O       -0.1970     1.2980     4.1150 O.2   1 <1>  -0.5700 
  2 C        0.3770     0.6850     3.2490 C.2   1 <1>   0.5690 
  3 N        0.0440     0.7260     1.9220 N.am  1 <1>  -0.5470 
  4 C        1.5490    -0.1970     3.6550 C.3   1 <1>   0.0450 
  5 C       -0.9400     1.3890     1.1740 C.ar  1 <1>   0.1170 
  6 C        2.1550    -0.9440     2.4680 C.ar  1 <1>  -0.1430 
  7 C       -1.0280     1.1330    -0.1960 C.ar  1 <1>  -0.1430 
  8 C       -1.8310     2.2950     1.7420 C.ar  1 <1>  -0.1500 
  9 C        3.1850    -0.3710     1.7360 C.ar  1 <1>  -0.1500 
 10 C        1.6510    -2.1790     2.0870 C.ar  1 <1>  -0.1500 
 11 C       -1.9900     1.7760    -0.9590 C.ar  1 <1>  -0.1500 
 12 C       -0.0800     0.1520    -0.8790 C.3   1 <1>  -0.0970 
 13 C       -2.7880     2.9300     0.9730 C.ar  1 <1>  -0.1500 
 14 C        3.7040    -1.0150     0.6250 C.ar  1 <1>   0.0830 
 15 C        2.1740    -2.8370     0.9870 C.ar  1 <1>  -0.1500 
 16 C       -2.8740     2.6730    -0.3840 C.ar  1 <1>  -0.1430 
 17 O        4.6830    -0.3760    -0.0610 O.3   1 <1>  -0.3630 
 18 C        3.2070    -2.2700     0.2590 C.ar  1 <1>   0.0830 
 19 C       -3.9220     3.3700    -1.2320 C.3   1 <1>  -0.0970 
 20 C        4.3950    -0.0080    -1.3930 C.3   1 <1>   0.0400 
 21 O        3.6910    -2.9760    -0.7910 O.3   1 <1>  -0.3630 
 22 C        5.0090    -3.4590    -0.6600 C.3   1 <1>   0.1200 
 23 C        5.3450    -4.2770    -1.9070 C.3   1 <1>  -0.1600 
 24 C        6.7690    -4.8390    -1.8380 C.3   1 <1>  -0.2400 
 25 H        0.6420     0.1280     1.3510 H     1 <1>   0.3700 
 26 H        1.2050    -0.8980     4.3920 H     1 <1>   0.0800 
 27 H        2.2940     0.4230     4.1180 H     1 <1>   0.0800 
 28 H       -1.7850     2.5120     2.7920 H     1 <1>   0.1500 
 29 H        3.5890     0.5870     2.0100 H     1 <1>   0.1500 
 30 H        0.8480    -2.6350     2.6410 H     1 <1>   0.1500 
 31 H       -2.0580     1.5790    -2.0140 H     1 <1>   0.1500 
 32 H        0.9380     0.4770    -0.7620 H     1 <1>   0.0800 
 33 H       -0.2900     0.0800    -1.9310 H     1 <1>   0.0800 
 34 H       -0.1880    -0.8280    -0.4490 H     1 <1>   0.0800 
 35 H       -3.4630     3.6260     1.4380 H     1 <1>   0.1500 
 36 H        1.7880    -3.7960     0.6910 H     1 <1>   0.1500 
 37 H       -3.5050     4.2610    -1.6650 H     1 <1>   0.0800 
 38 H       -4.7740     3.6390    -0.6340 H     1 <1>   0.0800 
 39 H       -4.2560     2.7220    -2.0230 H     1 <1>   0.0800 
 40 H        5.2110     0.5890    -1.7590 H     1 <1>   0.0800 
 41 H        3.4850     0.5650    -1.4060 H     1 <1>   0.0800 
 42 H        4.2920    -0.8910    -1.9960 H     1 <1>   0.0800 
 43 H        5.0580    -4.0700     0.2260 H     1 <1>   0.0800 
 44 H        5.6800    -2.6240    -0.5600 H     1 <1>   0.0800 
 45 H        5.2530    -3.6490    -2.7760 H     1 <1>   0.0800 
 46 H        4.6460    -5.0910    -1.9950 H     1 <1>   0.0800 
 47 H        7.4860    -4.0400    -1.7650 H     1 <1>   0.0800 
 48 H        6.9820    -5.4080    -2.7260 H     1 <1>   0.0800 
 49 H        6.8790    -5.4840    -0.9840 H     1 <1>   0.0800 
@<TRIPOS>BOND
  1   1   2  2   
  2   2   3  am  
  3   2   4  1   
  4   3   5  1   
  5   3  25  1   
  6   4   6  1   
  7   4  26  1   
  8   4  27  1   
  9   5   7  ar  
 10   5   8  ar  
 11   6   9  ar  
 12   6  10  ar  
 13   7  11  ar  
 14   7  12  1   
 15   8  13  ar  
 16   8  28  1   
 17   9  14  ar  
 18   9  29  1   
 19  10  15  ar  
 20  10  30  1   
 21  11  16  ar  
 22  11  31  1   
 23  12  32  1   
 24  12  33  1   
 25  12  34  1   
 26  13  16  ar  
 27  13  35  1   
 28  14  17  1   
 29  14  18  ar  
 30  15  18  ar  
 31  15  36  1   
 32  16  19  1   
 33  17  20  1   
 34  18  21  1   
 35  19  37  1   
 36  19  38  1   
 37  19  39  1   
 38  20  40  1   
 39  20  41  1   
 40  20  42  1   
 41  21  22  1   
 42  22  23  1   
 43  22  43  1   
 44  22  44  1   
 45  23  24  1   
 46  23  45  1   
 47  23  46  1   
 48  24  47  1   
 49  24  48  1   
 50  24  49  1   
@<TRIPOS>SUBSTRUCTURE
  1 ****  12 GROUP 4 **** **** 0

# MOE 2024.06 (io_trps.svl 2023.06)
