@<TRIPOS>MOLECULE
NONAME
26 27 1 0 0 
SMALL
USER_CHARGES


@<TRIPOS>ATOM
  1 O        0.4230    -0.0210     0.5340 O.3   1 <1>  -0.5600 
  2 C        0.4130     1.3220     0.1420 C.3   1 <1>   0.1200 
  3 C        1.3950    -0.7840    -0.1250 C.3   1 <1>   0.1200 
  4 C        1.7640     1.9970     0.4430 C.3   1 <1>   0.2090 
  5 C        2.8060    -0.2410     0.1590 C.3   1 <1>   0.2090 
  6 N        2.9040     1.2230    -0.1470 N.pl3 1 <1>  -0.8220 
  7 C        4.1830     1.8000    -0.2010 C.2   1 <1>   0.2240 
  8 O        5.2210     1.0360     0.0360 O.3   1 <1>  -0.2800 
  9 C        4.6510     3.0490    -0.4660 C.2   1 <1>   0.2460 
 10 C        6.2660     1.8250    -0.0800 C.2   1 <1>   0.5410 
 11 N        6.0120     3.0470    -0.3760 N.2   1 <1>  -0.5650 
 12 C        3.8990     4.2180    -0.8030 C.1   1 <1>   0.5380 
 13 O        7.4780     1.2740     0.1240 O.3   1 <1>  -0.3430 
 14 N        3.2620     5.1350    -1.0480 N.1   1 <1>  -0.5570 
 15 C        8.6220     2.0920     0.0040 C.3   1 <1>   0.0400 
 16 H       -0.3750     1.8160     0.6820 H     1 <1>   0.0800 
 17 H        0.1950     1.3730    -0.9100 H     1 <1>   0.0800 
 18 H        1.1910    -0.7630    -1.1820 H     1 <1>   0.0800 
 19 H        1.3100    -1.7970     0.2240 H     1 <1>   0.0800 
 20 H        1.8930     2.0650     1.5100 H     1 <1>   0.0800 
 21 H        1.7380     2.9930     0.0440 H     1 <1>   0.0800 
 22 H        3.5160    -0.7850    -0.4410 H     1 <1>   0.0800 
 23 H        3.0480    -0.4080     1.1940 H     1 <1>   0.0800 
 24 H        9.4910     1.4890     0.1970 H     1 <1>   0.0800 
 25 H        8.5580     2.8900     0.7240 H     1 <1>   0.0800 
 26 H        8.6630     2.4910    -0.9950 H     1 <1>   0.0800 
@<TRIPOS>BOND
  1   1   2  1   
  2   1   3  1   
  3   2   4  1   
  4   2  16  1   
  5   2  17  1   
  6   3   5  1   
  7   3  18  1   
  8   3  19  1   
  9   4   6  1   
 10   4  20  1   
 11   4  21  1   
 12   5   6  1   
 13   5  22  1   
 14   5  23  1   
 15   6   7  1   
 16   7   8  1   
 17   7   9  2   
 18   8  10  1   
 19   9  11  1   
 20   9  12  1   
 21  10  11  2   
 22  10  13  1   
 23  12  14  3   
 24  13  15  1   
 25  15  24  1   
 26  15  25  1   
 27  15  26  1   
@<TRIPOS>SUBSTRUCTURE
  1 ****   7 GROUP 4 **** **** 0

# MOE 2024.06 (io_trps.svl 2023.06)
