@<TRIPOS>MOLECULE
NONAME
35 37 1 0 0 
SMALL
USER_CHARGES


@<TRIPOS>ATOM
  1 O        0.0310     0.4670    -0.3690 O.2   1 <1>  -0.5700 
  2 C       -0.0110     1.6660    -0.1300 C.2   1 <1>   0.8410 
  3 N        1.1150     2.3710     0.0220 N.2   1 <1>  -0.6610 
  4 N       -1.2120     2.2760    -0.0210 N.am  1 <1>  -0.4200 
  5 C        0.9780     3.6380     0.2760 C.2   1 <1>   0.7110 
  6 C       -1.2500     3.5780     0.2430 C.2   1 <1>   0.5600 
  7 C       -2.5570     1.6940    -0.1400 C.3   1 <1>   0.1400 
  8 N       -0.1950     4.2920     0.3990 N.2   1 <1>  -0.6610 
  9 N        2.1130     4.3930     0.4370 N.pl3 1 <1>  -0.7880 
 10 N       -2.5260     4.0130     0.3220 N.pl3 1 <1>  -0.7880 
 11 C       -3.4780     2.8990     0.1090 C.3   1 <1>   0.2090 
 12 C        2.1100     5.8730     0.6610 C.3   1 <1>   0.2090 
 13 C        3.4950     3.8180     0.4060 C.3   1 <1>   0.2090 
 14 C       -2.9640     5.3780     0.6800 C.3   1 <1>   0.2090 
 15 C        3.1020     6.5690    -0.2870 C.3   1 <1>   0.1200 
 16 C        4.4040     4.6350    -0.5300 C.3   1 <1>   0.1200 
 17 C       -3.5380     6.0600    -0.5570 C.3   1 <1>  -0.2400 
 18 O        4.3780     5.9960    -0.1960 O.3   1 <1>  -0.5600 
 19 H       -2.6990     0.9290     0.6020 H     1 <1>   0.0800 
 20 H       -2.6990     1.2870    -1.1250 H     1 <1>   0.0800 
 21 H       -4.0850     2.7470     0.9840 H     1 <1>   0.0800 
 22 H       -4.1020     3.0900    -0.7470 H     1 <1>   0.0800 
 23 H        2.3930     6.0740     1.6790 H     1 <1>   0.0800 
 24 H        1.1350     6.2950     0.5020 H     1 <1>   0.0800 
 25 H        3.4910     2.7950     0.0730 H     1 <1>   0.0800 
 26 H        3.9050     3.8360     1.4000 H     1 <1>   0.0800 
 27 H       -2.1220     5.9420     1.0460 H     1 <1>   0.0800 
 28 H       -3.7030     5.3270     1.4610 H     1 <1>   0.0800 
 29 H        3.1900     7.6090    -0.0310 H     1 <1>   0.0800 
 30 H        2.7610     6.4910    -1.3050 H     1 <1>   0.0800 
 31 H        4.0830     4.5230    -1.5510 H     1 <1>   0.0800 
 32 H        5.4200     4.2950    -0.4470 H     1 <1>   0.0800 
 33 H       -2.7950     6.0880    -1.3350 H     1 <1>   0.0800 
 34 H       -3.8180     7.0690    -0.3150 H     1 <1>   0.0800 
 35 H       -4.4080     5.5380    -0.9090 H     1 <1>   0.0800 
@<TRIPOS>BOND
  1   1   2  2   
  2   2   3  1   
  3   2   4  am  
  4   3   5  2   
  5   4   6  1   
  6   4   7  1   
  7   5   8  1   
  8   5   9  1   
  9   6   8  2   
 10   6  10  1   
 11   7  11  1   
 12   7  19  1   
 13   7  20  1   
 14   9  12  1   
 15   9  13  1   
 16  10  11  1   
 17  10  14  1   
 18  11  21  1   
 19  11  22  1   
 20  12  15  1   
 21  12  23  1   
 22  12  24  1   
 23  13  16  1   
 24  13  25  1   
 25  13  26  1   
 26  14  17  1   
 27  14  27  1   
 28  14  28  1   
 29  15  18  1   
 30  15  29  1   
 31  15  30  1   
 32  16  18  1   
 33  16  31  1   
 34  16  32  1   
 35  17  33  1   
 36  17  34  1   
 37  17  35  1   
@<TRIPOS>SUBSTRUCTURE
  1 ****   8 GROUP 4 **** **** 0

# MOE 2024.06 (io_trps.svl 2023.06)
