@<TRIPOS>MOLECULE
NONAME
41 42 1 0 0 
SMALL
USER_CHARGES


@<TRIPOS>ATOM
  1 O        0.9640    -1.7880    -0.5540 O.2   1 <1>  -0.5700 
  2 C       -0.0610    -1.9580     0.0770 C.2   1 <1>   0.5440 
  3 N        0.0520    -2.1160     1.4330 N.am  1 <1>  -0.7300 
  4 C       -1.3490    -2.0080    -0.5920 C.ar  1 <1>   0.0860 
  5 C        1.2410    -1.7550     2.2700 C.3   1 <1>   0.1400 
  6 C       -2.4740    -2.6220    -0.0540 C.ar  1 <1>  -0.1500 
  7 C       -1.5450    -1.4370    -1.8420 C.ar  1 <1>  -0.1500 
  8 C        2.3280    -2.8520     2.2760 C.3   1 <1>   0.3430 
  9 C       -3.6690    -2.6270    -0.7490 C.ar  1 <1>   0.1600 
 10 C       -2.7810    -1.4950    -2.4570 C.ar  1 <1>   0.1600 
 11 N        2.8830    -3.0720     0.9100 N.4   1 <1>  -0.9590 
 12 N       -3.8470    -2.0760    -1.9360 N.ar  1 <1>  -0.6200 
 13 C        3.3200    -4.4880     0.6630 C.3   1 <1>   0.3430 
 14 C        3.9460    -2.0720     0.5420 C.3   1 <1>   0.3430 
 15 C        3.8310    -4.6970    -0.7800 C.3   1 <1>   0.1400 
 16 C        4.4230    -2.2700    -0.9060 C.3   1 <1>   0.1400 
 17 N        4.8730    -3.6810    -1.1160 N.am  1 <1>  -0.6600 
 18 C        6.1720    -3.9560    -1.4560 C.2   1 <1>   0.5690 
 19 O        7.0150    -3.0950    -1.4600 O.2   1 <1>  -0.5700 
 20 C        6.6000    -5.3590    -1.8170 C.3   1 <1>  -0.1790 
 21 H       -0.8260    -2.1640     1.9600 H     1 <1>   0.3700 
 22 H        0.9100    -1.5900     3.2810 H     1 <1>   0.0800 
 23 H        1.6600    -0.8290     1.9140 H     1 <1>   0.0800 
 24 H       -2.4330    -3.1080     0.9030 H     1 <1>   0.1500 
 25 H       -0.7300    -0.9420    -2.3410 H     1 <1>   0.1500 
 26 H        1.8830    -3.7620     2.6420 H     1 <1>   0.0800 
 27 H        3.1210    -2.5760     2.9520 H     1 <1>   0.0800 
 28 H       -4.5270    -3.1090    -0.3100 H     1 <1>   0.1500 
 29 H       -2.9020    -1.0410    -3.4270 H     1 <1>   0.1500 
 30 H        2.0960    -2.8620     0.2580 H     1 <1>   0.4500 
 31 H        2.4980    -5.1600     0.8430 H     1 <1>   0.0800 
 32 H        4.1140    -4.7440     1.3450 H     1 <1>   0.0800 
 33 H        4.7940    -2.1740     1.1990 H     1 <1>   0.0800 
 34 H        3.5580    -1.0720     0.6430 H     1 <1>   0.0800 
 35 H        3.0100    -4.6020    -1.4700 H     1 <1>   0.0800 
 36 H        4.2210    -5.6940    -0.8710 H     1 <1>   0.0800 
 37 H        5.2210    -1.5770    -1.1120 H     1 <1>   0.0800 
 38 H        3.6180    -2.0460    -1.5860 H     1 <1>   0.0800 
 39 H        5.9370    -5.7700    -2.5550 H     1 <1>   0.0800 
 40 H        6.6080    -5.9790    -0.9410 H     1 <1>   0.0800 
 41 H        7.5930    -5.3360    -2.2290 H     1 <1>   0.0800 
@<TRIPOS>BOND
  1   1   2  2   
  2   2   3  am  
  3   2   4  1   
  4   3   5  1   
  5   3  21  1   
  6   4   6  ar  
  7   4   7  ar  
  8   5   8  1   
  9   5  22  1   
 10   5  23  1   
 11   6   9  ar  
 12   6  24  1   
 13   7  10  ar  
 14   7  25  1   
 15   8  11  1   
 16   8  26  1   
 17   8  27  1   
 18   9  12  ar  
 19   9  28  1   
 20  10  12  ar  
 21  10  29  1   
 22  11  13  1   
 23  11  14  1   
 24  11  30  1   
 25  13  15  1   
 26  13  31  1   
 27  13  32  1   
 28  14  16  1   
 29  14  33  1   
 30  14  34  1   
 31  15  17  1   
 32  15  35  1   
 33  15  36  1   
 34  16  17  1   
 35  16  37  1   
 36  16  38  1   
 37  17  18  am  
 38  18  19  2   
 39  18  20  1   
 40  20  39  1   
 41  20  40  1   
 42  20  41  1   
@<TRIPOS>SUBSTRUCTURE
  1 ****   1 GROUP 4 **** **** 0

# MOE 2024.06 (io_trps.svl 2023.06)
