@<TRIPOS>MOLECULE
NONAME
27 29 1 0 0 
SMALL
USER_CHARGES


@<TRIPOS>ATOM
  1 O        0.1760    -1.2830     1.9040 O.2   1 <1>  -0.5700 
  2 C        0.2100    -2.0990     0.9910 C.2   1 <1>   0.8670 
  3 N       -1.0010    -2.5110     0.4700 N.2   1 <1>  -0.6610 
  4 C        1.4400    -2.6280     0.4600 C.2   1 <1>   0.1410 
  5 C       -0.9990    -3.3680    -0.4890 C.2   1 <1>   0.4400 
  6 N        2.7640    -2.4100     0.7680 N.2   1 <1>  -0.5650 
  7 C        1.3590    -3.5300    -0.5550 C.2   1 <1>  -0.0680 
  8 N        0.1270    -3.9120    -1.0430 N.pl3 1 <1>  -0.5340 
  9 C        3.4140    -3.1710    -0.0520 C.2   1 <1>   0.2700 
 10 N        2.6140    -3.8810    -0.8870 N.pl3 1 <1>   0.0330 
 11 N        4.7900    -3.2760    -0.1010 N.pl3 1 <1>  -0.8220 
 12 C        5.4720    -1.9960    -0.4650 C.3   1 <1>   0.2090 
 13 C        5.3920    -3.8120     1.1570 C.3   1 <1>   0.2090 
 14 C        6.9990    -2.1830    -0.5320 C.3   1 <1>   0.1200 
 15 C        6.9220    -3.9330     1.0300 C.3   1 <1>   0.1200 
 16 O        7.4970    -2.7070     0.6680 O.3   1 <1>  -0.5600 
 17 H       -1.9390    -3.6940    -0.9000 H     1 <1>   0.0600 
 18 H        0.0350    -4.5890    -1.8060 H     1 <1>   0.4000 
 19 H        2.9580    -4.5290    -1.5950 H     1 <1>   0.2700 
 20 H        5.2380    -1.2410     0.2670 H     1 <1>   0.0800 
 21 H        5.1090    -1.6580    -1.4190 H     1 <1>   0.0800 
 22 H        4.9720    -4.7800     1.3690 H     1 <1>   0.0800 
 23 H        5.1540    -3.1590     1.9800 H     1 <1>   0.0800 
 24 H        7.4800    -1.2370    -0.7010 H     1 <1>   0.0800 
 25 H        7.2580    -2.8530    -1.3330 H     1 <1>   0.0800 
 26 H        7.1790    -4.6650     0.2860 H     1 <1>   0.0800 
 27 H        7.3490    -4.2290     1.9710 H     1 <1>   0.0800 
@<TRIPOS>BOND
  1   1   2  2   
  2   2   3  1   
  3   2   4  1   
  4   3   5  2   
  5   4   6  1   
  6   4   7  2   
  7   5   8  1   
  8   5  17  1   
  9   6   9  2   
 10   7   8  1   
 11   7  10  1   
 12   8  18  1   
 13   9  10  1   
 14   9  11  1   
 15  10  19  1   
 16  11  12  1   
 17  11  13  1   
 18  12  14  1   
 19  12  20  1   
 20  12  21  1   
 21  13  15  1   
 22  13  22  1   
 23  13  23  1   
 24  14  16  1   
 25  14  24  1   
 26  14  25  1   
 27  15  16  1   
 28  15  26  1   
 29  15  27  1   
@<TRIPOS>SUBSTRUCTURE
  1 ****   9 GROUP 4 **** **** 0

# MOE 2024.06 (io_trps.svl 2023.06)
