@<TRIPOS>MOLECULE
Structure916
16 17 1 0 0 
SMALL
USER_CHARGES


@<TRIPOS>ATOM
  1 CL      -0.1450    -0.0020     0.2390 Cl    1 <1>  -0.1770 
  2 C       -1.6310     0.8910     0.1340 C.ar  1 <1>   0.7970 
  3 N       -2.7330     0.1530     0.0660 N.ar  1 <1>  -0.6200 
  4 N       -1.5020     2.2140     0.1350 N.ar  1 <1>  -0.6200 
  5 C       -3.8290     0.8710    -0.0120 C.ar  1 <1>   0.1660 
  6 C       -2.6340     2.8830     0.0540 C.ar  1 <1>   0.1600 
  7 C       -3.8380     2.2280    -0.0220 C.ar  1 <1>  -0.1440 
  8 C       -5.2460     0.3580    -0.0980 C.3   1 <1>   0.2540 
  9 C       -5.2510     2.7390    -0.1260 C.3   1 <1>   0.2540 
 10 N       -6.0880     1.5540     0.1360 N.3   1 <1>  -0.9000 
 11 H       -2.5930     3.9600     0.0480 H     1 <1>   0.1500 
 12 H       -5.4340    -0.3970     0.6450 H     1 <1>   0.0800 
 13 H       -5.4290    -0.0410    -1.0810 H     1 <1>   0.0800 
 14 H       -5.4400     3.1050    -1.1210 H     1 <1>   0.0800 
 15 H       -5.4540     3.5150     0.5930 H     1 <1>   0.0800 
 16 H       -6.2980     1.5620     1.1420 H     1 <1>   0.3600 
@<TRIPOS>BOND
  1   1   2  1   
  2   2   3  ar  
  3   2   4  ar  
  4   3   5  ar  
  5   4   6  ar  
  6   5   7  ar  
  7   5   8  1   
  8   6   7  ar  
  9   6  11  1   
 10   7   9  1   
 11   8  10  1   
 12   8  12  1   
 13   8  13  1   
 14   9  10  1   
 15   9  14  1   
 16   9  15  1   
 17  10  16  1   
@<TRIPOS>SUBSTRUCTURE
  1 ****   5 GROUP 4 **** **** 0

# MOE 2024.06 (io_trps.svl 2023.06)
