@<TRIPOS>MOLECULE
NONAME
42 43 1 0 0 
SMALL
USER_CHARGES


@<TRIPOS>ATOM
  1 O       -1.4060     0.1830    -2.0520 O.2   1 <1>  -0.5700 
  2 C       -1.6420    -0.1920    -0.9220 C.2   1 <1>   0.6340 
  3 O       -1.8550     0.7170     0.0330 O.3   1 <1>  -0.4300 
  4 C       -1.7090    -1.5870    -0.5600 C.ar  1 <1>   0.0860 
  5 C       -1.8230     2.1050    -0.2350 C.3   1 <1>   0.0400 
  6 C       -0.9930    -2.1520     0.5100 C.ar  1 <1>   0.0830 
  7 C       -2.5440    -2.4330    -1.2940 C.ar  1 <1>  -0.1500 
  8 O       -0.0800    -1.4840     1.2500 O.3   1 <1>  -0.3620 
  9 C       -1.1860    -3.4810     0.8580 C.ar  1 <1>  -0.1500 
 10 C       -2.7100    -3.7630    -0.9590 C.ar  1 <1>  -0.1500 
 11 C        0.9050    -0.6550     0.6390 C.3   1 <1>   0.1810 
 12 C       -2.0360    -4.2880     0.1290 C.ar  1 <1>  -0.1500 
 13 C        2.2790    -0.8660     1.2700 C.2   1 <1>   0.5690 
 14 O        2.7860     0.0440     1.8770 O.2   1 <1>  -0.5700 
 15 N        2.9580    -2.0330     1.1380 N.am  1 <1>  -0.7300 
 16 C        2.5360    -3.2750     0.4720 C.3   1 <1>   0.2200 
 17 C        2.4610    -4.3950     1.5140 C.3   1 <1>  -0.1600 
 18 C        3.5360    -3.6160    -0.6350 C.3   1 <1>  -0.1600 
 19 C        2.0940    -5.7320     0.8540 C.3   1 <1>  -0.1600 
 20 C        3.1790    -4.9530    -1.3030 C.3   1 <1>  -0.1600 
 21 C        3.0810    -6.0830    -0.2690 C.3   1 <1>  -0.1600 
 22 H       -2.0170     2.6330     0.6820 H     1 <1>   0.0800 
 23 H       -2.5810     2.3360    -0.9640 H     1 <1>   0.0800 
 24 H       -0.8510     2.3650    -0.6140 H     1 <1>   0.0800 
 25 H       -3.0790    -2.0290    -2.1380 H     1 <1>   0.1500 
 26 H       -0.6570    -3.8820     1.7040 H     1 <1>   0.1500 
 27 H       -3.3660    -4.3900    -1.5390 H     1 <1>   0.1500 
 28 H        0.6070     0.3680     0.7720 H     1 <1>   0.0800 
 29 H        0.9640    -0.8810    -0.4100 H     1 <1>   0.0800 
 30 H       -2.1730    -5.3210     0.4030 H     1 <1>   0.1500 
 31 H        3.8650    -2.0700     1.6050 H     1 <1>   0.3700 
 32 H        1.5640    -3.1480     0.0280 H     1 <1>   0.0800 
 33 H        1.7230    -4.1450     2.2550 H     1 <1>   0.0800 
 34 H        3.4130    -4.4950     2.0040 H     1 <1>   0.0800 
 35 H        4.5260    -3.6850    -0.2190 H     1 <1>   0.0800 
 36 H        3.5310    -2.8360    -1.3760 H     1 <1>   0.0800 
 37 H        1.0990    -5.6690     0.4460 H     1 <1>   0.0800 
 38 H        2.0980    -6.5130     1.5950 H     1 <1>   0.0800 
 39 H        3.9270    -5.2000    -2.0380 H     1 <1>   0.0800 
 40 H        2.2360    -4.8560    -1.8140 H     1 <1>   0.0800 
 41 H        2.7650    -6.9900    -0.7550 H     1 <1>   0.0800 
 42 H        4.0540    -6.2610     0.1570 H     1 <1>   0.0800 
@<TRIPOS>BOND
  1   1   2  2   
  2   2   3  1   
  3   2   4  1   
  4   3   5  1   
  5   4   6  ar  
  6   4   7  ar  
  7   5  22  1   
  8   5  23  1   
  9   5  24  1   
 10   6   8  1   
 11   6   9  ar  
 12   7  10  ar  
 13   7  25  1   
 14   8  11  1   
 15   9  12  ar  
 16   9  26  1   
 17  10  12  ar  
 18  10  27  1   
 19  11  13  1   
 20  11  28  1   
 21  11  29  1   
 22  12  30  1   
 23  13  14  2   
 24  13  15  am  
 25  15  16  1   
 26  15  31  1   
 27  16  17  1   
 28  16  18  1   
 29  16  32  1   
 30  17  19  1   
 31  17  33  1   
 32  17  34  1   
 33  18  20  1   
 34  18  35  1   
 35  18  36  1   
 36  19  21  1   
 37  19  37  1   
 38  19  38  1   
 39  20  21  1   
 40  20  39  1   
 41  20  40  1   
 42  21  41  1   
 43  21  42  1   
@<TRIPOS>SUBSTRUCTURE
  1 ****   6 GROUP 4 **** **** 0

# MOE 2024.06 (io_trps.svl 2023.06)
