@<TRIPOS>MOLECULE
NONAME
30 30 1 0 0 
SMALL
USER_CHARGES


@<TRIPOS>ATOM
  1 CL       0.3750    -0.6140    -0.0330 Cl    1 <1>  -0.1770 
  2 C       -1.2520    -1.2200    -0.2450 C.ar  1 <1>   0.1770 
  3 C       -2.2260    -0.4500    -0.8590 C.ar  1 <1>   0.1900 
  4 C       -1.5620    -2.4880     0.2110 C.ar  1 <1>  -0.1500 
  5 F       -1.9360     0.7510    -1.2920 F     1 <1>  -0.1900 
  6 C       -3.5130    -0.9240    -1.0260 C.ar  1 <1>  -0.1500 
  7 C       -2.8500    -2.9920     0.0530 C.ar  1 <1>   0.1170 
  8 C       -3.8160    -2.1950    -0.5650 C.ar  1 <1>  -0.1500 
  9 N       -3.1350    -4.2760     0.5370 N.am  1 <1>  -0.5470 
 10 C       -4.0480    -5.1940     0.1100 C.2   1 <1>   0.6900 
 11 O       -4.6930    -5.0210    -0.9050 O.2   1 <1>  -0.5700 
 12 N       -4.1950    -6.3140     0.8650 N.am  1 <1>  -0.7300 
 13 C       -5.0790    -7.4710     0.6100 C.3   1 <1>   0.2200 
 14 C       -4.7330    -8.1260    -0.7370 C.3   1 <1>  -0.1600 
 15 C       -6.5390    -7.0290     0.7190 C.3   1 <1>  -0.2400 
 16 C       -5.3950    -9.4980    -0.9280 C.3   1 <1>  -0.2400 
 17 H       -0.7970    -3.0770     0.6820 H     1 <1>   0.1500 
 18 H       -4.2580    -0.3140    -1.5050 H     1 <1>   0.1500 
 19 H       -4.8170    -2.5720    -0.6870 H     1 <1>   0.1500 
 20 H       -2.4820    -4.6440     1.2200 H     1 <1>   0.3700 
 21 H       -3.7950    -6.3070     1.7990 H     1 <1>   0.3700 
 22 H       -4.8910    -8.1950     1.3860 H     1 <1>   0.0800 
 23 H       -3.6660    -8.2540    -0.7960 H     1 <1>   0.0800 
 24 H       -5.0340    -7.4810    -1.5450 H     1 <1>   0.0800 
 25 H       -6.7950    -6.3670    -0.0890 H     1 <1>   0.0800 
 26 H       -6.7070    -6.5260     1.6530 H     1 <1>   0.0800 
 27 H       -7.1910    -7.8810     0.6740 H     1 <1>   0.0800 
 28 H       -5.1280   -10.1630    -0.1260 H     1 <1>   0.0800 
 29 H       -5.0660    -9.9340    -1.8550 H     1 <1>   0.0800 
 30 H       -6.4660    -9.4050    -0.9650 H     1 <1>   0.0800 
@<TRIPOS>BOND
  1   1   2  1   
  2   2   3  ar  
  3   2   4  ar  
  4   3   5  1   
  5   3   6  ar  
  6   4   7  ar  
  7   4  17  1   
  8   6   8  ar  
  9   6  18  1   
 10   7   8  ar  
 11   7   9  1   
 12   8  19  1   
 13   9  10  am  
 14   9  20  1   
 15  10  11  2   
 16  10  12  am  
 17  12  13  1   
 18  12  21  1   
 19  13  14  1   
 20  13  15  1   
 21  13  22  1   
 22  14  16  1   
 23  14  23  1   
 24  14  24  1   
 25  15  25  1   
 26  15  26  1   
 27  15  27  1   
 28  16  28  1   
 29  16  29  1   
 30  16  30  1   
@<TRIPOS>SUBSTRUCTURE
  1 ****   9 GROUP 4 **** **** 0

# MOE 2024.06 (io_trps.svl 2023.06)
