@<TRIPOS>MOLECULE
NONAME
43 44 1 0 0 
SMALL
USER_CHARGES


@<TRIPOS>ATOM
  1 BR       1.6440     1.0100     3.0890 Br    1 <1>  -0.1110 
  2 C        2.5770    -0.3350     2.0790 C.ar  1 <1>   0.1110 
  3 C        2.2510    -0.5190     0.7510 C.ar  1 <1>  -0.1500 
  4 C        3.5510    -1.0850     2.7060 C.ar  1 <1>  -0.1500 
  5 C        2.9280    -1.4910     0.0330 C.ar  1 <1>  -0.1500 
  6 C        4.2160    -2.0510     1.9700 C.ar  1 <1>  -0.1500 
  7 C        3.9170    -2.2750     0.6260 C.ar  1 <1>  -0.0090 
  8 S        4.7960    -3.5430    -0.3320 S.o2  1 <1>   1.4470 
  9 O        6.1610    -3.1080    -0.5280 O.2   1 <1>  -0.6500 
 10 O        4.0270    -3.8830    -1.5100 O.2   1 <1>  -0.6500 
 11 N        4.8300    -4.8820     0.7140 N.am  1 <1>  -0.8490 
 12 C        3.7280    -5.8470     0.7600 C.3   1 <1>   0.2760 
 13 C        6.1730    -5.4590     0.9710 C.3   1 <1>   0.2570 
 14 C        3.7300    -6.8190    -0.4330 C.3   1 <1>  -0.1600 
 15 C        2.3600    -5.1720     0.9380 C.3   1 <1>  -0.1600 
 16 C        7.0170    -4.6840     2.0040 C.2   1 <1>   0.5690 
 17 C        2.6130    -7.8640    -0.2860 C.3   1 <1>  -0.1600 
 18 C        1.2500    -6.2220     1.0890 C.3   1 <1>  -0.1600 
 19 O        6.5980    -4.5900     3.1320 O.2   1 <1>  -0.5700 
 20 N        8.2240    -4.1260     1.7210 N.am  1 <1>  -0.7300 
 21 C        1.2450    -7.1940    -0.1000 C.3   1 <1>  -0.1600 
 22 C        8.9230    -3.9530     0.4210 C.3   1 <1>   0.0600 
 23 H        1.4880     0.0840     0.2910 H     1 <1>   0.1500 
 24 H        3.7850    -0.9190     3.7430 H     1 <1>   0.1500 
 25 H        2.6860    -1.6460    -1.0060 H     1 <1>   0.1500 
 26 H        4.9790    -2.6440     2.4480 H     1 <1>   0.1500 
 27 H        3.8750    -6.4430     1.6460 H     1 <1>   0.0800 
 28 H        6.7020    -5.5560     0.0430 H     1 <1>   0.0800 
 29 H        6.0630    -6.4500     1.3700 H     1 <1>   0.0800 
 30 H        4.6740    -7.3270    -0.4980 H     1 <1>   0.0800 
 31 H        3.5700    -6.2860    -1.3520 H     1 <1>   0.0800 
 32 H        2.1250    -4.5650     0.0830 H     1 <1>   0.0800 
 33 H        2.3770    -4.5490     1.8140 H     1 <1>   0.0800 
 34 H        2.8200    -8.4940     0.5630 H     1 <1>   0.0800 
 35 H        2.5900    -8.4900    -1.1610 H     1 <1>   0.0800 
 36 H        0.2950    -5.7290     1.1550 H     1 <1>   0.0800 
 37 H        1.3980    -6.7740     2.0020 H     1 <1>   0.0800 
 38 H        8.6500    -3.6340     2.5110 H     1 <1>   0.3700 
 39 H        0.4920    -7.9480     0.0550 H     1 <1>   0.0800 
 40 H        0.9900    -6.6550    -0.9970 H     1 <1>   0.0800 
 41 H        8.4780    -4.5560    -0.3500 H     1 <1>   0.0800 
 42 H        9.9570    -4.2310     0.5240 H     1 <1>   0.0800 
 43 H        8.8650    -2.9210     0.1190 H     1 <1>   0.0800 
@<TRIPOS>BOND
  1   1   2  1   
  2   2   3  ar  
  3   2   4  ar  
  4   3   5  ar  
  5   3  23  1   
  6   4   6  ar  
  7   4  24  1   
  8   5   7  ar  
  9   5  25  1   
 10   6   7  ar  
 11   6  26  1   
 12   7   8  1   
 13   8   9  2   
 14   8  10  2   
 15   8  11  am  
 16  11  12  1   
 17  11  13  1   
 18  12  14  1   
 19  12  15  1   
 20  12  27  1   
 21  13  16  1   
 22  13  28  1   
 23  13  29  1   
 24  14  17  1   
 25  14  30  1   
 26  14  31  1   
 27  15  18  1   
 28  15  32  1   
 29  15  33  1   
 30  16  19  2   
 31  16  20  am  
 32  17  21  1   
 33  17  34  1   
 34  17  35  1   
 35  18  21  1   
 36  18  36  1   
 37  18  37  1   
 38  20  22  1   
 39  20  38  1   
 40  21  39  1   
 41  21  40  1   
 42  22  41  1   
 43  22  42  1   
 44  22  43  1   
@<TRIPOS>SUBSTRUCTURE
  1 ****  11 GROUP 4 **** **** 0

# MOE 2024.06 (io_trps.svl 2023.06)
