@<TRIPOS>MOLECULE
NONAME
33 34 1 0 0 
SMALL
USER_CHARGES


@<TRIPOS>ATOM
  1 O       -0.5920     0.2790    -1.1320 O.2   1 <1>  -0.5700 
  2 C       -1.5350     0.8690    -0.6380 C.2   1 <1>   0.5440 
  3 N       -1.4350     2.2300    -0.4510 N.am  1 <1>  -0.6600 
  4 C       -2.7190     0.1280    -0.2450 C.ar  1 <1>   0.0860 
  5 C       -0.2300     2.9920    -0.8440 C.3   1 <1>   0.1400 
  6 C       -2.2990     3.0320     0.4440 C.3   1 <1>   0.1400 
  7 C       -4.0010     0.5510    -0.5900 C.ar  1 <1>  -0.1500 
  8 C       -2.6090    -1.0490     0.4960 C.ar  1 <1>  -0.1500 
  9 C       -0.4640     4.4020    -0.3130 C.3   1 <1>  -0.1600 
 10 C       -1.4350     4.2200     0.8510 C.3   1 <1>  -0.1600 
 11 C       -5.1300    -0.1450    -0.1960 C.ar  1 <1>   0.0830 
 12 C       -3.7280    -1.7590     0.8930 C.ar  1 <1>  -0.1500 
 13 O       -6.3250     0.3700    -0.5770 O.3   1 <1>  -0.3630 
 14 C       -4.9910    -1.3100     0.5520 C.ar  1 <1>  -0.1500 
 15 C       -7.5350    -0.2830    -0.2740 C.3   1 <1>   0.1200 
 16 C       -8.6750     0.5420    -0.8640 C.3   1 <1>  -0.2400 
 17 H       -0.1070     2.9810    -1.9140 H     1 <1>   0.0800 
 18 H        0.6340     2.5480    -0.3790 H     1 <1>   0.0800 
 19 H       -2.6140     2.4610     1.3010 H     1 <1>   0.0800 
 20 H       -3.1590     3.3710    -0.1070 H     1 <1>   0.0800 
 21 H       -4.1220     1.4390    -1.1820 H     1 <1>   0.1500 
 22 H       -1.6260    -1.4030     0.7570 H     1 <1>   0.1500 
 23 H       -0.9240     4.9930    -1.0850 H     1 <1>   0.0800 
 24 H        0.4550     4.8720    -0.0120 H     1 <1>   0.0800 
 25 H       -0.8910     3.9660     1.7440 H     1 <1>   0.0800 
 26 H       -2.0250     5.0990     1.0370 H     1 <1>   0.0800 
 27 H       -3.6130    -2.6630     1.4660 H     1 <1>   0.1500 
 28 H       -5.8450    -1.8760     0.8740 H     1 <1>   0.1500 
 29 H       -7.6290    -0.3500     0.7960 H     1 <1>   0.0800 
 30 H       -7.5120    -1.2660    -0.7120 H     1 <1>   0.0800 
 31 H       -8.6800     1.5270    -0.4330 H     1 <1>   0.0800 
 32 H       -9.6160     0.0690    -0.6490 H     1 <1>   0.0800 
 33 H       -8.5630     0.6170    -1.9310 H     1 <1>   0.0800 
@<TRIPOS>BOND
  1   1   2  2   
  2   2   3  am  
  3   2   4  1   
  4   3   5  1   
  5   3   6  1   
  6   4   7  ar  
  7   4   8  ar  
  8   5   9  1   
  9   5  17  1   
 10   5  18  1   
 11   6  10  1   
 12   6  19  1   
 13   6  20  1   
 14   7  11  ar  
 15   7  21  1   
 16   8  12  ar  
 17   8  22  1   
 18   9  10  1   
 19   9  23  1   
 20   9  24  1   
 21  10  25  1   
 22  10  26  1   
 23  11  13  1   
 24  11  14  ar  
 25  12  14  ar  
 26  12  27  1   
 27  13  15  1   
 28  14  28  1   
 29  15  16  1   
 30  15  29  1   
 31  15  30  1   
 32  16  31  1   
 33  16  32  1   
 34  16  33  1   
@<TRIPOS>SUBSTRUCTURE
  1 ****   7 GROUP 4 **** **** 0

# MOE 2024.06 (io_trps.svl 2023.06)
