@<TRIPOS>MOLECULE
NONAME
45 48 1 0 0 
SMALL
USER_CHARGES


@<TRIPOS>ATOM
  1 O        0.0750    -0.0370    -1.0530 O.2   1 <1>  -0.5700 
  2 C       -0.9340     0.4970    -0.6230 C.2   1 <1>   0.6900 
  3 N       -2.0880    -0.2070    -0.5760 N.am  1 <1>  -0.4210 
  4 N       -0.9530     1.7780    -0.1830 N.am  1 <1>  -0.7300 
  5 N       -3.4040     0.2810    -0.0850 N.3   1 <1>  -0.5490 
  6 C        0.1290     2.7670    -0.1150 C.3   1 <1>   0.3000 
  7 C       -4.3650     0.1210    -1.2180 C.3   1 <1>   0.1100 
  8 C       -3.8120    -0.6380     1.0200 C.3   1 <1>   0.1100 
  9 C        0.6880     3.0640    -1.5200 C.3   1 <1>  -0.1600 
 10 C        1.2630     2.2750     0.8050 C.3   1 <1>  -0.1600 
 11 C       -0.4610     4.0640     0.4710 C.3   1 <1>  -0.1600 
 12 C       -5.8120     0.3300    -0.7430 C.3   1 <1>   0.1200 
 13 C       -5.2780    -0.4020     1.4160 C.3   1 <1>   0.1200 
 14 C        1.7890     4.1390    -1.4320 C.3   1 <1>  -0.0800 
 15 C        2.3650     3.3480     0.9010 C.3   1 <1>  -0.0800 
 16 C        0.6280     5.1500     0.5700 C.3   1 <1>  -0.0800 
 17 O       -6.1130    -0.5480     0.3030 O.3   1 <1>  -0.5600 
 18 C        2.9160     3.6330    -0.5100 C.3   1 <1>  -0.1600 
 19 C        1.1910     5.4290    -0.8370 C.3   1 <1>  -0.1600 
 20 C        1.7640     4.6430     1.4790 C.3   1 <1>  -0.1600 
 21 H       -2.0240    -1.1690    -0.9180 H     1 <1>   0.3700 
 22 H       -1.8680     2.0800     0.1450 H     1 <1>   0.3700 
 23 H       -4.2750    -0.8610    -1.6490 H     1 <1>   0.0800 
 24 H       -4.1320     0.8460    -1.9770 H     1 <1>   0.0800 
 25 H       -3.1800    -0.4600     1.8720 H     1 <1>   0.0800 
 26 H       -3.6900    -1.6640     0.7180 H     1 <1>   0.0800 
 27 H       -0.1030     3.4030    -2.1630 H     1 <1>   0.0800 
 28 H        1.1050     2.1690    -1.9440 H     1 <1>   0.0800 
 29 H        1.6880     1.3700     0.4100 H     1 <1>   0.0800 
 30 H        0.8730     2.0650     1.7840 H     1 <1>   0.0800 
 31 H       -0.8610     3.8710     1.4500 H     1 <1>   0.0800 
 32 H       -1.2580     4.4170    -0.1590 H     1 <1>   0.0800 
 33 H       -6.5000     0.1330    -1.5450 H     1 <1>   0.0800 
 34 H       -5.9560     1.3400    -0.4000 H     1 <1>   0.0800 
 35 H       -5.4080     0.5870     1.8190 H     1 <1>   0.0800 
 36 H       -5.5860    -1.1220     2.1540 H     1 <1>   0.0800 
 37 H        2.1820     4.3380    -2.4140 H     1 <1>   0.0800 
 38 H        3.1590     2.9970     1.5380 H     1 <1>   0.0800 
 39 H        0.2080     6.0530     0.9800 H     1 <1>   0.0800 
 40 H        3.6980     4.3700    -0.4540 H     1 <1>   0.0800 
 41 H        3.3440     2.7340    -0.9210 H     1 <1>   0.0800 
 42 H        1.9510     6.1890    -0.7810 H     1 <1>   0.0800 
 43 H        0.4090     5.7970    -1.4780 H     1 <1>   0.0800 
 44 H        2.5290     5.3950     1.5590 H     1 <1>   0.0800 
 45 H        1.3840     4.4580     2.4690 H     1 <1>   0.0800 
@<TRIPOS>BOND
  1   1   2  2   
  2   2   3  am  
  3   2   4  am  
  4   3   5  1   
  5   3  21  1   
  6   4   6  1   
  7   4  22  1   
  8   5   7  1   
  9   5   8  1   
 10   6   9  1   
 11   6  10  1   
 12   6  11  1   
 13   7  12  1   
 14   7  23  1   
 15   7  24  1   
 16   8  13  1   
 17   8  25  1   
 18   8  26  1   
 19   9  14  1   
 20   9  27  1   
 21   9  28  1   
 22  10  15  1   
 23  10  29  1   
 24  10  30  1   
 25  11  16  1   
 26  11  31  1   
 27  11  32  1   
 28  12  17  1   
 29  12  33  1   
 30  12  34  1   
 31  13  17  1   
 32  13  35  1   
 33  13  36  1   
 34  14  18  1   
 35  14  19  1   
 36  14  37  1   
 37  15  18  1   
 38  15  20  1   
 39  15  38  1   
 40  16  19  1   
 41  16  20  1   
 42  16  39  1   
 43  18  40  1   
 44  18  41  1   
 45  19  42  1   
 46  19  43  1   
 47  20  44  1   
 48  20  45  1   
@<TRIPOS>SUBSTRUCTURE
  1 ****   4 GROUP 4 **** **** 0

# MOE 2024.06 (io_trps.svl 2023.06)
