@<TRIPOS>MOLECULE
NONAME
37 39 1 0 0 
SMALL
USER_CHARGES


@<TRIPOS>ATOM
  1 S        0.4450    -0.4180     1.2480 S.3   1 <1>  -0.0800 
  2 C       -0.9660    -1.4010     1.5910 C.2   1 <1>  -0.1100 
  3 C        0.1050    -0.4510    -0.4710 C.2   1 <1>  -0.1100 
  4 C       -1.6290    -1.7000     0.4560 C.2   1 <1>  -0.1810 
  5 C       -1.0090    -1.1620    -0.7230 C.2   1 <1>  -0.1500 
  6 C       -2.9000    -2.5210     0.3780 C.3   1 <1>   0.5240 
  7 N       -4.0540    -1.6180     0.6280 N.4   1 <1>  -0.9590 
  8 C       -5.3370    -2.3920     0.8110 C.3   1 <1>   0.3430 
  9 C       -4.1980    -0.5670    -0.4510 C.3   1 <1>   0.3430 
 10 C       -6.5580    -1.4760     1.0450 C.3   1 <1>   0.2090 
 11 C       -5.4130     0.3570    -0.2260 C.3   1 <1>   0.2090 
 12 N       -6.6550    -0.4460    -0.0280 N.pl3 1 <1>  -0.8380 
 13 C       -7.8570     0.2480    -0.1080 C.ar  1 <1>   0.1000 
 14 C       -8.2260     1.1750     0.8660 C.ar  1 <1>  -0.1500 
 15 C       -8.7090     0.0110    -1.1830 C.ar  1 <1>  -0.1500 
 16 C       -9.4270     1.8560     0.7700 C.ar  1 <1>  -0.1500 
 17 C       -9.9130     0.6840    -1.2920 C.ar  1 <1>  -0.1500 
 18 C      -10.2500     1.5960    -0.3100 C.ar  1 <1>   0.1900 
 19 F      -11.3870     2.2370    -0.4060 F     1 <1>  -0.1900 
 20 H       -1.1370    -1.6450     2.6260 H     1 <1>   0.1500 
 21 H        0.7920     0.0690    -1.1180 H     1 <1>   0.1500 
 22 H       -1.4080    -1.3320    -1.7090 H     1 <1>   0.1500 
 23 H       -2.8670    -3.2890     1.1330 H     1 <1>   0.0800 
 24 H       -2.9820    -2.9920    -0.5880 H     1 <1>   0.0800 
 25 H       -3.8470    -1.1170     1.5010 H     1 <1>   0.4500 
 26 H       -5.2450    -3.0690     1.6440 H     1 <1>   0.0800 
 27 H       -5.5310    -2.9790    -0.0720 H     1 <1>   0.0800 
 28 H       -4.3190    -1.0470    -1.4070 H     1 <1>   0.0800 
 29 H       -3.3070     0.0390    -0.4960 H     1 <1>   0.0800 
 30 H       -6.4800    -0.9960     2.0040 H     1 <1>   0.0800 
 31 H       -7.4570    -2.0710     1.0450 H     1 <1>   0.0800 
 32 H       -5.5390     0.9970    -1.0840 H     1 <1>   0.0800 
 33 H       -5.2440     0.9840     0.6320 H     1 <1>   0.0800 
 34 H       -7.5740     1.3630     1.6970 H     1 <1>   0.1500 
 35 H       -8.4210    -0.7040    -1.9320 H     1 <1>   0.1500 
 36 H       -9.7270     2.5730     1.5120 H     1 <1>   0.1500 
 37 H      -10.5800     0.5100    -2.1170 H     1 <1>   0.1500 
@<TRIPOS>BOND
  1   1   2  1   
  2   1   3  1   
  3   2   4  2   
  4   2  20  1   
  5   3   5  2   
  6   3  21  1   
  7   4   5  1   
  8   4   6  1   
  9   5  22  1   
 10   6   7  1   
 11   6  23  1   
 12   6  24  1   
 13   7   8  1   
 14   7   9  1   
 15   7  25  1   
 16   8  10  1   
 17   8  26  1   
 18   8  27  1   
 19   9  11  1   
 20   9  28  1   
 21   9  29  1   
 22  10  12  1   
 23  10  30  1   
 24  10  31  1   
 25  11  12  1   
 26  11  32  1   
 27  11  33  1   
 28  12  13  1   
 29  13  14  ar  
 30  13  15  ar  
 31  14  16  ar  
 32  14  34  1   
 33  15  17  ar  
 34  15  35  1   
 35  16  18  ar  
 36  16  36  1   
 37  17  18  ar  
 38  17  37  1   
 39  18  19  1   
@<TRIPOS>SUBSTRUCTURE
  1 ****  11 GROUP 4 **** **** 0

# MOE 2024.06 (io_trps.svl 2023.06)
