@<TRIPOS>MOLECULE
NONAME
43 45 1 0 0 
SMALL
USER_CHARGES


@<TRIPOS>ATOM
  1 S       -0.3960     0.1990     0.1340 S.3   1 <1>  -0.2860 
  2 C        1.1870     1.0250    -0.0470 C.2   1 <1>   0.2420 
  3 C       -1.6080     1.5480    -0.2920 C.3   1 <1>   0.1310 
  4 N        1.3030     2.2640    -0.3660 N.2   1 <1>  -0.3380 
  5 N        2.3500     0.4080     0.1310 N.pl3 1 <1>   0.0480 
  6 C       -3.0490     1.0690    -0.2020 C.2   1 <1>   0.5690 
  7 N        2.6130     2.5030    -0.4150 N.2   1 <1>  -0.3380 
  8 C        3.2340     1.3950    -0.1160 C.2   1 <1>   0.1330 
  9 C        2.6110    -1.0120     0.4570 C.3   1 <1>   0.0960 
 10 O       -3.9150     1.7910    -0.6360 O.2   1 <1>  -0.5700 
 11 N       -3.3250    -0.1400     0.3600 N.am  1 <1>  -0.5790 
 12 C        4.6630     1.2240    -0.0690 C.ar  1 <1>   0.0530 
 13 C        2.8190    -1.8290    -0.8220 C.3   1 <1>  -0.2400 
 14 C       -4.6580    -0.7350     0.5180 C.3   1 <1>   0.0490 
 15 C        5.3310     1.0160     1.1360 C.ar  1 <1>  -0.1500 
 16 C        5.4190     1.2520    -1.2380 C.ar  1 <1>  -0.1500 
 17 C       -4.9110    -1.5770     1.7240 C.3   1 <1>  -0.2000 
 18 C       -4.7850    -2.2150     0.3730 C.3   1 <1>  -0.2000 
 19 C        6.7000     0.8220     1.1750 C.ar  1 <1>  -0.1500 
 20 C        6.7870     1.0580    -1.2070 C.ar  1 <1>  -0.1500 
 21 C        7.4390     0.8380    -0.0050 C.ar  1 <1>   0.0830 
 22 O        8.7800     0.6520    -0.0600 O.3   1 <1>  -0.3630 
 23 C        9.5490     0.4800     1.1090 C.3   1 <1>   0.0400 
 24 H       -1.3850     1.8710    -1.2920 H     1 <1>   0.0800 
 25 H       -1.4410     2.3560     0.3950 H     1 <1>   0.0800 
 26 H        1.7780    -1.4040     1.0120 H     1 <1>   0.0800 
 27 H        3.4870    -1.0750     1.0780 H     1 <1>   0.0800 
 28 H       -2.5460    -0.7130     0.6880 H     1 <1>   0.3700 
 29 H        1.9440    -1.7790    -1.4460 H     1 <1>   0.0800 
 30 H        2.9990    -2.8590    -0.5700 H     1 <1>   0.0800 
 31 H        3.6690    -1.4610    -1.3690 H     1 <1>   0.0800 
 32 H       -5.4540    -0.1080     0.1470 H     1 <1>   0.1000 
 33 H        4.7680     1.0150     2.0520 H     1 <1>   0.1500 
 34 H        4.9230     1.4310    -2.1760 H     1 <1>   0.1500 
 35 H       -5.8850    -1.5410     2.1800 H     1 <1>   0.1000 
 36 H       -4.1220    -1.7070     2.4430 H     1 <1>   0.1000 
 37 H       -3.9070    -2.7930     0.1450 H     1 <1>   0.1000 
 38 H       -5.6730    -2.6120    -0.0870 H     1 <1>   0.1000 
 39 H        7.1740     0.6640     2.1240 H     1 <1>   0.1500 
 40 H        7.3610     1.0790    -2.1160 H     1 <1>   0.1500 
 41 H       10.5780     0.3730     0.8180 H     1 <1>   0.0800 
 42 H        9.2190    -0.4090     1.6170 H     1 <1>   0.0800 
 43 H        9.4340     1.3480     1.7340 H     1 <1>   0.0800 
@<TRIPOS>BOND
  1   1   2  1   
  2   1   3  1   
  3   2   4  2   
  4   2   5  1   
  5   3   6  1   
  6   3  24  1   
  7   3  25  1   
  8   4   7  1   
  9   5   8  1   
 10   5   9  1   
 11   6  10  2   
 12   6  11  am  
 13   7   8  2   
 14   8  12  1   
 15   9  13  1   
 16   9  26  1   
 17   9  27  1   
 18  11  14  1   
 19  11  28  1   
 20  12  15  ar  
 21  12  16  ar  
 22  13  29  1   
 23  13  30  1   
 24  13  31  1   
 25  14  17  1   
 26  14  18  1   
 27  14  32  1   
 28  15  19  ar  
 29  15  33  1   
 30  16  20  ar  
 31  16  34  1   
 32  17  18  1   
 33  17  35  1   
 34  17  36  1   
 35  18  37  1   
 36  18  38  1   
 37  19  21  ar  
 38  19  39  1   
 39  20  21  ar  
 40  20  40  1   
 41  21  22  1   
 42  22  23  1   
 43  23  41  1   
 44  23  42  1   
 45  23  43  1   
@<TRIPOS>SUBSTRUCTURE
  1 ****   5 GROUP 4 **** **** 0

# MOE 2024.06 (io_trps.svl 2023.06)
