@<TRIPOS>MOLECULE
NONAME
46 47 1 0 0 
SMALL
USER_CHARGES


@<TRIPOS>ATOM
  1 CL       1.1560     3.5680    -0.7880 Cl    1 <1>  -0.1770 
  2 C       -0.3410     4.2290    -0.1800 C.ar  1 <1>   0.1770 
  3 C       -1.4850     3.4590    -0.2070 C.ar  1 <1>  -0.1500 
  4 C       -0.3550     5.5180     0.3150 C.ar  1 <1>  -0.1500 
  5 C       -2.6830     3.9780     0.2690 C.ar  1 <1>   0.1170 
  6 C       -1.5430     6.0400     0.7960 C.ar  1 <1>  -0.1500 
  7 N       -3.8600     3.2180     0.2240 N.am  1 <1>  -0.5470 
  8 C       -2.7040     5.2800     0.7800 C.ar  1 <1>  -0.1430 
  9 C       -4.0540     1.9050     0.5470 C.2   1 <1>   0.5690 
 10 C       -3.9870     5.8830     1.3390 C.3   1 <1>  -0.0960 
 11 O       -3.1440     1.1570     0.8050 O.2   1 <1>  -0.5700 
 12 C       -5.4580     1.3350     0.6450 C.3   1 <1>  -0.0990 
 13 C       -6.3970     1.6970    -0.5180 C.3   1 <1>   0.1760 
 14 N       -6.8060     3.1360    -0.4780 N.pl3 1 <1>   0.3140 
 15 C       -7.6130     0.7570    -0.5870 C.3   1 <1>  -0.2400 
 16 N       -6.2140     3.9740    -1.3440 N.2   1 <1>  -0.7070 
 17 C       -7.6610     3.8120     0.3250 C.2   1 <1>  -0.3320 
 18 C       -6.7130     5.1380    -1.1070 C.2   1 <1>   0.1080 
 19 C       -7.6410     5.1280    -0.0590 C.2   1 <1>  -0.0860 
 20 C       -8.4760     3.1960     1.4580 C.3   1 <1>  -0.0600 
 21 C       -6.3080     6.3480    -1.9260 C.3   1 <1>  -0.0590 
 22 C       -8.3500     6.2910     0.4120 C.2   1 <1>   0.5950 
 23 O       -7.8600     7.3900     0.4630 O.2   1 <1>  -0.5700 
 24 C       -9.7920     6.1680     0.8510 C.3   1 <1>  -0.1790 
 25 H       -1.4440     2.4600    -0.5990 H     1 <1>   0.1500 
 26 H        0.5490     6.0990     0.3240 H     1 <1>   0.1500 
 27 H       -1.5560     7.0430     1.1860 H     1 <1>   0.1500 
 28 H       -4.6810     3.7290    -0.1320 H     1 <1>   0.3700 
 29 H       -4.4380     5.2100     2.0450 H     1 <1>   0.0800 
 30 H       -4.6810     6.0690     0.5430 H     1 <1>   0.0800 
 31 H       -3.7920     6.8130     1.8410 H     1 <1>   0.0800 
 32 H       -5.8790     1.6340     1.5850 H     1 <1>   0.0800 
 33 H       -5.3580     0.2650     0.6740 H     1 <1>   0.0800 
 34 H       -5.8470     1.5590    -1.4340 H     1 <1>   0.0800 
 35 H       -8.1330     0.7110     0.3520 H     1 <1>   0.0800 
 36 H       -7.2860    -0.2380    -0.8310 H     1 <1>   0.0800 
 37 H       -8.2900     1.0840    -1.3570 H     1 <1>   0.0800 
 38 H       -7.8920     2.4960     2.0230 H     1 <1>   0.0800 
 39 H       -9.3390     2.6910     1.0610 H     1 <1>   0.0800 
 40 H       -8.8100     3.9520     2.1440 H     1 <1>   0.0800 
 41 H       -5.6060     6.0600    -2.6870 H     1 <1>   0.0800 
 42 H       -5.8510     7.0880    -1.2970 H     1 <1>   0.0800 
 43 H       -7.1740     6.7760    -2.3960 H     1 <1>   0.0800 
 44 H      -10.2350     5.2780     0.4460 H     1 <1>   0.0800 
 45 H      -10.3450     7.0190     0.4980 H     1 <1>   0.0800 
 46 H       -9.8410     6.1440     1.9230 H     1 <1>   0.0800 
@<TRIPOS>BOND
  1   1   2  1   
  2   2   3  ar  
  3   2   4  ar  
  4   3   5  ar  
  5   3  25  1   
  6   4   6  ar  
  7   4  26  1   
  8   5   7  1   
  9   5   8  ar  
 10   6   8  ar  
 11   6  27  1   
 12   7   9  am  
 13   7  28  1   
 14   8  10  1   
 15   9  11  2   
 16   9  12  1   
 17  10  29  1   
 18  10  30  1   
 19  10  31  1   
 20  12  13  1   
 21  12  32  1   
 22  12  33  1   
 23  13  14  1   
 24  13  15  1   
 25  13  34  1   
 26  14  16  1   
 27  14  17  1   
 28  15  35  1   
 29  15  36  1   
 30  15  37  1   
 31  16  18  2   
 32  17  19  2   
 33  17  20  1   
 34  18  19  1   
 35  18  21  1   
 36  19  22  1   
 37  20  38  1   
 38  20  39  1   
 39  20  40  1   
 40  21  41  1   
 41  21  42  1   
 42  21  43  1   
 43  22  23  2   
 44  22  24  1   
 45  24  44  1   
 46  24  45  1   
 47  24  46  1   
@<TRIPOS>SUBSTRUCTURE
  1 ****   7 GROUP 4 **** **** 0

# MOE 2024.06 (io_trps.svl 2023.06)
