@<TRIPOS>MOLECULE
NONAME
41 42 1 0 0 
SMALL
USER_CHARGES


@<TRIPOS>ATOM
  1 BR       1.9730     0.9570     3.2420 Br    1 <1>  -0.1110 
  2 C        1.5510     2.1260     1.7660 C.ar  1 <1>   0.1110 
  3 C        2.3420     2.1160     0.6280 C.ar  1 <1>  -0.1440 
  4 C        0.4500     2.9490     1.9000 C.ar  1 <1>  -0.1500 
  5 C        1.9910     2.9750    -0.3990 C.ar  1 <1>  -0.1500 
  6 C        3.5500     1.2000     0.4970 C.3   1 <1>  -0.0960 
  7 C        0.0940     3.8120     0.8700 C.ar  1 <1>  -0.0090 
  8 C        0.8890     3.8120    -0.2750 C.ar  1 <1>   0.0830 
  9 S       -1.3450     4.9000     1.0340 S.o2  1 <1>   1.4470 
 10 O        0.5840     4.6160    -1.3110 O.3   1 <1>  -0.3630 
 11 O       -0.9390     6.2850     0.9180 O.2   1 <1>  -0.6500 
 12 O       -2.1010     4.5100     2.2050 O.2   1 <1>  -0.6500 
 13 N       -2.3420     4.5510    -0.2910 N.am  1 <1>  -0.8490 
 14 C        1.3370     5.8020    -1.4330 C.3   1 <1>   0.0400 
 15 C       -2.7280     3.1260    -0.3560 C.3   1 <1>   0.1960 
 16 C       -3.5130     5.4500    -0.3630 C.3   1 <1>   0.1960 
 17 C       -4.0520     2.9060    -1.1230 C.3   1 <1>   0.2000 
 18 C       -4.8070     4.7880     0.1650 C.3   1 <1>   0.2000 
 19 O       -5.1150     3.6100    -0.5360 O.3   1 <1>  -0.5600 
 20 C       -4.4620     1.4360    -1.1600 C.3   1 <1>  -0.2400 
 21 C       -6.0200     5.7060     0.0400 C.3   1 <1>  -0.2400 
 22 H       -0.1280     2.9160     2.8080 H     1 <1>   0.1500 
 23 H        2.5650     3.0030    -1.3080 H     1 <1>   0.1500 
 24 H        3.2450     0.1730     0.5820 H     1 <1>   0.0800 
 25 H        4.2620     1.4170     1.2730 H     1 <1>   0.0800 
 26 H        4.0340     1.3340    -0.4540 H     1 <1>   0.0800 
 27 H        0.9460     6.3640    -2.2620 H     1 <1>   0.0800 
 28 H        2.3670     5.5490    -1.6110 H     1 <1>   0.0800 
 29 H        1.2410     6.3740    -0.5270 H     1 <1>   0.0800 
 30 H       -2.8540     2.7220     0.6350 H     1 <1>   0.0800 
 31 H       -1.9390     2.5740    -0.8390 H     1 <1>   0.0800 
 32 H       -3.6700     5.7270    -1.3900 H     1 <1>   0.0800 
 33 H       -3.3270     6.3600     0.1830 H     1 <1>   0.0800 
 34 H       -3.9380     3.2700    -2.1290 H     1 <1>   0.0800 
 35 H       -4.6690     4.5230     1.2000 H     1 <1>   0.0800 
 36 H       -4.6130     1.0650    -0.1620 H     1 <1>   0.0800 
 37 H       -3.6990     0.8500    -1.6380 H     1 <1>   0.0800 
 38 H       -5.3750     1.3290    -1.7190 H     1 <1>   0.0800 
 39 H       -6.1930     5.9570    -0.9910 H     1 <1>   0.0800 
 40 H       -5.8570     6.6110     0.5960 H     1 <1>   0.0800 
 41 H       -6.8900     5.2140     0.4360 H     1 <1>   0.0800 
@<TRIPOS>BOND
  1   1   2  1   
  2   2   3  ar  
  3   2   4  ar  
  4   3   5  ar  
  5   3   6  1   
  6   4   7  ar  
  7   4  22  1   
  8   5   8  ar  
  9   5  23  1   
 10   6  24  1   
 11   6  25  1   
 12   6  26  1   
 13   7   8  ar  
 14   7   9  1   
 15   8  10  1   
 16   9  11  2   
 17   9  12  2   
 18   9  13  am  
 19  10  14  1   
 20  13  15  1   
 21  13  16  1   
 22  14  27  1   
 23  14  28  1   
 24  14  29  1   
 25  15  17  1   
 26  15  30  1   
 27  15  31  1   
 28  16  18  1   
 29  16  32  1   
 30  16  33  1   
 31  17  19  1   
 32  17  20  1   
 33  17  34  1   
 34  18  19  1   
 35  18  21  1   
 36  18  35  1   
 37  20  36  1   
 38  20  37  1   
 39  20  38  1   
 40  21  39  1   
 41  21  40  1   
 42  21  41  1   
@<TRIPOS>SUBSTRUCTURE
  1 ****   7 GROUP 4 **** **** 0

# MOE 2024.06 (io_trps.svl 2023.06)
