@<TRIPOS>MOLECULE
NONAME
47 47 1 0 0 
SMALL
USER_CHARGES


@<TRIPOS>ATOM
  1 O        0.2560    -0.4100     0.6350 O.2   1 <1>  -0.5700 
  2 C        0.2210    -1.5950     0.3670 C.2   1 <1>   0.5440 
  3 N       -0.9140    -2.3000     0.6570 N.am  1 <1>  -0.7300 
  4 C        1.3700    -2.2520    -0.2320 C.ar  1 <1>   0.0860 
  5 C       -2.1590    -1.7360     1.2280 C.3   1 <1>   0.1400 
  6 C        2.6570    -1.7600    -0.0230 C.ar  1 <1>  -0.1500 
  7 C        1.2400    -3.3870    -1.0350 C.ar  1 <1>  -0.1500 
  8 C       -3.3880    -2.2830     0.4840 C.3   1 <1>  -0.0800 
  9 C        3.7840    -2.3600    -0.5670 C.ar  1 <1>   0.1170 
 10 C        2.3480    -4.0020    -1.5880 C.ar  1 <1>  -0.1500 
 11 C       -4.6630    -1.6280     1.0310 C.3   1 <1>  -0.2400 
 12 C       -3.5090    -3.8110     0.5970 C.3   1 <1>  -0.2400 
 13 N        5.0380    -1.7870    -0.3100 N.am  1 <1>  -0.5470 
 14 C        3.6110    -3.4920    -1.3560 C.ar  1 <1>  -0.1500 
 15 C        6.3010    -2.3130    -0.3720 C.2   1 <1>   0.5690 
 16 O        6.5290    -3.4630    -0.6600 O.2   1 <1>  -0.5700 
 17 C        7.4740    -1.3830    -0.0430 C.3   1 <1>  -0.0190 
 18 C        8.4440    -1.2950    -1.2470 C.3   1 <1>  -0.1600 
 19 C        8.1510    -1.8650     1.2620 C.3   1 <1>  -0.1600 
 20 C        9.0590     0.0990    -1.4470 C.3   1 <1>  -0.2400 
 21 C        9.2590    -0.9470     1.7920 C.3   1 <1>  -0.2400 
 22 H       -0.9120    -3.3140     0.5520 H     1 <1>   0.3700 
 23 H       -2.1380    -0.6610     1.1470 H     1 <1>   0.0800 
 24 H       -2.2140    -1.9910     2.2720 H     1 <1>   0.0800 
 25 H        2.7710    -0.8830     0.5880 H     1 <1>   0.1500 
 26 H        0.2640    -3.7890    -1.2380 H     1 <1>   0.1500 
 27 H       -3.2980    -2.0130    -0.5550 H     1 <1>   0.0800 
 28 H        2.2320    -4.8770    -2.2050 H     1 <1>   0.1500 
 29 H       -4.7990    -1.8670     2.0710 H     1 <1>   0.0800 
 30 H       -5.5240    -1.9700     0.4850 H     1 <1>   0.0800 
 31 H       -4.6060    -0.5580     0.9290 H     1 <1>   0.0800 
 32 H       -3.5520    -4.1120     1.6290 H     1 <1>   0.0800 
 33 H       -2.6740    -4.2980     0.1280 H     1 <1>   0.0800 
 34 H       -4.4050    -4.1490     0.1050 H     1 <1>   0.0800 
 35 H        4.9970    -0.8230     0.0130 H     1 <1>   0.3700 
 36 H        4.4620    -3.9780    -1.7980 H     1 <1>   0.1500 
 37 H        7.0680    -0.4030     0.1340 H     1 <1>   0.0800 
 38 H        7.9060    -1.5380    -2.1490 H     1 <1>   0.0800 
 39 H        9.2220    -2.0320    -1.1440 H     1 <1>   0.0800 
 40 H        8.5570    -2.8510     1.1080 H     1 <1>   0.0800 
 41 H        7.3940    -1.9520     2.0230 H     1 <1>   0.0800 
 42 H        8.2870     0.8290    -1.6170 H     1 <1>   0.0800 
 43 H        9.7070     0.0880    -2.3060 H     1 <1>   0.0800 
 44 H        9.6380     0.4030    -0.5960 H     1 <1>   0.0800 
 45 H       10.1170    -0.9770     1.1450 H     1 <1>   0.0800 
 46 H        9.5700    -1.2790     2.7670 H     1 <1>   0.0800 
 47 H        8.9090     0.0670     1.8730 H     1 <1>   0.0800 
@<TRIPOS>BOND
  1   1   2  2   
  2   2   3  am  
  3   2   4  1   
  4   3   5  1   
  5   3  22  1   
  6   4   6  ar  
  7   4   7  ar  
  8   5   8  1   
  9   5  23  1   
 10   5  24  1   
 11   6   9  ar  
 12   6  25  1   
 13   7  10  ar  
 14   7  26  1   
 15   8  11  1   
 16   8  12  1   
 17   8  27  1   
 18   9  13  1   
 19   9  14  ar  
 20  10  14  ar  
 21  10  28  1   
 22  11  29  1   
 23  11  30  1   
 24  11  31  1   
 25  12  32  1   
 26  12  33  1   
 27  12  34  1   
 28  13  15  am  
 29  13  35  1   
 30  14  36  1   
 31  15  16  2   
 32  15  17  1   
 33  17  18  1   
 34  17  19  1   
 35  17  37  1   
 36  18  20  1   
 37  18  38  1   
 38  18  39  1   
 39  19  21  1   
 40  19  40  1   
 41  19  41  1   
 42  20  42  1   
 43  20  43  1   
 44  20  44  1   
 45  21  45  1   
 46  21  46  1   
 47  21  47  1   
@<TRIPOS>SUBSTRUCTURE
  1 ****   6 GROUP 4 **** **** 0

# MOE 2024.06 (io_trps.svl 2023.06)
