@<TRIPOS>MOLECULE
NONAME
42 45 1 0 0 
SMALL
USER_CHARGES


@<TRIPOS>ATOM
  1 O      -10.6850    -2.8570    -1.2360 O.3   1 <1>  -0.1650 
  2 C       -9.5820    -3.5780    -0.8750 C.ar  1 <1>   0.3920 
  3 C      -11.9330    -3.3290    -0.9420 C.ar  1 <1>   0.0830 
  4 N       -8.4230    -3.1360    -1.3480 N.ar  1 <1>  -0.3100 
  5 C       -9.7180    -4.7080    -0.0650 C.ar  1 <1>   0.1000 
  6 C      -12.1130    -4.4610    -0.1350 C.ar  1 <1>   0.1000 
  7 C      -13.0180    -2.6570    -1.4750 C.ar  1 <1>  -0.1500 
  8 N       -7.3170    -3.7920    -1.0600 N.ar  1 <1>  -0.3100 
  9 N      -10.9830    -5.1060     0.4100 N.pl3 1 <1>  -0.5690 
 10 C       -8.5510    -5.3880     0.2090 C.ar  1 <1>  -0.1500 
 11 C      -13.4130    -4.9070     0.0870 C.ar  1 <1>  -0.1500 
 12 C      -14.3040    -3.1070    -1.2280 C.ar  1 <1>  -0.1500 
 13 C       -7.3720    -4.8930    -0.3070 C.ar  1 <1>   0.4100 
 14 C      -11.1070    -5.8800     1.6760 C.3   1 <1>   0.1290 
 15 C      -14.4990    -4.2340    -0.4500 C.ar  1 <1>  -0.1500 
 16 N       -6.1760    -5.5530    -0.0580 N.pl3 1 <1>  -0.8380 
 17 C       -5.1670    -4.7260     0.6800 C.3   1 <1>   0.2090 
 18 C       -5.6180    -6.2420    -1.2630 C.3   1 <1>   0.2090 
 19 C       -3.8800    -5.5220     0.9830 C.3   1 <1>   0.3430 
 20 C       -4.3230    -7.0180    -0.9390 C.3   1 <1>   0.3430 
 21 N       -3.2910    -6.1580    -0.2510 N.4   1 <1>  -0.9590 
 22 C       -2.0590    -6.9390     0.0730 C.3   1 <1>   0.2630 
 23 H      -12.8560    -1.7860    -2.0840 H     1 <1>   0.1500 
 24 H       -8.5390    -6.2820     0.7980 H     1 <1>   0.1500 
 25 H      -13.5890    -5.7880     0.6750 H     1 <1>   0.1500 
 26 H      -15.1480    -2.5830    -1.6430 H     1 <1>   0.1500 
 27 H      -10.2170    -5.7750     2.2700 H     1 <1>   0.0800 
 28 H      -11.2640    -6.9200     1.4480 H     1 <1>   0.0800 
 29 H      -11.9350    -5.5120     2.2550 H     1 <1>   0.0800 
 30 H      -15.4970    -4.5910    -0.2640 H     1 <1>   0.1500 
 31 H       -5.6010    -4.3880     1.6060 H     1 <1>   0.0800 
 32 H       -4.9190    -3.8520     0.1000 H     1 <1>   0.0800 
 33 H       -5.4190    -5.5160    -2.0340 H     1 <1>   0.0800 
 34 H       -6.3530    -6.9290    -1.6470 H     1 <1>   0.0800 
 35 H       -4.1200    -6.2860     1.7030 H     1 <1>   0.0800 
 36 H       -3.1590    -4.8600     1.4340 H     1 <1>   0.0800 
 37 H       -3.9170    -7.4180    -1.8530 H     1 <1>   0.0800 
 38 H       -4.5810    -7.8480    -0.3020 H     1 <1>   0.0800 
 39 H       -3.0450    -5.3960    -0.9010 H     1 <1>   0.4500 
 40 H       -2.2920    -7.7430     0.7520 H     1 <1>   0.0800 
 41 H       -1.3210    -6.3020     0.5340 H     1 <1>   0.0800 
 42 H       -1.6340    -7.3590    -0.8250 H     1 <1>   0.0800 
@<TRIPOS>BOND
  1   1   2  1   
  2   1   3  1   
  3   2   4  ar  
  4   2   5  ar  
  5   3   6  ar  
  6   3   7  ar  
  7   4   8  ar  
  8   5   9  1   
  9   5  10  ar  
 10   6   9  1   
 11   6  11  ar  
 12   7  12  ar  
 13   7  23  1   
 14   8  13  ar  
 15   9  14  1   
 16  10  13  ar  
 17  10  24  1   
 18  11  15  ar  
 19  11  25  1   
 20  12  15  ar  
 21  12  26  1   
 22  13  16  1   
 23  14  27  1   
 24  14  28  1   
 25  14  29  1   
 26  15  30  1   
 27  16  17  1   
 28  16  18  1   
 29  17  19  1   
 30  17  31  1   
 31  17  32  1   
 32  18  20  1   
 33  18  33  1   
 34  18  34  1   
 35  19  21  1   
 36  19  35  1   
 37  19  36  1   
 38  20  21  1   
 39  20  37  1   
 40  20  38  1   
 41  21  22  1   
 42  21  39  1   
 43  22  40  1   
 44  22  41  1   
 45  22  42  1   
@<TRIPOS>SUBSTRUCTURE
  1 ****  10 GROUP 4 **** **** 0

# MOE 2024.06 (io_trps.svl 2023.06)
