@<TRIPOS>MOLECULE
NONAME
32 34 1 0 0 
SMALL
USER_CHARGES


@<TRIPOS>ATOM
  1 S       -0.9680    -0.8230    -0.8260 S.3   1 <1>  -0.0800 
  2 C       -1.7100    -0.6220     0.7270 C.2   1 <1>   0.4420 
  3 C        0.5100    -1.1590     0.0060 C.2   1 <1>   0.2930 
  4 N       -0.8810    -0.8050     1.6890 N.2   1 <1>  -0.3380 
  5 N       -3.0510    -0.3030     0.7320 N.am  1 <1>  -0.4940 
  6 N        0.3850    -1.1110     1.2700 N.2   1 <1>  -0.3380 
  7 C        1.7380    -1.4630    -0.8360 C.3   1 <1>  -0.0150 
  8 C       -3.8960    -0.0850     1.7840 C.2   1 <1>   0.5690 
  9 C        3.1120    -1.1230    -0.3430 C.3   1 <1>  -0.2000 
 10 C        2.5090    -0.3490    -1.4770 C.3   1 <1>  -0.2000 
 11 O       -3.5570    -0.1470     2.9370 O.2   1 <1>  -0.5700 
 12 C       -5.3510     0.2570     1.4970 C.3   1 <1>   0.1310 
 13 S       -5.7010     0.3050    -0.3320 S.3   1 <1>  -0.3310 
 14 C       -7.4460     0.7180    -0.5080 C.ar  1 <1>   0.1010 
 15 C       -7.9400     0.8110    -1.7970 C.ar  1 <1>  -0.1500 
 16 C       -8.2700     0.9360     0.5870 C.ar  1 <1>  -0.1500 
 17 C       -9.2730     1.1250    -1.9980 C.ar  1 <1>  -0.1500 
 18 C       -9.6030     1.2500     0.3780 C.ar  1 <1>  -0.1500 
 19 C      -10.1020     1.3440    -0.9100 C.ar  1 <1>  -0.1500 
 20 H       -3.4850    -0.2150    -0.1860 H     1 <1>   0.3700 
 21 H        1.6310    -2.3800    -1.3880 H     1 <1>   0.1000 
 22 H        3.9150    -1.8090    -0.5460 H     1 <1>   0.1000 
 23 H        3.2080    -0.6480     0.6190 H     1 <1>   0.1000 
 24 H        2.2040     0.6670    -1.2960 H     1 <1>   0.1000 
 25 H        2.8970    -0.4950    -2.4700 H     1 <1>   0.1000 
 26 H       -5.5840     1.2270     1.8960 H     1 <1>   0.0800 
 27 H       -5.9930    -0.4880     1.9290 H     1 <1>   0.0800 
 28 H       -7.2880     0.6390    -2.6350 H     1 <1>   0.1500 
 29 H       -7.9040     0.8680     1.5920 H     1 <1>   0.1500 
 30 H       -9.6650     1.1990    -2.9980 H     1 <1>   0.1500 
 31 H      -10.2540     1.4220     1.2180 H     1 <1>   0.1500 
 32 H      -11.1390     1.5880    -1.0680 H     1 <1>   0.1500 
@<TRIPOS>BOND
  1   1   2  1   
  2   1   3  1   
  3   2   4  2   
  4   2   5  1   
  5   3   6  2   
  6   3   7  1   
  7   4   6  1   
  8   5   8  am  
  9   5  20  1   
 10   7   9  1   
 11   7  10  1   
 12   7  21  1   
 13   8  11  2   
 14   8  12  1   
 15   9  10  1   
 16   9  22  1   
 17   9  23  1   
 18  10  24  1   
 19  10  25  1   
 20  12  13  1   
 21  12  26  1   
 22  12  27  1   
 23  13  14  1   
 24  14  15  ar  
 25  14  16  ar  
 26  15  17  ar  
 27  15  28  1   
 28  16  18  ar  
 29  16  29  1   
 30  17  19  ar  
 31  17  30  1   
 32  18  19  ar  
 33  18  31  1   
 34  19  32  1   
@<TRIPOS>SUBSTRUCTURE
  1 ****   5 GROUP 4 **** **** 0

# MOE 2024.06 (io_trps.svl 2023.06)
