@<TRIPOS>MOLECULE
NONAME
51 53 1 0 0 
SMALL
USER_CHARGES


@<TRIPOS>ATOM
  1 S       -0.2690    -0.0610    -1.0580 S.o2  1 <1>   1.4470 
  2 O       -0.0260    -0.5380    -2.4040 O.2   1 <1>  -0.6500 
  3 O        0.5680     0.9870    -0.5160 O.2   1 <1>  -0.6500 
  4 N       -0.1340    -1.4030    -0.0310 N.am  1 <1>  -0.8490 
  5 C       -2.0070     0.4210    -0.8810 C.ar  1 <1>  -0.0090 
  6 C        1.2700    -1.7100     0.2620 C.3   1 <1>   0.1960 
  7 C       -0.8250    -2.5790    -0.5690 C.3   1 <1>   0.1960 
  8 C       -2.5860     0.5490     0.3750 C.ar  1 <1>  -0.1500 
  9 C       -2.7990     0.6800    -1.9930 C.ar  1 <1>  -0.1500 
 10 C        1.3650    -2.8230     1.3110 C.3   1 <1>  -0.1600 
 11 C       -0.8180    -3.7150     0.4590 C.3   1 <1>  -0.1600 
 12 C       -3.9150     0.9060     0.5320 C.ar  1 <1>  -0.1430 
 13 C       -4.1280     1.0380    -1.8580 C.ar  1 <1>  -0.1500 
 14 C        0.6130    -4.0840     0.8660 C.3   1 <1>  -0.1600 
 15 C       -4.6970     1.1420    -0.5930 C.ar  1 <1>   0.0830 
 16 C       -4.5020     1.0360     1.9300 C.3   1 <1>  -0.0970 
 17 O       -5.9990     1.4620    -0.3980 O.3   1 <1>  -0.3630 
 18 C       -6.9320     1.4720    -1.4680 C.3   1 <1>   0.1810 
 19 C       -8.3640     1.5160    -0.9490 C.2   1 <1>   0.5690 
 20 O       -9.0450     2.4710    -1.2480 O.2   1 <1>  -0.5700 
 21 N       -8.8700     0.4830    -0.2030 N.am  1 <1>  -0.6600 
 22 C       -8.1340    -0.7220     0.2400 C.3   1 <1>   0.1400 
 23 C      -10.2600     0.4730     0.2960 C.3   1 <1>   0.1400 
 24 C       -9.0710    -1.4090     1.2280 C.3   1 <1>  -0.1600 
 25 C      -10.4680    -0.9380     0.8320 C.3   1 <1>  -0.1600 
 26 H        1.7620    -0.8330     0.6490 H     1 <1>   0.0800 
 27 H        1.7750    -2.0070    -0.6430 H     1 <1>   0.0800 
 28 H       -0.3440    -2.9070    -1.4770 H     1 <1>   0.0800 
 29 H       -1.8470    -2.3270    -0.8020 H     1 <1>   0.0800 
 30 H       -1.9740     0.3610     1.2420 H     1 <1>   0.1500 
 31 H       -2.3670     0.5990    -2.9770 H     1 <1>   0.1500 
 32 H        0.9500    -2.4600     2.2350 H     1 <1>   0.0800 
 33 H        2.3990    -3.0610     1.4860 H     1 <1>   0.0800 
 34 H       -1.3090    -4.5770     0.0440 H     1 <1>   0.0800 
 35 H       -1.3750    -3.4020     1.3250 H     1 <1>   0.0800 
 36 H       -4.6960     1.2350    -2.7470 H     1 <1>   0.1500 
 37 H        0.5960    -4.8050     1.6660 H     1 <1>   0.0800 
 38 H        1.1220    -4.5250     0.0260 H     1 <1>   0.0800 
 39 H       -3.7450     0.9170     2.6840 H     1 <1>   0.0800 
 40 H       -5.2590     0.2880     2.0810 H     1 <1>   0.0800 
 41 H       -4.9500     2.0070     2.0490 H     1 <1>   0.0800 
 42 H       -6.8000     0.5790    -2.0490 H     1 <1>   0.0800 
 43 H       -6.7380     2.3390    -2.0730 H     1 <1>   0.0800 
 44 H       -7.2010    -0.4610     0.7100 H     1 <1>   0.0800 
 45 H       -7.9520    -1.3590    -0.6090 H     1 <1>   0.0800 
 46 H      -10.9540     0.7110    -0.4920 H     1 <1>   0.0800 
 47 H      -10.3510     1.1990     1.0870 H     1 <1>   0.0800 
 48 H       -8.8390    -1.0660     2.2220 H     1 <1>   0.0800 
 49 H       -8.9730    -2.4790     1.1960 H     1 <1>   0.0800 
 50 H      -10.8530    -1.5570     0.0410 H     1 <1>   0.0800 
 51 H      -11.1570    -0.9540     1.6580 H     1 <1>   0.0800 
@<TRIPOS>BOND
  1   1   2  2   
  2   1   3  2   
  3   1   4  am  
  4   1   5  1   
  5   4   6  1   
  6   4   7  1   
  7   5   8  ar  
  8   5   9  ar  
  9   6  10  1   
 10   6  26  1   
 11   6  27  1   
 12   7  11  1   
 13   7  28  1   
 14   7  29  1   
 15   8  12  ar  
 16   8  30  1   
 17   9  13  ar  
 18   9  31  1   
 19  10  14  1   
 20  10  32  1   
 21  10  33  1   
 22  11  14  1   
 23  11  34  1   
 24  11  35  1   
 25  12  15  ar  
 26  12  16  1   
 27  13  15  ar  
 28  13  36  1   
 29  14  37  1   
 30  14  38  1   
 31  15  17  1   
 32  16  39  1   
 33  16  40  1   
 34  16  41  1   
 35  17  18  1   
 36  18  19  1   
 37  18  42  1   
 38  18  43  1   
 39  19  20  2   
 40  19  21  am  
 41  21  22  1   
 42  21  23  1   
 43  22  24  1   
 44  22  44  1   
 45  22  45  1   
 46  23  25  1   
 47  23  46  1   
 48  23  47  1   
 49  24  25  1   
 50  24  48  1   
 51  24  49  1   
 52  25  50  1   
 53  25  51  1   
@<TRIPOS>SUBSTRUCTURE
  1 ****  12 GROUP 4 **** **** 0

# MOE 2024.06 (io_trps.svl 2023.06)
