@<TRIPOS>MOLECULE
NONAME
43 44 1 0 0 
SMALL
USER_CHARGES


@<TRIPOS>ATOM
  1 O        1.5130     0.8670    -1.1100 O.2   1 <1>  -0.5700 
  2 C        1.3940     1.6820    -0.2180 C.2   1 <1>   0.5440 
  3 N        2.2190     1.5870     0.8700 N.am  1 <1>  -0.7300 
  4 C        0.4030     2.7320    -0.3030 C.ar  1 <1>   0.0860 
  5 C        3.2280     0.5110     1.1020 C.3   1 <1>   0.1400 
  6 C        0.7270     4.0810    -0.0700 C.ar  1 <1>   0.1170 
  7 C       -0.9150     2.4040    -0.6270 C.ar  1 <1>  -0.1500 
  8 C        4.3310     0.4810     0.0300 C.3   1 <1>   0.2000 
  9 N        2.0590     4.4400     0.2040 N.am  1 <1>  -0.5470 
 10 C       -0.2830     5.0380    -0.1500 C.ar  1 <1>  -0.1500 
 11 C       -1.9010     3.3660    -0.7010 C.ar  1 <1>  -0.1500 
 12 O        5.3870    -0.2990     0.4840 O.3   1 <1>  -0.5600 
 13 C        4.9820     1.8260    -0.2780 C.3   1 <1>  -0.1600 
 14 C        2.6230     5.5560     0.7590 C.2   1 <1>   0.5690 
 15 C       -1.5830     4.6900    -0.4570 C.ar  1 <1>  -0.1500 
 16 C        6.5310    -0.0120    -0.2510 C.3   1 <1>   0.1200 
 17 C        6.3970     1.4450    -0.6870 C.3   1 <1>  -0.1600 
 18 O        1.9920     6.4920     1.1800 O.2   1 <1>  -0.5700 
 19 C        4.1350     5.5870     0.8740 C.3   1 <1>  -0.0990 
 20 C        4.8310     5.6610    -0.4950 C.3   1 <1>  -0.1600 
 21 C        6.3550     5.6340    -0.3460 C.3   1 <1>  -0.2400 
 22 H        1.9770     2.1380     1.6980 H     1 <1>   0.3700 
 23 H        2.7290    -0.4420     1.1110 H     1 <1>   0.0800 
 24 H        3.6860     0.6690     2.0630 H     1 <1>   0.0800 
 25 H       -1.1590     1.3740    -0.8230 H     1 <1>   0.1500 
 26 H        3.9590     0.0270    -0.8740 H     1 <1>   0.0800 
 27 H        2.7360     3.7060    -0.0160 H     1 <1>   0.3700 
 28 H       -0.0590     6.0750     0.0200 H     1 <1>   0.1500 
 29 H       -2.9130     3.0920    -0.9480 H     1 <1>   0.1500 
 30 H        5.0040     2.4300     0.6110 H     1 <1>   0.0800 
 31 H        4.4520     2.3420    -1.0580 H     1 <1>   0.0800 
 32 H       -2.3460     5.4470    -0.5120 H     1 <1>   0.1500 
 33 H        6.5560    -0.6730    -1.1010 H     1 <1>   0.0800 
 34 H        7.3930    -0.1780     0.3730 H     1 <1>   0.0800 
 35 H        7.1280     2.0610    -0.1950 H     1 <1>   0.0800 
 36 H        6.5320     1.5210    -1.7510 H     1 <1>   0.0800 
 37 H        4.4570     4.7110     1.4070 H     1 <1>   0.0800 
 38 H        4.4150     6.4440     1.4610 H     1 <1>   0.0800 
 39 H        4.5370     6.5720    -0.9910 H     1 <1>   0.0800 
 40 H        4.5230     4.8370    -1.1150 H     1 <1>   0.0800 
 41 H        6.6900     6.4700     0.2420 H     1 <1>   0.0800 
 42 H        6.8200     5.6920    -1.3150 H     1 <1>   0.0800 
 43 H        6.6740     4.7240     0.1310 H     1 <1>   0.0800 
@<TRIPOS>BOND
  1   1   2  2   
  2   2   3  am  
  3   2   4  1   
  4   3   5  1   
  5   3  22  1   
  6   4   6  ar  
  7   4   7  ar  
  8   5   8  1   
  9   5  23  1   
 10   5  24  1   
 11   6   9  1   
 12   6  10  ar  
 13   7  11  ar  
 14   7  25  1   
 15   8  12  1   
 16   8  13  1   
 17   8  26  1   
 18   9  14  am  
 19   9  27  1   
 20  10  15  ar  
 21  10  28  1   
 22  11  15  ar  
 23  11  29  1   
 24  12  16  1   
 25  13  17  1   
 26  13  30  1   
 27  13  31  1   
 28  14  18  2   
 29  14  19  1   
 30  15  32  1   
 31  16  17  1   
 32  16  33  1   
 33  16  34  1   
 34  17  35  1   
 35  17  36  1   
 36  19  20  1   
 37  19  37  1   
 38  19  38  1   
 39  20  21  1   
 40  20  39  1   
 41  20  40  1   
 42  21  41  1   
 43  21  42  1   
 44  21  43  1   
@<TRIPOS>SUBSTRUCTURE
  1 ****   9 GROUP 4 **** **** 0

# MOE 2024.06 (io_trps.svl 2023.06)
