@<TRIPOS>MOLECULE
NONAME
23 22 1 0 0 
SMALL
USER_CHARGES


@<TRIPOS>ATOM
  1 O       -0.0250    -1.3250    -1.9700 O.co2 1 <1>  -0.9000 
  2 C        0.0100    -1.3470    -0.7310 C.2   1 <1>   0.9060 
  3 O        0.9460    -0.8190    -0.1100 O.co2 1 <1>  -0.9000 
  4 C       -1.1130    -2.0340     0.0650 C.3   1 <1>  -0.1860 
  5 C       -1.2240    -3.5580    -0.2090 C.3   1 <1>  -0.1600 
  6 C       -2.5050    -1.3770    -0.1330 C.3   1 <1>  -0.1600 
  7 C        0.0210    -4.3580     0.2270 C.3   1 <1>  -0.2660 
  8 C       -2.5820     0.0760     0.3820 C.3   1 <1>  -0.2660 
  9 C       -0.1990    -5.8600     0.2520 C.2   1 <1>   0.9060 
 10 C       -3.9990     0.6130     0.4780 C.2   1 <1>   0.9060 
 11 O       -0.5350    -6.3950     1.3170 O.co2 1 <1>  -0.9000 
 12 O       -0.0190    -6.5240    -0.7760 O.co2 1 <1>  -0.9000 
 13 O       -4.5220     1.1460    -0.5080 O.co2 1 <1>  -0.9000 
 14 O       -4.5970     0.5240     1.5590 O.co2 1 <1>  -0.9000 
 15 H       -0.8560    -1.9200     1.1010 H     1 <1>   0.0800 
 16 H       -1.3970    -3.7220    -1.2590 H     1 <1>   0.0800 
 17 H       -2.0690    -3.9510     0.3290 H     1 <1>   0.0800 
 18 H       -3.2440    -1.9500     0.3990 H     1 <1>   0.0800 
 19 H       -2.7650    -1.3930    -1.1780 H     1 <1>   0.0800 
 20 H        0.3130    -4.0600     1.2150 H     1 <1>   0.0800 
 21 H        0.8360    -4.1460    -0.4390 H     1 <1>   0.0800 
 22 H       -2.0200     0.7180    -0.2690 H     1 <1>   0.0800 
 23 H       -2.1490     0.1350     1.3620 H     1 <1>   0.0800 
@<TRIPOS>BOND
  1   1   2  ar  
  2   2   3  ar  
  3   2   4  1   
  4   4   5  1   
  5   4   6  1   
  6   4  15  1   
  7   5   7  1   
  8   5  16  1   
  9   5  17  1   
 10   6   8  1   
 11   6  18  1   
 12   6  19  1   
 13   7   9  1   
 14   7  20  1   
 15   7  21  1   
 16   8  10  1   
 17   8  22  1   
 18   8  23  1   
 19   9  11  ar  
 20   9  12  ar  
 21  10  13  ar  
 22  10  14  ar  
@<TRIPOS>SUBSTRUCTURE
  1 ****   4 GROUP 4 **** **** 0

# MOE 2024.06 (io_trps.svl 2023.06)
