@<TRIPOS>MOLECULE
NONAME
47 48 1 0 0 
SMALL
USER_CHARGES


@<TRIPOS>ATOM
  1 S       -0.0890     0.0330     0.8340 S.o2  1 <1>   1.4470 
  2 O       -0.5350     0.1020     2.2060 O.2   1 <1>  -0.6500 
  3 O       -0.0870    -1.2260     0.1290 O.2   1 <1>  -0.6500 
  4 N       -1.2170     0.9110    -0.0470 N.am  1 <1>  -0.9140 
  5 C        1.4510     0.9540     0.5870 C.ar  1 <1>  -0.0090 
  6 C       -2.5830     0.5120     0.2790 C.3   1 <1>   0.1960 
  7 C        2.4440     0.4840    -0.2660 C.ar  1 <1>  -0.1500 
  8 C        1.6660     2.1680     1.2270 C.ar  1 <1>  -0.1500 
  9 C       -3.6070     1.3870    -0.4660 C.3   1 <1>   0.3430 
 10 C        3.6140     1.1950    -0.4810 C.ar  1 <1>  -0.1440 
 11 C        2.8280     2.8920     1.0250 C.ar  1 <1>  -0.1500 
 12 N       -5.0160     1.1440    -0.0130 N.4   1 <1>  -0.9590 
 13 C        3.8110     2.4100     0.1660 C.ar  1 <1>   0.0830 
 14 C        4.6760     0.6410    -1.4210 C.3   1 <1>  -0.0970 
 15 C       -5.5300    -0.2510    -0.2590 C.3   1 <1>   0.3430 
 16 C       -5.9790     2.1550    -0.5710 C.3   1 <1>   0.3430 
 17 O        4.9710     3.0740    -0.0760 O.3   1 <1>  -0.3630 
 18 C       -7.0010    -0.4010     0.1950 C.3   1 <1>   0.1200 
 19 C       -7.4190     1.9010    -0.0670 C.3   1 <1>   0.1200 
 20 C        5.2760     4.2970     0.5520 C.3   1 <1>   0.1200 
 21 O       -7.4720     0.7840     0.7790 O.3   1 <1>  -0.5600 
 22 C        6.6520     4.7460     0.0660 C.3   1 <1>  -0.2400 
 23 H       -1.0060     0.6210    -1.0030 H     1 <1>   0.4200 
 24 H       -2.7420     0.6370     1.3370 H     1 <1>   0.0800 
 25 H       -2.7200    -0.5280     0.0280 H     1 <1>   0.0800 
 26 H        2.2990    -0.4570    -0.7680 H     1 <1>   0.1500 
 27 H        0.9140     2.5520     1.8950 H     1 <1>   0.1500 
 28 H       -3.5280     1.2010    -1.5240 H     1 <1>   0.0800 
 29 H       -3.3530     2.4180    -0.2830 H     1 <1>   0.0800 
 30 H        2.9470     3.8240     1.5430 H     1 <1>   0.1500 
 31 H       -5.0810     1.2730     1.0110 H     1 <1>   0.4500 
 32 H        4.3760    -0.3030    -1.8400 H     1 <1>   0.0800 
 33 H        5.5980     0.5020    -0.8860 H     1 <1>   0.0800 
 34 H        4.8480     1.3350    -2.2250 H     1 <1>   0.0800 
 35 H       -4.9290    -0.9680     0.2770 H     1 <1>   0.0800 
 36 H       -5.4640    -0.4920    -1.3080 H     1 <1>   0.0800 
 37 H       -5.9750     2.1140    -1.6480 H     1 <1>   0.0800 
 38 H       -5.6790     3.1500    -0.2840 H     1 <1>   0.0800 
 39 H       -7.0860    -1.1850     0.9280 H     1 <1>   0.0800 
 40 H       -7.6360    -0.6520    -0.6380 H     1 <1>   0.0800 
 41 H       -8.0920     1.7420    -0.8930 H     1 <1>   0.0800 
 42 H       -7.7710     2.7510     0.4920 H     1 <1>   0.0800 
 43 H        5.2810     4.1420     1.6170 H     1 <1>   0.0800 
 44 H        4.5240     5.0170     0.2800 H     1 <1>   0.0800 
 45 H        7.3930     4.0120     0.3280 H     1 <1>   0.0800 
 46 H        6.9150     5.6800     0.5280 H     1 <1>   0.0800 
 47 H        6.6410     4.8810    -1.0010 H     1 <1>   0.0800 
@<TRIPOS>BOND
  1   1   2  2   
  2   1   3  2   
  3   1   4  am  
  4   1   5  1   
  5   4   6  1   
  6   4  23  1   
  7   5   7  ar  
  8   5   8  ar  
  9   6   9  1   
 10   6  24  1   
 11   6  25  1   
 12   7  10  ar  
 13   7  26  1   
 14   8  11  ar  
 15   8  27  1   
 16   9  12  1   
 17   9  28  1   
 18   9  29  1   
 19  10  13  ar  
 20  10  14  1   
 21  11  13  ar  
 22  11  30  1   
 23  12  15  1   
 24  12  16  1   
 25  12  31  1   
 26  13  17  1   
 27  14  32  1   
 28  14  33  1   
 29  14  34  1   
 30  15  18  1   
 31  15  35  1   
 32  15  36  1   
 33  16  19  1   
 34  16  37  1   
 35  16  38  1   
 36  17  20  1   
 37  18  21  1   
 38  18  39  1   
 39  18  40  1   
 40  19  21  1   
 41  19  41  1   
 42  19  42  1   
 43  20  22  1   
 44  20  43  1   
 45  20  44  1   
 46  22  45  1   
 47  22  46  1   
 48  22  47  1   
@<TRIPOS>SUBSTRUCTURE
  1 ****   4 GROUP 4 **** **** 0

# MOE 2024.06 (io_trps.svl 2023.06)
