@<TRIPOS>MOLECULE
NONAME
46 48 1 0 0 
SMALL
USER_CHARGES


@<TRIPOS>ATOM
  1 O       -1.2020     1.3440    -0.4380 O.co2 1 <1>  -0.9000 
  2 C       -1.6090     1.9660     0.5450 C.2   1 <1>   0.9060 
  3 O       -2.3010     1.4210     1.4150 O.co2 1 <1>  -0.9000 
  4 C       -1.2850     3.4390     0.7500 C.3   1 <1>  -0.1860 
  5 C       -2.4750     4.4580     0.5980 C.3   1 <1>  -0.0190 
  6 C       -0.0360     3.9330    -0.0280 C.3   1 <1>  -0.0800 
  7 C       -3.8290     3.9890     0.0080 C.2   1 <1>   0.5690 
  8 C       -1.9330     5.7460    -0.0950 C.3   1 <1>  -0.0800 
  9 C       -0.4280     4.2570    -1.4840 C.3   1 <1>  -0.1600 
 10 C        0.4460     5.2410     0.6340 C.3   1 <1>  -0.1600 
 11 O       -4.4070     4.7070    -0.7780 O.2   1 <1>  -0.5700 
 12 N       -4.4070     2.8390     0.4680 N.am  1 <1>  -0.5470 
 13 C       -1.4590     5.4030    -1.5250 C.3   1 <1>  -0.1600 
 14 C       -0.7080     6.2680     0.6880 C.3   1 <1>  -0.1600 
 15 C       -5.6600     2.2570     0.2300 C.ar  1 <1>   0.1170 
 16 C       -5.7860     0.8840     0.3790 C.ar  1 <1>  -0.1500 
 17 C       -6.7860     2.9910    -0.1240 C.ar  1 <1>  -0.1500 
 18 C       -7.0000     0.2480     0.1810 C.ar  1 <1>   0.0820 
 19 C       -8.0090     2.3750    -0.3260 C.ar  1 <1>   0.0820 
 20 O       -7.0220    -1.1000     0.3520 O.3   1 <1>  -0.3630 
 21 C       -8.1200     0.9960    -0.1730 C.ar  1 <1>  -0.1500 
 22 O       -9.0510     3.1790    -0.6640 O.3   1 <1>  -0.3620 
 23 C       -8.1830    -1.8580     0.1030 C.3   1 <1>   0.0400 
 24 C      -10.3300     2.6540    -0.9360 C.3   1 <1>   0.0400 
 25 H       -1.0050     3.4680     1.7860 H     1 <1>   0.0800 
 26 H       -2.7360     4.7460     1.5990 H     1 <1>   0.0800 
 27 H        0.7400     3.1870    -0.0040 H     1 <1>   0.0800 
 28 H       -2.6950     6.5060    -0.1260 H     1 <1>   0.0800 
 29 H       -0.8490     3.3780    -1.9430 H     1 <1>   0.0800 
 30 H        0.4460     4.5280    -2.0480 H     1 <1>   0.0800 
 31 H        1.2670     5.6430     0.0680 H     1 <1>   0.0800 
 32 H        0.8020     5.0380     1.6290 H     1 <1>   0.0800 
 33 H       -3.7440     2.2090     0.9600 H     1 <1>   0.3700 
 34 H       -1.0150     6.2740    -1.9730 H     1 <1>   0.0800 
 35 H       -2.2910     5.1120    -2.1410 H     1 <1>   0.0800 
 36 H       -0.9860     6.4490     1.7110 H     1 <1>   0.0800 
 37 H       -0.3780     7.2020     0.2670 H     1 <1>   0.0800 
 38 H       -4.9190     0.3040     0.6500 H     1 <1>   0.1500 
 39 H       -6.7150     4.0550    -0.2420 H     1 <1>   0.1500 
 40 H       -9.0600     0.5130    -0.3250 H     1 <1>   0.1500 
 41 H       -7.9460    -2.8920     0.2750 H     1 <1>   0.0800 
 42 H       -8.4790    -1.7150    -0.9210 H     1 <1>   0.0800 
 43 H       -8.9570    -1.5420     0.7800 H     1 <1>   0.0800 
 44 H      -10.9770     3.4730    -1.1980 H     1 <1>   0.0800 
 45 H      -10.7000     2.1640    -0.0530 H     1 <1>   0.0800 
 46 H      -10.2570     1.9680    -1.7600 H     1 <1>   0.0800 
@<TRIPOS>BOND
  1   1   2  ar  
  2   2   3  ar  
  3   2   4  1   
  4   4   5  1   
  5   4   6  1   
  6   4  25  1   
  7   5   7  1   
  8   5   8  1   
  9   5  26  1   
 10   6   9  1   
 11   6  10  1   
 12   6  27  1   
 13   7  11  2   
 14   7  12  am  
 15   8  13  1   
 16   8  14  1   
 17   8  28  1   
 18   9  13  1   
 19   9  29  1   
 20   9  30  1   
 21  10  14  1   
 22  10  31  1   
 23  10  32  1   
 24  12  15  1   
 25  12  33  1   
 26  13  34  1   
 27  13  35  1   
 28  14  36  1   
 29  14  37  1   
 30  15  16  ar  
 31  15  17  ar  
 32  16  18  ar  
 33  16  38  1   
 34  17  19  ar  
 35  17  39  1   
 36  18  20  1   
 37  18  21  ar  
 38  19  21  ar  
 39  19  22  1   
 40  20  23  1   
 41  21  40  1   
 42  22  24  1   
 43  23  41  1   
 44  23  42  1   
 45  23  43  1   
 46  24  44  1   
 47  24  45  1   
 48  24  46  1   
@<TRIPOS>SUBSTRUCTURE
  1 ****  12 GROUP 4 **** **** 0

# MOE 2024.06 (io_trps.svl 2023.06)
