@<TRIPOS>MOLECULE
NONAME
32 33 1 0 0 
SMALL
USER_CHARGES


@<TRIPOS>ATOM
  1 F       -3.9880     1.2540    -1.5820 F     1 <1>  -0.1900 
  2 C       -3.6040     2.1800    -0.7430 C.ar  1 <1>   0.1900 
  3 C       -4.3440     2.3790     0.4110 C.ar  1 <1>  -0.1440 
  4 C       -2.4840     2.9270    -1.0500 C.ar  1 <1>  -0.1500 
  5 C       -3.9370     3.3780     1.2850 C.ar  1 <1>  -0.1500 
  6 C       -5.5570     1.5240     0.6930 C.3   1 <1>   0.4870 
  7 C       -2.0900     3.9180    -0.1670 C.ar  1 <1>  -0.1500 
  8 C       -2.8160     4.1410     0.9930 C.ar  1 <1>  -0.1500 
  9 N       -6.6370     1.9730    -0.2040 N.4   1 <1>  -0.9060 
 10 C       -7.9250     1.2410    -0.0700 C.3   1 <1>   0.3430 
 11 C       -9.0720     2.1570    -0.5370 C.3   1 <1>   0.2000 
 12 O       -8.7690     3.4720    -0.1840 O.3   1 <1>  -0.5600 
 13 C      -10.4140     1.8870     0.1280 C.3   1 <1>  -0.1600 
 14 C       -9.9370     4.2350    -0.1310 C.3   1 <1>   0.1200 
 15 C      -11.0840     3.2510     0.0970 C.3   1 <1>  -0.1600 
 16 H       -1.9330     2.7400    -1.9550 H     1 <1>   0.1500 
 17 H       -4.4770     3.5750     2.1970 H     1 <1>   0.1500 
 18 H       -5.8540     1.6320     1.7230 H     1 <1>   0.0800 
 19 H       -5.3200     0.4890     0.5040 H     1 <1>   0.0800 
 20 H       -1.2200     4.5170    -0.3810 H     1 <1>   0.1500 
 21 H       -2.5020     4.9150     1.6740 H     1 <1>   0.1500 
 22 H       -6.2970     1.9660    -1.1730 H     1 <1>   0.4500 
 23 H       -6.8730     2.9630    -0.0050 H     1 <1>   0.4500 
 24 H       -8.0950     0.9940     0.9650 H     1 <1>   0.0800 
 25 H       -7.9160     0.3250    -0.6390 H     1 <1>   0.0800 
 26 H       -9.1740     2.1240    -1.6090 H     1 <1>   0.0800 
 27 H      -10.2730     1.5740     1.1480 H     1 <1>   0.0800 
 28 H      -10.9840     1.1400    -0.3970 H     1 <1>   0.0800 
 29 H      -10.0490     4.7550    -1.0690 H     1 <1>   0.0800 
 30 H       -9.8490     4.9460     0.6730 H     1 <1>   0.0800 
 31 H      -11.6030     3.4630     1.0160 H     1 <1>   0.0800 
 32 H      -11.7840     3.3210    -0.7180 H     1 <1>   0.0800 
@<TRIPOS>BOND
  1   1   2  1   
  2   2   3  ar  
  3   2   4  ar  
  4   3   5  ar  
  5   3   6  1   
  6   4   7  ar  
  7   4  16  1   
  8   5   8  ar  
  9   5  17  1   
 10   6   9  1   
 11   6  18  1   
 12   6  19  1   
 13   7   8  ar  
 14   7  20  1   
 15   8  21  1   
 16   9  10  1   
 17   9  22  1   
 18   9  23  1   
 19  10  11  1   
 20  10  24  1   
 21  10  25  1   
 22  11  12  1   
 23  11  13  1   
 24  11  26  1   
 25  12  14  1   
 26  13  15  1   
 27  13  27  1   
 28  13  28  1   
 29  14  15  1   
 30  14  29  1   
 31  14  30  1   
 32  15  31  1   
 33  15  32  1   
@<TRIPOS>SUBSTRUCTURE
  1 ****   9 GROUP 4 **** **** 0

# MOE 2024.06 (io_trps.svl 2023.06)
