@<TRIPOS>MOLECULE
NONAME
48 50 1 0 0 
SMALL
USER_CHARGES


@<TRIPOS>ATOM
  1 S        0.0070    -0.4640    -1.1610 S.o2  1 <1>   1.3330 
  2 O        1.3890    -0.8830    -1.1180 O.2   1 <1>  -0.6500 
  3 O       -0.6060    -0.0730    -2.4080 O.2   1 <1>  -0.6500 
  4 N       -0.9340    -1.7030    -0.4880 N.am  1 <1>  -0.8490 
  5 C       -0.1750     0.8960    -0.0220 C.3   1 <1>  -0.1350 
  6 C       -2.3720    -1.4130    -0.4430 C.3   1 <1>   0.1960 
  7 C       -0.4100    -2.2580     0.7610 C.3   1 <1>   0.1960 
  8 C       -3.1670    -2.6880    -0.1350 C.3   1 <1>  -0.0190 
  9 C       -1.1530    -3.5520     1.1130 C.3   1 <1>  -0.1600 
 10 C       -4.6520    -2.3670    -0.0640 C.2   1 <1>   0.5690 
 11 C       -2.6720    -3.3390     1.1710 C.3   1 <1>  -0.1600 
 12 O       -5.0010    -1.3890     0.5530 O.2   1 <1>  -0.5700 
 13 N       -5.5200    -3.2180    -0.6910 N.am  1 <1>  -0.5470 
 14 C       -6.9190    -3.1730    -0.8150 C.ar  1 <1>   0.1170 
 15 C       -7.6050    -4.3580    -1.0590 C.ar  1 <1>  -0.1500 
 16 C       -7.6500    -1.9910    -0.7270 C.ar  1 <1>  -0.1500 
 17 C       -8.9810    -4.3670    -1.2020 C.ar  1 <1>  -0.1500 
 18 C       -9.0260    -1.9930    -0.8690 C.ar  1 <1>  -0.1500 
 19 C       -9.6970    -3.1860    -1.1000 C.ar  1 <1>   0.0820 
 20 O      -11.0460    -3.2350    -1.2550 O.3   1 <1>  -0.1650 
 21 C      -11.8870    -2.4940    -0.4890 C.ar  1 <1>   0.0820 
 22 C      -13.0580    -2.0320    -1.0690 C.ar  1 <1>  -0.1500 
 23 C      -11.6180    -2.2080     0.8450 C.ar  1 <1>  -0.1500 
 24 C      -13.9520    -1.2780    -0.3290 C.ar  1 <1>  -0.1500 
 25 C      -12.5120    -1.4520     1.5840 C.ar  1 <1>  -0.1500 
 26 C      -13.6780    -0.9860     0.9970 C.ar  1 <1>  -0.1500 
 27 H        0.4000     1.7320    -0.3680 H     1 <1>   0.0800 
 28 H        0.1780     0.6220     0.9520 H     1 <1>   0.0800 
 29 H       -1.2010     1.1960     0.0460 H     1 <1>   0.0800 
 30 H       -2.6960    -1.0260    -1.3950 H     1 <1>   0.0800 
 31 H       -2.5710    -0.6670     0.3100 H     1 <1>   0.0800 
 32 H       -0.5230    -1.5440     1.5590 H     1 <1>   0.0800 
 33 H        0.6390    -2.4820     0.6490 H     1 <1>   0.0800 
 34 H       -3.0020    -3.3700    -0.9490 H     1 <1>   0.0800 
 35 H       -0.8010    -3.9170     2.0620 H     1 <1>   0.0800 
 36 H       -0.9160    -4.2940     0.3700 H     1 <1>   0.0800 
 37 H       -3.1680    -4.2810     1.3260 H     1 <1>   0.0800 
 38 H       -2.9110    -2.6960     2.0020 H     1 <1>   0.0800 
 39 H       -5.0910    -4.0400    -1.1110 H     1 <1>   0.3700 
 40 H       -7.0650    -5.2840    -1.1350 H     1 <1>   0.1500 
 41 H       -7.1460    -1.0580    -0.5510 H     1 <1>   0.1500 
 42 H       -9.5070    -5.2870    -1.3900 H     1 <1>   0.1500 
 43 H       -9.5730    -1.0690    -0.8040 H     1 <1>   0.1500 
 44 H      -13.2650    -2.2640    -2.0990 H     1 <1>   0.1500 
 45 H      -10.7200    -2.5760     1.3080 H     1 <1>   0.1500 
 46 H      -14.8590    -0.9180    -0.7820 H     1 <1>   0.1500 
 47 H      -12.3020    -1.2280     2.6150 H     1 <1>   0.1500 
 48 H      -14.3720    -0.3990     1.5730 H     1 <1>   0.1500 
@<TRIPOS>BOND
  1   1   2  2   
  2   1   3  2   
  3   1   4  am  
  4   1   5  1   
  5   4   6  1   
  6   4   7  1   
  7   5  27  1   
  8   5  28  1   
  9   5  29  1   
 10   6   8  1   
 11   6  30  1   
 12   6  31  1   
 13   7   9  1   
 14   7  32  1   
 15   7  33  1   
 16   8  10  1   
 17   8  11  1   
 18   8  34  1   
 19   9  11  1   
 20   9  35  1   
 21   9  36  1   
 22  10  12  2   
 23  10  13  am  
 24  11  37  1   
 25  11  38  1   
 26  13  14  1   
 27  13  39  1   
 28  14  15  ar  
 29  14  16  ar  
 30  15  17  ar  
 31  15  40  1   
 32  16  18  ar  
 33  16  41  1   
 34  17  19  ar  
 35  17  42  1   
 36  18  19  ar  
 37  18  43  1   
 38  19  20  1   
 39  20  21  1   
 40  21  22  ar  
 41  21  23  ar  
 42  22  24  ar  
 43  22  44  1   
 44  23  25  ar  
 45  23  45  1   
 46  24  26  ar  
 47  24  46  1   
 48  25  26  ar  
 49  25  47  1   
 50  26  48  1   
@<TRIPOS>SUBSTRUCTURE
  1 ****  14 GROUP 4 **** **** 0

# MOE 2024.06 (io_trps.svl 2023.06)
