@<TRIPOS>MOLECULE
NONAME
51 53 1 0 0 
SMALL
USER_CHARGES


@<TRIPOS>ATOM
  1 O       -0.5380    -2.4360    -1.0450 O.2   1 <1>  -0.5700 
  2 C        0.3160    -2.4270    -0.1810 C.2   1 <1>   0.6340 
  3 O       -0.0440    -2.1320     1.0720 O.3   1 <1>  -0.4300 
  4 C        1.7120    -2.7210    -0.4370 C.ar  1 <1>   0.0860 
  5 C       -1.3820    -1.8330     1.4050 C.3   1 <1>   0.1200 
  6 C        2.1610    -3.0320    -1.7230 C.ar  1 <1>  -0.1500 
  7 C        2.6760    -2.7110     0.5760 C.ar  1 <1>  -0.1500 
  8 C       -1.4440    -1.5460     2.9020 C.3   1 <1>  -0.2400 
  9 C        3.4880    -3.3150    -1.9840 C.ar  1 <1>  -0.1500 
 10 C        4.0030    -2.9940     0.3180 C.ar  1 <1>  -0.1500 
 11 C        4.4370    -3.3000    -0.9660 C.ar  1 <1>   0.1170 
 12 N        5.7920    -3.5780    -1.1670 N.am  1 <1>  -0.5470 
 13 C        6.5500    -3.8180    -2.2780 C.2   1 <1>   0.5690 
 14 O        6.1310    -3.8160    -3.4100 O.2   1 <1>  -0.5700 
 15 C        8.0330    -4.1020    -2.0300 C.3   1 <1>   0.1710 
 16 N        8.5500    -3.5070    -0.7600 N.3   1 <1>  -0.8100 
 17 C        9.8390    -4.1330    -0.3870 C.3   1 <1>   0.1100 
 18 C        8.7290    -2.0410    -0.9080 C.3   1 <1>   0.1100 
 19 C       10.3910    -3.5490     0.9230 C.3   1 <1>   0.1400 
 20 C        9.2700    -1.3920     0.3800 C.3   1 <1>   0.1400 
 21 N       10.5280    -2.0650     0.8190 N.am  1 <1>  -0.6600 
 22 C       11.7660    -1.4540     0.7590 C.2   1 <1>   0.7150 
 23 O       12.7450    -2.1530     0.5580 O.2   1 <1>  -0.5700 
 24 C       11.9080    -0.0230     0.9340 C.2   1 <1>   0.0550 
 25 O       12.7980     0.6730     0.2310 O.3   1 <1>  -0.2800 
 26 C       11.2480     0.8420     1.7570 C.2   1 <1>  -0.1500 
 27 C       12.7230     1.9370     0.5770 C.2   1 <1>  -0.0100 
 28 C       11.7770     2.1120     1.5230 C.2   1 <1>  -0.1500 
 29 H       -1.9950    -2.6810     1.1480 H     1 <1>   0.0800 
 30 H       -1.6920    -0.9750     0.8330 H     1 <1>   0.0800 
 31 H        1.4510    -3.0520    -2.5330 H     1 <1>   0.1500 
 32 H        2.3780    -2.4790     1.5840 H     1 <1>   0.1500 
 33 H       -1.1210    -2.4070     3.4580 H     1 <1>   0.0800 
 34 H       -2.4550    -1.3150     3.1840 H     1 <1>   0.0800 
 35 H       -0.8200    -0.7040     3.1440 H     1 <1>   0.0800 
 36 H        3.7810    -3.5510    -2.9910 H     1 <1>   0.1500 
 37 H        4.7130    -2.9770     1.1250 H     1 <1>   0.1500 
 38 H        6.3840    -3.5670    -0.3310 H     1 <1>   0.3700 
 39 H        8.6040    -3.7430    -2.8680 H     1 <1>   0.0800 
 40 H        8.1430    -5.1710    -1.9930 H     1 <1>   0.0800 
 41 H       10.5650    -3.9830    -1.1690 H     1 <1>   0.0800 
 42 H        9.6990    -5.1920    -0.2590 H     1 <1>   0.0800 
 43 H        7.7870    -1.5820    -1.1550 H     1 <1>   0.0800 
 44 H        9.4170    -1.8360    -1.7120 H     1 <1>   0.0800 
 45 H       11.3410    -4.0040     1.1450 H     1 <1>   0.0800 
 46 H        9.7190    -3.7860     1.7280 H     1 <1>   0.0800 
 47 H        8.5330    -1.4760     1.1590 H     1 <1>   0.0800 
 48 H        9.4400    -0.3480     0.1900 H     1 <1>   0.0800 
 49 H       10.4720     0.6100     2.4650 H     1 <1>   0.1500 
 50 H       13.3800     2.6470     0.1040 H     1 <1>   0.1500 
 51 H       11.4770     3.0220     2.0120 H     1 <1>   0.1500 
@<TRIPOS>BOND
  1   1   2  2   
  2   2   3  1   
  3   2   4  1   
  4   3   5  1   
  5   4   6  ar  
  6   4   7  ar  
  7   5   8  1   
  8   5  29  1   
  9   5  30  1   
 10   6   9  ar  
 11   6  31  1   
 12   7  10  ar  
 13   7  32  1   
 14   8  33  1   
 15   8  34  1   
 16   8  35  1   
 17   9  11  ar  
 18   9  36  1   
 19  10  11  ar  
 20  10  37  1   
 21  11  12  1   
 22  12  13  am  
 23  12  38  1   
 24  13  14  2   
 25  13  15  1   
 26  15  16  1   
 27  15  39  1   
 28  15  40  1   
 29  16  17  1   
 30  16  18  1   
 31  17  19  1   
 32  17  41  1   
 33  17  42  1   
 34  18  20  1   
 35  18  43  1   
 36  18  44  1   
 37  19  21  1   
 38  19  45  1   
 39  19  46  1   
 40  20  21  1   
 41  20  47  1   
 42  20  48  1   
 43  21  22  am  
 44  22  23  2   
 45  22  24  1   
 46  24  25  1   
 47  24  26  2   
 48  25  27  1   
 49  26  28  1   
 50  26  49  1   
 51  27  28  2   
 52  27  50  1   
 53  28  51  1   
@<TRIPOS>SUBSTRUCTURE
  1 ****  12 GROUP 4 **** **** 0

# MOE 2024.06 (io_trps.svl 2023.06)
