@<TRIPOS>MOLECULE
NONAME
49 50 1 0 0 
SMALL
USER_CHARGES


@<TRIPOS>ATOM
  1 S        0.5710    -1.4030     0.1480 S.o2  1 <1>   1.4470 
  2 O        1.5830    -0.4630    -0.2890 O.2   1 <1>  -0.6500 
  3 O        0.7460    -2.7840    -0.2460 O.2   1 <1>  -0.6500 
  4 N        0.7590    -1.3750     1.8170 N.am  1 <1>  -0.9140 
  5 C       -1.1140    -0.7790    -0.1540 C.ar  1 <1>  -0.0090 
  6 C        1.7690    -2.2490     2.4060 C.3   1 <1>   0.1960 
  7 C       -2.2840    -1.4990     0.1170 C.ar  1 <1>  -0.1430 
  8 C       -1.2420     0.4980    -0.6830 C.ar  1 <1>  -0.1500 
  9 C        3.2000    -1.8450     2.0190 C.3   1 <1>  -0.1600 
 10 C       -3.5390    -0.9550    -0.1790 C.ar  1 <1>  -0.1430 
 11 C       -2.1860    -2.8980     0.7370 C.3   1 <1>  -0.0970 
 12 C       -2.4760     1.0510    -0.9460 C.ar  1 <1>  -0.1500 
 13 C        3.6830    -2.5590     0.7490 C.3   1 <1>   0.3430 
 14 C       -3.6300     0.3350    -0.6980 C.ar  1 <1>  -0.1430 
 15 C       -4.8140    -1.7710     0.0600 C.3   1 <1>  -0.0970 
 16 N        4.9030    -1.9010     0.2090 N.4   1 <1>  -0.9590 
 17 C       -4.9590     1.0140    -1.0100 C.3   1 <1>  -0.0970 
 18 C        4.5390    -0.6480    -0.5490 C.3   1 <1>   0.3430 
 19 C        5.6490    -2.8340    -0.7050 C.3   1 <1>   0.3430 
 20 C        5.7650    -0.0280    -1.2450 C.3   1 <1>   0.1200 
 21 C        6.8390    -2.1270    -1.3820 C.3   1 <1>   0.1200 
 22 O        6.4050    -0.9780    -2.0500 O.3   1 <1>  -0.5600 
 23 H        0.9490    -0.4040     2.0580 H     1 <1>   0.4200 
 24 H        1.5700    -3.2760     2.1390 H     1 <1>   0.0800 
 25 H        1.6710    -2.1780     3.4780 H     1 <1>   0.0800 
 26 H       -0.3650     1.0820    -0.9000 H     1 <1>   0.1500 
 27 H        3.8520    -2.1360     2.8230 H     1 <1>   0.0800 
 28 H        3.2500    -0.7750     1.9230 H     1 <1>   0.0800 
 29 H       -1.3330    -2.9990     1.3780 H     1 <1>   0.0800 
 30 H       -2.1200    -3.6380    -0.0410 H     1 <1>   0.0800 
 31 H       -3.0360    -3.1210     1.3540 H     1 <1>   0.0800 
 32 H       -2.5290     2.0470    -1.3520 H     1 <1>   0.1500 
 33 H        2.9220    -2.5470    -0.0100 H     1 <1>   0.0800 
 34 H        3.8900    -3.5900     0.9870 H     1 <1>   0.0800 
 35 H       -4.6730    -2.7900    -0.2500 H     1 <1>   0.0800 
 36 H       -5.6520    -1.4020    -0.4990 H     1 <1>   0.0800 
 37 H       -5.0670    -1.7510     1.1040 H     1 <1>   0.0800 
 38 H        5.5260    -1.6430     0.9830 H     1 <1>   0.4500 
 39 H       -5.6110     0.9640    -0.1570 H     1 <1>   0.0800 
 40 H       -5.4310     0.5300    -1.8470 H     1 <1>   0.0800 
 41 H       -4.8180     2.0500    -1.2580 H     1 <1>   0.0800 
 42 H        4.1000     0.0770     0.1150 H     1 <1>   0.0800 
 43 H        3.8030    -0.8800    -1.3020 H     1 <1>   0.0800 
 44 H        4.9870    -3.1950    -1.4750 H     1 <1>   0.0800 
 45 H        6.0090    -3.6850    -0.1500 H     1 <1>   0.0800 
 46 H        6.4710     0.3500    -0.5270 H     1 <1>   0.0800 
 47 H        5.4560     0.7830    -1.8820 H     1 <1>   0.0800 
 48 H        7.2880    -2.7770    -2.1130 H     1 <1>   0.0800 
 49 H        7.5900    -1.8490    -0.6640 H     1 <1>   0.0800 
@<TRIPOS>BOND
  1   1   2  2   
  2   1   3  2   
  3   1   4  am  
  4   1   5  1   
  5   4   6  1   
  6   4  23  1   
  7   5   7  ar  
  8   5   8  ar  
  9   6   9  1   
 10   6  24  1   
 11   6  25  1   
 12   7  10  ar  
 13   7  11  1   
 14   8  12  ar  
 15   8  26  1   
 16   9  13  1   
 17   9  27  1   
 18   9  28  1   
 19  10  14  ar  
 20  10  15  1   
 21  11  29  1   
 22  11  30  1   
 23  11  31  1   
 24  12  14  ar  
 25  12  32  1   
 26  13  16  1   
 27  13  33  1   
 28  13  34  1   
 29  14  17  1   
 30  15  35  1   
 31  15  36  1   
 32  15  37  1   
 33  16  18  1   
 34  16  19  1   
 35  16  38  1   
 36  17  39  1   
 37  17  40  1   
 38  17  41  1   
 39  18  20  1   
 40  18  42  1   
 41  18  43  1   
 42  19  21  1   
 43  19  44  1   
 44  19  45  1   
 45  20  22  1   
 46  20  46  1   
 47  20  47  1   
 48  21  22  1   
 49  21  48  1   
 50  21  49  1   
@<TRIPOS>SUBSTRUCTURE
  1 ****   1 GROUP 4 **** **** 0

# MOE 2024.06 (io_trps.svl 2023.06)
