@<TRIPOS>MOLECULE
NONAME
48 50 1 0 0 
SMALL
USER_CHARGES


@<TRIPOS>ATOM
  1 O       -0.5030     1.1350    -2.0300 O.2   1 <1>  -0.5700 
  2 C       -0.9100     1.7860    -1.0960 C.2   1 <1>   0.4950 
  3 C       -0.0630     2.5940    -0.2690 C.2   1 <1>   0.0290 
  4 C       -2.4030     1.6840    -0.8460 C.3   1 <1>  -0.0990 
  5 C       -0.6560     3.3040     0.8330 C.2   1 <1>   0.4950 
  6 C        1.2850     2.6620    -0.5580 C.2   1 <1>  -0.0500 
  7 C       -2.9460     2.9340    -0.1580 C.3   1 <1>   0.0640 
  8 O       -0.0490     4.0080     1.6090 O.2   1 <1>  -0.5700 
  9 C       -2.1440     3.2040     1.1140 C.3   1 <1>  -0.0990 
 10 N        2.2160     3.3750     0.1190 N.pl3 1 <1>  -0.8690 
 11 C       -4.4370     2.8050     0.1380 C.ar  1 <1>  -0.1430 
 12 C        3.6560     3.4550    -0.1760 C.3   1 <1>   0.2890 
 13 C       -4.9280     1.8120     0.9770 C.ar  1 <1>  -0.1500 
 14 C       -5.3310     3.6960    -0.4400 C.ar  1 <1>  -0.1500 
 15 C        4.4140     2.9080     1.0390 C.3   1 <1>  -0.1600 
 16 C        3.9710     4.9110    -0.5330 C.3   1 <1>  -0.1600 
 17 C       -6.2850     1.7130     1.2310 C.ar  1 <1>  -0.1500 
 18 C       -6.6880     3.5980    -0.1870 C.ar  1 <1>  -0.1500 
 19 C        5.8970     2.6370     0.7340 C.3   1 <1>  -0.1600 
 20 C        5.4570     5.2140    -0.7900 C.3   1 <1>  -0.1600 
 21 C       -7.1670     2.6060     0.6500 C.ar  1 <1>  -0.1500 
 22 C        6.8300     3.8430     0.9280 C.3   1 <1>  -0.1600 
 23 C        6.2860     5.2160     0.5020 C.3   1 <1>  -0.1600 
 24 H       -2.5860     0.8090    -0.2510 H     1 <1>   0.0800 
 25 H       -2.9090     1.5530    -1.7870 H     1 <1>   0.0800 
 26 H        1.6530     2.0990    -1.4030 H     1 <1>   0.1500 
 27 H       -2.7980     3.7690    -0.8240 H     1 <1>   0.0800 
 28 H       -2.4820     4.1280     1.5510 H     1 <1>   0.0800 
 29 H       -2.2990     2.4250     1.8370 H     1 <1>   0.0800 
 30 H        1.9200     3.9310     0.9410 H     1 <1>   0.4000 
 31 H        3.8660     2.8320    -1.0300 H     1 <1>   0.0800 
 32 H       -4.2640     1.1060     1.4420 H     1 <1>   0.1500 
 33 H       -4.9810     4.4750    -1.0940 H     1 <1>   0.1500 
 34 H        3.9620     1.9680     1.3040 H     1 <1>   0.0800 
 35 H        4.3130     3.5700     1.8790 H     1 <1>   0.0800 
 36 H        3.6090     5.5540     0.2490 H     1 <1>   0.0800 
 37 H        3.4220     5.1490    -1.4270 H     1 <1>   0.0800 
 38 H       -6.6570     0.9410     1.8820 H     1 <1>   0.1500 
 39 H       -7.3730     4.2930    -0.6400 H     1 <1>   0.1500 
 40 H        5.9920     2.2700    -0.2730 H     1 <1>   0.0800 
 41 H        6.2410     1.8500     1.3820 H     1 <1>   0.0800 
 42 H        5.5150     6.1990    -1.2200 H     1 <1>   0.0800 
 43 H        5.8700     4.5270    -1.5100 H     1 <1>   0.0800 
 44 H       -8.2220     2.5290     0.8470 H     1 <1>   0.1500 
 45 H        7.7380     3.6470     0.3830 H     1 <1>   0.0800 
 46 H        7.0990     3.9060     1.9680 H     1 <1>   0.0800 
 47 H        5.6980     5.6310     1.3030 H     1 <1>   0.0800 
 48 H        7.1280     5.8730     0.3680 H     1 <1>   0.0800 
@<TRIPOS>BOND
  1   1   2  2   
  2   2   3  1   
  3   2   4  1   
  4   3   5  1   
  5   3   6  2   
  6   4   7  1   
  7   4  24  1   
  8   4  25  1   
  9   5   8  2   
 10   5   9  1   
 11   6  10  1   
 12   6  26  1   
 13   7   9  1   
 14   7  11  1   
 15   7  27  1   
 16   9  28  1   
 17   9  29  1   
 18  10  12  1   
 19  10  30  1   
 20  11  13  ar  
 21  11  14  ar  
 22  12  15  1   
 23  12  16  1   
 24  12  31  1   
 25  13  17  ar  
 26  13  32  1   
 27  14  18  ar  
 28  14  33  1   
 29  15  19  1   
 30  15  34  1   
 31  15  35  1   
 32  16  20  1   
 33  16  36  1   
 34  16  37  1   
 35  17  21  ar  
 36  17  38  1   
 37  18  21  ar  
 38  18  39  1   
 39  19  22  1   
 40  19  40  1   
 41  19  41  1   
 42  20  23  1   
 43  20  42  1   
 44  20  43  1   
 45  21  44  1   
 46  22  23  1   
 47  22  45  1   
 48  22  46  1   
 49  23  47  1   
 50  23  48  1   
@<TRIPOS>SUBSTRUCTURE
  1 ****   3 GROUP 4 **** **** 0

# MOE 2024.06 (io_trps.svl 2023.06)
