@<TRIPOS>MOLECULE
NONAME
31 31 1 0 0 
SMALL
USER_CHARGES


@<TRIPOS>ATOM
  1 I       -0.4980     0.0960     1.0180 I     1 <1>  -0.0810 
  2 C        0.6670    -1.5920     0.4100 C.ar  1 <1>   0.0810 
  3 C        0.0460    -2.8020     0.1150 C.ar  1 <1>   0.0820 
  4 C        2.0360    -1.4160     0.3290 C.ar  1 <1>  -0.1500 
  5 O       -1.3080    -2.8920     0.2190 O.3   1 <1>  -0.3630 
  6 C        0.8550    -3.8670    -0.2770 C.ar  1 <1>  -0.1500 
  7 C        2.8210    -2.4870    -0.0620 C.ar  1 <1>  -0.1500 
  8 C       -2.0010    -4.0770    -0.0780 C.3   1 <1>   0.1200 
  9 C        2.2300    -3.7050    -0.3630 C.ar  1 <1>  -0.1500 
 10 C       -3.4850    -3.7870     0.1440 C.3   1 <1>  -0.1600 
 11 C       -4.3360    -5.0160    -0.1690 C.3   1 <1>   0.3430 
 12 N       -5.7700    -4.7520     0.1550 N.4   1 <1>  -0.9590 
 13 C       -6.5500    -6.0280     0.1730 C.3   1 <1>   0.2630 
 14 C       -6.3980    -3.7740    -0.7910 C.3   1 <1>   0.2630 
 15 H        2.4820    -0.4660     0.5640 H     1 <1>   0.1500 
 16 H        0.4420    -4.8270    -0.5180 H     1 <1>   0.1500 
 17 H        3.8890    -2.3740    -0.1330 H     1 <1>   0.1500 
 18 H       -1.6470    -4.8490     0.5830 H     1 <1>   0.0800 
 19 H       -1.8000    -4.3350    -1.1040 H     1 <1>   0.0800 
 20 H        2.8470    -4.5340    -0.6660 H     1 <1>   0.1500 
 21 H       -3.7630    -2.9690    -0.4950 H     1 <1>   0.0800 
 22 H       -3.6230    -3.5020     1.1720 H     1 <1>   0.0800 
 23 H       -3.9810    -5.8440     0.4250 H     1 <1>   0.0800 
 24 H       -4.2340    -5.2800    -1.2100 H     1 <1>   0.0800 
 25 H       -5.8020    -4.3440     1.1030 H     1 <1>   0.4500 
 26 H       -6.5380    -6.4900    -0.8010 H     1 <1>   0.0800 
 27 H       -7.5740    -5.8370     0.4510 H     1 <1>   0.0800 
 28 H       -6.1260    -6.7170     0.8870 H     1 <1>   0.0800 
 29 H       -6.3540    -4.1470    -1.8020 H     1 <1>   0.0800 
 30 H       -5.8860    -2.8270    -0.7510 H     1 <1>   0.0800 
 31 H       -7.4320    -3.6120    -0.5290 H     1 <1>   0.0800 
@<TRIPOS>BOND
  1   1   2  1   
  2   2   3  ar  
  3   2   4  ar  
  4   3   5  1   
  5   3   6  ar  
  6   4   7  ar  
  7   4  15  1   
  8   5   8  1   
  9   6   9  ar  
 10   6  16  1   
 11   7   9  ar  
 12   7  17  1   
 13   8  10  1   
 14   8  18  1   
 15   8  19  1   
 16   9  20  1   
 17  10  11  1   
 18  10  21  1   
 19  10  22  1   
 20  11  12  1   
 21  11  23  1   
 22  11  24  1   
 23  12  13  1   
 24  12  14  1   
 25  12  25  1   
 26  13  26  1   
 27  13  27  1   
 28  13  28  1   
 29  14  29  1   
 30  14  30  1   
 31  14  31  1   
@<TRIPOS>SUBSTRUCTURE
  1 ****   5 GROUP 4 **** **** 0

# MOE 2024.06 (io_trps.svl 2023.06)
