@<TRIPOS>MOLECULE
NONAME
31 32 1 0 0 
SMALL
USER_CHARGES


@<TRIPOS>ATOM
  1 O       -0.9210    -1.7900     2.0260 O.2   1 <1>  -0.5700 
  2 C       -1.4220    -1.9140     0.9390 C.2   1 <1>   0.6590 
  3 O       -0.7120    -2.1680    -0.1500 O.3   1 <1>  -0.4300 
  4 C       -2.9110    -1.7660     0.7440 C.3   1 <1>  -0.0990 
  5 C        0.6870    -2.3150    -0.0960 C.3   1 <1>   0.1200 
  6 C       -3.2600    -0.3470     0.2880 C.3   1 <1>   0.0200 
  7 C        1.1890    -2.5850    -1.5110 C.3   1 <1>  -0.2400 
  8 C       -4.7620    -0.1870     0.1620 C.2   1 <1>   0.0060 
  9 N       -5.4100    -0.3920    -0.9300 N.2   1 <1>  -0.5650 
 10 N       -5.5470     0.1830     1.2060 N.pl3 1 <1>   0.0330 
 11 C       -6.7110    -0.1470    -0.6050 C.ar  1 <1>   0.2270 
 12 C       -6.8160     0.2130     0.7260 C.ar  1 <1>  -0.1520 
 13 C       -7.8520    -0.2150    -1.3990 C.ar  1 <1>  -0.1500 
 14 C       -8.0510     0.5160     1.3060 C.ar  1 <1>  -0.1500 
 15 C       -9.0710     0.0820    -0.8330 C.ar  1 <1>   0.0820 
 16 C       -9.1780     0.4480     0.5160 C.ar  1 <1>  -0.1500 
 17 O      -10.1830     0.0210    -1.5880 O.3   1 <1>  -0.5320 
 18 H       -3.4040    -1.9850     1.6730 H     1 <1>   0.0800 
 19 H       -3.2450    -2.4770     0.0090 H     1 <1>   0.0800 
 20 H        0.9190    -3.1370     0.5610 H     1 <1>   0.0800 
 21 H        1.1120    -1.4070     0.2980 H     1 <1>   0.0800 
 22 H       -2.8090    -0.1590    -0.6710 H     1 <1>   0.0800 
 23 H       -2.8730     0.3750     0.9850 H     1 <1>   0.0800 
 24 H        0.7490    -3.4890    -1.8940 H     1 <1>   0.0800 
 25 H        2.2570    -2.7020    -1.5010 H     1 <1>   0.0800 
 26 H        0.9400    -1.7620    -2.1560 H     1 <1>   0.0800 
 27 H       -5.2530     0.3970     2.1620 H     1 <1>   0.2700 
 28 H       -7.7620    -0.4950    -2.4310 H     1 <1>   0.1500 
 29 H       -8.1110     0.7940     2.3430 H     1 <1>   0.1500 
 30 H      -10.1420     0.6750     0.9320 H     1 <1>   0.1500 
 31 H      -10.9870     0.2500    -1.0900 H     1 <1>   0.4500 
@<TRIPOS>BOND
  1   1   2  2   
  2   2   3  1   
  3   2   4  1   
  4   3   5  1   
  5   4   6  1   
  6   4  18  1   
  7   4  19  1   
  8   5   7  1   
  9   5  20  1   
 10   5  21  1   
 11   6   8  1   
 12   6  22  1   
 13   6  23  1   
 14   7  24  1   
 15   7  25  1   
 16   7  26  1   
 17   8   9  2   
 18   8  10  1   
 19   9  11  1   
 20  10  12  1   
 21  10  27  1   
 22  11  12  ar  
 23  11  13  ar  
 24  12  14  ar  
 25  13  15  ar  
 26  13  28  1   
 27  14  16  ar  
 28  14  29  1   
 29  15  16  ar  
 30  15  17  1   
 31  16  30  1   
 32  17  31  1   
@<TRIPOS>SUBSTRUCTURE
  1 ****   8 GROUP 4 **** **** 0

# MOE 2024.06 (io_trps.svl 2023.06)
