@<TRIPOS>MOLECULE
NONAME
39 41 1 0 0 
SMALL
USER_CHARGES


@<TRIPOS>ATOM
  1 F        1.6350    -1.9550     3.0470 F     1 <1>  -0.1900 
  2 C        2.3790    -1.9880     1.9610 C.ar  1 <1>   0.1900 
  3 C        2.1650    -2.9480     0.9840 C.ar  1 <1>   0.4100 
  4 C        3.3800    -1.0740     1.7930 C.ar  1 <1>   0.1600 
  5 N        2.9330    -2.9680    -0.0860 N.ar  1 <1>  -0.6200 
  6 N        1.1680    -3.9040     1.1300 N.pl3 1 <1>  -0.6000 
  7 N        4.1470    -1.0890     0.7220 N.ar  1 <1>  -0.6200 
  8 C        3.8840    -2.0430    -0.1730 C.ar  1 <1>   0.7200 
  9 C        0.7150    -4.9480     0.3050 C.ar  1 <1>   0.1000 
 10 N        4.6770    -2.0840    -1.3010 N.pl3 1 <1>  -0.8380 
 11 C        0.1500    -6.0780     0.9080 C.ar  1 <1>   0.0830 
 12 C        0.7820    -4.8930    -1.0830 C.ar  1 <1>  -0.1500 
 13 C        4.9700    -3.3720    -2.0050 C.3   1 <1>   0.2090 
 14 C        5.6820    -1.0270    -1.6290 C.3   1 <1>   0.2090 
 15 O        0.0760    -6.0850     2.2740 O.3   1 <1>  -0.3630 
 16 C       -0.3120    -7.1300     0.1220 C.ar  1 <1>  -0.1500 
 17 C        0.3210    -5.9410    -1.8600 C.ar  1 <1>  -0.1500 
 18 C        6.4380    -3.7820    -1.7830 C.3   1 <1>   0.1200 
 19 C        7.1090    -1.5620    -1.4120 C.3   1 <1>   0.1200 
 20 C       -0.4050    -7.2110     2.9740 C.3   1 <1>   0.0400 
 21 C       -0.2230    -7.0610    -1.2580 C.ar  1 <1>  -0.1500 
 22 O        7.3160    -2.7450    -2.1350 O.3   1 <1>  -0.5600 
 23 H        3.5550    -0.3230     2.5430 H     1 <1>   0.1500 
 24 H        0.8120    -4.0010     2.0850 H     1 <1>   0.4000 
 25 H        1.1910    -4.0240    -1.5630 H     1 <1>   0.1500 
 26 H        4.7920    -3.2460    -3.0580 H     1 <1>   0.0800 
 27 H        4.3310    -4.1660    -1.6610 H     1 <1>   0.0800 
 28 H        5.5330    -0.1420    -1.0360 H     1 <1>   0.0800 
 29 H        5.5680    -0.7440    -2.6610 H     1 <1>   0.0800 
 30 H       -0.7450    -8.0080     0.5590 H     1 <1>   0.1500 
 31 H        0.3860    -5.8810    -2.9320 H     1 <1>   0.1500 
 32 H        6.6780    -4.6360    -2.3900 H     1 <1>   0.0800 
 33 H        6.6000    -4.0340    -0.7500 H     1 <1>   0.0800 
 34 H        7.2760    -1.7600    -0.3670 H     1 <1>   0.0800 
 35 H        7.8300    -0.8400    -1.7480 H     1 <1>   0.0800 
 36 H        0.2080    -8.0610     2.7320 H     1 <1>   0.0800 
 37 H       -1.4300    -7.3820     2.6980 H     1 <1>   0.0800 
 38 H       -0.3410    -7.0030     4.0270 H     1 <1>   0.0800 
 39 H       -0.5810    -7.8750    -1.8630 H     1 <1>   0.1500 
@<TRIPOS>BOND
  1   1   2  1   
  2   2   3  ar  
  3   2   4  ar  
  4   3   5  ar  
  5   3   6  1   
  6   4   7  ar  
  7   4  23  1   
  8   5   8  ar  
  9   6   9  1   
 10   6  24  1   
 11   7   8  ar  
 12   8  10  1   
 13   9  11  ar  
 14   9  12  ar  
 15  10  13  1   
 16  10  14  1   
 17  11  15  1   
 18  11  16  ar  
 19  12  17  ar  
 20  12  25  1   
 21  13  18  1   
 22  13  26  1   
 23  13  27  1   
 24  14  19  1   
 25  14  28  1   
 26  14  29  1   
 27  15  20  1   
 28  16  21  ar  
 29  16  30  1   
 30  17  21  ar  
 31  17  31  1   
 32  18  22  1   
 33  18  32  1   
 34  18  33  1   
 35  19  22  1   
 36  19  34  1   
 37  19  35  1   
 38  20  36  1   
 39  20  37  1   
 40  20  38  1   
 41  21  39  1   
@<TRIPOS>SUBSTRUCTURE
  1 ****   5 GROUP 4 **** **** 0

# MOE 2024.06 (io_trps.svl 2023.06)
