@<TRIPOS>MOLECULE
NONAME
39 41 1 0 0 
SMALL
USER_CHARGES


@<TRIPOS>ATOM
  1 CL       0.0590     0.4300    -1.6030 Cl    1 <1>  -0.1770 
  2 C       -0.9930     1.6430    -0.9220 C.ar  1 <1>   0.1770 
  3 C       -0.6190     2.3440     0.2210 C.ar  1 <1>   0.1770 
  4 C       -2.2060     1.8940    -1.5400 C.ar  1 <1>  -0.1500 
  5 CL       0.9110     2.0240     0.9970 Cl    1 <1>  -0.1770 
  6 C       -1.4510     3.3070     0.7650 C.ar  1 <1>  -0.1500 
  7 C       -3.0440     2.8620    -0.9960 C.ar  1 <1>   0.0860 
  8 C       -2.6700     3.5620     0.1460 C.ar  1 <1>   0.0860 
  9 C       -4.3360     3.3530    -1.3820 C.2   1 <1>   0.5440 
 10 C       -3.7370     4.4730     0.4450 C.2   1 <1>   0.5440 
 11 O       -5.0050     2.9780    -2.3200 O.2   1 <1>  -0.5700 
 12 N       -4.7210     4.3270    -0.4980 N.am  1 <1>  -0.4200 
 13 O       -3.7900     5.2470     1.3760 O.2   1 <1>  -0.5700 
 14 C       -5.9570     5.1370    -0.5930 C.3   1 <1>   0.1400 
 15 C       -7.1220     4.4040     0.0760 C.3   1 <1>  -0.0990 
 16 C       -8.4250     5.1830    -0.0060 C.2   1 <1>   0.5690 
 17 O       -8.3980     6.2830    -0.5060 O.2   1 <1>  -0.5700 
 18 N       -9.5880     4.6370     0.4790 N.am  1 <1>  -0.6600 
 19 C       -9.7100     3.3070     1.1400 C.3   1 <1>   0.1400 
 20 C      -10.8880     5.3540     0.3440 C.3   1 <1>   0.1400 
 21 C      -10.6670     2.4220     0.3360 C.3   1 <1>  -0.1600 
 22 C      -11.8670     4.4940    -0.4630 C.3   1 <1>  -0.1600 
 23 C      -12.0340     3.0950     0.1490 C.3   1 <1>  -0.1600 
 24 H       -2.4990     1.3540    -2.4240 H     1 <1>   0.1500 
 25 H       -1.1650     3.8510     1.6490 H     1 <1>   0.1500 
 26 H       -6.1850     5.3160    -1.6300 H     1 <1>   0.0800 
 27 H       -5.7990     6.0890    -0.1130 H     1 <1>   0.0800 
 28 H       -6.8880     4.2440     1.1120 H     1 <1>   0.0800 
 29 H       -7.2640     3.4590    -0.4140 H     1 <1>   0.0800 
 30 H      -10.0980     3.4490     2.1350 H     1 <1>   0.0800 
 31 H       -8.7570     2.8190     1.2270 H     1 <1>   0.0800 
 32 H      -10.7550     6.3020    -0.1490 H     1 <1>   0.0800 
 33 H      -11.2870     5.5430     1.3250 H     1 <1>   0.0800 
 34 H      -10.7950     1.4820     0.8440 H     1 <1>   0.0800 
 35 H      -10.2290     2.2180    -0.6250 H     1 <1>   0.0800 
 36 H      -11.4970     4.4080    -1.4710 H     1 <1>   0.0800 
 37 H      -12.8210     4.9870    -0.5070 H     1 <1>   0.0800 
 38 H      -12.5230     3.1820     1.1050 H     1 <1>   0.0800 
 39 H      -12.6550     2.4910    -0.4890 H     1 <1>   0.0800 
@<TRIPOS>BOND
  1   1   2  1   
  2   2   3  ar  
  3   2   4  ar  
  4   3   5  1   
  5   3   6  ar  
  6   4   7  ar  
  7   4  24  1   
  8   6   8  ar  
  9   6  25  1   
 10   7   8  ar  
 11   7   9  1   
 12   8  10  1   
 13   9  11  2   
 14   9  12  am  
 15  10  12  am  
 16  10  13  2   
 17  12  14  1   
 18  14  15  1   
 19  14  26  1   
 20  14  27  1   
 21  15  16  1   
 22  15  28  1   
 23  15  29  1   
 24  16  17  2   
 25  16  18  am  
 26  18  19  1   
 27  18  20  1   
 28  19  21  1   
 29  19  30  1   
 30  19  31  1   
 31  20  22  1   
 32  20  32  1   
 33  20  33  1   
 34  21  23  1   
 35  21  34  1   
 36  21  35  1   
 37  22  23  1   
 38  22  36  1   
 39  22  37  1   
 40  23  38  1   
 41  23  39  1   
@<TRIPOS>SUBSTRUCTURE
  1 ****  12 GROUP 4 **** **** 0

# MOE 2024.06 (io_trps.svl 2023.06)
