@<TRIPOS>MOLECULE
NONAME
33 33 1 0 0 
SMALL
USER_CHARGES


@<TRIPOS>ATOM
  1 S        1.0270     1.4880     0.2240 S.3   1 <1>  -0.3320 
  2 C       -0.7600     1.7270     0.2870 C.ar  1 <1>   0.1020 
  3 C        1.4020     0.3150    -1.1750 C.3   1 <1>   0.2110 
  4 C       -1.2250     2.6610     1.1950 C.ar  1 <1>  -0.1500 
  5 C       -1.6450     1.0230    -0.5160 C.ar  1 <1>  -0.1500 
  6 C        2.7930    -0.3050    -0.9950 C.2   1 <1>   0.5690 
  7 C        1.2780     1.1110    -2.4810 C.3   1 <1>  -0.2400 
  8 C       -2.5850     2.9000     1.2990 C.ar  1 <1>  -0.1500 
  9 C       -3.0040     1.2680    -0.4060 C.ar  1 <1>  -0.1500 
 10 O        3.0240    -1.3680    -1.5210 O.2   1 <1>  -0.5700 
 11 N        3.7390     0.3470    -0.2710 N.am  1 <1>  -0.7300 
 12 C       -3.4790     2.2060     0.4980 C.ar  1 <1>  -0.1430 
 13 C        5.0900    -0.1500     0.0080 C.3   1 <1>   0.2780 
 14 C       -4.9700     2.4700     0.6160 C.3   1 <1>  -0.0970 
 15 C        5.4210     0.2260     1.4350 C.2   1 <1>  -0.2880 
 16 C        6.3970     1.0590     1.8130 C.2   1 <1>  -0.3000 
 17 H        0.6780    -0.4760    -1.1280 H     1 <1>   0.0800 
 18 H       -0.5280     3.1960     1.8130 H     1 <1>   0.1500 
 19 H       -1.3080     0.2920    -1.2210 H     1 <1>   0.1500 
 20 H        2.0060     1.9010    -2.5020 H     1 <1>   0.0800 
 21 H        0.2970     1.5380    -2.5770 H     1 <1>   0.0800 
 22 H        1.4540     0.4600    -3.3190 H     1 <1>   0.0800 
 23 H       -2.9420     3.6270     2.0070 H     1 <1>   0.1500 
 24 H       -3.6930     0.7230    -1.0270 H     1 <1>   0.1500 
 25 H        3.4880     1.2130     0.2120 H     1 <1>   0.3700 
 26 H        5.7860     0.3070    -0.6750 H     1 <1>   0.0800 
 27 H        5.1310    -1.2200    -0.1180 H     1 <1>   0.0800 
 28 H       -5.1500     3.4920     0.8950 H     1 <1>   0.0800 
 29 H       -5.3950     1.8250     1.3640 H     1 <1>   0.0800 
 30 H       -5.4610     2.2840    -0.3230 H     1 <1>   0.0800 
 31 H        4.7680    -0.2600     2.1410 H     1 <1>   0.1500 
 32 H        6.6080     1.3080     2.8390 H     1 <1>   0.1500 
 33 H        7.0650     1.5610     1.1340 H     1 <1>   0.1500 
@<TRIPOS>BOND
  1   1   2  1   
  2   1   3  1   
  3   2   4  ar  
  4   2   5  ar  
  5   3   6  1   
  6   3   7  1   
  7   3  17  1   
  8   4   8  ar  
  9   4  18  1   
 10   5   9  ar  
 11   5  19  1   
 12   6  10  2   
 13   6  11  am  
 14   7  20  1   
 15   7  21  1   
 16   7  22  1   
 17   8  12  ar  
 18   8  23  1   
 19   9  12  ar  
 20   9  24  1   
 21  11  13  1   
 22  11  25  1   
 23  12  14  1   
 24  13  15  1   
 25  13  26  1   
 26  13  27  1   
 27  14  28  1   
 28  14  29  1   
 29  14  30  1   
 30  15  16  2   
 31  15  31  1   
 32  16  32  1   
 33  16  33  1   
@<TRIPOS>SUBSTRUCTURE
  1 ****   1 GROUP 4 **** **** 0

# MOE 2024.06 (io_trps.svl 2023.06)
