@<TRIPOS>MOLECULE
NONAME
35 36 1 0 0 
SMALL
USER_CHARGES


@<TRIPOS>ATOM
  1 O       -0.1280    -0.1500    -0.7280 O.2   1 <1>  -0.5700 
  2 C       -0.2260    -1.2670    -0.2570 C.2   1 <1>   0.6160 
  3 N        0.9090    -1.8350     0.2450 N.am  1 <1>  -0.7300 
  4 C       -1.4890    -1.9900    -0.2390 C.2   1 <1>   0.1850 
  5 C        2.2790    -1.2430     0.1510 C.3   1 <1>   0.2010 
  6 N       -1.3700    -3.3660    -0.4070 N.2   1 <1>  -0.1710 
  7 C       -2.7270    -1.4220    -0.0760 C.2   1 <1>  -0.1690 
  8 C        3.3960    -2.2770     0.2840 C.2   1 <1>   0.6590 
  9 N       -2.3810    -4.1360    -0.4410 N.2   1 <1>  -0.1260 
 10 N       -3.8190    -2.2610    -0.1330 N.pl3 1 <1>   0.6010 
 11 C       -3.0260     0.0590     0.1730 C.3   1 <1>  -0.1020 
 12 O        3.1760    -3.4220     0.5980 O.2   1 <1>  -0.5700 
 13 O        4.6230    -1.8370     0.0370 O.3   1 <1>  -0.4300 
 14 C       -3.6310    -3.5990    -0.3100 C.2   1 <1>  -0.0260 
 15 N       -5.1350    -1.9650    -0.0230 N.2   1 <1>  -0.7070 
 16 C        5.7410    -2.6910     0.1220 C.3   1 <1>   0.1200 
 17 C       -4.8640    -4.1640    -0.3140 C.2   1 <1>  -0.1500 
 18 C       -5.7420    -3.1090    -0.1350 C.2   1 <1>   0.1080 
 19 C        6.9850    -1.8780    -0.2190 C.3   1 <1>  -0.2400 
 20 C       -7.2470    -3.2230    -0.0680 C.3   1 <1>  -0.0590 
 21 H        0.8960    -2.8230     0.5280 H     1 <1>   0.3700 
 22 H        2.3970    -0.5110     0.9290 H     1 <1>   0.0800 
 23 H        2.3860    -0.7450    -0.7960 H     1 <1>   0.0800 
 24 H       -3.7160     0.1640     0.9910 H     1 <1>   0.0800 
 25 H       -3.4750     0.4920    -0.7040 H     1 <1>   0.0800 
 26 H       -2.1470     0.6230     0.4200 H     1 <1>   0.0800 
 27 H        5.6050    -3.5010    -0.5750 H     1 <1>   0.0800 
 28 H        5.7960    -3.0830     1.1240 H     1 <1>   0.0800 
 29 H       -5.1110    -5.2030    -0.4310 H     1 <1>   0.1500 
 30 H        6.9100    -1.4860    -1.2170 H     1 <1>   0.0800 
 31 H        7.8550    -2.5060    -0.1630 H     1 <1>   0.0800 
 32 H        7.1020    -1.0680     0.4790 H     1 <1>   0.0800 
 33 H       -7.6870    -2.6340    -0.8520 H     1 <1>   0.0800 
 34 H       -7.5940    -2.8550     0.8800 H     1 <1>   0.0800 
 35 H       -7.5540    -4.2460    -0.1820 H     1 <1>   0.0800 
@<TRIPOS>BOND
  1   1   2  2   
  2   2   3  am  
  3   2   4  1   
  4   3   5  1   
  5   3  21  1   
  6   4   6  1   
  7   4   7  2   
  8   5   8  1   
  9   5  22  1   
 10   5  23  1   
 11   6   9  2   
 12   7  10  1   
 13   7  11  1   
 14   8  12  2   
 15   8  13  1   
 16   9  14  1   
 17  10  14  1   
 18  10  15  1   
 19  11  24  1   
 20  11  25  1   
 21  11  26  1   
 22  13  16  1   
 23  14  17  2   
 24  15  18  2   
 25  16  19  1   
 26  16  27  1   
 27  16  28  1   
 28  17  18  1   
 29  17  29  1   
 30  18  20  1   
 31  19  30  1   
 32  19  31  1   
 33  19  32  1   
 34  20  33  1   
 35  20  34  1   
 36  20  35  1   
@<TRIPOS>SUBSTRUCTURE
  1 ****   4 GROUP 4 **** **** 0

# MOE 2024.06 (io_trps.svl 2023.06)
