@<TRIPOS>MOLECULE
NONAME
40 42 1 0 0 
SMALL
USER_CHARGES


@<TRIPOS>ATOM
  1 N        0.1700     0.4250    -0.5580 N.1   1 <1>  -0.5570 
  2 C        0.6740     1.4410    -0.4230 C.1   1 <1>   0.4840 
  3 C        1.3530     2.6900    -0.2800 C.ar  1 <1>   0.0730 
  4 C        2.7460     2.7090    -0.2750 C.ar  1 <1>   0.4100 
  5 C        0.6680     3.8920    -0.1540 C.ar  1 <1>   0.0000 
  6 N        3.4690     3.8010    -0.1850 N.ar  1 <1>  -0.6200 
  7 N        3.5160     1.5870    -0.3750 N.pl3 1 <1>  -0.9000 
  8 C       -0.7790     3.9040    -0.1770 C.ar  1 <1>   0.0000 
  9 C        1.4330     5.0560    -0.0210 C.ar  1 <1>  -0.1430 
 10 C        2.8260     4.9510    -0.0690 C.ar  1 <1>   0.1670 
 11 C       -1.5180     3.6140     0.9660 C.ar  1 <1>  -0.1500 
 12 C       -1.4710     4.2080    -1.3440 C.ar  1 <1>  -0.1500 
 13 C        0.6750     6.3860     0.1610 C.3   1 <1>  -0.0170 
 14 C        3.7950     6.1330     0.0020 C.3   1 <1>  -0.0170 
 15 C       -2.9000     3.6300     0.9440 C.ar  1 <1>  -0.1500 
 16 C       -2.8540     4.2250    -1.3700 C.ar  1 <1>  -0.1500 
 17 C        1.3860     7.4340     1.0240 C.3   1 <1>  -0.1600 
 18 C        3.3080     7.4200    -0.6730 C.3   1 <1>  -0.1600 
 19 C       -3.5780     3.9380    -0.2240 C.ar  1 <1>  -0.1430 
 20 C        2.4110     8.2620     0.2400 C.3   1 <1>  -0.1600 
 21 C       -5.0950     3.9520    -0.2510 C.3   1 <1>  -0.0970 
 22 H        4.5090     1.7820    -0.5190 H     1 <1>   0.4000 
 23 H        3.1670     0.7640    -0.8700 H     1 <1>   0.4000 
 24 H       -1.0040     3.3740     1.8800 H     1 <1>   0.1500 
 25 H       -0.9200     4.4320    -2.2400 H     1 <1>   0.1500 
 26 H       -0.2600     6.1990     0.6560 H     1 <1>   0.0800 
 27 H        0.4360     6.8000    -0.8030 H     1 <1>   0.0800 
 28 H        4.7040     5.8440    -0.4990 H     1 <1>   0.0800 
 29 H        4.0590     6.3170     1.0280 H     1 <1>   0.0800 
 30 H       -3.4490     3.4000     1.8400 H     1 <1>   0.1500 
 31 H       -3.3660     4.4610    -2.2860 H     1 <1>   0.1500 
 32 H        1.8530     6.9470     1.8630 H     1 <1>   0.0800 
 33 H        0.6510     8.1110     1.4250 H     1 <1>   0.0800 
 34 H        2.7910     7.1690    -1.5830 H     1 <1>   0.0800 
 35 H        4.1610     8.0170    -0.9490 H     1 <1>   0.0800 
 36 H        3.0230     8.8010     0.9430 H     1 <1>   0.0800 
 37 H        1.8970     8.9910    -0.3630 H     1 <1>   0.0800 
 38 H       -5.4630     2.9720    -0.4950 H     1 <1>   0.0800 
 39 H       -5.4530     4.6510    -0.9850 H     1 <1>   0.0800 
 40 H       -5.4860     4.2400     0.7090 H     1 <1>   0.0800 
@<TRIPOS>BOND
  1   1   2  3   
  2   2   3  1   
  3   3   4  ar  
  4   3   5  ar  
  5   4   6  ar  
  6   4   7  1   
  7   5   8  1   
  8   5   9  ar  
  9   6  10  ar  
 10   7  22  1   
 11   7  23  1   
 12   8  11  ar  
 13   8  12  ar  
 14   9  10  ar  
 15   9  13  1   
 16  10  14  1   
 17  11  15  ar  
 18  11  24  1   
 19  12  16  ar  
 20  12  25  1   
 21  13  17  1   
 22  13  26  1   
 23  13  27  1   
 24  14  18  1   
 25  14  28  1   
 26  14  29  1   
 27  15  19  ar  
 28  15  30  1   
 29  16  19  ar  
 30  16  31  1   
 31  17  20  1   
 32  17  32  1   
 33  17  33  1   
 34  18  20  1   
 35  18  34  1   
 36  18  35  1   
 37  19  21  1   
 38  20  36  1   
 39  20  37  1   
 40  21  38  1   
 41  21  39  1   
 42  21  40  1   
@<TRIPOS>SUBSTRUCTURE
  1 ****   5 GROUP 4 **** **** 0

# MOE 2024.06 (io_trps.svl 2023.06)
