@<TRIPOS>MOLECULE
NONAME
29 29 1 0 0 
SMALL
USER_CHARGES


@<TRIPOS>ATOM
  1 S       -0.2400    -0.1140     0.3720 S.o2  1 <1>   1.3330 
  2 O       -0.5050    -1.5290     0.3460 O.2   1 <1>  -0.6500 
  3 O       -1.1050     0.8100     1.0610 O.2   1 <1>  -0.6500 
  4 N        1.2960     0.1420     1.0900 N.am  1 <1>  -0.7570 
  5 C        0.0200     0.4820    -1.2840 C.3   1 <1>  -0.1350 
  6 C        2.5340    -0.3240     0.6610 C.ar  1 <1>   0.1990 
  7 C        3.6510     0.5180     0.6380 C.ar  1 <1>  -0.1430 
  8 C        2.6670    -1.6470     0.2600 C.ar  1 <1>  -0.1500 
  9 C        4.9060     0.0250     0.2390 C.ar  1 <1>   0.0860 
 10 C        3.5080     1.9920     1.0410 C.3   1 <1>  -0.0970 
 11 C        3.8830    -2.1380    -0.1620 C.ar  1 <1>  -0.1500 
 12 C        6.1270     0.8150     0.2330 C.2   1 <1>   0.6340 
 13 C        4.9840    -1.3090    -0.1700 C.ar  1 <1>  -0.1500 
 14 O        6.4220     1.6170     1.0950 O.2   1 <1>  -0.5700 
 15 O        6.9770     0.6250    -0.7820 O.3   1 <1>  -0.4300 
 16 C        8.2010     1.3270    -0.8750 C.3   1 <1>   0.0400 
 17 H        1.2690     0.9610     1.6890 H     1 <1>   0.4200 
 18 H       -0.8930     0.4170    -1.8440 H     1 <1>   0.0800 
 19 H        0.7670    -0.1080    -1.7770 H     1 <1>   0.0800 
 20 H        0.3400     1.5050    -1.2660 H     1 <1>   0.0800 
 21 H        1.8190    -2.3080     0.2900 H     1 <1>   0.1500 
 22 H        2.5060     2.3580     0.9240 H     1 <1>   0.0800 
 23 H        4.1330     2.6180     0.4290 H     1 <1>   0.0800 
 24 H        3.8060     2.1180     2.0670 H     1 <1>   0.0800 
 25 H        3.9720    -3.1640    -0.4750 H     1 <1>   0.1500 
 26 H        5.9320    -1.7060    -0.4930 H     1 <1>   0.1500 
 27 H        8.7090     1.0090    -1.7680 H     1 <1>   0.0800 
 28 H        8.7970     1.1030    -0.0080 H     1 <1>   0.0800 
 29 H        7.9950     2.3820    -0.9210 H     1 <1>   0.0800 
@<TRIPOS>BOND
  1   1   2  2   
  2   1   3  2   
  3   1   4  am  
  4   1   5  1   
  5   4   6  1   
  6   4  17  1   
  7   5  18  1   
  8   5  19  1   
  9   5  20  1   
 10   6   7  ar  
 11   6   8  ar  
 12   7   9  ar  
 13   7  10  1   
 14   8  11  ar  
 15   8  21  1   
 16   9  12  1   
 17   9  13  ar  
 18  10  22  1   
 19  10  23  1   
 20  10  24  1   
 21  11  13  ar  
 22  11  25  1   
 23  12  14  2   
 24  12  15  1   
 25  13  26  1   
 26  15  16  1   
 27  16  27  1   
 28  16  28  1   
 29  16  29  1   
@<TRIPOS>SUBSTRUCTURE
  1 ****   7 GROUP 4 **** **** 0

# MOE 2024.06 (io_trps.svl 2023.06)
