@<TRIPOS>MOLECULE
NONAME
39 40 1 0 0 
SMALL
USER_CHARGES


@<TRIPOS>ATOM
  1 O       -0.1410    -0.4670    -1.0400 O.2   1 <1>  -0.5700 
  2 C       -0.0220    -1.4060    -0.2900 C.2   1 <1>   0.5690 
  3 N        1.1820    -1.8160     0.2250 N.am  1 <1>  -0.5470 
  4 C       -1.3070    -2.1710     0.0820 C.3   1 <1>   0.4040 
  5 C        2.4880    -1.3150     0.0100 C.ar  1 <1>   0.1170 
  6 N       -2.5750    -1.3980    -0.2090 N.4   1 <1>  -0.9590 
  7 C        3.5930    -2.1680     0.1470 C.ar  1 <1>   0.0730 
  8 C        2.7160     0.0180    -0.3230 C.ar  1 <1>  -0.1500 
  9 C       -2.7320    -0.2260     0.7020 C.3   1 <1>   0.3430 
 10 C       -3.7850    -2.2670    -0.2430 C.3   1 <1>   0.3430 
 11 C        3.3910    -3.5400     0.5010 C.1   1 <1>   0.4840 
 12 C        4.8760    -1.6760    -0.0600 C.ar  1 <1>  -0.1500 
 13 C        3.9960     0.4960    -0.5270 C.ar  1 <1>  -0.1500 
 14 C       -3.9250     0.6170     0.2520 C.3   1 <1>  -0.1600 
 15 C       -4.9910    -1.4500    -0.7060 C.3   1 <1>  -0.1600 
 16 N        3.0910    -4.5980     0.8010 N.1   1 <1>  -0.5570 
 17 C        5.0800    -0.3510    -0.3960 C.ar  1 <1>  -0.1500 
 18 C       -5.2140    -0.2140     0.1770 C.3   1 <1>  -0.0800 
 19 C       -6.3710     0.6330    -0.3630 C.3   1 <1>  -0.2400 
 20 H        1.1690    -2.6830     0.7720 H     1 <1>   0.3700 
 21 H       -1.2730    -2.4280     1.1260 H     1 <1>   0.0800 
 22 H       -1.3130    -3.0840    -0.4880 H     1 <1>   0.0800 
 23 H       -2.4380    -0.9900    -1.1500 H     1 <1>   0.4500 
 24 H        1.8940     0.7040    -0.4260 H     1 <1>   0.1500 
 25 H       -1.8410     0.3830     0.6790 H     1 <1>   0.0800 
 26 H       -2.8910    -0.5630     1.7130 H     1 <1>   0.0800 
 27 H       -3.9780    -2.6640     0.7400 H     1 <1>   0.0800 
 28 H       -3.6320    -3.0920    -0.9210 H     1 <1>   0.0800 
 29 H        5.7260    -2.3310     0.0420 H     1 <1>   0.1500 
 30 H        4.1510     1.5300    -0.7880 H     1 <1>   0.1500 
 31 H       -3.7060     1.0550    -0.7070 H     1 <1>   0.0800 
 32 H       -4.0610     1.4260     0.9490 H     1 <1>   0.0800 
 33 H       -5.8670    -2.0750    -0.6730 H     1 <1>   0.0800 
 34 H       -4.8470    -1.1540    -1.7310 H     1 <1>   0.0800 
 35 H        6.0780     0.0220    -0.5560 H     1 <1>   0.1500 
 36 H       -5.4740    -0.5410     1.1720 H     1 <1>   0.0800 
 37 H       -6.1600     0.9870    -1.3570 H     1 <1>   0.0800 
 38 H       -6.5400     1.4860     0.2720 H     1 <1>   0.0800 
 39 H       -7.2780     0.0550    -0.3920 H     1 <1>   0.0800 
@<TRIPOS>BOND
  1   1   2  2   
  2   2   3  am  
  3   2   4  1   
  4   3   5  1   
  5   3  20  1   
  6   4   6  1   
  7   4  21  1   
  8   4  22  1   
  9   5   7  ar  
 10   5   8  ar  
 11   6   9  1   
 12   6  10  1   
 13   6  23  1   
 14   7  11  1   
 15   7  12  ar  
 16   8  13  ar  
 17   8  24  1   
 18   9  14  1   
 19   9  25  1   
 20   9  26  1   
 21  10  15  1   
 22  10  27  1   
 23  10  28  1   
 24  11  16  3   
 25  12  17  ar  
 26  12  29  1   
 27  13  17  ar  
 28  13  30  1   
 29  14  18  1   
 30  14  31  1   
 31  14  32  1   
 32  15  18  1   
 33  15  33  1   
 34  15  34  1   
 35  17  35  1   
 36  18  19  1   
 37  18  36  1   
 38  19  37  1   
 39  19  38  1   
 40  19  39  1   
@<TRIPOS>SUBSTRUCTURE
  1 ****   2 GROUP 4 **** **** 0

# MOE 2024.06 (io_trps.svl 2023.06)
