@<TRIPOS>MOLECULE
NONAME
43 45 1 0 0 
SMALL
USER_CHARGES


@<TRIPOS>ATOM
  1 O       -2.1170     0.2580     1.6390 O.3   1 <1>  -0.3630 
  2 C       -2.4760     0.9500     0.5210 C.ar  1 <1>   0.0830 
  3 C       -0.7910     0.2140     2.1220 C.3   1 <1>   0.0400 
  4 C       -1.7460     1.9730    -0.1100 C.ar  1 <1>   0.0830 
  5 C       -3.7000     0.5670    -0.0010 C.ar  1 <1>  -0.1500 
  6 O       -0.5510     2.3830     0.4040 O.3   1 <1>  -0.3630 
  7 C       -2.2740     2.5630    -1.2570 C.ar  1 <1>  -0.1500 
  8 C       -4.2260     1.1700    -1.1310 C.ar  1 <1>  -0.1430 
  9 C        0.2640     3.3460    -0.2300 C.3   1 <1>   0.0400 
 10 C       -3.5000     2.1670    -1.7630 C.ar  1 <1>  -0.1500 
 11 C       -5.5840     0.7490    -1.6570 C.3   1 <1>   0.4860 
 12 N       -6.6180     1.1480    -0.6670 N.4   1 <1>  -0.9590 
 13 C       -7.9660     0.6350    -1.0260 C.3   1 <1>   0.4860 
 14 C       -6.6610     2.6220    -0.4310 C.3   1 <1>   0.3430 
 15 C       -8.9800     1.0280     0.0350 C.ar  1 <1>  -0.1430 
 16 C       -7.4820     2.9230     0.8250 C.3   1 <1>  -0.0170 
 17 C       -8.7630     2.1040     0.8920 C.ar  1 <1>  -0.1430 
 18 C      -10.1550     0.2980     0.1400 C.ar  1 <1>  -0.1500 
 19 C       -9.7210     2.4340     1.8380 C.ar  1 <1>  -0.1500 
 20 C      -11.1070     0.6330     1.0860 C.ar  1 <1>  -0.1500 
 21 C      -10.8900     1.7020     1.9350 C.ar  1 <1>  -0.1500 
 22 H       -0.7310    -0.5550     2.8700 H     1 <1>   0.0800 
 23 H       -0.5480     1.1660     2.5590 H     1 <1>   0.0800 
 24 H       -0.1280    -0.0140     1.3060 H     1 <1>   0.0800 
 25 H       -4.2270    -0.2230     0.5050 H     1 <1>   0.1500 
 26 H       -1.7460     3.3410    -1.7750 H     1 <1>   0.1500 
 27 H        1.1600     3.4610     0.3530 H     1 <1>   0.0800 
 28 H       -0.2640     4.2820    -0.2710 H     1 <1>   0.0800 
 29 H        0.5150     2.9980    -1.2170 H     1 <1>   0.0800 
 30 H       -3.8740     2.6480    -2.6510 H     1 <1>   0.1500 
 31 H       -5.5930    -0.3200    -1.7970 H     1 <1>   0.0800 
 32 H       -5.7730     1.2220    -2.6070 H     1 <1>   0.0800 
 33 H       -6.3670     0.7200     0.2330 H     1 <1>   0.4500 
 34 H       -7.9410    -0.4390    -1.1090 H     1 <1>   0.0800 
 35 H       -8.2760     1.0440    -1.9740 H     1 <1>   0.0800 
 36 H       -7.1130     3.1120    -1.2790 H     1 <1>   0.0800 
 37 H       -5.6660     3.0160    -0.3000 H     1 <1>   0.0800 
 38 H       -7.7190     3.9720     0.8420 H     1 <1>   0.0800 
 39 H       -6.8850     2.7130     1.6940 H     1 <1>   0.0800 
 40 H      -10.3490    -0.5380    -0.5110 H     1 <1>   0.1500 
 41 H       -9.5660     3.2620     2.5090 H     1 <1>   0.1500 
 42 H      -12.0180     0.0640     1.1640 H     1 <1>   0.1500 
 43 H      -11.6310     1.9630     2.6710 H     1 <1>   0.1500 
@<TRIPOS>BOND
  1   1   2  1   
  2   1   3  1   
  3   2   4  ar  
  4   2   5  ar  
  5   3  22  1   
  6   3  23  1   
  7   3  24  1   
  8   4   6  1   
  9   4   7  ar  
 10   5   8  ar  
 11   5  25  1   
 12   6   9  1   
 13   7  10  ar  
 14   7  26  1   
 15   8  10  ar  
 16   8  11  1   
 17   9  27  1   
 18   9  28  1   
 19   9  29  1   
 20  10  30  1   
 21  11  12  1   
 22  11  31  1   
 23  11  32  1   
 24  12  13  1   
 25  12  14  1   
 26  12  33  1   
 27  13  15  1   
 28  13  34  1   
 29  13  35  1   
 30  14  16  1   
 31  14  36  1   
 32  14  37  1   
 33  15  17  ar  
 34  15  18  ar  
 35  16  17  1   
 36  16  38  1   
 37  16  39  1   
 38  17  19  ar  
 39  18  20  ar  
 40  18  40  1   
 41  19  21  ar  
 42  19  41  1   
 43  20  21  ar  
 44  20  42  1   
 45  21  43  1   
@<TRIPOS>SUBSTRUCTURE
  1 ****  12 GROUP 4 **** **** 0

# MOE 2024.06 (io_trps.svl 2023.06)
