@<TRIPOS>MOLECULE
NONAME
38 40 1 0 0 
SMALL
USER_CHARGES


@<TRIPOS>ATOM
  1 O       -0.7390     0.1240    -0.6630 O.3   1 <1>  -0.3630 
  2 C       -1.8980    -0.3960    -0.2200 C.ar  1 <1>   0.0830 
  3 C       -0.2350    -0.7580    -1.6620 C.3   1 <1>   0.4000 
  4 C       -2.7840     0.0600     0.7570 C.ar  1 <1>   0.0830 
  5 C       -2.1580    -1.5510    -0.9000 C.ar  1 <1>   0.0830 
  6 O       -1.1910    -1.8060    -1.7850 O.3   1 <1>  -0.3630 
  7 O       -2.6470     1.1920     1.4990 O.3   1 <1>  -0.3630 
  8 C       -3.9220    -0.6980     1.0040 C.ar  1 <1>  -0.1500 
  9 C       -3.2860    -2.3120    -0.6660 C.ar  1 <1>  -0.1500 
 10 C       -1.4990     2.0040     1.3800 C.3   1 <1>   0.0400 
 11 C       -4.1850    -1.8710     0.2990 C.ar  1 <1>  -0.1430 
 12 C       -5.4530    -2.6520     0.5780 C.3   1 <1>   0.4870 
 13 N       -6.4400    -2.3280    -0.4820 N.4   1 <1>  -0.9060 
 14 C       -6.8630    -0.9140    -0.5110 C.3   1 <1>   0.4230 
 15 C       -7.8430    -0.6470     0.6280 C.3   1 <1>  -0.1600 
 16 C       -7.7250    -0.7110    -1.7500 C.3   1 <1>  -0.1600 
 17 C       -9.1960    -1.1900     0.1520 C.3   1 <1>  -0.1600 
 18 C       -9.1210    -1.2300    -1.3800 C.3   1 <1>  -0.1600 
 19 H        0.7090    -1.1650    -1.3430 H     1 <1>   0.0800 
 20 H       -0.1480    -0.2340    -2.5980 H     1 <1>   0.0800 
 21 H       -4.5950    -0.3430     1.7660 H     1 <1>   0.1500 
 22 H       -3.4290    -3.2170    -1.2310 H     1 <1>   0.1500 
 23 H       -1.5890     2.8170     2.0770 H     1 <1>   0.0800 
 24 H       -1.4440     2.3870     0.3760 H     1 <1>   0.0800 
 25 H       -0.6290     1.4170     1.6130 H     1 <1>   0.0800 
 26 H       -5.8400    -2.3900     1.5500 H     1 <1>   0.0800 
 27 H       -5.2320    -3.7070     0.5720 H     1 <1>   0.0800 
 28 H       -7.2830    -2.9020    -0.3860 H     1 <1>   0.4500 
 29 H       -6.0120    -2.5430    -1.3870 H     1 <1>   0.4500 
 30 H       -6.0140    -0.2470    -0.4980 H     1 <1>   0.0800 
 31 H       -7.9300     0.4210     0.7470 H     1 <1>   0.0800 
 32 H       -7.5400    -1.0580     1.5740 H     1 <1>   0.0800 
 33 H       -7.3240    -1.1800    -2.6310 H     1 <1>   0.0800 
 34 H       -7.7940     0.3470    -1.9390 H     1 <1>   0.0800 
 35 H      -10.0010    -0.5540     0.4840 H     1 <1>   0.0800 
 36 H       -9.3670    -2.1800     0.5390 H     1 <1>   0.0800 
 37 H       -9.2560    -2.2390    -1.7310 H     1 <1>   0.0800 
 38 H       -9.8860    -0.6120    -1.8230 H     1 <1>   0.0800 
@<TRIPOS>BOND
  1   1   2  1   
  2   1   3  1   
  3   2   4  ar  
  4   2   5  ar  
  5   3   6  1   
  6   3  19  1   
  7   3  20  1   
  8   4   7  1   
  9   4   8  ar  
 10   5   6  1   
 11   5   9  ar  
 12   7  10  1   
 13   8  11  ar  
 14   8  21  1   
 15   9  11  ar  
 16   9  22  1   
 17  10  23  1   
 18  10  24  1   
 19  10  25  1   
 20  11  12  1   
 21  12  13  1   
 22  12  26  1   
 23  12  27  1   
 24  13  14  1   
 25  13  28  1   
 26  13  29  1   
 27  14  15  1   
 28  14  16  1   
 29  14  30  1   
 30  15  17  1   
 31  15  31  1   
 32  15  32  1   
 33  16  18  1   
 34  16  33  1   
 35  16  34  1   
 36  17  18  1   
 37  17  35  1   
 38  17  36  1   
 39  18  37  1   
 40  18  38  1   
@<TRIPOS>SUBSTRUCTURE
  1 ****  11 GROUP 4 **** **** 0

# MOE 2024.06 (io_trps.svl 2023.06)
