@<TRIPOS>MOLECULE
NONAME
32 32 1 0 0 
SMALL
USER_CHARGES


@<TRIPOS>ATOM
  1 O        0.8290    -1.4770    -1.9470 O.2   1 <1>  -0.5700 
  2 C        1.6060    -1.5240    -1.0270 C.2   1 <1>   0.6590 
  3 O        2.5810    -0.6120    -0.9900 O.3   1 <1>  -0.4300 
  4 C        1.4090    -2.4600     0.1580 C.3   1 <1>  -0.1250 
  5 C        3.7990    -0.7310    -0.2880 C.3   1 <1>   0.1200 
  6 C        2.5930    -3.3840     0.2190 C.2   1 <1>   0.9060 
  7 C        0.0580    -3.2220     0.2930 C.3   1 <1>  -0.0800 
  8 C        4.6040     0.5420    -0.5260 C.3   1 <1>  -0.2400 
  9 O        2.9930    -3.9730    -0.7880 O.co2 1 <1>  -0.9000 
 10 O        3.1890    -3.4710     1.2990 O.co2 1 <1>  -0.9000 
 11 C       -0.2220    -4.2300    -0.8400 C.3   1 <1>  -0.1600 
 12 C       -1.1300    -2.2540     0.4630 C.3   1 <1>  -0.1600 
 13 C       -1.5420    -4.9800    -0.6130 C.3   1 <1>  -0.1600 
 14 C       -2.4450    -3.0110     0.6920 C.3   1 <1>  -0.1600 
 15 C       -2.7140    -4.0040    -0.4460 C.3   1 <1>  -0.1600 
 16 H        1.4820    -1.8400     1.0280 H     1 <1>   0.0800 
 17 H        4.3270    -1.5920    -0.6650 H     1 <1>   0.0800 
 18 H        3.5930    -0.8610     0.7610 H     1 <1>   0.0800 
 19 H        0.1320    -3.7940     1.2030 H     1 <1>   0.0800 
 20 H        4.7970     0.6610    -1.5770 H     1 <1>   0.0800 
 21 H        5.5420     0.4760    -0.0070 H     1 <1>   0.0800 
 22 H        4.0630     1.3950    -0.1580 H     1 <1>   0.0800 
 23 H        0.5800    -4.9460    -0.8990 H     1 <1>   0.0800 
 24 H       -0.2680    -3.7210    -1.7860 H     1 <1>   0.0800 
 25 H       -1.2300    -1.6440    -0.4170 H     1 <1>   0.0800 
 26 H       -0.9480    -1.6000     1.2990 H     1 <1>   0.0800 
 27 H       -1.4540    -5.5890     0.2690 H     1 <1>   0.0800 
 28 H       -1.7290    -5.6310    -1.4490 H     1 <1>   0.0800 
 29 H       -3.2570    -2.3080     0.7560 H     1 <1>   0.0800 
 30 H       -2.3910    -3.5440     1.6250 H     1 <1>   0.0800 
 31 H       -3.6160    -4.5530    -0.2430 H     1 <1>   0.0800 
 32 H       -2.8530    -3.4600    -1.3650 H     1 <1>   0.0800 
@<TRIPOS>BOND
  1   1   2  2   
  2   2   3  1   
  3   2   4  1   
  4   3   5  1   
  5   4   6  1   
  6   4   7  1   
  7   4  16  1   
  8   5   8  1   
  9   5  17  1   
 10   5  18  1   
 11   6   9  ar  
 12   6  10  ar  
 13   7  11  1   
 14   7  12  1   
 15   7  19  1   
 16   8  20  1   
 17   8  21  1   
 18   8  22  1   
 19  11  13  1   
 20  11  23  1   
 21  11  24  1   
 22  12  14  1   
 23  12  25  1   
 24  12  26  1   
 25  13  15  1   
 26  13  27  1   
 27  13  28  1   
 28  14  15  1   
 29  14  29  1   
 30  14  30  1   
 31  15  31  1   
 32  15  32  1   
@<TRIPOS>SUBSTRUCTURE
  1 ****   4 GROUP 4 **** **** 0

# MOE 2024.06 (io_trps.svl 2023.06)
