@<TRIPOS>MOLECULE
NONAME
49 52 1 0 0 
SMALL
USER_CHARGES


@<TRIPOS>ATOM
  1 S        0.4870    -0.1380    -1.5270 S.o2  1 <1>   1.4470 
  2 O        1.6150    -0.9630    -1.9010 O.2   1 <1>  -0.6500 
  3 O       -0.5130     0.1920    -2.5200 O.2   1 <1>  -0.6500 
  4 N       -0.3180    -0.9230    -0.2580 N.am  1 <1>  -0.8490 
  5 C        1.1040     1.3760    -0.7370 C.ar  1 <1>  -0.0090 
  6 C       -1.5790    -0.2560     0.0860 C.3   1 <1>   0.1960 
  7 C       -0.5420    -2.3400    -0.5620 C.3   1 <1>   0.1960 
  8 C        0.8300     2.6330    -1.2620 C.ar  1 <1>  -0.1500 
  9 C        1.8710     1.3180     0.4200 C.ar  1 <1>  -0.1500 
 10 C       -2.1880    -0.8920     1.3400 C.3   1 <1>  -0.1600 
 11 C       -1.1270    -3.0590     0.6590 C.3   1 <1>  -0.1600 
 12 C        1.2900     3.7830    -0.6470 C.ar  1 <1>  -0.1500 
 13 C        2.3320     2.4670     1.0360 C.ar  1 <1>  -0.1500 
 14 C       -2.4220    -2.3940     1.1410 C.3   1 <1>  -0.1600 
 15 C        2.0420     3.7310     0.5270 C.ar  1 <1>   0.0860 
 16 C        2.5090     4.9290     1.2020 C.2   1 <1>   0.5440 
 17 O        3.6270     4.9860     1.6660 O.2   1 <1>  -0.5700 
 18 N        1.7380     6.0470     1.3560 N.am  1 <1>  -0.5470 
 19 C        0.3680     6.2410     1.1620 C.ar  1 <1>   0.1170 
 20 C       -0.0810     7.4180     0.5760 C.ar  1 <1>  -0.1500 
 21 C       -0.5650     5.2720     1.5500 C.ar  1 <1>  -0.1500 
 22 C       -1.4400     7.5670     0.3770 C.ar  1 <1>   0.0400 
 23 C       -1.9220     5.4500     1.3380 C.ar  1 <1>  -0.1500 
 24 S       -2.2950     8.9150    -0.3440 S.3   1 <1>  -0.0800 
 25 C       -2.3750     6.6140     0.7360 C.ar  1 <1>   0.2270 
 26 C       -3.8140     8.0590    -0.0950 C.2   1 <1>   0.1980 
 27 N       -3.7020     6.9200     0.4540 N.2   1 <1>  -0.5650 
 28 C       -5.0740     8.7560    -0.5530 C.3   1 <1>  -0.0600 
 29 H       -2.2740    -0.3340    -0.7350 H     1 <1>   0.0800 
 30 H       -1.4000     0.7880     0.2770 H     1 <1>   0.0800 
 31 H        0.3930    -2.8110    -0.8200 H     1 <1>   0.0800 
 32 H       -1.2090    -2.4340    -1.4040 H     1 <1>   0.0800 
 33 H        0.2460     2.7110    -2.1650 H     1 <1>   0.1500 
 34 H        2.1080     0.3540     0.8410 H     1 <1>   0.1500 
 35 H       -3.1210    -0.4080     1.5680 H     1 <1>   0.0800 
 36 H       -1.5210    -0.7320     2.1690 H     1 <1>   0.0800 
 37 H       -0.3960    -3.0460     1.4490 H     1 <1>   0.0800 
 38 H       -1.3190    -4.0870     0.4090 H     1 <1>   0.0800 
 39 H        1.0620     4.7400    -1.0840 H     1 <1>   0.1500 
 40 H        2.9290     2.3920     1.9300 H     1 <1>   0.1500 
 41 H       -3.1940    -2.5420     0.4050 H     1 <1>   0.0800 
 42 H       -2.7460    -2.8430     2.0630 H     1 <1>   0.0800 
 43 H        2.2720     6.8340     1.7240 H     1 <1>   0.3700 
 44 H        0.6020     8.1900     0.2750 H     1 <1>   0.1500 
 45 H       -0.2220     4.3710     2.0260 H     1 <1>   0.1500 
 46 H       -2.6400     4.7050     1.6320 H     1 <1>   0.1500 
 47 H       -5.1840     9.6890    -0.0320 H     1 <1>   0.0800 
 48 H       -5.9270     8.1370    -0.3450 H     1 <1>   0.0800 
 49 H       -5.0250     8.9420    -1.6100 H     1 <1>   0.0800 
@<TRIPOS>BOND
  1   1   2  2   
  2   1   3  2   
  3   1   4  am  
  4   1   5  1   
  5   4   6  1   
  6   4   7  1   
  7   5   8  ar  
  8   5   9  ar  
  9   6  10  1   
 10   6  29  1   
 11   6  30  1   
 12   7  11  1   
 13   7  31  1   
 14   7  32  1   
 15   8  12  ar  
 16   8  33  1   
 17   9  13  ar  
 18   9  34  1   
 19  10  14  1   
 20  10  35  1   
 21  10  36  1   
 22  11  14  1   
 23  11  37  1   
 24  11  38  1   
 25  12  15  ar  
 26  12  39  1   
 27  13  15  ar  
 28  13  40  1   
 29  14  41  1   
 30  14  42  1   
 31  15  16  1   
 32  16  17  2   
 33  16  18  am  
 34  18  19  1   
 35  18  43  1   
 36  19  20  ar  
 37  19  21  ar  
 38  20  22  ar  
 39  20  44  1   
 40  21  23  ar  
 41  21  45  1   
 42  22  24  1   
 43  22  25  ar  
 44  23  25  ar  
 45  23  46  1   
 46  24  26  1   
 47  25  27  1   
 48  26  27  2   
 49  26  28  1   
 50  28  47  1   
 51  28  48  1   
 52  28  49  1   
@<TRIPOS>SUBSTRUCTURE
  1 ****  12 GROUP 4 **** **** 0

# MOE 2024.06 (io_trps.svl 2023.06)
