@<TRIPOS>MOLECULE
NONAME
42 42 1 0 0 
SMALL
USER_CHARGES


@<TRIPOS>ATOM
  1 O        0.0220    -1.0020    -1.6570 O.2   1 <1>  -0.5700 
  2 C       -0.6210    -1.6260    -0.8280 C.2   1 <1>   0.6900 
  3 N       -0.0750    -2.7470    -0.2480 N.am  1 <1>  -0.6600 
  4 N       -1.8920    -1.2080    -0.4960 N.am  1 <1>  -0.6600 
  5 C        1.3530    -2.8190     0.1790 C.3   1 <1>   0.2200 
  6 C       -0.8040    -4.0430    -0.2740 C.3   1 <1>   0.1400 
  7 C       -2.4190    -1.3560     0.8860 C.3   1 <1>   0.1400 
  8 C       -2.5800    -0.1920    -1.3380 C.3   1 <1>   0.1400 
  9 C        1.7980    -1.5390     0.9050 C.3   1 <1>  -0.1600 
 10 C        2.2760    -3.1420    -1.0050 C.3   1 <1>  -0.1600 
 11 C       -1.1570    -4.4340    -1.7090 C.3   1 <1>  -0.2400 
 12 C       -3.7900    -2.0300     0.8680 C.3   1 <1>  -0.2400 
 13 C       -3.2870    -0.8920    -2.4950 C.3   1 <1>  -0.2400 
 14 C        3.2590    -1.6500     1.3660 C.3   1 <1>  -0.1600 
 15 C        3.7420    -3.2410    -0.5520 C.3   1 <1>  -0.1600 
 16 C        4.1850    -1.9680     0.1830 C.3   1 <1>  -0.1600 
 17 H        1.4440    -3.6210     0.8900 H     1 <1>   0.0800 
 18 H       -1.7000    -3.9660     0.3130 H     1 <1>   0.0800 
 19 H       -0.1940    -4.8170     0.1600 H     1 <1>   0.0800 
 20 H       -2.4940    -0.3830     1.3410 H     1 <1>   0.0800 
 21 H       -1.7370    -1.9380     1.4820 H     1 <1>   0.0800 
 22 H       -1.8620     0.5140    -1.7230 H     1 <1>   0.0800 
 23 H       -3.2940     0.3570    -0.7490 H     1 <1>   0.0800 
 24 H        1.1630    -1.3710     1.7560 H     1 <1>   0.0800 
 25 H        1.7160    -0.6950     0.2450 H     1 <1>   0.0800 
 26 H        2.1920    -2.3680    -1.7470 H     1 <1>   0.0800 
 27 H        1.9800    -4.0730    -1.4520 H     1 <1>   0.0800 
 28 H       -1.8480    -3.7270    -2.1310 H     1 <1>   0.0800 
 29 H       -1.6190    -5.4040    -1.7180 H     1 <1>   0.0800 
 30 H       -0.2710    -4.4690    -2.3170 H     1 <1>   0.0800 
 31 H       -4.5170    -1.3970     0.3940 H     1 <1>   0.0800 
 32 H       -4.1130    -2.2160     1.8760 H     1 <1>   0.0800 
 33 H       -3.7420    -2.9670     0.3440 H     1 <1>   0.0800 
 34 H       -2.5640    -1.3950    -3.1130 H     1 <1>   0.0800 
 35 H       -3.8020    -0.1660    -3.0970 H     1 <1>   0.0800 
 36 H       -4.0000    -1.6050    -2.1250 H     1 <1>   0.0800 
 37 H        3.3440    -2.4270     2.1070 H     1 <1>   0.0800 
 38 H        3.5630    -0.7240     1.8220 H     1 <1>   0.0800 
 39 H        4.3710    -3.3970    -1.4110 H     1 <1>   0.0800 
 40 H        3.8570    -4.0890     0.1010 H     1 <1>   0.0800 
 41 H        5.1940    -2.0880     0.5360 H     1 <1>   0.0800 
 42 H        4.1730    -1.1410    -0.5060 H     1 <1>   0.0800 
@<TRIPOS>BOND
  1   1   2  2   
  2   2   3  am  
  3   2   4  am  
  4   3   5  1   
  5   3   6  1   
  6   4   7  1   
  7   4   8  1   
  8   5   9  1   
  9   5  10  1   
 10   5  17  1   
 11   6  11  1   
 12   6  18  1   
 13   6  19  1   
 14   7  12  1   
 15   7  20  1   
 16   7  21  1   
 17   8  13  1   
 18   8  22  1   
 19   8  23  1   
 20   9  14  1   
 21   9  24  1   
 22   9  25  1   
 23  10  15  1   
 24  10  26  1   
 25  10  27  1   
 26  11  28  1   
 27  11  29  1   
 28  11  30  1   
 29  12  31  1   
 30  12  32  1   
 31  12  33  1   
 32  13  34  1   
 33  13  35  1   
 34  13  36  1   
 35  14  16  1   
 36  14  37  1   
 37  14  38  1   
 38  15  16  1   
 39  15  39  1   
 40  15  40  1   
 41  16  41  1   
 42  16  42  1   
@<TRIPOS>SUBSTRUCTURE
  1 ****   3 GROUP 4 **** **** 0

# MOE 2024.06 (io_trps.svl 2023.06)
