@<TRIPOS>MOLECULE
ka-06761
41 42 1 0 0 
SMALL
USER_CHARGES


@<TRIPOS>ATOM
  1 O       -4.6450     1.9390     1.9430 O.3   1 <1>  -0.3630 
  2 C       -4.9510     0.8130     1.2620 C.ar  1 <1>   0.0830 
  3 C       -3.9120     2.9630     1.2930 C.3   1 <1>   0.1200 
  4 C       -5.8540     0.8440     0.1670 C.ar  1 <1>   0.0000 
  5 C       -4.3380    -0.3500     1.6470 C.ar  1 <1>  -0.1500 
  6 C       -2.4190     2.6010     1.2110 C.3   1 <1>   0.2000 
  7 C       -6.0000    -0.3340    -0.6010 C.ar  1 <1>   0.0000 
  8 C       -6.6300     1.9690    -0.1930 C.ar  1 <1>  -0.1500 
  9 C       -4.5240    -1.5210     0.9090 C.ar  1 <1>  -0.1500 
 10 O       -2.2300     1.5090     0.3570 O.3   1 <1>  -0.6800 
 11 C       -1.5710     3.7740     0.6760 C.3   1 <1>   0.3430 
 12 C       -5.3250    -1.5040    -0.1990 C.ar  1 <1>  -0.1500 
 13 C       -6.8310    -0.3090    -1.7390 C.ar  1 <1>  -0.1500 
 14 C       -7.4420     1.9600    -1.2930 C.ar  1 <1>  -0.1500 
 15 N       -0.3020     3.2550     0.0870 N.4   1 <1>  -0.9060 
 16 C       -7.5340     0.8110    -2.0830 C.ar  1 <1>  -0.1500 
 17 C        0.3360     4.1160    -0.9120 C.3   1 <1>   0.4230 
 18 C        1.4200     3.2950    -1.5960 C.3   1 <1>  -0.2400 
 19 C        0.9330     5.3350    -0.2150 C.3   1 <1>  -0.2400 
 20 H       -4.3180     3.1340     0.3120 H     1 <1>   0.0800 
 21 H       -4.0440     3.8540     1.8810 H     1 <1>   0.0800 
 22 H       -3.7020    -0.3720     2.5150 H     1 <1>   0.1500 
 23 H       -2.0700     2.3220     2.1910 H     1 <1>   0.0800 
 24 H       -6.5860     2.8460     0.4260 H     1 <1>   0.1500 
 25 H       -4.0300    -2.4260     1.2200 H     1 <1>   0.1500 
 26 H       -2.9230     0.8270     0.5390 H     1 <1>   0.4000 
 27 H       -1.3690     4.4830     1.4630 H     1 <1>   0.0800 
 28 H       -2.1390     4.2770    -0.0890 H     1 <1>   0.0800 
 29 H       -5.4630    -2.3990    -0.7790 H     1 <1>   0.1500 
 30 H       -6.9100    -1.2010    -2.3360 H     1 <1>   0.1500 
 31 H       -8.0240     2.8250    -1.5610 H     1 <1>   0.1500 
 32 H       -0.5850     2.3590    -0.3540 H     1 <1>   0.4500 
 33 H        0.3680     2.9950     0.8160 H     1 <1>   0.4500 
 34 H       -8.1690     0.8220    -2.9520 H     1 <1>   0.1500 
 35 H       -0.3890     4.4310    -1.6470 H     1 <1>   0.0800 
 36 H        2.1650     2.9660    -0.8930 H     1 <1>   0.0800 
 37 H        1.9090     3.8950    -2.3430 H     1 <1>   0.0800 
 38 H        0.9920     2.4420    -2.0920 H     1 <1>   0.0800 
 39 H        1.6480     5.0450     0.5350 H     1 <1>   0.0800 
 40 H        0.1660     5.9400     0.2340 H     1 <1>   0.0800 
 41 H        1.4420     5.9470    -0.9380 H     1 <1>   0.0800 
@<TRIPOS>BOND
  1   1   2  1   
  2   1   3  1   
  3   2   4  ar  
  4   2   5  ar  
  5   3   6  1   
  6   3  20  1   
  7   3  21  1   
  8   4   7  ar  
  9   4   8  ar  
 10   5   9  ar  
 11   5  22  1   
 12   6  10  1   
 13   6  11  1   
 14   6  23  1   
 15   7  12  ar  
 16   7  13  ar  
 17   8  14  ar  
 18   8  24  1   
 19   9  12  ar  
 20   9  25  1   
 21  10  26  1   
 22  11  15  1   
 23  11  27  1   
 24  11  28  1   
 25  12  29  1   
 26  13  16  ar  
 27  13  30  1   
 28  14  16  ar  
 29  14  31  1   
 30  15  17  1   
 31  15  32  1   
 32  15  33  1   
 33  16  34  1   
 34  17  18  1   
 35  17  19  1   
 36  17  35  1   
 37  18  36  1   
 38  18  37  1   
 39  18  38  1   
 40  19  39  1   
 41  19  40  1   
 42  19  41  1   
@<TRIPOS>SUBSTRUCTURE
  1 ****  10 GROUP 4 **** **** 0

# MOE 2024.06 (io_trps.svl 2023.06)
