@<TRIPOS>MOLECULE
NONAME
42 43 1 0 0 
SMALL
USER_CHARGES


@<TRIPOS>ATOM
  1 O        0.0640     0.2810     0.2640 O.2   1 <1>  -0.5700 
  2 C        0.0170     1.4440    -0.0530 C.2   1 <1>   0.5950 
  3 C        1.1530     2.3350     0.0230 C.2   1 <1>  -0.0860 
  4 C       -1.2970     1.9260    -0.6300 C.3   1 <1>  -0.1790 
  5 C        1.1580     3.6890     0.4750 C.2   1 <1>  -0.0860 
  6 C        2.4480     2.0540    -0.3330 C.2   1 <1>  -0.3320 
  7 C        2.4600     4.1200     0.3650 C.2   1 <1>  -0.3320 
  8 C        0.0010     4.3990     0.9630 C.2   1 <1>   0.5950 
  9 N        3.2530     3.1290    -0.1280 N.pl3 1 <1>   0.3260 
 10 C        3.0040     0.7500    -0.8980 C.3   1 <1>  -0.0600 
 11 C        3.0680     5.4660     0.7500 C.3   1 <1>  -0.0600 
 12 O       -0.8690     3.8840     1.6170 O.2   1 <1>  -0.5700 
 13 C       -0.1900     5.8610     0.6250 C.3   1 <1>  -0.1790 
 14 C        4.6520     3.1990    -0.3700 C.ar  1 <1>  -0.0230 
 15 C        5.5810     2.8330     0.6050 C.ar  1 <1>  -0.1440 
 16 C        5.1050     3.6450    -1.6050 C.ar  1 <1>  -0.1500 
 17 C        6.9360     2.9220     0.3260 C.ar  1 <1>  -0.1500 
 18 C        5.1290     2.3350     1.9720 C.3   1 <1>  -0.0970 
 19 C        6.4580     3.7300    -1.8730 C.ar  1 <1>  -0.1500 
 20 C        7.3820     3.3710    -0.9070 C.ar  1 <1>  -0.1440 
 21 C        8.8690     3.4610    -1.1940 C.3   1 <1>  -0.0970 
 22 H       -2.0190     2.0220     0.1590 H     1 <1>   0.0800 
 23 H       -1.6560     1.2070    -1.3410 H     1 <1>   0.0800 
 24 H       -1.1730     2.8700    -1.1240 H     1 <1>   0.0800 
 25 H        2.2240     0.0320    -1.0720 H     1 <1>   0.0800 
 26 H        3.7080     0.3200    -0.2090 H     1 <1>   0.0800 
 27 H        3.5060     0.9340    -1.8310 H     1 <1>   0.0800 
 28 H        2.4080     6.0350     1.3760 H     1 <1>   0.0800 
 29 H        3.2920     6.0360    -0.1340 H     1 <1>   0.0800 
 30 H        3.9820     5.3190     1.2980 H     1 <1>   0.0800 
 31 H        0.4330     6.1430    -0.2030 H     1 <1>   0.0800 
 32 H        0.0480     6.4620     1.4820 H     1 <1>   0.0800 
 33 H       -1.2160     6.0330     0.3580 H     1 <1>   0.0800 
 34 H        4.3930     3.9260    -2.3610 H     1 <1>   0.1500 
 35 H        7.6550     2.6400     1.0740 H     1 <1>   0.1500 
 36 H        4.5410     3.0890     2.4640 H     1 <1>   0.0800 
 37 H        5.9710     2.1000     2.5970 H     1 <1>   0.0800 
 38 H        4.5300     1.4490     1.8640 H     1 <1>   0.0800 
 39 H        6.7900     4.0770    -2.8360 H     1 <1>   0.1500 
 40 H        9.2310     2.5080    -1.5350 H     1 <1>   0.0800 
 41 H        9.4060     3.7380    -0.3040 H     1 <1>   0.0800 
 42 H        9.0640     4.1980    -1.9510 H     1 <1>   0.0800 
@<TRIPOS>BOND
  1   1   2  2   
  2   2   3  1   
  3   2   4  1   
  4   3   5  1   
  5   3   6  2   
  6   4  22  1   
  7   4  23  1   
  8   4  24  1   
  9   5   7  2   
 10   5   8  1   
 11   6   9  1   
 12   6  10  1   
 13   7   9  1   
 14   7  11  1   
 15   8  12  2   
 16   8  13  1   
 17   9  14  1   
 18  10  25  1   
 19  10  26  1   
 20  10  27  1   
 21  11  28  1   
 22  11  29  1   
 23  11  30  1   
 24  13  31  1   
 25  13  32  1   
 26  13  33  1   
 27  14  15  ar  
 28  14  16  ar  
 29  15  17  ar  
 30  15  18  1   
 31  16  19  ar  
 32  16  34  1   
 33  17  20  ar  
 34  17  35  1   
 35  18  36  1   
 36  18  37  1   
 37  18  38  1   
 38  19  20  ar  
 39  19  39  1   
 40  20  21  1   
 41  21  40  1   
 42  21  41  1   
 43  21  42  1   
@<TRIPOS>SUBSTRUCTURE
  1 ****   9 GROUP 4 **** **** 0

# MOE 2024.06 (io_trps.svl 2023.06)
