@<TRIPOS>MOLECULE
NONAME
61 64 1 0 0 
SMALL
USER_CHARGES


@<TRIPOS>ATOM
  1 O       -1.0880     0.9940     0.3120 O.3   1 <1>  -0.3630 
  2 C       -1.6510     1.5990    -0.7680 C.ar  1 <1>   0.0830 
  3 C        0.3140     0.8980     0.4590 C.3   1 <1>   0.2640 
  4 C       -1.0970     2.6620    -1.4990 C.ar  1 <1>   0.0830 
  5 C       -2.8850     1.0880    -1.1280 C.ar  1 <1>  -0.1500 
  6 C        0.6230    -0.2480     1.4100 C.ar  1 <1>  -0.1440 
  7 O        0.1030     3.1900    -1.1240 O.3   1 <1>  -0.3630 
  8 C       -1.8050     3.1640    -2.5890 C.ar  1 <1>  -0.1500 
  9 C       -3.5920     1.6040    -2.2020 C.ar  1 <1>  -0.1440 
 10 C        0.3630    -0.1160     2.7660 C.ar  1 <1>  -0.1500 
 11 C        1.1690    -1.4310     0.9350 C.ar  1 <1>  -0.1500 
 12 C        0.7090     4.2640    -1.8120 C.3   1 <1>   0.0400 
 13 C       -3.0390     2.6410    -2.9370 C.ar  1 <1>  -0.1500 
 14 C       -4.9570     1.0440    -2.5520 C.3   1 <1>   0.4860 
 15 C        0.6490    -1.1530     3.6380 C.ar  1 <1>  -0.1500 
 16 C        1.4550    -2.4690     1.8060 C.ar  1 <1>  -0.1500 
 17 N       -5.8930     1.3610    -1.4420 N.4   1 <1>  -0.9590 
 18 C        1.1960    -2.3300     3.1580 C.ar  1 <1>  -0.1500 
 19 C       -7.2110     0.6950    -1.6090 C.3   1 <1>   0.4860 
 20 C       -6.0670     2.8300    -1.2290 C.3   1 <1>   0.3430 
 21 C       -8.1050     1.0040    -0.4200 C.ar  1 <1>  -0.1430 
 22 C       -6.7460     3.0820     0.1190 C.3   1 <1>  -0.0170 
 23 C       -7.9020     2.1260     0.3790 C.ar  1 <1>  -0.1430 
 24 C       -9.1550     0.1430    -0.1320 C.ar  1 <1>  -0.1500 
 25 C       -8.7570     2.3800     1.4400 C.ar  1 <1>  -0.1500 
 26 C      -10.0000     0.3840     0.9360 C.ar  1 <1>   0.0830 
 27 C       -9.8140     1.5310     1.7160 C.ar  1 <1>   0.0830 
 28 O      -10.9750    -0.5290     1.1650 O.3   1 <1>  -0.3620 
 29 O      -10.6300     1.8670     2.7430 O.3   1 <1>  -0.3620 
 30 C      -10.9740    -1.1760     2.4200 C.3   1 <1>   0.0400 
 31 C      -11.9500     2.2310     2.4010 C.3   1 <1>   0.0400 
 32 H        0.7510     0.7220    -0.5070 H     1 <1>   0.0800 
 33 H        0.6770     1.8260     0.8620 H     1 <1>   0.0800 
 34 H       -3.2710     0.2700    -0.5440 H     1 <1>   0.1500 
 35 H       -1.4130     3.9680    -3.1840 H     1 <1>   0.1500 
 36 H       -0.0650     0.7950     3.1440 H     1 <1>   0.1500 
 37 H        1.3730    -1.5510    -0.1140 H     1 <1>   0.1500 
 38 H        1.6390     4.4910    -1.3230 H     1 <1>   0.0800 
 39 H        0.8970     3.9670    -2.8290 H     1 <1>   0.0800 
 40 H        0.0580     5.1190    -1.7710 H     1 <1>   0.0800 
 41 H       -3.5560     3.0560    -3.7870 H     1 <1>   0.1500 
 42 H       -4.8780    -0.0240    -2.6800 H     1 <1>   0.0800 
 43 H       -5.3080     1.4770    -3.4740 H     1 <1>   0.0800 
 44 H        0.4440    -1.0430     4.6880 H     1 <1>   0.1500 
 45 H        1.8790    -3.3840     1.4310 H     1 <1>   0.1500 
 46 H       -5.4810     0.9910    -0.5760 H     1 <1>   0.4500 
 47 H        1.4180    -3.1360     3.8350 H     1 <1>   0.1500 
 48 H       -7.0780    -0.3720    -1.6830 H     1 <1>   0.0800 
 49 H       -7.6910     1.0430    -2.5090 H     1 <1>   0.0800 
 50 H       -6.6770     3.2400    -2.0180 H     1 <1>   0.0800 
 51 H       -5.1120     3.3310    -1.2400 H     1 <1>   0.0800 
 52 H       -7.0990     4.0980     0.1470 H     1 <1>   0.0800 
 53 H       -6.0180     2.9740     0.9050 H     1 <1>   0.0800 
 54 H       -9.3370    -0.7350    -0.7270 H     1 <1>   0.1500 
 55 H       -8.6190     3.2430     2.0680 H     1 <1>   0.1500 
 56 H      -11.6690    -1.9950     2.3760 H     1 <1>   0.0800 
 57 H      -11.2790    -0.4830     3.1830 H     1 <1>   0.0800 
 58 H       -9.9840    -1.5440     2.6230 H     1 <1>   0.0800 
 59 H      -12.4610     2.5250     3.3000 H     1 <1>   0.0800 
 60 H      -12.4490     1.3900     1.9550 H     1 <1>   0.0800 
 61 H      -11.9160     3.0550     1.7100 H     1 <1>   0.0800 
@<TRIPOS>BOND
  1   1   2  1   
  2   1   3  1   
  3   2   4  ar  
  4   2   5  ar  
  5   3   6  1   
  6   3  32  1   
  7   3  33  1   
  8   4   7  1   
  9   4   8  ar  
 10   5   9  ar  
 11   5  34  1   
 12   6  10  ar  
 13   6  11  ar  
 14   7  12  1   
 15   8  13  ar  
 16   8  35  1   
 17   9  13  ar  
 18   9  14  1   
 19  10  15  ar  
 20  10  36  1   
 21  11  16  ar  
 22  11  37  1   
 23  12  38  1   
 24  12  39  1   
 25  12  40  1   
 26  13  41  1   
 27  14  17  1   
 28  14  42  1   
 29  14  43  1   
 30  15  18  ar  
 31  15  44  1   
 32  16  18  ar  
 33  16  45  1   
 34  17  19  1   
 35  17  20  1   
 36  17  46  1   
 37  18  47  1   
 38  19  21  1   
 39  19  48  1   
 40  19  49  1   
 41  20  22  1   
 42  20  50  1   
 43  20  51  1   
 44  21  23  ar  
 45  21  24  ar  
 46  22  23  1   
 47  22  52  1   
 48  22  53  1   
 49  23  25  ar  
 50  24  26  ar  
 51  24  54  1   
 52  25  27  ar  
 53  25  55  1   
 54  26  27  ar  
 55  26  28  1   
 56  27  29  1   
 57  28  30  1   
 58  29  31  1   
 59  30  56  1   
 60  30  57  1   
 61  30  58  1   
 62  31  59  1   
 63  31  60  1   
 64  31  61  1   
@<TRIPOS>SUBSTRUCTURE
  1 ****   5 GROUP 4 **** **** 0

# MOE 2024.06 (io_trps.svl 2023.06)
