@<TRIPOS>MOLECULE
Structure535
26 27 1 0 0 
SMALL
USER_CHARGES


@<TRIPOS>ATOM
  1 CL      -0.5270    -0.1280    -1.2600 Cl    1 <1>  -0.1770 
  2 C       -1.8960    -0.8350    -0.4550 C.ar  1 <1>   0.7970 
  3 N       -3.0120    -0.1380    -0.5270 N.ar  1 <1>  -0.6200 
  4 N       -1.6640    -1.9940     0.1400 N.ar  1 <1>  -0.6200 
  5 C       -4.0450    -0.6790     0.0810 C.ar  1 <1>   0.4100 
  6 C       -2.7120    -2.5090     0.7480 C.ar  1 <1>   0.1600 
  7 N       -5.2450    -0.0060     0.0320 N.pl3 1 <1>  -0.8380 
  8 C       -3.9300    -1.8850     0.7470 C.ar  1 <1>  -0.1500 
  9 C       -6.4660    -0.6920    -0.4910 C.3   1 <1>   0.2090 
 10 C       -5.2680     1.4780    -0.1010 C.3   1 <1>   0.2090 
 11 C       -7.7320    -0.1270     0.1750 C.3   1 <1>   0.2000 
 12 C       -6.5150     2.0400     0.5920 C.3   1 <1>  -0.1600 
 13 O       -8.8580    -0.6610    -0.4290 O.3   1 <1>  -0.6800 
 14 C       -7.8100     1.4000     0.0640 C.3   1 <1>  -0.1600 
 15 H       -2.5850    -3.4500     1.2570 H     1 <1>   0.1500 
 16 H       -4.7760    -2.3050     1.2530 H     1 <1>   0.1500 
 17 H       -6.4090    -1.7500    -0.3050 H     1 <1>   0.0800 
 18 H       -6.5150    -0.5320    -1.5540 H     1 <1>   0.0800 
 19 H       -5.2700     1.7390    -1.1460 H     1 <1>   0.0800 
 20 H       -4.3850     1.9000     0.3500 H     1 <1>   0.0800 
 21 H       -7.7470    -0.4270     1.2090 H     1 <1>   0.0800 
 22 H       -6.5510     3.1040     0.4430 H     1 <1>   0.0800 
 23 H       -6.4270     1.8620     1.6500 H     1 <1>   0.0800 
 24 H       -8.9810    -0.2760    -1.3180 H     1 <1>   0.4000 
 25 H       -8.6470     1.7610     0.6350 H     1 <1>   0.0800 
 26 H       -7.9400     1.6840    -0.9660 H     1 <1>   0.0800 
@<TRIPOS>BOND
  1   1   2  1   
  2   2   3  ar  
  3   2   4  ar  
  4   3   5  ar  
  5   4   6  ar  
  6   5   7  1   
  7   5   8  ar  
  8   6   8  ar  
  9   6  15  1   
 10   7   9  1   
 11   7  10  1   
 12   8  16  1   
 13   9  11  1   
 14   9  17  1   
 15   9  18  1   
 16  10  12  1   
 17  10  19  1   
 18  10  20  1   
 19  11  13  1   
 20  11  14  1   
 21  11  21  1   
 22  12  14  1   
 23  12  22  1   
 24  12  23  1   
 25  13  24  1   
 26  14  25  1   
 27  14  26  1   
@<TRIPOS>SUBSTRUCTURE
  1 ****   7 GROUP 4 **** **** 0

# MOE 2024.06 (io_trps.svl 2023.06)
