@<TRIPOS>MOLECULE
NONAME
46 46 1 0 0 
SMALL
USER_CHARGES


@<TRIPOS>ATOM
  1 O        0.5140    -0.2230    -0.4760 O.3   1 <1>  -0.3630 
  2 C       -0.6570    -0.7140    -0.0140 C.ar  1 <1>   0.0830 
  3 C        1.6600    -0.6140     0.2350 C.3   1 <1>   0.1200 
  4 C       -1.1370    -1.9270    -0.5040 C.ar  1 <1>  -0.1440 
  5 C       -1.3750     0.0030     0.9420 C.ar  1 <1>  -0.1440 
  6 C        2.8690     0.0390    -0.4380 C.3   1 <1>  -0.1600 
  7 C       -2.3230    -2.4350     0.0000 C.ar  1 <1>  -0.1500 
  8 C       -0.3930    -2.7010    -1.5830 C.3   1 <1>  -0.0960 
  9 C       -2.5590    -0.5250     1.4310 C.ar  1 <1>  -0.1500 
 10 C       -0.8930     1.3530     1.4540 C.3   1 <1>  -0.0970 
 11 C        4.1820    -0.3290     0.2680 C.3   1 <1>  -0.1600 
 12 C       -3.0290    -1.7400     0.9650 C.ar  1 <1>  -0.1500 
 13 C        5.3660     0.3380    -0.4270 C.3   1 <1>   0.3430 
 14 N        6.6190    -0.0360     0.2790 N.4   1 <1>  -0.9060 
 15 C        7.8670     0.5160    -0.2530 C.3   1 <1>   0.5030 
 16 C        8.9840    -0.0150     0.6390 C.3   1 <1>  -0.2400 
 17 C        8.0750     0.0350    -1.6880 C.3   1 <1>  -0.2400 
 18 C        7.8280     2.0420    -0.1840 C.3   1 <1>  -0.2400 
 19 H        1.7260    -1.6880     0.2050 H     1 <1>   0.0800 
 20 H        1.5540    -0.2870     1.2550 H     1 <1>   0.0800 
 21 H        2.7310     1.1070    -0.4210 H     1 <1>   0.0800 
 22 H        2.9020    -0.2860    -1.4640 H     1 <1>   0.0800 
 23 H       -2.7060    -3.3740    -0.3590 H     1 <1>   0.1500 
 24 H        0.4170    -3.2540    -1.1450 H     1 <1>   0.0800 
 25 H        0.0010    -2.0240    -2.3190 H     1 <1>   0.0800 
 26 H       -1.0520    -3.3880    -2.0800 H     1 <1>   0.0800 
 27 H       -3.1240     0.0080     2.1750 H     1 <1>   0.1500 
 28 H       -0.1340     1.2120     2.2010 H     1 <1>   0.0800 
 29 H       -1.7060     1.9070     1.8870 H     1 <1>   0.0800 
 30 H       -0.4870     1.9330     0.6450 H     1 <1>   0.0800 
 31 H        4.3010    -1.3990     0.2470 H     1 <1>   0.0800 
 32 H        4.1290    -0.0020     1.2930 H     1 <1>   0.0800 
 33 H       -3.9490    -2.1430     1.3520 H     1 <1>   0.1500 
 34 H        5.2360     1.4090    -0.4110 H     1 <1>   0.0800 
 35 H        5.4070     0.0150    -1.4550 H     1 <1>   0.0800 
 36 H        6.7120    -1.0560     0.2790 H     1 <1>   0.4500 
 37 H        6.5510     0.2520     1.2590 H     1 <1>   0.4500 
 38 H        9.0290    -1.0900     0.6100 H     1 <1>   0.0800 
 39 H        8.8570     0.3080     1.6570 H     1 <1>   0.0800 
 40 H        9.9340     0.3580     0.2970 H     1 <1>   0.0800 
 41 H        8.0530    -1.0390    -1.7460 H     1 <1>   0.0800 
 42 H        9.0380     0.3610    -2.0430 H     1 <1>   0.0800 
 43 H        7.3380     0.4430    -2.3560 H     1 <1>   0.0800 
 44 H        7.0910     2.4520    -0.8500 H     1 <1>   0.0800 
 45 H        7.6320     2.3810     0.8170 H     1 <1>   0.0800 
 46 H        8.7820     2.4410    -0.4840 H     1 <1>   0.0800 
@<TRIPOS>BOND
  1   1   2  1   
  2   1   3  1   
  3   2   4  ar  
  4   2   5  ar  
  5   3   6  1   
  6   3  19  1   
  7   3  20  1   
  8   4   7  ar  
  9   4   8  1   
 10   5   9  ar  
 11   5  10  1   
 12   6  11  1   
 13   6  21  1   
 14   6  22  1   
 15   7  12  ar  
 16   7  23  1   
 17   8  24  1   
 18   8  25  1   
 19   8  26  1   
 20   9  12  ar  
 21   9  27  1   
 22  10  28  1   
 23  10  29  1   
 24  10  30  1   
 25  11  13  1   
 26  11  31  1   
 27  11  32  1   
 28  12  33  1   
 29  13  14  1   
 30  13  34  1   
 31  13  35  1   
 32  14  15  1   
 33  14  36  1   
 34  14  37  1   
 35  15  16  1   
 36  15  17  1   
 37  15  18  1   
 38  16  38  1   
 39  16  39  1   
 40  16  40  1   
 41  17  41  1   
 42  17  42  1   
 43  17  43  1   
 44  18  44  1   
 45  18  45  1   
 46  18  46  1   
@<TRIPOS>SUBSTRUCTURE
  1 ****   3 GROUP 4 **** **** 0

# MOE 2024.06 (io_trps.svl 2023.06)
