@<TRIPOS>MOLECULE
NONAME
47 49 1 0 0 
SMALL
USER_CHARGES


@<TRIPOS>ATOM
  1 S        1.1070    -0.1790    -1.2490 S.o2  1 <1>   1.4470 
  2 O        0.0360    -0.4640    -2.1790 O.2   1 <1>  -0.6500 
  3 O        2.4810    -0.2690    -1.6980 O.2   1 <1>  -0.6500 
  4 N        0.9470    -1.2510     0.0550 N.am  1 <1>  -0.8490 
  5 C        0.8140     1.4430    -0.4870 C.ar  1 <1>  -0.0090 
  6 C        2.0770    -1.1580     0.9860 C.3   1 <1>   0.1960 
  7 C        0.7650    -2.6300    -0.4100 C.3   1 <1>   0.1960 
  8 C        1.6690     2.5120    -0.7110 C.ar  1 <1>  -0.1500 
  9 C       -0.2830     1.6540     0.3350 C.ar  1 <1>  -0.1500 
 10 C        1.8150    -2.0190     2.2250 C.3   1 <1>  -0.1600 
 11 C        0.4670    -3.5570     0.7740 C.3   1 <1>  -0.1600 
 12 C        1.4750     3.7690    -0.1380 C.ar  1 <1>   0.0860 
 13 C       -0.5080     2.8870     0.9180 C.ar  1 <1>  -0.1500 
 14 C        1.5660    -3.4820     1.8400 C.3   1 <1>  -0.1600 
 15 C        0.3600     3.9410     0.6910 C.ar  1 <1>  -0.1440 
 16 C        2.4280     4.8300    -0.4160 C.2   1 <1>   0.5440 
 17 C        0.0740     5.2800     1.3610 C.3   1 <1>  -0.0970 
 18 O        2.0730     5.9210    -0.8150 O.2   1 <1>  -0.5700 
 19 N        3.7590     4.6150    -0.2320 N.am  1 <1>  -0.7300 
 20 C        4.8140     5.6140    -0.4730 C.3   1 <1>   0.3200 
 21 C        6.1360     4.8930    -0.6580 C.2   1 <1>  -0.0400 
 22 O        6.5710     4.0920     0.2990 O.3   1 <1>  -0.2800 
 23 C        7.0110     4.9150    -1.6870 C.2   1 <1>  -0.1500 
 24 C        7.7240     3.5910    -0.0940 C.2   1 <1>  -0.0100 
 25 C        8.0560     4.0590    -1.3160 C.2   1 <1>  -0.1500 
 26 H        2.2130    -0.1360     1.2950 H     1 <1>   0.0800 
 27 H        2.9830    -1.4860     0.5000 H     1 <1>   0.0800 
 28 H        1.6500    -2.9610    -0.9290 H     1 <1>   0.0800 
 29 H       -0.0640    -2.6770    -1.0970 H     1 <1>   0.0800 
 30 H        2.5180     2.3680    -1.3590 H     1 <1>   0.1500 
 31 H       -0.9670     0.8420     0.5200 H     1 <1>   0.1500 
 32 H        0.9580    -1.6280     2.7440 H     1 <1>   0.0800 
 33 H        2.6590    -1.9580     2.8880 H     1 <1>   0.0800 
 34 H        0.3740    -4.5680     0.4200 H     1 <1>   0.0800 
 35 H       -0.4770    -3.2720     1.2050 H     1 <1>   0.0800 
 36 H       -1.3690     3.0170     1.5510 H     1 <1>   0.1500 
 37 H        1.2780    -4.0490     2.7090 H     1 <1>   0.0800 
 38 H        2.4740    -3.9080     1.4480 H     1 <1>   0.0800 
 39 H        0.9540     5.6430     1.8630 H     1 <1>   0.0800 
 40 H       -0.7160     5.1950     2.0850 H     1 <1>   0.0800 
 41 H       -0.2200     6.0030     0.6200 H     1 <1>   0.0800 
 42 H        4.1100     3.7350     0.1510 H     1 <1>   0.3700 
 43 H        4.8770     6.2750     0.3740 H     1 <1>   0.0800 
 44 H        4.5780     6.1930    -1.3490 H     1 <1>   0.0800 
 45 H        6.9520     5.4600    -2.6130 H     1 <1>   0.1500 
 46 H        8.2430     2.9090     0.5560 H     1 <1>   0.1500 
 47 H        8.9280     3.8430    -1.9070 H     1 <1>   0.1500 
@<TRIPOS>BOND
  1   1   2  2   
  2   1   3  2   
  3   1   4  am  
  4   1   5  1   
  5   4   6  1   
  6   4   7  1   
  7   5   8  ar  
  8   5   9  ar  
  9   6  10  1   
 10   6  26  1   
 11   6  27  1   
 12   7  11  1   
 13   7  28  1   
 14   7  29  1   
 15   8  12  ar  
 16   8  30  1   
 17   9  13  ar  
 18   9  31  1   
 19  10  14  1   
 20  10  32  1   
 21  10  33  1   
 22  11  14  1   
 23  11  34  1   
 24  11  35  1   
 25  12  15  ar  
 26  12  16  1   
 27  13  15  ar  
 28  13  36  1   
 29  14  37  1   
 30  14  38  1   
 31  15  17  1   
 32  16  18  2   
 33  16  19  am  
 34  17  39  1   
 35  17  40  1   
 36  17  41  1   
 37  19  20  1   
 38  19  42  1   
 39  20  21  1   
 40  20  43  1   
 41  20  44  1   
 42  21  22  1   
 43  21  23  2   
 44  22  24  1   
 45  23  25  1   
 46  23  45  1   
 47  24  25  2   
 48  24  46  1   
 49  25  47  1   
@<TRIPOS>SUBSTRUCTURE
  1 ****   8 GROUP 4 **** **** 0

# MOE 2024.06 (io_trps.svl 2023.06)
