@<TRIPOS>MOLECULE
12359
31 31 1 0 0 
SMALL
USER_CHARGES


@<TRIPOS>ATOM
  1 BR       1.2030    -1.6050     3.8620 Br    1 <1>  -0.1110 
  2 C        2.1970    -2.0220     2.2690 C.ar  1 <1>   0.1110 
  3 C        2.6240    -0.9880     1.4610 C.ar  1 <1>  -0.1500 
  4 C        2.4580    -3.3480     1.9760 C.ar  1 <1>  -0.1500 
  5 C        3.3410    -1.2860     0.3130 C.ar  1 <1>   0.0830 
  6 C        3.1740    -3.6420     0.8290 C.ar  1 <1>  -0.1500 
  7 O        3.7340    -0.2290    -0.4430 O.3   1 <1>  -0.3630 
  8 C        3.6140    -2.6200     0.0010 C.ar  1 <1>  -0.1500 
  9 C        4.4410    -0.3910    -1.6670 C.3   1 <1>   0.2610 
 10 C        5.8800    -0.8750    -1.4340 C.2   1 <1>   0.5690 
 11 C        4.4040     0.9630    -2.3820 C.3   1 <1>  -0.2400 
 12 O        6.3720    -1.6220    -2.2490 O.2   1 <1>  -0.5700 
 13 N        6.5530    -0.4610    -0.3270 N.am  1 <1>  -0.7300 
 14 C        7.9500    -0.7880     0.0300 C.3   1 <1>   0.1400 
 15 C        8.5910     0.4480     0.6420 C.3   1 <1>  -0.2660 
 16 C        9.9810     0.1120     1.1010 C.2   1 <1>   0.9060 
 17 O       10.1060    -0.6730     2.0450 O.co2 1 <1>  -0.9000 
 18 O       10.9380     0.6290     0.5220 O.co2 1 <1>  -0.9000 
 19 H        2.4070     0.0320     1.7150 H     1 <1>   0.1500 
 20 H        2.1100    -4.1270     2.6310 H     1 <1>   0.1500 
 21 H        3.3930    -4.6660     0.5790 H     1 <1>   0.1500 
 22 H        4.1720    -2.8880    -0.8780 H     1 <1>   0.1500 
 23 H        3.9130    -1.1150    -2.2610 H     1 <1>   0.0800 
 24 H        4.9120     1.7070    -1.7950 H     1 <1>   0.0800 
 25 H        3.3860     1.2660    -2.5490 H     1 <1>   0.0800 
 26 H        4.9000     0.8810    -3.3320 H     1 <1>   0.0800 
 27 H        6.0490     0.0840     0.3750 H     1 <1>   0.3700 
 28 H        8.4990    -1.0970    -0.8440 H     1 <1>   0.0800 
 29 H        7.9600    -1.5950     0.7440 H     1 <1>   0.0800 
 30 H        8.0390     0.7780     1.4990 H     1 <1>   0.0800 
 31 H        8.6520     1.2370    -0.0830 H     1 <1>   0.0800 
@<TRIPOS>BOND
  1   1   2  1   
  2   2   3  ar  
  3   2   4  ar  
  4   3   5  ar  
  5   3  19  1   
  6   4   6  ar  
  7   4  20  1   
  8   5   7  1   
  9   5   8  ar  
 10   6   8  ar  
 11   6  21  1   
 12   7   9  1   
 13   8  22  1   
 14   9  10  1   
 15   9  11  1   
 16   9  23  1   
 17  10  12  2   
 18  10  13  am  
 19  11  24  1   
 20  11  25  1   
 21  11  26  1   
 22  13  14  1   
 23  13  27  1   
 24  14  15  1   
 25  14  28  1   
 26  14  29  1   
 27  15  16  1   
 28  15  30  1   
 29  15  31  1   
 30  16  17  ar  
 31  16  18  ar  
@<TRIPOS>SUBSTRUCTURE
  1 ****  13 GROUP 4 **** **** 0

# MOE 2024.06 (io_trps.svl 2023.06)
