@<TRIPOS>MOLECULE
NONAME
41 43 1 0 0 
SMALL
USER_CHARGES


@<TRIPOS>ATOM
  1 N        0.1090     0.0090    -0.8860 N.4   1 <1>  -0.9590 
  2 C        1.1750     1.0640    -1.0290 C.3   1 <1>   0.4230 
  3 C       -1.2520     0.6140    -1.1510 C.3   1 <1>   0.3430 
  4 C        0.1540    -0.7370     0.4360 C.3   1 <1>   0.3430 
  5 C        2.6990     0.4650    -1.0550 C.3   1 <1>  -0.0800 
  6 C        1.1120     2.2370     0.1640 C.3   1 <1>  -0.1600 
  7 C       -2.4290    -0.3850    -0.9540 C.3   1 <1>   0.3430 
  8 C       -1.0230    -1.7360     0.6280 C.3   1 <1>   0.3430 
  9 C        2.6680     1.4930    -0.1950 C.3   1 <1>  -0.1600 
 10 C        4.2310     0.7390    -0.5510 C.3   1 <1>  -0.1600 
 11 C        2.6390     2.4850     0.6990 C.3   1 <1>  -0.0800 
 12 N       -2.3810    -1.1240     0.3680 N.4   1 <1>  -0.9590 
 13 C        4.1750     1.9220     0.6290 C.3   1 <1>  -0.1600 
 14 C       -3.4440    -2.1710     0.4590 C.3   1 <1>   0.3430 
 15 C       -4.8110    -1.5070     0.5830 C.3   1 <1>  -0.2400 
 16 H        0.3140    -0.6650    -1.6410 H     1 <1>   0.4500 
 17 H        1.0300     1.5670    -1.9740 H     1 <1>   0.0800 
 18 H       -1.2870     0.9980    -2.1580 H     1 <1>   0.0800 
 19 H       -1.4050     1.4500    -0.4880 H     1 <1>   0.0800 
 20 H        0.1310    -0.0320     1.2500 H     1 <1>   0.0800 
 21 H        1.0830    -1.2780     0.5180 H     1 <1>   0.0800 
 22 H        2.5700    -0.5560    -0.7330 H     1 <1>   0.0800 
 23 H        0.4830     1.9590     0.9920 H     1 <1>   0.0800 
 24 H        0.7180     3.1530    -0.2480 H     1 <1>   0.0800 
 25 H       -2.4090    -1.0990    -1.7620 H     1 <1>   0.0800 
 26 H       -3.3580     0.1570    -1.0330 H     1 <1>   0.0800 
 27 H       -0.9880    -2.1260     1.6330 H     1 <1>   0.0800 
 28 H       -0.8730    -2.5690    -0.0410 H     1 <1>   0.0800 
 29 H        2.8930     2.2690    -1.0550 H     1 <1>   0.0800 
 30 H        2.4690     0.7290     0.6790 H     1 <1>   0.0800 
 31 H        4.8440     1.0710    -1.3770 H     1 <1>   0.0800 
 32 H        4.6850    -0.1590    -0.1600 H     1 <1>   0.0800 
 33 H        2.7930     3.5180     0.4120 H     1 <1>   0.0800 
 34 H       -2.5900    -0.4550     1.1270 H     1 <1>   0.4500 
 35 H        4.8700     2.7160     0.3980 H     1 <1>   0.0800 
 36 H        4.4660     1.5130     1.5850 H     1 <1>   0.0800 
 37 H       -3.2810    -2.7850     1.3320 H     1 <1>   0.0800 
 38 H       -3.4220    -2.8120    -0.4090 H     1 <1>   0.0800 
 39 H       -4.8490    -0.8520     1.4360 H     1 <1>   0.0800 
 40 H       -5.5560    -2.2710     0.7270 H     1 <1>   0.0800 
 41 H       -5.0770    -0.9660    -0.3070 H     1 <1>   0.0800 
@<TRIPOS>BOND
  1   1   2  1   
  2   1   3  1   
  3   1   4  1   
  4   1  16  1   
  5   2   5  1   
  6   2   6  1   
  7   2  17  1   
  8   3   7  1   
  9   3  18  1   
 10   3  19  1   
 11   4   8  1   
 12   4  20  1   
 13   4  21  1   
 14   5   9  1   
 15   5  10  1   
 16   5  22  1   
 17   6  11  1   
 18   6  23  1   
 19   6  24  1   
 20   7  12  1   
 21   7  25  1   
 22   7  26  1   
 23   8  12  1   
 24   8  27  1   
 25   8  28  1   
 26   9  11  1   
 27   9  29  1   
 28   9  30  1   
 29  10  13  1   
 30  10  31  1   
 31  10  32  1   
 32  11  13  1   
 33  11  33  1   
 34  12  14  1   
 35  12  34  1   
 36  13  35  1   
 37  13  36  1   
 38  14  15  1   
 39  14  37  1   
 40  14  38  1   
 41  15  39  1   
 42  15  40  1   
 43  15  41  1   
@<TRIPOS>SUBSTRUCTURE
  1 ****   1 GROUP 4 **** **** 0

# MOE 2024.06 (io_trps.svl 2023.06)
