@<TRIPOS>MOLECULE
NONAME
40 41 1 0 0 
SMALL
USER_CHARGES


@<TRIPOS>ATOM
  1 P       -0.1050     0.4530     0.0870 P.3   1 <1>   0.9000 
  2 O        0.3290    -0.8540    -0.4790 O.co2 1 <1>  -0.9500 
  3 O        0.3370     0.8260     1.4640 O.co2 1 <1>  -0.9500 
  4 C        0.7330     1.7210    -0.8900 C.3   1 <1>   0.3430 
  5 C       -1.8700     0.6810    -0.1140 C.3   1 <1>  -0.1600 
  6 N        2.1180     1.8550    -0.3240 N.4   1 <1>  -0.9590 
  7 C       -2.6720    -0.3260     0.7160 C.3   1 <1>  -0.0170 
  8 C        2.7960     3.1690    -0.4930 C.3   1 <1>   0.3430 
  9 C        2.9690     0.6840    -0.7150 C.3   1 <1>   0.3430 
 10 C       -4.1680    -0.1410     0.5030 C.ar  1 <1>  -0.1430 
 11 C        4.2070     3.1360     0.1260 C.3   1 <1>   0.1200 
 12 C        4.3750     0.7970    -0.1000 C.3   1 <1>   0.1200 
 13 C       -4.9220     0.6450     1.3630 C.ar  1 <1>   0.1600 
 14 C       -4.8030    -0.7550    -0.5560 C.ar  1 <1>  -0.1500 
 15 O        4.9410     2.0520    -0.3750 O.3   1 <1>  -0.5600 
 16 N       -6.2240     0.8640     1.2500 N.ar  1 <1>  -0.6200 
 17 C       -6.1580    -0.5400    -0.6870 C.ar  1 <1>  -0.1500 
 18 C       -6.8150     0.2670     0.2290 C.ar  1 <1>   0.1670 
 19 C       -8.3040     0.5120     0.0970 C.3   1 <1>  -0.0970 
 20 H        0.2370     2.6670    -0.7750 H     1 <1>   0.0800 
 21 H        0.7790     1.4820    -1.9370 H     1 <1>   0.0800 
 22 H       -2.1530     0.5570    -1.1420 H     1 <1>   0.0800 
 23 H       -2.1680     1.6670     0.1870 H     1 <1>   0.0800 
 24 H        1.8950     1.6760     0.6890 H     1 <1>   0.4500 
 25 H       -2.4260    -0.2050     1.7580 H     1 <1>   0.0800 
 26 H       -2.3850    -1.3260     0.4360 H     1 <1>   0.0800 
 27 H        2.2140     3.9440    -0.0230 H     1 <1>   0.0800 
 28 H        2.8850     3.3990    -1.5410 H     1 <1>   0.0800 
 29 H        3.0580     0.6370    -1.7870 H     1 <1>   0.0800 
 30 H        2.5090    -0.2340    -0.3820 H     1 <1>   0.0800 
 31 H        4.1530     3.0510     1.1980 H     1 <1>   0.0800 
 32 H        4.7410     4.0360    -0.1220 H     1 <1>   0.0800 
 33 H        5.0200     0.0440    -0.5160 H     1 <1>   0.0800 
 34 H        4.3310     0.6600     0.9670 H     1 <1>   0.0800 
 35 H       -4.4260     1.1210     2.1910 H     1 <1>   0.1500 
 36 H       -4.2650    -1.3770    -1.2500 H     1 <1>   0.1500 
 37 H       -6.6970    -0.9970    -1.4950 H     1 <1>   0.1500 
 38 H       -8.4840     1.5660    -0.0130 H     1 <1>   0.0800 
 39 H       -8.8020     0.1680     0.9850 H     1 <1>   0.0800 
 40 H       -8.7100    -0.0020    -0.7530 H     1 <1>   0.0800 
@<TRIPOS>BOND
  1   1   2  ar  
  2   1   3  ar  
  3   1   4  1   
  4   1   5  1   
  5   4   6  1   
  6   4  20  1   
  7   4  21  1   
  8   5   7  1   
  9   5  22  1   
 10   5  23  1   
 11   6   8  1   
 12   6   9  1   
 13   6  24  1   
 14   7  10  1   
 15   7  25  1   
 16   7  26  1   
 17   8  11  1   
 18   8  27  1   
 19   8  28  1   
 20   9  12  1   
 21   9  29  1   
 22   9  30  1   
 23  10  13  ar  
 24  10  14  ar  
 25  11  15  1   
 26  11  31  1   
 27  11  32  1   
 28  12  15  1   
 29  12  33  1   
 30  12  34  1   
 31  13  16  ar  
 32  13  35  1   
 33  14  17  ar  
 34  14  36  1   
 35  16  18  ar  
 36  17  18  ar  
 37  17  37  1   
 38  18  19  1   
 39  19  38  1   
 40  19  39  1   
 41  19  40  1   
@<TRIPOS>SUBSTRUCTURE
  1 ****   5 GROUP 4 **** **** 0

# MOE 2024.06 (io_trps.svl 2023.06)
