@<TRIPOS>MOLECULE
NONAME
53 56 1 0 0 
SMALL
USER_CHARGES


@<TRIPOS>ATOM
  1 O       -1.7520    -3.4410     1.8250 O.2   1 <1>  -0.5700 
  2 C       -1.5670    -2.6430     0.9240 C.2   1 <1>   0.5440 
  3 N       -2.3230    -1.4880     0.8930 N.am  1 <1>  -0.6600 
  4 C       -0.5450    -2.9270    -0.0650 C.ar  1 <1>   0.0860 
  5 C       -3.4480    -1.2830     1.8580 C.3   1 <1>   0.1400 
  6 C       -1.9650    -0.3040     0.0520 C.3   1 <1>   0.1400 
  7 C        0.7890    -3.0780     0.3110 C.ar  1 <1>  -0.1500 
  8 C       -0.8530    -3.0660    -1.4180 C.ar  1 <1>  -0.1500 
  9 C       -4.6570    -0.5330     1.2480 C.3   1 <1>   0.0000 
 10 C       -3.1940     0.4240    -0.5430 C.3   1 <1>   0.0000 
 11 C        1.7760    -3.3370    -0.6230 C.ar  1 <1>  -0.1500 
 12 C        0.1270    -3.3250    -2.3580 C.ar  1 <1>  -0.1500 
 13 C       -5.3970    -1.4000     0.2010 C.3   1 <1>   0.1400 
 14 C       -4.1790     0.7680     0.5860 C.3   1 <1>  -0.1600 
 15 C       -5.6410    -0.1850     2.3790 C.3   1 <1>  -0.2400 
 16 C       -3.9080    -0.4410    -1.6110 C.3   1 <1>   0.1400 
 17 C       -2.7190     1.7300    -1.2050 C.3   1 <1>  -0.2400 
 18 C        1.4460    -3.4590    -1.9620 C.ar  1 <1>  -0.1500 
 19 N       -4.6010    -1.6390    -1.0440 N.am  1 <1>  -0.6600 
 20 C       -4.6360    -2.8310    -1.7410 C.2   1 <1>   0.5440 
 21 O       -4.1970    -2.8600    -2.8760 O.2   1 <1>  -0.5700 
 22 C       -5.1980    -4.0430    -1.1750 C.ar  1 <1>   0.0860 
 23 C       -6.2940    -4.6650    -1.7700 C.ar  1 <1>  -0.1500 
 24 C       -4.6660    -4.6320    -0.0290 C.ar  1 <1>  -0.1500 
 25 C       -6.8490    -5.8140    -1.2350 C.ar  1 <1>  -0.1500 
 26 C       -5.2140    -5.7800     0.5120 C.ar  1 <1>  -0.1500 
 27 C       -6.3090    -6.3730    -0.0900 C.ar  1 <1>  -0.1500 
 28 H       -3.0650    -0.7220     2.6920 H     1 <1>   0.0800 
 29 H       -3.7840    -2.2340     2.2360 H     1 <1>   0.0800 
 30 H       -1.3100    -0.5900    -0.7500 H     1 <1>   0.0800 
 31 H       -1.4220     0.3840     0.6760 H     1 <1>   0.0800 
 32 H        1.0440    -2.9920     1.3530 H     1 <1>   0.1500 
 33 H       -1.8770    -2.9690    -1.7330 H     1 <1>   0.1500 
 34 H        2.8000    -3.4470    -0.3100 H     1 <1>   0.1500 
 35 H       -0.1410    -3.4260    -3.3960 H     1 <1>   0.1500 
 36 H       -6.3050    -0.9000    -0.0870 H     1 <1>   0.0800 
 37 H       -5.6780    -2.3310     0.6570 H     1 <1>   0.0800 
 38 H       -3.6960     1.3940     1.3160 H     1 <1>   0.0800 
 39 H       -5.0200     1.3070     0.1860 H     1 <1>   0.0800 
 40 H       -5.9930    -1.0800     2.8610 H     1 <1>   0.0800 
 41 H       -6.4910     0.3500     1.9930 H     1 <1>   0.0800 
 42 H       -5.1630     0.4330     3.1200 H     1 <1>   0.0800 
 43 H       -4.6460     0.1560    -2.1170 H     1 <1>   0.0800 
 44 H       -3.1850    -0.7500    -2.3460 H     1 <1>   0.0800 
 45 H       -2.0270     1.5180    -2.0010 H     1 <1>   0.0800 
 46 H       -2.2280     2.3640    -0.4880 H     1 <1>   0.0800 
 47 H       -3.5530     2.2710    -1.6170 H     1 <1>   0.0800 
 48 H        2.2100    -3.6610    -2.6920 H     1 <1>   0.1500 
 49 H       -6.7080    -4.2350    -2.6660 H     1 <1>   0.1500 
 50 H       -3.8110    -4.1800     0.4420 H     1 <1>   0.1500 
 51 H       -7.6970    -6.2760    -1.7110 H     1 <1>   0.1500 
 52 H       -4.7830    -6.2120     1.3990 H     1 <1>   0.1500 
 53 H       -6.7370    -7.2670     0.3290 H     1 <1>   0.1500 
@<TRIPOS>BOND
  1   1   2  2   
  2   2   3  am  
  3   2   4  1   
  4   3   5  1   
  5   3   6  1   
  6   4   7  ar  
  7   4   8  ar  
  8   5   9  1   
  9   5  28  1   
 10   5  29  1   
 11   6  10  1   
 12   6  30  1   
 13   6  31  1   
 14   7  11  ar  
 15   7  32  1   
 16   8  12  ar  
 17   8  33  1   
 18   9  13  1   
 19   9  14  1   
 20   9  15  1   
 21  10  14  1   
 22  10  16  1   
 23  10  17  1   
 24  11  18  ar  
 25  11  34  1   
 26  12  18  ar  
 27  12  35  1   
 28  13  19  1   
 29  13  36  1   
 30  13  37  1   
 31  14  38  1   
 32  14  39  1   
 33  15  40  1   
 34  15  41  1   
 35  15  42  1   
 36  16  19  1   
 37  16  43  1   
 38  16  44  1   
 39  17  45  1   
 40  17  46  1   
 41  17  47  1   
 42  18  48  1   
 43  19  20  am  
 44  20  21  2   
 45  20  22  1   
 46  22  23  ar  
 47  22  24  ar  
 48  23  25  ar  
 49  23  49  1   
 50  24  26  ar  
 51  24  50  1   
 52  25  27  ar  
 53  25  51  1   
 54  26  27  ar  
 55  26  52  1   
 56  27  53  1   
@<TRIPOS>SUBSTRUCTURE
  1 ****  19 GROUP 4 **** **** 0

# MOE 2024.06 (io_trps.svl 2023.06)
