@<TRIPOS>MOLECULE
NONAME
51 53 1 0 0 
SMALL
USER_CHARGES


@<TRIPOS>ATOM
  1 F        1.3780    -4.2900    -2.0340 F     1 <1>  -0.1900 
  2 C        0.3070    -3.5950    -1.7240 C.ar  1 <1>   0.1900 
  3 C        0.1530    -3.0890    -0.4270 C.ar  1 <1>   0.1000 
  4 C       -0.6300    -3.3990    -2.7200 C.ar  1 <1>  -0.1500 
  5 N        1.0700    -3.2590     0.6190 N.pl3 1 <1>  -0.8380 
  6 C       -1.0040    -2.3650    -0.1720 C.ar  1 <1>  -0.1500 
  7 C       -1.7730    -2.6710    -2.4310 C.ar  1 <1>  -0.1500 
  8 C        2.4100    -2.6290     0.4190 C.3   1 <1>   0.2090 
  9 C        1.1940    -4.6510     1.1490 C.3   1 <1>   0.2090 
 10 C       -1.9560    -2.1570    -1.1570 C.ar  1 <1>  -0.1500 
 11 C        3.2540    -2.7080     1.7030 C.3   1 <1>   0.1100 
 12 C        2.0740    -4.6940     2.4150 C.3   1 <1>   0.1100 
 13 N        3.4100    -4.1100     2.1680 N.3   1 <1>  -0.8100 
 14 C        4.3000    -4.2020     3.3650 C.3   1 <1>   0.1710 
 15 C        5.7800    -3.9850     3.0330 C.2   1 <1>   0.5690 
 16 O        6.5520    -3.6880     3.9130 O.2   1 <1>  -0.5700 
 17 N        6.1230    -4.1300     1.7230 N.am  1 <1>  -0.5470 
 18 C        7.2740    -3.8370     0.9740 C.ar  1 <1>   0.1170 
 19 C        7.1390    -3.6560    -0.4060 C.ar  1 <1>   0.0830 
 20 C        8.5320    -3.7260     1.5520 C.ar  1 <1>  -0.1500 
 21 O        5.8800    -3.7690    -0.9300 O.3   1 <1>  -0.3630 
 22 C        8.2570    -3.3670    -1.1790 C.ar  1 <1>  -0.1500 
 23 C        9.6430    -3.4380     0.7780 C.ar  1 <1>  -0.1500 
 24 C        5.6560    -3.6990    -2.3210 C.3   1 <1>   0.0400 
 25 C        9.5070    -3.2570    -0.5950 C.ar  1 <1>   0.0830 
 26 O       10.5430    -2.9710    -1.4270 O.3   1 <1>  -0.3620 
 27 C       11.8540    -2.8230    -0.9270 C.3   1 <1>   0.0400 
 28 H       -0.4670    -3.8080    -3.7000 H     1 <1>   0.1500 
 29 H       -1.1480    -1.9640     0.8150 H     1 <1>   0.1500 
 30 H       -2.5160    -2.5070    -3.1930 H     1 <1>   0.1500 
 31 H        2.2780    -1.5980     0.1390 H     1 <1>   0.0800 
 32 H        2.9360    -3.1290    -0.3760 H     1 <1>   0.0800 
 33 H        1.6300    -5.2860     0.3980 H     1 <1>   0.0800 
 34 H        0.2140    -5.0290     1.3810 H     1 <1>   0.0800 
 35 H       -2.8430    -1.5910    -0.9300 H     1 <1>   0.1500 
 36 H        2.7780    -2.1180     2.4670 H     1 <1>   0.0800 
 37 H        4.2180    -2.2750     1.5010 H     1 <1>   0.0800 
 38 H        2.1820    -5.7190     2.7240 H     1 <1>   0.0800 
 39 H        1.5770    -4.1540     3.2030 H     1 <1>   0.0800 
 40 H        4.2140    -5.1820     3.7980 H     1 <1>   0.0800 
 41 H        3.9970    -3.4820     4.1050 H     1 <1>   0.0800 
 42 H        5.2980    -4.3160     1.1380 H     1 <1>   0.3700 
 43 H        8.6460    -3.8670     2.6110 H     1 <1>   0.1500 
 44 H        8.1900    -3.2210    -2.2390 H     1 <1>   0.1500 
 45 H       10.5980    -3.3600     1.2630 H     1 <1>   0.1500 
 46 H        4.6070    -3.8550    -2.4990 H     1 <1>   0.0800 
 47 H        6.2280    -4.4700    -2.8060 H     1 <1>   0.0800 
 48 H        5.9460    -2.7250    -2.6730 H     1 <1>   0.0800 
 49 H       12.5030    -2.5950    -1.7530 H     1 <1>   0.0800 
 50 H       12.1590    -3.7470    -0.4680 H     1 <1>   0.0800 
 51 H       11.8690    -2.0150    -0.2170 H     1 <1>   0.0800 
@<TRIPOS>BOND
  1   1   2  1   
  2   2   3  ar  
  3   2   4  ar  
  4   3   5  1   
  5   3   6  ar  
  6   4   7  ar  
  7   4  28  1   
  8   5   8  1   
  9   5   9  1   
 10   6  10  ar  
 11   6  29  1   
 12   7  10  ar  
 13   7  30  1   
 14   8  11  1   
 15   8  31  1   
 16   8  32  1   
 17   9  12  1   
 18   9  33  1   
 19   9  34  1   
 20  10  35  1   
 21  11  13  1   
 22  11  36  1   
 23  11  37  1   
 24  12  13  1   
 25  12  38  1   
 26  12  39  1   
 27  13  14  1   
 28  14  15  1   
 29  14  40  1   
 30  14  41  1   
 31  15  16  2   
 32  15  17  am  
 33  17  18  1   
 34  17  42  1   
 35  18  19  ar  
 36  18  20  ar  
 37  19  21  1   
 38  19  22  ar  
 39  20  23  ar  
 40  20  43  1   
 41  21  24  1   
 42  22  25  ar  
 43  22  44  1   
 44  23  25  ar  
 45  23  45  1   
 46  24  46  1   
 47  24  47  1   
 48  24  48  1   
 49  25  26  1   
 50  26  27  1   
 51  27  49  1   
 52  27  50  1   
 53  27  51  1   
@<TRIPOS>SUBSTRUCTURE
  1 ****  21 GROUP 4 **** **** 0

# MOE 2024.06 (io_trps.svl 2023.06)
