@<TRIPOS>MOLECULE
NONAME
39 39 1 0 0 
SMALL
USER_CHARGES


@<TRIPOS>ATOM
  1 P       -0.0570    -0.0910     0.5600 P.3   1 <1>   1.0390 
  2 O        1.0770    -0.4120    -0.3590 O.co2 1 <1>  -0.9500 
  3 O       -0.0580    -0.5430     1.9860 O.co2 1 <1>  -0.9500 
  4 C       -0.3950     1.6910     0.4960 C.ar  1 <1>  -0.1390 
  5 C       -1.5490    -0.7450    -0.1990 C.3   1 <1>  -0.1600 
  6 C       -1.0710     2.3430     1.5200 C.ar  1 <1>  -0.1500 
  7 C       -0.0200     2.4660    -0.5950 C.ar  1 <1>  -0.1500 
  8 C       -1.5830    -2.2800    -0.2990 C.3   1 <1>  -0.1600 
  9 C       -1.3670     3.6940     1.4640 C.ar  1 <1>  -0.1500 
 10 C       -0.3060     3.8180    -0.6710 C.ar  1 <1>  -0.1500 
 11 C       -2.8000    -2.8290    -1.0620 C.3   1 <1>  -0.1600 
 12 C       -0.9850     4.4370     0.3630 C.ar  1 <1>  -0.1500 
 13 C       -4.1300    -2.5680    -0.3400 C.3   1 <1>  -0.1600 
 14 C       -5.3000    -3.2320    -1.0820 C.3   1 <1>  -0.1600 
 15 C       -6.6420    -3.0880    -0.3460 C.3   1 <1>  -0.1600 
 16 C       -7.1390    -1.6370    -0.2770 C.3   1 <1>  -0.1600 
 17 C       -8.5330    -1.5640     0.3540 C.3   1 <1>  -0.2400 
 18 H       -1.6510    -0.3440    -1.1880 H     1 <1>   0.0800 
 19 H       -2.3990    -0.4200     0.3670 H     1 <1>   0.0800 
 20 H       -1.3590     1.7610     2.3810 H     1 <1>   0.1500 
 21 H        0.5150     1.9810    -1.3950 H     1 <1>   0.1500 
 22 H       -1.5490    -2.6930     0.6960 H     1 <1>   0.0800 
 23 H       -0.6850    -2.5970    -0.8020 H     1 <1>   0.0800 
 24 H       -1.8900     4.1600     2.2790 H     1 <1>   0.1500 
 25 H        0.0040     4.3820    -1.5320 H     1 <1>   0.1500 
 26 H       -2.6670    -3.8910    -1.1770 H     1 <1>   0.0800 
 27 H       -2.8270    -2.3940    -2.0460 H     1 <1>   0.0800 
 28 H       -1.2100     5.4870     0.3120 H     1 <1>   0.1500 
 29 H       -4.2980    -1.5080    -0.2810 H     1 <1>   0.0800 
 30 H       -4.0720    -2.9550     0.6620 H     1 <1>   0.0800 
 31 H       -5.0880    -4.2810    -1.1930 H     1 <1>   0.0800 
 32 H       -5.3850    -2.8110    -2.0700 H     1 <1>   0.0800 
 33 H       -6.5470    -3.4860     0.6500 H     1 <1>   0.0800 
 34 H       -7.3750    -3.6820    -0.8640 H     1 <1>   0.0800 
 35 H       -7.1760    -1.2190    -1.2680 H     1 <1>   0.0800 
 36 H       -6.4620    -1.0430     0.3110 H     1 <1>   0.0800 
 37 H       -9.2400    -2.1260    -0.2290 H     1 <1>   0.0800 
 38 H       -8.8630    -0.5410     0.3990 H     1 <1>   0.0800 
 39 H       -8.5130    -1.9610     1.3540 H     1 <1>   0.0800 
@<TRIPOS>BOND
  1   1   2  ar  
  2   1   3  ar  
  3   1   4  1   
  4   1   5  1   
  5   4   6  ar  
  6   4   7  ar  
  7   5   8  1   
  8   5  18  1   
  9   5  19  1   
 10   6   9  ar  
 11   6  20  1   
 12   7  10  ar  
 13   7  21  1   
 14   8  11  1   
 15   8  22  1   
 16   8  23  1   
 17   9  12  ar  
 18   9  24  1   
 19  10  12  ar  
 20  10  25  1   
 21  11  13  1   
 22  11  26  1   
 23  11  27  1   
 24  12  28  1   
 25  13  14  1   
 26  13  29  1   
 27  13  30  1   
 28  14  15  1   
 29  14  31  1   
 30  14  32  1   
 31  15  16  1   
 32  15  33  1   
 33  15  34  1   
 34  16  17  1   
 35  16  35  1   
 36  16  36  1   
 37  17  37  1   
 38  17  38  1   
 39  17  39  1   
@<TRIPOS>SUBSTRUCTURE
  1 ****   5 GROUP 4 **** **** 0

# MOE 2024.06 (io_trps.svl 2023.06)
