@<TRIPOS>MOLECULE
NONAME
46 47 1 0 0 
SMALL
USER_CHARGES


@<TRIPOS>ATOM
  1 O        1.1320    -1.6310    -0.7880 O.2   1 <1>  -0.5700 
  2 C        1.3800    -2.7400    -0.3860 C.2   1 <1>   0.5690 
  3 N        2.6340    -3.2170    -0.1520 N.am  1 <1>  -0.5470 
  4 C        0.2150    -3.6670    -0.1240 C.3   1 <1>  -0.0990 
  5 C        3.9180    -2.6510    -0.2690 C.ar  1 <1>   0.1170 
  6 C       -1.0570    -2.8370     0.0570 C.3   1 <1>   0.3430 
  7 C        5.0100    -3.4450     0.1000 C.ar  1 <1>   0.0830 
  8 C        4.1530    -1.3600    -0.7290 C.ar  1 <1>  -0.1500 
  9 N       -2.2450    -3.6950     0.3340 N.4   1 <1>  -0.9590 
 10 O        4.7360    -4.7090     0.5460 O.3   1 <1>  -0.3630 
 11 C        6.3040    -2.9400     0.0060 C.ar  1 <1>  -0.1500 
 12 C        5.4410    -0.8630    -0.8200 C.ar  1 <1>  -0.1500 
 13 C       -2.7030    -4.5170    -0.8360 C.3   1 <1>   0.3430 
 14 C       -3.4060    -2.8840     0.8480 C.3   1 <1>   0.3430 
 15 C        5.7730    -5.5820     0.9420 C.3   1 <1>   0.0400 
 16 C        6.5160    -1.6510    -0.4530 C.ar  1 <1>  -0.1500 
 17 C       -3.8380    -5.4890    -0.4190 C.3   1 <1>   0.2000 
 18 C       -4.7280    -3.6970     0.9110 C.3   1 <1>   0.2000 
 19 O       -4.4720    -5.0680     0.7620 O.3   1 <1>  -0.5600 
 20 C       -3.3040    -6.8910    -0.1330 C.3   1 <1>  -0.2400 
 21 C       -5.7700    -3.2520    -0.1230 C.3   1 <1>  -0.2400 
 22 H        2.7110    -4.1800     0.1820 H     1 <1>   0.3700 
 23 H        0.4120    -4.2360     0.7660 H     1 <1>   0.0800 
 24 H        0.1250    -4.3260    -0.9660 H     1 <1>   0.0800 
 25 H       -1.2270    -2.2450    -0.8290 H     1 <1>   0.0800 
 26 H       -0.9020    -2.1540     0.8780 H     1 <1>   0.0800 
 27 H        3.3370    -0.7260    -1.0220 H     1 <1>   0.1500 
 28 H       -2.0350    -4.3700     1.0850 H     1 <1>   0.4500 
 29 H        7.1590    -3.5260     0.2820 H     1 <1>   0.1500 
 30 H        5.6040     0.1390    -1.1780 H     1 <1>   0.1500 
 31 H       -1.8860    -5.0870    -1.2470 H     1 <1>   0.0800 
 32 H       -3.0690    -3.8670    -1.6130 H     1 <1>   0.0800 
 33 H       -3.5640    -2.0250     0.2160 H     1 <1>   0.0800 
 34 H       -3.1810    -2.5150     1.8350 H     1 <1>   0.0800 
 35 H        5.3300    -6.5120     1.2530 H     1 <1>   0.0800 
 36 H        6.3070    -5.1410     1.7650 H     1 <1>   0.0800 
 37 H        6.4260    -5.7530     0.1050 H     1 <1>   0.0800 
 38 H        7.5170    -1.2620    -0.5260 H     1 <1>   0.1500 
 39 H       -4.5770    -5.5480    -1.2000 H     1 <1>   0.0800 
 40 H       -5.1590    -3.5710     1.8910 H     1 <1>   0.0800 
 41 H       -2.5870    -6.8730     0.6680 H     1 <1>   0.0800 
 42 H       -2.8360    -7.3010    -1.0100 H     1 <1>   0.0800 
 43 H       -4.1180    -7.5390     0.1430 H     1 <1>   0.0800 
 44 H       -5.3840    -3.2770    -1.1250 H     1 <1>   0.0800 
 45 H       -6.0830    -2.2450     0.0870 H     1 <1>   0.0800 
 46 H       -6.6380    -3.8860    -0.0590 H     1 <1>   0.0800 
@<TRIPOS>BOND
  1   1   2  2   
  2   2   3  am  
  3   2   4  1   
  4   3   5  1   
  5   3  22  1   
  6   4   6  1   
  7   4  23  1   
  8   4  24  1   
  9   5   7  ar  
 10   5   8  ar  
 11   6   9  1   
 12   6  25  1   
 13   6  26  1   
 14   7  10  1   
 15   7  11  ar  
 16   8  12  ar  
 17   8  27  1   
 18   9  13  1   
 19   9  14  1   
 20   9  28  1   
 21  10  15  1   
 22  11  16  ar  
 23  11  29  1   
 24  12  16  ar  
 25  12  30  1   
 26  13  17  1   
 27  13  31  1   
 28  13  32  1   
 29  14  18  1   
 30  14  33  1   
 31  14  34  1   
 32  15  35  1   
 33  15  36  1   
 34  15  37  1   
 35  16  38  1   
 36  17  19  1   
 37  17  20  1   
 38  17  39  1   
 39  18  19  1   
 40  18  21  1   
 41  18  40  1   
 42  20  41  1   
 43  20  42  1   
 44  20  43  1   
 45  21  44  1   
 46  21  45  1   
 47  21  46  1   
@<TRIPOS>SUBSTRUCTURE
  1 ****   4 GROUP 4 **** **** 0

# MOE 2024.06 (io_trps.svl 2023.06)
