@<TRIPOS>MOLECULE
NONAME
31 32 1 0 0 
SMALL
USER_CHARGES


@<TRIPOS>ATOM
  1 BR       1.5320     0.9350    -3.5030 Br    1 <1>  -0.1110 
  2 C        2.6920     0.1140    -2.2130 C.ar  1 <1>   0.1110 
  3 C        3.4080     0.9160    -1.3470 C.ar  1 <1>  -0.1500 
  4 C        2.7900    -1.2630    -2.1790 C.ar  1 <1>  -0.1500 
  5 C        4.2390     0.3120    -0.4210 C.ar  1 <1>  -0.1500 
  6 C        3.6270    -1.8480    -1.2460 C.ar  1 <1>  -0.1500 
  7 C        4.3710    -1.0810    -0.3360 C.ar  1 <1>   0.0860 
  8 C        5.2530    -1.6540     0.6640 C.2   1 <1>   0.4230 
  9 O        6.1040    -1.0040     1.2210 O.2   1 <1>  -0.5700 
 10 C        5.1290    -3.1030     1.1060 C.3   1 <1>  -0.0990 
 11 C        6.1950    -4.0390     0.5060 C.3   1 <1>   0.5400 
 12 N        6.1260    -3.9190    -0.9740 N.3   1 <1>  -0.9000 
 13 N        7.5220    -3.4880     0.8420 N.3   1 <1>  -0.9000 
 14 C        5.9490    -5.5350     1.0470 C.3   1 <1>   1.0200 
 15 C        7.2730    -3.1490    -1.4340 C.3   1 <1>   0.1100 
 16 C        8.3100    -3.3950    -0.3690 C.3   1 <1>   0.1100 
 17 F        6.7950    -6.4210     0.5230 F     1 <1>  -0.3400 
 18 F        6.0550    -5.6540     2.3700 F     1 <1>  -0.3400 
 19 F        4.7330    -5.9890     0.7440 F     1 <1>  -0.3400 
 20 H        3.3150     1.9860    -1.3990 H     1 <1>   0.1500 
 21 H        2.2240    -1.8600    -2.8720 H     1 <1>   0.1500 
 22 H        4.8020     0.9310     0.2570 H     1 <1>   0.1500 
 23 H        3.7060    -2.9190    -1.2430 H     1 <1>   0.1500 
 24 H        4.1480    -3.4720     0.8800 H     1 <1>   0.0800 
 25 H        5.2190    -3.1280     2.1770 H     1 <1>   0.0800 
 26 H        6.2820    -4.8740    -1.3210 H     1 <1>   0.3600 
 27 H        7.3320    -2.5140     1.1380 H     1 <1>   0.3600 
 28 H        7.0260    -2.1010    -1.4700 H     1 <1>   0.0800 
 29 H        7.6050    -3.4720    -2.4060 H     1 <1>   0.0800 
 30 H        8.8180    -4.3280    -0.5490 H     1 <1>   0.0800 
 31 H        9.0300    -2.5970    -0.3110 H     1 <1>   0.0800 
@<TRIPOS>BOND
  1   1   2  1   
  2   2   3  ar  
  3   2   4  ar  
  4   3   5  ar  
  5   3  20  1   
  6   4   6  ar  
  7   4  21  1   
  8   5   7  ar  
  9   5  22  1   
 10   6   7  ar  
 11   6  23  1   
 12   7   8  1   
 13   8   9  2   
 14   8  10  1   
 15  10  11  1   
 16  10  24  1   
 17  10  25  1   
 18  11  12  1   
 19  11  13  1   
 20  11  14  1   
 21  12  15  1   
 22  12  26  1   
 23  13  16  1   
 24  13  27  1   
 25  14  17  1   
 26  14  18  1   
 27  14  19  1   
 28  15  16  1   
 29  15  28  1   
 30  15  29  1   
 31  16  30  1   
 32  16  31  1   
@<TRIPOS>SUBSTRUCTURE
  1 ****   8 GROUP 4 **** **** 0

# MOE 2024.06 (io_trps.svl 2023.06)
