@<TRIPOS>MOLECULE
NONAME
54 56 1 0 0 
SMALL
USER_CHARGES


@<TRIPOS>ATOM
  1 O       -0.0580     0.3990     0.1370 O.2   1 <1>  -0.5700 
  2 C        0.0390     1.5300    -0.3010 C.2   1 <1>   0.5440 
  3 N        1.2350     1.9410    -0.8580 N.am  1 <1>  -0.6600 
  4 C       -1.1040     2.4190    -0.2290 C.ar  1 <1>   0.0860 
  5 C        1.4310     3.2730    -1.4950 C.3   1 <1>   0.1400 
  6 C        2.4500     1.0820    -0.8230 C.3   1 <1>   0.1400 
  7 C       -1.3380     3.2450     0.8770 C.ar  1 <1>  -0.1440 
  8 C       -2.0010     2.4780    -1.2940 C.ar  1 <1>  -0.1500 
  9 C        2.5550     4.0270    -0.7790 C.3   1 <1>  -0.1600 
 10 C        3.5730     1.8200    -0.0900 C.3   1 <1>  -0.1600 
 11 C       -2.4240     4.1040     0.8900 C.ar  1 <1>  -0.1500 
 12 C       -0.4030     3.1990     2.0790 C.3   1 <1>  -0.0970 
 13 C       -3.0850     3.3350    -1.2780 C.ar  1 <1>  -0.1500 
 14 C        3.8530     3.1980    -0.7160 C.3   1 <1>  -0.0190 
 15 C       -3.2960     4.1530    -0.1830 C.ar  1 <1>  -0.1500 
 16 C        4.9600     3.9280     0.0430 C.2   1 <1>   0.5690 
 17 O        4.7110     4.4120     1.1210 O.2   1 <1>  -0.5700 
 18 N        6.1900     3.9840    -0.5480 N.am  1 <1>  -0.5470 
 19 C        7.4250     4.5470    -0.1690 C.ar  1 <1>   0.1170 
 20 C        8.5070     4.3890    -1.0420 C.ar  1 <1>   0.0830 
 21 C        7.6190     5.2460     1.0170 C.ar  1 <1>  -0.1500 
 22 O        8.2780     3.6960    -2.2000 O.3   1 <1>  -0.3620 
 23 C        9.7490     4.9250    -0.7180 C.ar  1 <1>  -0.1500 
 24 C        8.8550     5.7780     1.3370 C.ar  1 <1>  -0.1500 
 25 C        9.3120     3.4910    -3.1400 C.3   1 <1>   0.0400 
 26 C        9.9280     5.6180     0.4670 C.ar  1 <1>   0.0830 
 27 O       11.1740     6.1080     0.7030 O.3   1 <1>  -0.3620 
 28 C       11.4580     6.8280     1.8820 C.3   1 <1>   0.0400 
 29 H        0.5300     3.8600    -1.4590 H     1 <1>   0.0800 
 30 H        1.6900     3.1270    -2.5300 H     1 <1>   0.0800 
 31 H        2.7490     0.8560    -1.8320 H     1 <1>   0.0800 
 32 H        2.2480     0.1510    -0.3220 H     1 <1>   0.0800 
 33 H       -1.8380     1.8370    -2.1430 H     1 <1>   0.1500 
 34 H        2.2290     4.2700     0.2170 H     1 <1>   0.0800 
 35 H        2.7430     4.9540    -1.2910 H     1 <1>   0.0800 
 36 H        4.4660     1.2200    -0.1140 H     1 <1>   0.0800 
 37 H        3.2910     1.9400     0.9420 H     1 <1>   0.0800 
 38 H       -2.6030     4.7410     1.7390 H     1 <1>   0.1500 
 39 H        0.5960     3.4640     1.7860 H     1 <1>   0.0800 
 40 H       -0.3870     2.2040     2.4900 H     1 <1>   0.0800 
 41 H       -0.7230     3.8780     2.8480 H     1 <1>   0.0800 
 42 H       -3.7650     3.3650    -2.1110 H     1 <1>   0.1500 
 43 H        4.1860     3.0410    -1.7270 H     1 <1>   0.0800 
 44 H       -4.1380     4.8230    -0.1640 H     1 <1>   0.1500 
 45 H        6.2710     3.5210    -1.4540 H     1 <1>   0.3700 
 46 H        6.8050     5.3820     1.7050 H     1 <1>   0.1500 
 47 H       10.5990     4.8230    -1.3630 H     1 <1>   0.1500 
 48 H        8.9590     6.3100     2.2640 H     1 <1>   0.1500 
 49 H        8.9110     2.9290    -3.9640 H     1 <1>   0.0800 
 50 H       10.1060     2.9350    -2.6710 H     1 <1>   0.0800 
 51 H        9.6650     4.4460    -3.4870 H     1 <1>   0.0800 
 52 H       12.4940     7.1150     1.8560 H     1 <1>   0.0800 
 53 H       11.2760     6.1940     2.7310 H     1 <1>   0.0800 
 54 H       10.8370     7.7060     1.9140 H     1 <1>   0.0800 
@<TRIPOS>BOND
  1   1   2  2   
  2   2   3  am  
  3   2   4  1   
  4   3   5  1   
  5   3   6  1   
  6   4   7  ar  
  7   4   8  ar  
  8   5   9  1   
  9   5  29  1   
 10   5  30  1   
 11   6  10  1   
 12   6  31  1   
 13   6  32  1   
 14   7  11  ar  
 15   7  12  1   
 16   8  13  ar  
 17   8  33  1   
 18   9  14  1   
 19   9  34  1   
 20   9  35  1   
 21  10  14  1   
 22  10  36  1   
 23  10  37  1   
 24  11  15  ar  
 25  11  38  1   
 26  12  39  1   
 27  12  40  1   
 28  12  41  1   
 29  13  15  ar  
 30  13  42  1   
 31  14  16  1   
 32  14  43  1   
 33  15  44  1   
 34  16  17  2   
 35  16  18  am  
 36  18  19  1   
 37  18  45  1   
 38  19  20  ar  
 39  19  21  ar  
 40  20  22  1   
 41  20  23  ar  
 42  21  24  ar  
 43  21  46  1   
 44  22  25  1   
 45  23  26  ar  
 46  23  47  1   
 47  24  26  ar  
 48  24  48  1   
 49  25  49  1   
 50  25  50  1   
 51  25  51  1   
 52  26  27  1   
 53  27  28  1   
 54  28  52  1   
 55  28  53  1   
 56  28  54  1   
@<TRIPOS>SUBSTRUCTURE
  1 ****  14 GROUP 4 **** **** 0

# MOE 2024.06 (io_trps.svl 2023.06)
