@<TRIPOS>MOLECULE
NONAME
50 52 1 0 0 
SMALL
USER_CHARGES


@<TRIPOS>ATOM
  1 O       -0.2850     0.6900     0.8530 O.2   1 <1>  -0.5700 
  2 C       -0.4020     1.8960     0.8340 C.2   1 <1>   0.5440 
  3 N        0.6290     2.6090     1.3590 N.am  1 <1>  -0.7300 
  4 C       -1.5900     2.5090     0.2700 C.ar  1 <1>   0.0860 
  5 C        0.9910     4.0150     1.0970 C.3   1 <1>   0.1400 
  6 C       -2.1240     2.0470    -0.9310 C.ar  1 <1>  -0.1500 
  7 C       -2.2540     3.5580     0.9050 C.ar  1 <1>  -0.1500 
  8 C        2.4450     4.0610     0.6450 C.3   1 <1>  -0.2400 
  9 C       -3.2700     2.5980    -1.4730 C.ar  1 <1>  -0.1500 
 10 C       -3.4010     4.1160     0.3710 C.ar  1 <1>  -0.1500 
 11 C       -3.9240     3.6310    -0.8190 C.ar  1 <1>  -0.1440 
 12 C       -5.2090     4.2020    -1.3890 C.3   1 <1>   0.4860 
 13 N       -6.3490     3.6840    -0.5850 N.4   1 <1>  -0.9590 
 14 C       -6.4380     2.1740    -0.6490 C.3   1 <1>   0.3430 
 15 C       -7.6560     4.3230    -0.9890 C.3   1 <1>   0.3430 
 16 C       -7.6290     1.6140     0.1550 C.3   1 <1>   0.2090 
 17 C       -8.8580     3.7760    -0.1890 C.3   1 <1>   0.2090 
 18 N       -8.8950     2.2880    -0.2520 N.pl3 1 <1>  -0.8380 
 19 C      -10.0750     1.6860     0.1690 C.ar  1 <1>   0.1000 
 20 C      -10.4500     1.6760     1.5080 C.ar  1 <1>  -0.1500 
 21 C      -10.9040     1.0770    -0.7630 C.ar  1 <1>  -0.1500 
 22 C      -11.6300     1.0710     1.9040 C.ar  1 <1>  -0.1500 
 23 C      -12.0840     0.4720    -0.3710 C.ar  1 <1>  -0.1500 
 24 C      -12.4480     0.4680     0.9640 C.ar  1 <1>  -0.1500 
 25 H        1.3780     2.0340     1.7510 H     1 <1>   0.3700 
 26 H        0.8660     4.5900     1.9990 H     1 <1>   0.0800 
 27 H        0.3590     4.4270     0.3290 H     1 <1>   0.0800 
 28 H       -1.6220     1.2370    -1.4360 H     1 <1>   0.1500 
 29 H       -1.8600     3.9300     1.8360 H     1 <1>   0.1500 
 30 H        3.0910     3.6800     1.4160 H     1 <1>   0.0800 
 31 H        2.7270     5.0770     0.4380 H     1 <1>   0.0800 
 32 H        2.5750     3.4820    -0.2520 H     1 <1>   0.0800 
 33 H       -3.6400     2.2070    -2.4070 H     1 <1>   0.1500 
 34 H       -3.8750     4.9280     0.8970 H     1 <1>   0.1500 
 35 H       -5.3170     3.9090    -2.4210 H     1 <1>   0.0800 
 36 H       -5.1750     5.2780    -1.3400 H     1 <1>   0.0800 
 37 H       -6.1590     3.9230     0.3960 H     1 <1>   0.4500 
 38 H       -5.5290     1.7340    -0.2720 H     1 <1>   0.0800 
 39 H       -6.5540     1.8630    -1.6730 H     1 <1>   0.0800 
 40 H       -7.8420     4.1310    -2.0330 H     1 <1>   0.0800 
 41 H       -7.6040     5.3910    -0.8530 H     1 <1>   0.0800 
 42 H       -7.4630     1.7560     1.2080 H     1 <1>   0.0800 
 43 H       -7.7180     0.5560    -0.0270 H     1 <1>   0.0800 
 44 H       -9.7720     4.1690    -0.6030 H     1 <1>   0.0800 
 45 H       -8.7960     4.0950     0.8370 H     1 <1>   0.0800 
 46 H       -9.8210     2.1410     2.2420 H     1 <1>   0.1500 
 47 H      -10.6190     1.0820    -1.7990 H     1 <1>   0.1500 
 48 H      -11.9140     1.0670     2.9420 H     1 <1>   0.1500 
 49 H      -12.7200     0.0030    -1.1030 H     1 <1>   0.1500 
 50 H      -13.3660    -0.0030     1.2710 H     1 <1>   0.1500 
@<TRIPOS>BOND
  1   1   2  2   
  2   2   3  am  
  3   2   4  1   
  4   3   5  1   
  5   3  25  1   
  6   4   6  ar  
  7   4   7  ar  
  8   5   8  1   
  9   5  26  1   
 10   5  27  1   
 11   6   9  ar  
 12   6  28  1   
 13   7  10  ar  
 14   7  29  1   
 15   8  30  1   
 16   8  31  1   
 17   8  32  1   
 18   9  11  ar  
 19   9  33  1   
 20  10  11  ar  
 21  10  34  1   
 22  11  12  1   
 23  12  13  1   
 24  12  35  1   
 25  12  36  1   
 26  13  14  1   
 27  13  15  1   
 28  13  37  1   
 29  14  16  1   
 30  14  38  1   
 31  14  39  1   
 32  15  17  1   
 33  15  40  1   
 34  15  41  1   
 35  16  18  1   
 36  16  42  1   
 37  16  43  1   
 38  17  18  1   
 39  17  44  1   
 40  17  45  1   
 41  18  19  1   
 42  19  20  ar  
 43  19  21  ar  
 44  20  22  ar  
 45  20  46  1   
 46  21  23  ar  
 47  21  47  1   
 48  22  24  ar  
 49  22  48  1   
 50  23  24  ar  
 51  23  49  1   
 52  24  50  1   
@<TRIPOS>SUBSTRUCTURE
  1 ****  14 GROUP 4 **** **** 0

# MOE 2024.06 (io_trps.svl 2023.06)
