@<TRIPOS>MOLECULE
NONAME
25 26 1 0 0 
SMALL
USER_CHARGES


@<TRIPOS>ATOM
  1 S        0.1740    -0.1120    -0.6050 S.3   1 <1>  -0.0800 
  2 C        1.2230     1.1490    -0.0480 C.2   1 <1>   0.4420 
  3 C       -1.1560     0.9060    -0.1760 C.2   1 <1>   0.2930 
  4 N        0.5730     2.1670     0.3860 N.2   1 <1>  -0.3380 
  5 N        2.5750     0.9120    -0.1370 N.am  1 <1>  -0.4940 
  6 N       -0.7850     2.0210     0.3100 N.2   1 <1>  -0.3380 
  7 C       -2.5580     0.3730    -0.4190 C.3   1 <1>  -0.0150 
  8 C        3.6170     1.7030     0.2150 C.2   1 <1>   0.7800 
  9 C       -3.7040     0.7930     0.4500 C.3   1 <1>  -0.2000 
 10 C       -3.1720    -0.6060     0.5350 C.3   1 <1>  -0.2000 
 11 O        3.5160     2.8110     0.6940 O.2   1 <1>  -0.5700 
 12 O        4.8160     1.1700    -0.0040 O.3   1 <1>  -0.4300 
 13 C        5.9900     1.8830     0.3160 C.3   1 <1>   0.1200 
 14 C        7.1880     1.0130    -0.0500 C.3   1 <1>  -0.2400 
 15 H        2.8600     0.0190    -0.5210 H     1 <1>   0.3700 
 16 H       -2.7630     0.2450    -1.4680 H     1 <1>   0.1000 
 17 H       -4.6620     0.9620    -0.0080 H     1 <1>   0.1000 
 18 H       -3.5070     1.4760     1.2610 H     1 <1>   0.1000 
 19 H       -2.6230    -0.8900     1.4160 H     1 <1>   0.1000 
 20 H       -3.7660    -1.4110     0.1390 H     1 <1>   0.1000 
 21 H        5.9800     2.1040     1.3700 H     1 <1>   0.0800 
 22 H        5.9950     2.8030    -0.2450 H     1 <1>   0.0800 
 23 H        7.1660     0.0950     0.5100 H     1 <1>   0.0800 
 24 H        8.0990     1.5340     0.1840 H     1 <1>   0.0800 
 25 H        7.1810     0.7940    -1.1030 H     1 <1>   0.0800 
@<TRIPOS>BOND
  1   1   2  1   
  2   1   3  1   
  3   2   4  2   
  4   2   5  1   
  5   3   6  2   
  6   3   7  1   
  7   4   6  1   
  8   5   8  am  
  9   5  15  1   
 10   7   9  1   
 11   7  10  1   
 12   7  16  1   
 13   8  11  2   
 14   8  12  1   
 15   9  10  1   
 16   9  17  1   
 17   9  18  1   
 18  10  19  1   
 19  10  20  1   
 20  12  13  1   
 21  13  14  1   
 22  13  21  1   
 23  13  22  1   
 24  14  23  1   
 25  14  24  1   
 26  14  25  1   
@<TRIPOS>SUBSTRUCTURE
  1 ****   2 GROUP 4 **** **** 0

# MOE 2024.06 (io_trps.svl 2023.06)
