@<TRIPOS>MOLECULE
NONAME
41 42 1 0 0 
SMALL
USER_CHARGES


@<TRIPOS>ATOM
  1 O        1.1840     2.5670     0.4450 O.2   1 <1>  -0.5700 
  2 C        0.6620     2.2560    -0.6070 C.2   1 <1>   0.6900 
  3 N       -0.6470     1.8970    -0.6890 N.am  1 <1>  -0.5470 
  4 N        1.4000     2.2300    -1.7500 N.am  1 <1>  -0.7300 
  5 C       -1.6110     1.7170     0.3140 C.ar  1 <1>   0.1170 
  6 C        2.7260     2.8760    -2.0470 C.3   1 <1>   0.1400 
  7 C       -2.9530     1.8750    -0.0160 C.ar  1 <1>  -0.1500 
  8 C       -1.2900     1.3670     1.6220 C.ar  1 <1>  -0.1500 
  9 C        3.7100     3.0470    -0.8620 C.3   1 <1>   0.3430 
 10 C       -3.9520     1.6940     0.9260 C.ar  1 <1>  -0.1440 
 11 C       -2.2810     1.1870     2.5700 C.ar  1 <1>  -0.1500 
 12 N        3.7670     1.8570     0.0380 N.4   1 <1>  -0.9590 
 13 C       -3.6100     1.3500     2.2220 C.ar  1 <1>  -0.1500 
 14 C       -5.4140     1.8730     0.5560 C.3   1 <1>  -0.0970 
 15 C        4.5720     2.1150     1.2750 C.3   1 <1>   0.3430 
 16 C        4.1590     0.5700    -0.6250 C.3   1 <1>   0.3430 
 17 C        4.5930     0.8770     2.1930 C.3   1 <1>   0.1200 
 18 C        4.2020    -0.5870     0.3920 C.3   1 <1>   0.1200 
 19 O        5.0150    -0.2500     1.4790 O.3   1 <1>  -0.5600 
 20 H       -1.0250     1.8630    -1.6300 H     1 <1>   0.3700 
 21 H        0.8980     1.9380    -2.5910 H     1 <1>   0.3700 
 22 H        2.5420     3.8490    -2.4730 H     1 <1>   0.0800 
 23 H        3.2190     2.2950    -2.8070 H     1 <1>   0.0800 
 24 H       -3.2200     2.1460    -1.0200 H     1 <1>   0.1500 
 25 H       -0.2660     1.2300     1.9110 H     1 <1>   0.1500 
 26 H        3.3830     3.8990    -0.2870 H     1 <1>   0.0800 
 27 H        4.6930     3.2700    -1.2440 H     1 <1>   0.0800 
 28 H       -2.0210     0.9190     3.5790 H     1 <1>   0.1500 
 29 H        2.7790     1.7580     0.3560 H     1 <1>   0.4500 
 30 H       -4.3750     1.2100     2.9650 H     1 <1>   0.1500 
 31 H       -5.7930     2.7750     1.0000 H     1 <1>   0.0800 
 32 H       -5.9890     1.0390     0.9170 H     1 <1>   0.0800 
 33 H       -5.5380     1.9340    -0.5100 H     1 <1>   0.0800 
 34 H        4.1550     2.9490     1.8160 H     1 <1>   0.0800 
 35 H        5.5860     2.3600     1.0090 H     1 <1>   0.0800 
 36 H        5.1350     0.6700    -1.0690 H     1 <1>   0.0800 
 37 H        3.4560     0.3290    -1.4050 H     1 <1>   0.0800 
 38 H        3.6170     0.6840     2.6040 H     1 <1>   0.0800 
 39 H        5.2830     1.0290     3.0050 H     1 <1>   0.0800 
 40 H        4.6160    -1.4690    -0.0660 H     1 <1>   0.0800 
 41 H        3.2160    -0.8200     0.7540 H     1 <1>   0.0800 
@<TRIPOS>BOND
  1   1   2  2   
  2   2   3  am  
  3   2   4  am  
  4   3   5  1   
  5   3  20  1   
  6   4   6  1   
  7   4  21  1   
  8   5   7  ar  
  9   5   8  ar  
 10   6   9  1   
 11   6  22  1   
 12   6  23  1   
 13   7  10  ar  
 14   7  24  1   
 15   8  11  ar  
 16   8  25  1   
 17   9  12  1   
 18   9  26  1   
 19   9  27  1   
 20  10  13  ar  
 21  10  14  1   
 22  11  13  ar  
 23  11  28  1   
 24  12  15  1   
 25  12  16  1   
 26  12  29  1   
 27  13  30  1   
 28  14  31  1   
 29  14  32  1   
 30  14  33  1   
 31  15  17  1   
 32  15  34  1   
 33  15  35  1   
 34  16  18  1   
 35  16  36  1   
 36  16  37  1   
 37  17  19  1   
 38  17  38  1   
 39  17  39  1   
 40  18  19  1   
 41  18  40  1   
 42  18  41  1   
@<TRIPOS>SUBSTRUCTURE
  1 ****   1 GROUP 4 **** **** 0

# MOE 2024.06 (io_trps.svl 2023.06)
