@<TRIPOS>MOLECULE
NONAME
31 31 1 0 0 
SMALL
USER_CHARGES


@<TRIPOS>ATOM
  1 F       -1.2590    -1.7950    -1.9300 F     1 <1>  -0.1900 
  2 C       -0.7780    -2.3930    -0.8670 C.ar  1 <1>   0.1900 
  3 C       -1.5900    -2.5000     0.2660 C.ar  1 <1>   0.1170 
  4 C        0.5150    -2.8830    -0.9340 C.ar  1 <1>  -0.1500 
  5 N       -2.8950    -1.9670     0.2370 N.am  1 <1>  -0.5470 
  6 C       -1.0400    -3.1360     1.3770 C.ar  1 <1>  -0.1500 
  7 C        1.0430    -3.5160     0.1800 C.ar  1 <1>  -0.1500 
  8 C       -3.9590    -2.0940     1.0860 C.2   1 <1>   0.5690 
  9 C        0.2520    -3.6260     1.3100 C.ar  1 <1>   0.1900 
 10 O       -3.9260    -2.7330     2.1070 O.2   1 <1>  -0.5700 
 11 C       -5.2420    -1.3650     0.7250 C.3   1 <1>  -0.0990 
 12 F        0.7520    -4.2200     2.3600 F     1 <1>  -0.1900 
 13 C       -6.1800    -2.1150    -0.2500 C.3   1 <1>   0.0000 
 14 C       -7.4440    -1.2680    -0.4630 C.3   1 <1>  -0.2400 
 15 C       -6.5970    -3.4730     0.3340 C.3   1 <1>  -0.2400 
 16 C       -5.5140    -2.3410    -1.6170 C.3   1 <1>  -0.2400 
 17 H        1.0910    -2.7720    -1.8350 H     1 <1>   0.1500 
 18 H       -3.1020    -1.4510    -0.6180 H     1 <1>   0.3700 
 19 H       -1.5950    -3.2540     2.2890 H     1 <1>   0.1500 
 20 H        2.0420    -3.9140     0.1780 H     1 <1>   0.1500 
 21 H       -4.9860    -0.4060     0.3130 H     1 <1>   0.0800 
 22 H       -5.7720    -1.1780     1.6410 H     1 <1>   0.0800 
 23 H       -7.1940    -0.3110    -0.8860 H     1 <1>   0.0800 
 24 H       -7.9510    -1.1030     0.4710 H     1 <1>   0.0800 
 25 H       -8.1260    -1.7640    -1.1310 H     1 <1>   0.0800 
 26 H       -7.0590    -3.3450     1.2970 H     1 <1>   0.0800 
 27 H       -5.7440    -4.1180     0.4560 H     1 <1>   0.0800 
 28 H       -7.2970    -3.9680    -0.3150 H     1 <1>   0.0800 
 29 H       -5.1750    -1.4100    -2.0360 H     1 <1>   0.0800 
 30 H       -6.2150    -2.7820    -2.3040 H     1 <1>   0.0800 
 31 H       -4.6780    -3.0120    -1.5350 H     1 <1>   0.0800 
@<TRIPOS>BOND
  1   1   2  1   
  2   2   3  ar  
  3   2   4  ar  
  4   3   5  1   
  5   3   6  ar  
  6   4   7  ar  
  7   4  17  1   
  8   5   8  am  
  9   5  18  1   
 10   6   9  ar  
 11   6  19  1   
 12   7   9  ar  
 13   7  20  1   
 14   8  10  2   
 15   8  11  1   
 16   9  12  1   
 17  11  13  1   
 18  11  21  1   
 19  11  22  1   
 20  13  14  1   
 21  13  15  1   
 22  13  16  1   
 23  14  23  1   
 24  14  24  1   
 25  14  25  1   
 26  15  26  1   
 27  15  27  1   
 28  15  28  1   
 29  16  29  1   
 30  16  30  1   
 31  16  31  1   
@<TRIPOS>SUBSTRUCTURE
  1 ****   5 GROUP 4 **** **** 0

# MOE 2024.06 (io_trps.svl 2023.06)
