@<TRIPOS>MOLECULE
NONAME
52 55 1 0 0 
SMALL
USER_CHARGES


@<TRIPOS>ATOM
  1 O       -2.1660     2.4040    -2.1500 O.2   1 <1>  -0.5700 
  2 C       -1.4540     2.3420    -1.1630 C.2   1 <1>   0.5440 
  3 N       -1.7110     1.3610    -0.2270 N.am  1 <1>  -0.6600 
  4 C       -0.3880     3.3090    -0.9950 C.ar  1 <1>   0.0860 
  5 C       -2.8350     0.4090    -0.3630 C.3   1 <1>   0.1400 
  6 C       -1.1710     1.3400     1.1560 C.3   1 <1>   0.1400 
  7 C        0.8980     2.9340    -0.6100 C.ar  1 <1>  -0.1500 
  8 C       -0.6140     4.6670    -1.2220 C.ar  1 <1>  -0.1500 
  9 C       -3.2330     0.0740     1.0690 C.3   1 <1>  -0.1600 
 10 C       -1.9460     0.2390     1.8720 C.3   1 <1>  -0.1600 
 11 C        1.9020     3.8620    -0.4010 C.ar  1 <1>   0.1170 
 12 C        0.3880     5.6040    -1.0500 C.ar  1 <1>  -0.1500 
 13 N        3.1880     3.5250     0.0430 N.am  1 <1>  -0.5470 
 14 C        1.6580     5.2220    -0.6390 C.ar  1 <1>   0.1000 
 15 C        3.6850     2.4680     0.7610 C.2   1 <1>   0.5440 
 16 N        2.6830     6.1650    -0.4660 N.pl3 1 <1>  -0.8380 
 17 O        2.9720     1.5150     1.0130 O.2   1 <1>  -0.5700 
 18 C        5.0630     2.4990     1.2200 C.ar  1 <1>   0.0860 
 19 C        3.1920     6.8180    -1.7010 C.3   1 <1>   0.2090 
 20 C        2.4690     7.1930     0.5870 C.3   1 <1>   0.2090 
 21 C        5.7410     3.6980     1.4570 C.ar  1 <1>  -0.1500 
 22 C        5.7680     1.3150     1.4430 C.ar  1 <1>  -0.1500 
 23 C        3.5120     8.2530    -1.3030 C.3   1 <1>  -0.1600 
 24 C        2.5930     8.5340    -0.1220 C.3   1 <1>  -0.1600 
 25 C        7.0570     3.7120     1.8830 C.ar  1 <1>  -0.1500 
 26 C        7.0830     1.3210     1.8700 C.ar  1 <1>  -0.1500 
 27 C        7.7320     2.5230     2.0890 C.ar  1 <1>  -0.1500 
 28 H       -2.4850    -0.4700    -0.8760 H     1 <1>   0.0800 
 29 H       -3.6560     0.8430    -0.9090 H     1 <1>   0.0800 
 30 H       -1.3480     2.2940     1.6220 H     1 <1>   0.0800 
 31 H       -0.1160     1.1220     1.1630 H     1 <1>   0.0800 
 32 H        1.1090     1.8900    -0.4820 H     1 <1>   0.1500 
 33 H       -1.5930     4.9790    -1.5410 H     1 <1>   0.1500 
 34 H       -3.6450    -0.9160     1.1480 H     1 <1>   0.0800 
 35 H       -3.9660     0.7880     1.4010 H     1 <1>   0.0800 
 36 H       -2.1330     0.4880     2.9010 H     1 <1>   0.0800 
 37 H       -1.3720    -0.6700     1.8310 H     1 <1>   0.0800 
 38 H        0.1870     6.6430    -1.2380 H     1 <1>   0.1500 
 39 H        3.7920     4.3460    -0.0400 H     1 <1>   0.3700 
 40 H        2.4330     6.8030    -2.4650 H     1 <1>   0.0800 
 41 H        4.0680     6.3080    -2.0630 H     1 <1>   0.0800 
 42 H        3.2400     7.0920     1.3300 H     1 <1>   0.0800 
 43 H        1.5070     7.0830     1.0600 H     1 <1>   0.0800 
 44 H        5.2360     4.6370     1.3170 H     1 <1>   0.1500 
 45 H        5.2690     0.3750     1.2770 H     1 <1>   0.1500 
 46 H        3.3570     8.9370    -2.1180 H     1 <1>   0.0800 
 47 H        4.5400     8.3070    -0.9890 H     1 <1>   0.0800 
 48 H        2.9800     9.2970     0.5300 H     1 <1>   0.0800 
 49 H        1.6210     8.8330    -0.4760 H     1 <1>   0.0800 
 50 H        7.5590     4.6490     2.0580 H     1 <1>   0.1500 
 51 H        7.6020     0.3920     2.0330 H     1 <1>   0.1500 
 52 H        8.7560     2.5310     2.4210 H     1 <1>   0.1500 
@<TRIPOS>BOND
  1   1   2  2   
  2   2   3  am  
  3   2   4  1   
  4   3   5  1   
  5   3   6  1   
  6   4   7  ar  
  7   4   8  ar  
  8   5   9  1   
  9   5  28  1   
 10   5  29  1   
 11   6  10  1   
 12   6  30  1   
 13   6  31  1   
 14   7  11  ar  
 15   7  32  1   
 16   8  12  ar  
 17   8  33  1   
 18   9  10  1   
 19   9  34  1   
 20   9  35  1   
 21  10  36  1   
 22  10  37  1   
 23  11  13  1   
 24  11  14  ar  
 25  12  14  ar  
 26  12  38  1   
 27  13  15  am  
 28  13  39  1   
 29  14  16  1   
 30  15  17  2   
 31  15  18  1   
 32  16  19  1   
 33  16  20  1   
 34  18  21  ar  
 35  18  22  ar  
 36  19  23  1   
 37  19  40  1   
 38  19  41  1   
 39  20  24  1   
 40  20  42  1   
 41  20  43  1   
 42  21  25  ar  
 43  21  44  1   
 44  22  26  ar  
 45  22  45  1   
 46  23  24  1   
 47  23  46  1   
 48  23  47  1   
 49  24  48  1   
 50  24  49  1   
 51  25  27  ar  
 52  25  50  1   
 53  26  27  ar  
 54  26  51  1   
 55  27  52  1   
@<TRIPOS>SUBSTRUCTURE
  1 ****  11 GROUP 4 **** **** 0

# MOE 2024.06 (io_trps.svl 2023.06)
