@<TRIPOS>MOLECULE
NONAME
36 36 1 0 0 
SMALL
USER_CHARGES


@<TRIPOS>ATOM
  1 CL      -1.8630     0.1060     2.9000 Cl    1 <1>  -0.1770 
  2 C       -2.4210     0.9100     1.4580 C.ar  1 <1>   0.1770 
  3 C       -3.5940     0.4840     0.8640 C.ar  1 <1>  -0.1500 
  4 C       -1.6880     1.9570     0.9340 C.ar  1 <1>  -0.1500 
  5 C       -4.0550     1.1220    -0.2800 C.ar  1 <1>  -0.1440 
  6 C       -2.1390     2.5870    -0.2120 C.ar  1 <1>  -0.1500 
  7 C       -3.3150     2.1710    -0.8160 C.ar  1 <1>  -0.1500 
  8 C       -5.3480     0.6810    -0.9400 C.3   1 <1>   0.4870 
  9 N       -6.5010     1.1590    -0.1060 N.4   1 <1>  -0.9590 
 10 C       -7.7870     0.4940    -0.5350 C.3   1 <1>   0.3430 
 11 C       -6.5560     2.6630    -0.1340 C.3   1 <1>   0.2630 
 12 C       -9.0060     0.7750     0.3950 C.3   1 <1>   0.3430 
 13 N      -10.3000     0.1240    -0.0410 N.4   1 <1>  -0.9590 
 14 C      -11.4380     0.6110     0.8120 C.3   1 <1>   0.2630 
 15 C      -10.2700    -1.3780     0.0140 C.3   1 <1>   0.2630 
 16 H       -4.1150    -0.3450     1.3100 H     1 <1>   0.1500 
 17 H       -0.7760     2.2670     1.4150 H     1 <1>   0.1500 
 18 H       -1.5700     3.4000    -0.6330 H     1 <1>   0.1500 
 19 H       -3.6360     2.6770    -1.7120 H     1 <1>   0.1500 
 20 H       -5.3530    -0.3960    -1.0070 H     1 <1>   0.0800 
 21 H       -5.4090     1.0840    -1.9380 H     1 <1>   0.0800 
 22 H       -6.2440     0.8820     0.8560 H     1 <1>   0.4500 
 23 H       -7.6290    -0.5720    -0.5680 H     1 <1>   0.0800 
 24 H       -8.0320     0.8240    -1.5320 H     1 <1>   0.0800 
 25 H       -6.7450     3.0180    -1.1350 H     1 <1>   0.0800 
 26 H       -5.6170     3.0780     0.2000 H     1 <1>   0.0800 
 27 H       -7.3310     3.0320     0.5180 H     1 <1>   0.0800 
 28 H       -9.1590     1.8410     0.4360 H     1 <1>   0.0800 
 29 H       -8.7680     0.4370     1.3900 H     1 <1>   0.0800 
 30 H      -10.5330     0.4020    -1.0110 H     1 <1>   0.4500 
 31 H      -11.2840     0.3380     1.8440 H     1 <1>   0.0800 
 32 H      -12.3690     0.1760     0.4810 H     1 <1>   0.0800 
 33 H      -11.5280     1.6840     0.7500 H     1 <1>   0.0800 
 34 H      -10.0650    -1.7160     1.0180 H     1 <1>   0.0800 
 35 H       -9.5160    -1.7730    -0.6460 H     1 <1>   0.0800 
 36 H      -11.2250    -1.7810    -0.2880 H     1 <1>   0.0800 
@<TRIPOS>BOND
  1   1   2  1   
  2   2   3  ar  
  3   2   4  ar  
  4   3   5  ar  
  5   3  16  1   
  6   4   6  ar  
  7   4  17  1   
  8   5   7  ar  
  9   5   8  1   
 10   6   7  ar  
 11   6  18  1   
 12   7  19  1   
 13   8   9  1   
 14   8  20  1   
 15   8  21  1   
 16   9  10  1   
 17   9  11  1   
 18   9  22  1   
 19  10  12  1   
 20  10  23  1   
 21  10  24  1   
 22  11  25  1   
 23  11  26  1   
 24  11  27  1   
 25  12  13  1   
 26  12  28  1   
 27  12  29  1   
 28  13  14  1   
 29  13  15  1   
 30  13  30  1   
 31  14  31  1   
 32  14  32  1   
 33  14  33  1   
 34  15  34  1   
 35  15  35  1   
 36  15  36  1   
@<TRIPOS>SUBSTRUCTURE
  1 ****   9 GROUP 4 **** **** 0

# MOE 2024.06 (io_trps.svl 2023.06)
