@<TRIPOS>MOLECULE
NONAME
41 45 1 0 0 
SMALL
USER_CHARGES


@<TRIPOS>ATOM
  1 O       -0.1630     1.8220     1.7030 O.2   1 <1>  -0.5700 
  2 C       -0.3830     2.6140     0.8240 C.2   1 <1>   0.5690 
  3 N        0.4630     3.0510    -0.1840 N.am  1 <1>  -0.2370 
  4 C       -1.6710     3.3670     0.6640 C.3   1 <1>  -0.0190 
  5 C        1.8590     2.8690    -0.2260 C.ar  1 <1>   0.1170 
  6 C       -0.2760     3.7670    -1.1110 C.2   1 <1>   0.5690 
  7 C       -3.1570     3.3280     1.0650 C.3   1 <1>   0.1530 
  8 C       -1.7210     3.4410    -0.8670 C.3   1 <1>  -0.0190 
  9 C        2.4370     1.6180    -0.4520 C.ar  1 <1>  -0.1440 
 10 C        2.6860     3.9720    -0.0410 C.ar  1 <1>  -0.1500 
 11 O        0.1190     4.5110    -1.9710 O.2   1 <1>  -0.5700 
 12 C       -3.9680     2.3430     0.2320 C.2   1 <1>  -0.2880 
 13 C       -3.5300     4.5710     0.2430 C.3   1 <1>  -0.1900 
 14 C       -3.1310     4.0260    -1.1290 C.3   1 <1>   0.1530 
 15 C        3.8170     1.4980    -0.4710 C.ar  1 <1>  -0.1500 
 16 C        1.5920     0.3700    -0.6800 C.3   1 <1>  -0.0960 
 17 C        4.0640     3.8490    -0.0660 C.ar  1 <1>  -0.1430 
 18 C       -4.0020     2.7790    -1.0310 C.2   1 <1>  -0.2880 
 19 C       -4.7560     5.3890     0.4760 C.3   1 <1>  -0.2000 
 20 C       -3.3840     5.9950     0.6730 C.3   1 <1>  -0.2000 
 21 C        4.6260     2.6040    -0.2790 C.ar  1 <1>  -0.1500 
 22 C        4.9540     5.0620     0.1370 C.3   1 <1>  -0.0970 
 23 H       -1.3540     4.3230     1.0560 H     1 <1>   0.0800 
 24 H       -3.3940     3.4020     2.1120 H     1 <1>   0.0800 
 25 H       -1.7580     2.4410    -1.2720 H     1 <1>   0.0800 
 26 H        2.2410     4.9370     0.1190 H     1 <1>   0.1500 
 27 H       -4.4110     1.4760     0.6940 H     1 <1>   0.1500 
 28 H       -3.2820     4.6590    -1.9870 H     1 <1>   0.0800 
 29 H        4.2760     0.5390    -0.6370 H     1 <1>   0.1500 
 30 H        2.1860    -0.4240    -1.0950 H     1 <1>   0.0800 
 31 H        1.1800     0.0320     0.2540 H     1 <1>   0.0800 
 32 H        0.7890     0.5770    -1.3640 H     1 <1>   0.0800 
 33 H       -4.4840     2.3770    -1.9070 H     1 <1>   0.1500 
 34 H       -5.3620     5.1790     1.3410 H     1 <1>   0.1000 
 35 H       -5.3440     5.6940    -0.3730 H     1 <1>   0.1000 
 36 H       -3.0420     6.7260    -0.0400 H     1 <1>   0.1000 
 37 H       -3.0730     6.2210     1.6780 H     1 <1>   0.1000 
 38 H        5.6960     2.4890    -0.2970 H     1 <1>   0.1500 
 39 H        4.4120     5.9690    -0.0600 H     1 <1>   0.0800 
 40 H        5.7970     5.0200    -0.5290 H     1 <1>   0.0800 
 41 H        5.3120     5.0850     1.1510 H     1 <1>   0.0800 
@<TRIPOS>BOND
  1   1   2  2   
  2   2   3  am  
  3   2   4  1   
  4   3   5  1   
  5   3   6  am  
  6   4   7  1   
  7   4   8  1   
  8   4  23  1   
  9   5   9  ar  
 10   5  10  ar  
 11   6   8  1   
 12   6  11  2   
 13   7  12  1   
 14   7  13  1   
 15   7  24  1   
 16   8  14  1   
 17   8  25  1   
 18   9  15  ar  
 19   9  16  1   
 20  10  17  ar  
 21  10  26  1   
 22  12  18  2   
 23  12  27  1   
 24  13  14  1   
 25  13  19  1   
 26  13  20  1   
 27  14  18  1   
 28  14  28  1   
 29  15  21  ar  
 30  15  29  1   
 31  16  30  1   
 32  16  31  1   
 33  16  32  1   
 34  17  21  ar  
 35  17  22  1   
 36  18  33  1   
 37  19  20  1   
 38  19  34  1   
 39  19  35  1   
 40  20  36  1   
 41  20  37  1   
 42  21  38  1   
 43  22  39  1   
 44  22  40  1   
 45  22  41  1   
@<TRIPOS>SUBSTRUCTURE
  1 ****   3 GROUP 4 **** **** 0

# MOE 2024.06 (io_trps.svl 2023.06)
