@<TRIPOS>MOLECULE
NONAME
49 49 1 0 0 
SMALL
USER_CHARGES


@<TRIPOS>ATOM
  1 O      -10.0800    -0.2270     0.9970 O.2   1 <1>  -0.5700 
  2 C      -10.8170    -0.1890     0.0420 C.2   1 <1>   0.5690 
  3 N      -10.3480    -0.2970    -1.2340 N.am  1 <1>  -0.7300 
  4 C      -12.3170     0.0090     0.2670 C.3   1 <1>  -0.0190 
  5 C       -8.9870    -0.6690    -1.7500 C.3   1 <1>   0.1400 
  6 C      -13.0790    -1.2830    -0.1050 C.3   1 <1>  -0.1600 
  7 C      -12.8690     1.2480    -0.4780 C.3   1 <1>  -0.1600 
  8 C       -7.7950    -0.5070    -0.7760 C.3   1 <1>   0.3430 
  9 C      -14.5590    -1.2710     0.3070 C.3   1 <1>  -0.1600 
 10 C      -12.0890     2.5330    -0.1590 C.3   1 <1>  -0.1600 
 11 N       -7.7850     0.7970    -0.0460 N.4   1 <1>  -0.9590 
 12 C      -15.2130    -2.6280     0.0360 C.3   1 <1>  -0.2400 
 13 C      -12.7250     3.7450    -0.8450 C.3   1 <1>  -0.2400 
 14 C       -7.7790     2.0020    -0.9210 C.3   1 <1>   0.3430 
 15 C       -6.7300     0.8260     1.0020 C.3   1 <1>   0.3430 
 16 C       -7.9630     3.2600    -0.0700 C.3   1 <1>  -0.1600 
 17 C       -6.9070     2.0680     1.8780 C.3   1 <1>  -0.1600 
 18 C       -6.9130     3.3560     1.0450 C.3   1 <1>  -0.1600 
 19 H      -11.0670    -0.2660    -1.9630 H     1 <1>   0.3700 
 20 H      -12.4540     0.1740     1.3220 H     1 <1>   0.0800 
 21 H       -8.7880    -0.0800    -2.6280 H     1 <1>   0.0800 
 22 H       -9.0190    -1.6970    -2.0690 H     1 <1>   0.0800 
 23 H      -12.5980    -2.1100     0.3910 H     1 <1>   0.0800 
 24 H      -13.0090    -1.4570    -1.1650 H     1 <1>   0.0800 
 25 H      -13.8940     1.4030    -0.1890 H     1 <1>   0.0800 
 26 H      -12.8540     1.0750    -1.5400 H     1 <1>   0.0800 
 27 H       -6.8740    -0.6270    -1.3210 H     1 <1>   0.0800 
 28 H       -7.8520    -1.3050    -0.0530 H     1 <1>   0.0800 
 29 H      -15.0960    -0.5170    -0.2430 H     1 <1>   0.0800 
 30 H      -14.6440    -1.0440     1.3570 H     1 <1>   0.0800 
 31 H      -11.0720     2.4450    -0.4950 H     1 <1>   0.0800 
 32 H      -12.0800     2.6970     0.9060 H     1 <1>   0.0800 
 33 H       -8.6920     0.7880     0.4670 H     1 <1>   0.4500 
 34 H      -15.1580    -2.8720    -1.0110 H     1 <1>   0.0800 
 35 H      -16.2490    -2.6010     0.3250 H     1 <1>   0.0800 
 36 H      -14.7240    -3.4030     0.5990 H     1 <1>   0.0800 
 37 H      -12.7340     3.6170    -1.9130 H     1 <1>   0.0800 
 38 H      -12.1690     4.6360    -0.6120 H     1 <1>   0.0800 
 39 H      -13.7380     3.8810    -0.5060 H     1 <1>   0.0800 
 40 H       -8.5810     1.9420    -1.6390 H     1 <1>   0.0800 
 41 H       -6.8440     2.0610    -1.4540 H     1 <1>   0.0800 
 42 H       -5.7560     0.8460     0.5410 H     1 <1>   0.0800 
 43 H       -6.8000    -0.0560     1.6190 H     1 <1>   0.0800 
 44 H       -8.9490     3.2560     0.3620 H     1 <1>   0.0800 
 45 H       -7.8930     4.1280    -0.7030 H     1 <1>   0.0800 
 46 H       -6.1070     2.1100     2.5960 H     1 <1>   0.0800 
 47 H       -7.8290     1.9820     2.4280 H     1 <1>   0.0800 
 48 H       -7.1300     4.2000     1.6790 H     1 <1>   0.0800 
 49 H       -5.9390     3.5110     0.6120 H     1 <1>   0.0800 
@<TRIPOS>BOND
  1   1   2  2   
  2   2   3  am  
  3   2   4  1   
  4   3   5  1   
  5   3  19  1   
  6   4   6  1   
  7   4   7  1   
  8   4  20  1   
  9   5   8  1   
 10   5  21  1   
 11   5  22  1   
 12   6   9  1   
 13   6  23  1   
 14   6  24  1   
 15   7  10  1   
 16   7  25  1   
 17   7  26  1   
 18   8  11  1   
 19   8  27  1   
 20   8  28  1   
 21   9  12  1   
 22   9  29  1   
 23   9  30  1   
 24  10  13  1   
 25  10  31  1   
 26  10  32  1   
 27  11  14  1   
 28  11  15  1   
 29  11  33  1   
 30  12  34  1   
 31  12  35  1   
 32  12  36  1   
 33  13  37  1   
 34  13  38  1   
 35  13  39  1   
 36  14  16  1   
 37  14  40  1   
 38  14  41  1   
 39  15  17  1   
 40  15  42  1   
 41  15  43  1   
 42  16  18  1   
 43  16  44  1   
 44  16  45  1   
 45  17  18  1   
 46  17  46  1   
 47  17  47  1   
 48  18  48  1   
 49  18  49  1   
@<TRIPOS>SUBSTRUCTURE
  1 ****   2 GROUP 4 **** **** 0

# MOE 2024.06 (io_trps.svl 2023.06)
