@<TRIPOS>MOLECULE
NONAME
55 58 1 0 0 
SMALL
USER_CHARGES


@<TRIPOS>ATOM
  1 O        0.1440     0.1670     0.5550 O.2   1 <1>  -0.5700 
  2 C        0.6400    -0.9440     0.5310 C.2   1 <1>   0.5440 
  3 N       -0.1540    -2.0500     0.3730 N.am  1 <1>  -0.5470 
  4 C        2.0790    -1.1100     0.6500 C.ar  1 <1>   0.0860 
  5 C       -1.5380    -2.2750     0.2610 C.ar  1 <1>   0.1170 
  6 C        2.9500    -0.0830     0.2850 C.ar  1 <1>  -0.1500 
  7 C        2.6560    -2.2900     1.1270 C.ar  1 <1>  -0.1500 
  8 C       -1.9330    -3.5950    -0.0010 C.ar  1 <1>   0.1000 
  9 C       -2.5040    -1.2870     0.3970 C.ar  1 <1>  -0.1500 
 10 C        4.3220    -0.2260     0.3780 C.ar  1 <1>  -0.1500 
 11 C        4.0280    -2.4380     1.2210 C.ar  1 <1>  -0.1500 
 12 N       -0.9560    -4.6060    -0.1350 N.pl3 1 <1>  -0.8380 
 13 C       -3.2850    -3.8810    -0.1270 C.ar  1 <1>  -0.1500 
 14 C       -3.8470    -1.5940     0.2700 C.ar  1 <1>  -0.1500 
 15 C        4.8710    -1.4070     0.8470 C.ar  1 <1>  -0.1430 
 16 C       -0.9610    -5.7020     0.8850 C.3   1 <1>   0.2090 
 17 C       -0.6810    -5.0840    -1.5260 C.3   1 <1>   0.2090 
 18 C       -4.2510    -2.8960     0.0060 C.ar  1 <1>   0.1000 
 19 C        6.3770    -1.5670     0.9470 C.3   1 <1>  -0.0970 
 20 C       -1.6640    -6.9820     0.3900 C.3   1 <1>   0.1200 
 21 C       -1.4250    -6.3900    -1.8580 C.3   1 <1>   0.1200 
 22 N       -5.5960    -3.2370    -0.1300 N.pl3 1 <1>  -0.8380 
 23 O       -1.2020    -7.3610    -0.8750 O.3   1 <1>  -0.5600 
 24 C       -6.2860    -2.6430    -1.3140 C.3   1 <1>   0.2090 
 25 C       -6.4210    -3.0830     1.1050 C.3   1 <1>   0.2090 
 26 C       -7.7320    -3.1620    -1.4270 C.3   1 <1>   0.1200 
 27 C       -7.8590    -3.5800     0.8740 C.3   1 <1>   0.1200 
 28 O       -8.4390    -2.9480    -0.2350 O.3   1 <1>  -0.5600 
 29 H        0.3290    -2.9440     0.2460 H     1 <1>   0.3700 
 30 H        2.5370     0.8430    -0.0780 H     1 <1>   0.1500 
 31 H        2.0270    -3.1050     1.4380 H     1 <1>   0.1500 
 32 H       -2.2150    -0.2730     0.6020 H     1 <1>   0.1500 
 33 H        4.9610     0.5890     0.0840 H     1 <1>   0.1500 
 34 H        4.4400    -3.3620     1.5900 H     1 <1>   0.1500 
 35 H       -3.6100    -4.8780    -0.3350 H     1 <1>   0.1500 
 36 H       -4.5830    -0.8200     0.3770 H     1 <1>   0.1500 
 37 H       -1.4460    -5.3560     1.7820 H     1 <1>   0.0800 
 38 H        0.0560    -5.9440     1.1380 H     1 <1>   0.0800 
 39 H        0.3770    -5.2490    -1.6350 H     1 <1>   0.0800 
 40 H       -0.9680    -4.3220    -2.2310 H     1 <1>   0.0800 
 41 H        6.8440    -0.6180     1.1410 H     1 <1>   0.0800 
 42 H        6.7640    -1.9620     0.0250 H     1 <1>   0.0800 
 43 H        6.6320    -2.2380     1.7480 H     1 <1>   0.0800 
 44 H       -2.7280    -6.8350     0.3380 H     1 <1>   0.0800 
 45 H       -1.4670    -7.7930     1.0670 H     1 <1>   0.0800 
 46 H       -1.0740    -6.7850    -2.7940 H     1 <1>   0.0800 
 47 H       -2.4830    -6.2130    -1.9360 H     1 <1>   0.0800 
 48 H       -5.7420    -2.9000    -2.2060 H     1 <1>   0.0800 
 49 H       -6.3020    -1.5710    -1.2280 H     1 <1>   0.0800 
 50 H       -6.4490    -2.0490     1.4000 H     1 <1>   0.0800 
 51 H       -5.9700    -3.6470     1.9030 H     1 <1>   0.0800 
 52 H       -7.7330    -4.2160    -1.6440 H     1 <1>   0.0800 
 53 H       -8.2500    -2.6450    -2.2140 H     1 <1>   0.0800 
 54 H       -8.4690    -3.3630     1.7320 H     1 <1>   0.0800 
 55 H       -7.8640    -4.6430     0.7050 H     1 <1>   0.0800 
@<TRIPOS>BOND
  1   1   2  2   
  2   2   3  am  
  3   2   4  1   
  4   3   5  1   
  5   3  29  1   
  6   4   6  ar  
  7   4   7  ar  
  8   5   8  ar  
  9   5   9  ar  
 10   6  10  ar  
 11   6  30  1   
 12   7  11  ar  
 13   7  31  1   
 14   8  12  1   
 15   8  13  ar  
 16   9  14  ar  
 17   9  32  1   
 18  10  15  ar  
 19  10  33  1   
 20  11  15  ar  
 21  11  34  1   
 22  12  16  1   
 23  12  17  1   
 24  13  18  ar  
 25  13  35  1   
 26  14  18  ar  
 27  14  36  1   
 28  15  19  1   
 29  16  20  1   
 30  16  37  1   
 31  16  38  1   
 32  17  21  1   
 33  17  39  1   
 34  17  40  1   
 35  18  22  1   
 36  19  41  1   
 37  19  42  1   
 38  19  43  1   
 39  20  23  1   
 40  20  44  1   
 41  20  45  1   
 42  21  23  1   
 43  21  46  1   
 44  21  47  1   
 45  22  24  1   
 46  22  25  1   
 47  24  26  1   
 48  24  48  1   
 49  24  49  1   
 50  25  27  1   
 51  25  50  1   
 52  25  51  1   
 53  26  28  1   
 54  26  52  1   
 55  26  53  1   
 56  27  28  1   
 57  27  54  1   
 58  27  55  1   
@<TRIPOS>SUBSTRUCTURE
  1 ****   5 GROUP 4 **** **** 0

# MOE 2024.06 (io_trps.svl 2023.06)
