@<TRIPOS>MOLECULE
NONAME
30 31 1 0 0 
SMALL
USER_CHARGES


@<TRIPOS>ATOM
  1 O       -0.5940     0.0380     0.1200 O.2   1 <1>  -0.5700 
  2 C       -1.5720     0.7560     0.0900 C.2   1 <1>   0.7060 
  3 O       -2.7790     0.1910     0.0630 O.3   1 <1>  -0.2330 
  4 C       -1.4970     2.1790     0.0820 C.2   1 <1>  -0.1360 
  5 C       -3.9350     0.8990     0.0280 C.ar  1 <1>   0.0820 
  6 C       -2.6050     2.9500     0.0500 C.2   1 <1>  -0.1670 
  7 C       -3.8900     2.3050     0.0230 C.ar  1 <1>   0.0280 
  8 C       -5.1460     0.2090     0.0000 C.ar  1 <1>  -0.1440 
  9 C       -2.5040     4.4700     0.0420 C.3   1 <1>  -0.1020 
 10 C       -5.1050     2.9910    -0.0060 C.ar  1 <1>  -0.1500 
 11 C       -6.3380     0.9240    -0.0230 C.ar  1 <1>   0.0830 
 12 C       -5.1890    -1.3200     0.0020 C.3   1 <1>  -0.0960 
 13 C       -6.3070     2.3180    -0.0280 C.ar  1 <1>  -0.1500 
 14 O       -7.5000     0.2240    -0.0360 O.3   1 <1>  -0.3630 
 15 C       -8.7620     0.8480    -0.0510 C.3   1 <1>   0.1200 
 16 C       -9.8270    -0.2430    -0.0590 C.3   1 <1>  -0.2400 
 17 H       -0.5030     2.5840     0.1040 H     1 <1>   0.1500 
 18 H       -3.0000     4.8780     0.9050 H     1 <1>   0.0800 
 19 H       -2.9600     4.8670    -0.8470 H     1 <1>   0.0800 
 20 H       -1.4760     4.7860     0.0640 H     1 <1>   0.0800 
 21 H       -5.1160     4.0650    -0.0120 H     1 <1>   0.1500 
 22 H       -4.2350    -1.7560    -0.2260 H     1 <1>   0.0800 
 23 H       -5.8910    -1.6700    -0.7340 H     1 <1>   0.0800 
 24 H       -5.5050    -1.6680     0.9680 H     1 <1>   0.0800 
 25 H       -7.2130     2.8920    -0.0480 H     1 <1>   0.1500 
 26 H       -8.8310     1.4540    -0.9380 H     1 <1>   0.0800 
 27 H       -8.8500     1.4600     0.8300 H     1 <1>   0.0800 
 28 H       -9.7190    -0.8580    -0.9340 H     1 <1>   0.0800 
 29 H      -10.8050     0.2020    -0.0710 H     1 <1>   0.0800 
 30 H       -9.7380    -0.8530     0.8220 H     1 <1>   0.0800 
@<TRIPOS>BOND
  1   1   2  2   
  2   2   3  1   
  3   2   4  1   
  4   3   5  1   
  5   4   6  2   
  6   4  17  1   
  7   5   7  ar  
  8   5   8  ar  
  9   6   7  1   
 10   6   9  1   
 11   7  10  ar  
 12   8  11  ar  
 13   8  12  1   
 14   9  18  1   
 15   9  19  1   
 16   9  20  1   
 17  10  13  ar  
 18  10  21  1   
 19  11  13  ar  
 20  11  14  1   
 21  12  22  1   
 22  12  23  1   
 23  12  24  1   
 24  13  25  1   
 25  14  15  1   
 26  15  16  1   
 27  15  26  1   
 28  15  27  1   
 29  16  28  1   
 30  16  29  1   
 31  16  30  1   
@<TRIPOS>SUBSTRUCTURE
  1 ****   5 GROUP 4 **** **** 0

# MOE 2024.06 (io_trps.svl 2023.06)
