@<TRIPOS>MOLECULE
NONAME
31 32 1 0 0 
SMALL
USER_CHARGES


@<TRIPOS>ATOM
  1 S       -0.1710    -0.0820     0.6160 S.o2  1 <1>   1.4470 
  2 O       -0.3650     1.0280    -0.2870 O.2   1 <1>  -0.6500 
  3 O       -0.4280     0.0590     2.0280 O.2   1 <1>  -0.6500 
  4 N       -1.2720    -1.2710     0.1830 N.am  1 <1>  -0.9140 
  5 C        1.4400    -0.8470     0.3180 C.ar  1 <1>  -0.0090 
  6 C       -2.5460    -0.7180    -0.2880 C.3   1 <1>   0.1960 
  7 C        2.5890    -0.2730     0.8440 C.ar  1 <1>   0.1900 
  8 C        1.6050    -1.9970    -0.4510 C.ar  1 <1>  -0.1500 
  9 C       -3.5890    -1.8250    -0.5060 C.3   1 <1>   0.2000 
 10 F        2.4870     0.8170     1.5550 F     1 <1>  -0.1900 
 11 C        3.8620    -0.7910     0.6570 C.ar  1 <1>  -0.1500 
 12 C        2.8740    -2.5180    -0.6400 C.ar  1 <1>   0.1900 
 13 O       -4.8090    -1.2500    -0.8370 O.3   1 <1>  -0.5600 
 14 C       -3.9010    -2.6650     0.7270 C.3   1 <1>  -0.1600 
 15 C        4.0090    -1.9400    -0.1010 C.ar  1 <1>  -0.1500 
 16 F        3.0030    -3.5990    -1.3580 F     1 <1>  -0.1900 
 17 C       -5.8520    -2.1350    -0.5730 C.3   1 <1>   0.1200 
 18 C       -5.3310    -3.1140     0.4770 C.3   1 <1>  -0.1600 
 19 H       -1.4700    -1.7120     1.0800 H     1 <1>   0.4200 
 20 H       -2.3920    -0.2010    -1.2210 H     1 <1>   0.0800 
 21 H       -2.9260    -0.0150     0.4350 H     1 <1>   0.0800 
 22 H        0.7630    -2.4880    -0.9040 H     1 <1>   0.1500 
 23 H       -3.2970    -2.4530    -1.3300 H     1 <1>   0.0800 
 24 H        4.7140    -0.3010     1.0940 H     1 <1>   0.1500 
 25 H       -3.8590    -2.0490     1.6090 H     1 <1>   0.0800 
 26 H       -3.2220    -3.4920     0.8310 H     1 <1>   0.0800 
 27 H        4.9760    -2.3790    -0.2740 H     1 <1>   0.1500 
 28 H       -6.1060    -2.6400    -1.4900 H     1 <1>   0.0800 
 29 H       -6.6950    -1.5690    -0.2180 H     1 <1>   0.0800 
 30 H       -5.9250    -3.0760     1.3740 H     1 <1>   0.0800 
 31 H       -5.3590    -4.1140     0.0810 H     1 <1>   0.0800 
@<TRIPOS>BOND
  1   1   2  2   
  2   1   3  2   
  3   1   4  am  
  4   1   5  1   
  5   4   6  1   
  6   4  19  1   
  7   5   7  ar  
  8   5   8  ar  
  9   6   9  1   
 10   6  20  1   
 11   6  21  1   
 12   7  10  1   
 13   7  11  ar  
 14   8  12  ar  
 15   8  22  1   
 16   9  13  1   
 17   9  14  1   
 18   9  23  1   
 19  11  15  ar  
 20  11  24  1   
 21  12  15  ar  
 22  12  16  1   
 23  13  17  1   
 24  14  18  1   
 25  14  25  1   
 26  14  26  1   
 27  15  27  1   
 28  17  18  1   
 29  17  28  1   
 30  17  29  1   
 31  18  30  1   
 32  18  31  1   
@<TRIPOS>SUBSTRUCTURE
  1 ****   4 GROUP 4 **** **** 0

# MOE 2024.06 (io_trps.svl 2023.06)
