@<TRIPOS>MOLECULE
NONAME
48 51 1 0 0 
SMALL
USER_CHARGES


@<TRIPOS>ATOM
  1 S        0.2960    -0.5540     2.9940 S.3   1 <1>  -0.0800 
  2 C        0.2660    -1.3680     1.4330 C.2   1 <1>  -0.1400 
  3 C       -1.4080    -0.1570     2.8830 C.2   1 <1>  -0.1100 
  4 C       -0.9750    -1.3000     0.9080 C.2   1 <1>  -0.1500 
  5 C        1.6060    -1.9490     0.9650 C.3   1 <1>   0.5380 
  6 C       -1.9260    -0.6180     1.7310 C.2   1 <1>  -0.1500 
  7 N        2.3120    -0.8590     0.2520 N.am  1 <1>  -0.4770 
  8 C        1.7010    -3.2400     0.1360 C.2   1 <1>  -0.1240 
  9 C        3.6590    -0.7750     0.6050 C.ar  1 <1>   0.1170 
 10 C        1.8300    -0.4060    -0.9560 C.2   1 <1>   0.5690 
 11 C        2.8530    -3.5760    -0.5340 C.2   1 <1>  -0.0380 
 12 C        0.5560    -4.0870     0.1240 C.2   1 <1>   0.4950 
 13 C        4.5250    -1.8020     0.2130 C.ar  1 <1>   0.1000 
 14 C        4.1390     0.3030     1.3340 C.ar  1 <1>  -0.1500 
 15 O        0.8390    -0.8550    -1.4850 O.2   1 <1>  -0.5700 
 16 C        2.5600     0.7040    -1.7020 C.3   1 <1>  -0.0990 
 17 N        4.0770    -2.9240    -0.5150 N.pl3 1 <1>  -0.6000 
 18 C        2.9040    -4.8130    -1.4330 C.3   1 <1>  -0.0220 
 19 O       -0.2940    -4.1430     0.9800 O.2   1 <1>  -0.5700 
 20 C        0.4370    -5.0850    -1.0090 C.3   1 <1>  -0.0990 
 21 C        5.8690    -1.7030     0.5430 C.ar  1 <1>  -0.1500 
 22 C        5.4810     0.3840     1.6600 C.ar  1 <1>  -0.1500 
 23 C        2.1310     2.0980    -1.2180 C.3   1 <1>  -0.1600 
 24 C        1.7690    -5.8150    -1.1850 C.3   1 <1>  -0.1600 
 25 C        6.3470    -0.6190     1.2610 C.ar  1 <1>  -0.1500 
 26 C        2.8840     3.2040    -1.9620 C.3   1 <1>  -0.2400 
 27 H       -1.8460     0.3840     3.7010 H     1 <1>   0.1500 
 28 H       -1.2650    -1.7070    -0.0450 H     1 <1>   0.1500 
 29 H        2.1500    -2.1630     1.8690 H     1 <1>   0.0800 
 30 H       -2.9480    -0.5120     1.4130 H     1 <1>   0.1500 
 31 H        3.4590     1.0760     1.6450 H     1 <1>   0.1500 
 32 H        2.3300     0.6090    -2.7480 H     1 <1>   0.0800 
 33 H        3.6220     0.5850    -1.6000 H     1 <1>   0.0800 
 34 H        4.8190    -3.3550    -1.0750 H     1 <1>   0.4000 
 35 H        3.8390    -5.3270    -1.2960 H     1 <1>   0.0800 
 36 H        2.8590    -4.4800    -2.4560 H     1 <1>   0.0800 
 37 H        0.1720    -4.5580    -1.9080 H     1 <1>   0.0800 
 38 H       -0.3420    -5.7930    -0.7870 H     1 <1>   0.0800 
 39 H        6.5490    -2.4790     0.2460 H     1 <1>   0.1500 
 40 H        5.8490     1.2240     2.2230 H     1 <1>   0.1500 
 41 H        2.3160     2.1880    -0.1620 H     1 <1>   0.0800 
 42 H        1.0720     2.2150    -1.3760 H     1 <1>   0.0800 
 43 H        1.9810    -6.3710    -0.2880 H     1 <1>   0.0800 
 44 H        1.7070    -6.5120    -2.0030 H     1 <1>   0.0800 
 45 H        7.3920    -0.5570     1.5120 H     1 <1>   0.1500 
 46 H        3.9440     3.1160    -1.7960 H     1 <1>   0.0800 
 47 H        2.5630     4.1690    -1.6100 H     1 <1>   0.0800 
 48 H        2.6920     3.1450    -3.0190 H     1 <1>   0.0800 
@<TRIPOS>BOND
  1   1   2  1   
  2   1   3  1   
  3   2   4  2   
  4   2   5  1   
  5   3   6  2   
  6   3  27  1   
  7   4   6  1   
  8   4  28  1   
  9   5   7  1   
 10   5   8  1   
 11   5  29  1   
 12   6  30  1   
 13   7   9  1   
 14   7  10  am  
 15   8  11  2   
 16   8  12  1   
 17   9  13  ar  
 18   9  14  ar  
 19  10  15  2   
 20  10  16  1   
 21  11  17  1   
 22  11  18  1   
 23  12  19  2   
 24  12  20  1   
 25  13  17  1   
 26  13  21  ar  
 27  14  22  ar  
 28  14  31  1   
 29  16  23  1   
 30  16  32  1   
 31  16  33  1   
 32  17  34  1   
 33  18  24  1   
 34  18  35  1   
 35  18  36  1   
 36  20  24  1   
 37  20  37  1   
 38  20  38  1   
 39  21  25  ar  
 40  21  39  1   
 41  22  25  ar  
 42  22  40  1   
 43  23  26  1   
 44  23  41  1   
 45  23  42  1   
 46  24  43  1   
 47  24  44  1   
 48  25  45  1   
 49  26  46  1   
 50  26  47  1   
 51  26  48  1   
@<TRIPOS>SUBSTRUCTURE
  1 ****   7 GROUP 4 **** **** 0

# MOE 2024.06 (io_trps.svl 2023.06)
