@<TRIPOS>MOLECULE
NONAME
44 46 1 0 0 
SMALL
USER_CHARGES


@<TRIPOS>ATOM
  1 O        0.1290    -0.0580    -0.6500 O.2   1 <1>  -0.5700 
  2 C        0.6580     1.0230    -0.4740 C.2   1 <1>   0.5440 
  3 N       -0.0890     2.1710    -0.4450 N.am  1 <1>  -0.5470 
  4 C        2.0930     1.1360    -0.2920 C.ar  1 <1>   0.0860 
  5 C       -1.4490     2.4780    -0.5970 C.ar  1 <1>   0.1170 
  6 C        2.7970     0.4380     0.6980 C.ar  1 <1>  -0.1440 
  7 C        2.8200     1.9890    -1.1240 C.ar  1 <1>  -0.1500 
  8 C       -1.8070     3.8210    -0.4030 C.ar  1 <1>   0.1000 
  9 C       -2.4280     1.5490    -0.9250 C.ar  1 <1>  -0.1500 
 10 C        4.1670     0.6020     0.8300 C.ar  1 <1>  -0.1500 
 11 C        2.0760    -0.5090     1.6490 C.3   1 <1>  -0.0970 
 12 C        4.1850     2.1490    -0.9860 C.ar  1 <1>  -0.1500 
 13 N       -0.8190     4.7710    -0.0710 N.pl3 1 <1>  -0.8380 
 14 C       -3.1400     4.1910    -0.5360 C.ar  1 <1>  -0.1500 
 15 C       -3.7510     1.9340    -1.0560 C.ar  1 <1>  -0.1500 
 16 C        4.8680     1.4540    -0.0060 C.ar  1 <1>  -0.1430 
 17 C       -0.8700     5.2810     1.3240 C.3   1 <1>   0.2090 
 18 C       -0.6640     5.9140    -1.0090 C.3   1 <1>   0.2090 
 19 C       -4.1080     3.2570    -0.8610 C.ar  1 <1>  -0.1500 
 20 C        6.3680     1.6220     0.1550 C.3   1 <1>  -0.0970 
 21 C       -0.5010     6.7560     1.2360 C.3   1 <1>  -0.1600 
 22 C       -0.9030     7.1650    -0.1740 C.3   1 <1>  -0.1600 
 23 H        0.4190     3.0340    -0.2260 H     1 <1>   0.3700 
 24 H        2.3020     2.5300    -1.8970 H     1 <1>   0.1500 
 25 H       -2.1640     0.5200    -1.0790 H     1 <1>   0.1500 
 26 H        4.6990     0.0610     1.5930 H     1 <1>   0.1500 
 27 H        1.2270    -0.0180     2.0920 H     1 <1>   0.0800 
 28 H        2.7250    -0.8390     2.4390 H     1 <1>   0.0800 
 29 H        1.7290    -1.3720     1.1090 H     1 <1>   0.0800 
 30 H        4.7130     2.8160    -1.6450 H     1 <1>   0.1500 
 31 H       -3.4190     5.2160    -0.3830 H     1 <1>   0.1500 
 32 H       -4.4980     1.2030    -1.3100 H     1 <1>   0.1500 
 33 H       -0.1780     4.7410     1.9470 H     1 <1>   0.0800 
 34 H       -1.8650     5.1680     1.7210 H     1 <1>   0.0800 
 35 H       -1.3550     5.8490    -1.8330 H     1 <1>   0.0800 
 36 H        0.3420     5.9100    -1.3930 H     1 <1>   0.0800 
 37 H       -5.1360     3.5570    -0.9620 H     1 <1>   0.1500 
 38 H        6.8170     0.6950     0.4640 H     1 <1>   0.0800 
 39 H        6.5730     2.3720     0.8980 H     1 <1>   0.0800 
 40 H        6.8180     1.9210    -0.7740 H     1 <1>   0.0800 
 41 H        0.5640     6.8550     1.3570 H     1 <1>   0.0800 
 42 H       -0.9970     7.3380     1.9920 H     1 <1>   0.0800 
 43 H       -1.9500     7.4090    -0.2020 H     1 <1>   0.0800 
 44 H       -0.3350     8.0020    -0.5380 H     1 <1>   0.0800 
@<TRIPOS>BOND
  1   1   2  2   
  2   2   3  am  
  3   2   4  1   
  4   3   5  1   
  5   3  23  1   
  6   4   6  ar  
  7   4   7  ar  
  8   5   8  ar  
  9   5   9  ar  
 10   6  10  ar  
 11   6  11  1   
 12   7  12  ar  
 13   7  24  1   
 14   8  13  1   
 15   8  14  ar  
 16   9  15  ar  
 17   9  25  1   
 18  10  16  ar  
 19  10  26  1   
 20  11  27  1   
 21  11  28  1   
 22  11  29  1   
 23  12  16  ar  
 24  12  30  1   
 25  13  17  1   
 26  13  18  1   
 27  14  19  ar  
 28  14  31  1   
 29  15  19  ar  
 30  15  32  1   
 31  16  20  1   
 32  17  21  1   
 33  17  33  1   
 34  17  34  1   
 35  18  22  1   
 36  18  35  1   
 37  18  36  1   
 38  19  37  1   
 39  20  38  1   
 40  20  39  1   
 41  20  40  1   
 42  21  22  1   
 43  21  41  1   
 44  21  42  1   
 45  22  43  1   
 46  22  44  1   
@<TRIPOS>SUBSTRUCTURE
  1 ****   3 GROUP 4 **** **** 0

# MOE 2024.06 (io_trps.svl 2023.06)
