@<TRIPOS>MOLECULE
NONAME
43 43 1 0 0 
SMALL
USER_CHARGES


@<TRIPOS>ATOM
  1 O       -1.1580     1.0260    -0.1860 O.2   1 <1>  -0.5700 
  2 C       -0.8130     2.0840     0.3050 C.2   1 <1>   0.5440 
  3 N       -1.7570     2.7950     0.9950 N.am  1 <1>  -0.7300 
  4 C        0.5430     2.5810     0.1490 C.ar  1 <1>   0.0860 
  5 C       -3.0810     2.2810     1.4650 C.3   1 <1>   0.1400 
  6 C        0.8400     3.9410     0.2220 C.ar  1 <1>  -0.1500 
  7 C        1.6030     1.7050    -0.0820 C.ar  1 <1>  -0.1500 
  8 C       -4.1590     2.3260     0.3620 C.3   1 <1>   0.3430 
  9 C        2.1290     4.4200     0.0850 C.ar  1 <1>   0.0830 
 10 C        2.9080     2.1580    -0.2360 C.ar  1 <1>   0.0830 
 11 N       -3.8220     1.4170    -0.7740 N.4   1 <1>  -0.9590 
 12 O        2.2560     5.7710     0.2040 O.3   1 <1>  -0.3620 
 13 C        3.1780     3.5270    -0.1670 C.ar  1 <1>   0.0830 
 14 O        3.9520     1.3050    -0.4560 O.3   1 <1>  -0.3630 
 15 C       -4.2950     1.9390    -2.0880 C.3   1 <1>   0.2630 
 16 C       -4.2620     0.0110    -0.5400 C.3   1 <1>   0.2630 
 17 C        3.3970     6.3300     0.8210 C.3   1 <1>   0.0400 
 18 O        4.4470     3.9730    -0.3510 O.3   1 <1>  -0.3630 
 19 C        3.8000    -0.0960    -0.3860 C.3   1 <1>   0.0400 
 20 C        4.9040     4.0120    -1.6830 C.3   1 <1>   0.0400 
 21 H       -1.4290     3.6350     1.4840 H     1 <1>   0.3700 
 22 H       -3.4070     2.8840     2.2950 H     1 <1>   0.0800 
 23 H       -2.9670     1.2720     1.8230 H     1 <1>   0.0800 
 24 H        0.0600     4.6600     0.3850 H     1 <1>   0.1500 
 25 H        1.3770     0.6570    -0.1400 H     1 <1>   0.1500 
 26 H       -4.2310     3.3410     0.0090 H     1 <1>   0.0800 
 27 H       -5.1150     2.0510     0.7760 H     1 <1>   0.0800 
 28 H       -2.7750     1.3850    -0.7910 H     1 <1>   0.4500 
 29 H       -5.3720     1.9890    -2.1060 H     1 <1>   0.0800 
 30 H       -3.9640     1.2920    -2.8850 H     1 <1>   0.0800 
 31 H       -3.8970     2.9250    -2.2620 H     1 <1>   0.0800 
 32 H       -5.3360    -0.0420    -0.4690 H     1 <1>   0.0800 
 33 H       -3.8310    -0.3660     0.3740 H     1 <1>   0.0800 
 34 H       -3.9350    -0.6200    -1.3510 H     1 <1>   0.0800 
 35 H        3.1440     7.3150     1.1670 H     1 <1>   0.0800 
 36 H        4.1890     6.3940     0.0970 H     1 <1>   0.0800 
 37 H        3.6910     5.7110     1.6500 H     1 <1>   0.0800 
 38 H        4.7680    -0.5420    -0.5280 H     1 <1>   0.0800 
 39 H        3.1340    -0.4170    -1.1660 H     1 <1>   0.0800 
 40 H        3.4180    -0.3590     0.5850 H     1 <1>   0.0800 
 41 H        5.8970     4.4220    -1.6870 H     1 <1>   0.0800 
 42 H        4.2420     4.6350    -2.2580 H     1 <1>   0.0800 
 43 H        4.9180     3.0130    -2.0810 H     1 <1>   0.0800 
@<TRIPOS>BOND
  1   1   2  2   
  2   2   3  am  
  3   2   4  1   
  4   3   5  1   
  5   3  21  1   
  6   4   6  ar  
  7   4   7  ar  
  8   5   8  1   
  9   5  22  1   
 10   5  23  1   
 11   6   9  ar  
 12   6  24  1   
 13   7  10  ar  
 14   7  25  1   
 15   8  11  1   
 16   8  26  1   
 17   8  27  1   
 18   9  12  1   
 19   9  13  ar  
 20  10  13  ar  
 21  10  14  1   
 22  11  15  1   
 23  11  16  1   
 24  11  28  1   
 25  12  17  1   
 26  13  18  1   
 27  14  19  1   
 28  15  29  1   
 29  15  30  1   
 30  15  31  1   
 31  16  32  1   
 32  16  33  1   
 33  16  34  1   
 34  17  35  1   
 35  17  36  1   
 36  17  37  1   
 37  18  20  1   
 38  19  38  1   
 39  19  39  1   
 40  19  40  1   
 41  20  41  1   
 42  20  42  1   
 43  20  43  1   
@<TRIPOS>SUBSTRUCTURE
  1 ****   4 GROUP 4 **** **** 0

# MOE 2024.06 (io_trps.svl 2023.06)
