@<TRIPOS>MOLECULE
NONAME
31 33 1 0 0 
SMALL
USER_CHARGES


@<TRIPOS>ATOM
  1 O       -0.3590    -0.2170     0.0730 O.2   1 <1>  -0.5700 
  2 C       -1.1540    -1.1190    -0.0080 C.2   1 <1>   0.4230 
  3 C       -2.5890    -0.9240     0.0090 C.ar  1 <1>   0.0860 
  4 C       -0.5730    -2.5150    -0.1320 C.3   1 <1>  -0.1790 
  5 C       -3.5030    -1.9700    -0.0850 C.ar  1 <1>  -0.1500 
  6 C       -3.1140     0.3840     0.1250 C.ar  1 <1>  -0.1500 
  7 C       -4.8740    -1.7210    -0.0640 C.ar  1 <1>  -0.1520 
  8 C       -4.4640     0.6380     0.1470 C.ar  1 <1>  -0.1500 
  9 N       -5.9450    -2.5810    -0.1400 N.pl3 1 <1>   0.0330 
 10 C       -5.3650    -0.4240     0.0510 C.ar  1 <1>   0.0000 
 11 C       -7.0870    -1.8390    -0.0710 C.2   1 <1>  -0.3320 
 12 C       -6.7700    -0.5300     0.0390 C.2   1 <1>  -0.1810 
 13 C       -8.4990    -2.3900    -0.1190 C.3   1 <1>   0.0200 
 14 C       -7.7920     0.5850     0.1340 C.3   1 <1>   0.0210 
 15 C       -9.4990    -1.3070     0.3290 C.3   1 <1>  -0.1600 
 16 C       -9.1810     0.0700    -0.2890 C.3   1 <1>  -0.1600 
 17 H       -0.8890    -2.9640    -1.0550 H     1 <1>   0.0800 
 18 H       -0.8900    -3.1200     0.6970 H     1 <1>   0.0800 
 19 H        0.5010    -2.4640    -0.1270 H     1 <1>   0.0800 
 20 H       -3.1760    -2.9880    -0.1750 H     1 <1>   0.1500 
 21 H       -2.4200     1.2040     0.1990 H     1 <1>   0.1500 
 22 H       -4.8450     1.6390     0.2360 H     1 <1>   0.1500 
 23 H       -5.8870    -3.5990    -0.2300 H     1 <1>   0.2700 
 24 H       -8.5880    -3.2480     0.5240 H     1 <1>   0.0800 
 25 H       -8.7200    -2.6930    -1.1270 H     1 <1>   0.0800 
 26 H       -7.4990     1.4040    -0.4980 H     1 <1>   0.0800 
 27 H       -7.8240     0.9330     1.1510 H     1 <1>   0.0800 
 28 H       -9.4580    -1.2210     1.4010 H     1 <1>   0.0800 
 29 H      -10.4960    -1.6080     0.0600 H     1 <1>   0.0800 
 30 H       -9.2050    -0.0180    -1.3620 H     1 <1>   0.0800 
 31 H       -9.9300     0.7850     0.0010 H     1 <1>   0.0800 
@<TRIPOS>BOND
  1   1   2  2   
  2   2   3  1   
  3   2   4  1   
  4   3   5  ar  
  5   3   6  ar  
  6   4  17  1   
  7   4  18  1   
  8   4  19  1   
  9   5   7  ar  
 10   5  20  1   
 11   6   8  ar  
 12   6  21  1   
 13   7   9  1   
 14   7  10  ar  
 15   8  10  ar  
 16   8  22  1   
 17   9  11  1   
 18   9  23  1   
 19  10  12  1   
 20  11  12  2   
 21  11  13  1   
 22  12  14  1   
 23  13  15  1   
 24  13  24  1   
 25  13  25  1   
 26  14  16  1   
 27  14  26  1   
 28  14  27  1   
 29  15  16  1   
 30  15  28  1   
 31  15  29  1   
 32  16  30  1   
 33  16  31  1   
@<TRIPOS>SUBSTRUCTURE
  1 ****  10 GROUP 4 **** **** 0

# MOE 2024.06 (io_trps.svl 2023.06)
