@<TRIPOS>MOLECULE
NONAME
46 48 1 0 0 
SMALL
USER_CHARGES


@<TRIPOS>ATOM
  1 O       -0.2110    -0.7540    -0.9220 O.2   1 <1>  -0.5700 
  2 C       -0.8950    -1.7200    -0.6400 C.2   1 <1>   0.5440 
  3 N       -0.2820    -2.9400    -0.4270 N.am  1 <1>  -0.6600 
  4 C       -2.3310    -1.5510    -0.5360 C.ar  1 <1>   0.0860 
  5 C       -0.9290    -4.0790     0.2840 C.3   1 <1>   0.1400 
  6 C        1.1610    -3.1550    -0.7350 C.3   1 <1>   0.1400 
  7 C       -3.2180    -2.3340    -1.2770 C.ar  1 <1>  -0.1500 
  8 C       -2.8810    -0.5870     0.3070 C.ar  1 <1>  -0.1500 
  9 C       -0.1720    -4.3760     1.5830 C.3   1 <1>  -0.1600 
 10 C        1.9310    -3.4390     0.5580 C.3   1 <1>  -0.1600 
 11 C       -4.5850    -2.1670    -1.1720 C.ar  1 <1>  -0.1500 
 12 C       -4.2480    -0.4190     0.4160 C.ar  1 <1>  -0.1500 
 13 C        1.3220    -4.6180     1.3300 C.3   1 <1>  -0.1600 
 14 C       -5.1230    -1.2040    -0.3280 C.ar  1 <1>   0.1170 
 15 N       -6.5090    -1.0620    -0.2440 N.am  1 <1>  -0.5470 
 16 C       -7.3090     0.0270    -0.0310 C.2   1 <1>   0.5440 
 17 O       -8.4650    -0.2210     0.2390 O.2   1 <1>  -0.5700 
 18 C       -6.8440     1.4000    -0.1240 C.ar  1 <1>   0.0860 
 19 C       -7.2930     2.3610     0.7820 C.ar  1 <1>  -0.1500 
 20 C       -5.9490     1.8190    -1.1090 C.ar  1 <1>  -0.1500 
 21 C       -6.8620     3.6760     0.7280 C.ar  1 <1>  -0.1430 
 22 C       -5.5090     3.1270    -1.1730 C.ar  1 <1>  -0.1500 
 23 C       -5.9630     4.0550    -0.2540 C.ar  1 <1>  -0.1500 
 24 C       -7.3650     4.6990     1.7290 C.3   1 <1>  -0.0970 
 25 H       -0.9110    -4.9450    -0.3560 H     1 <1>   0.0800 
 26 H       -1.9540    -3.8570     0.5200 H     1 <1>   0.0800 
 27 H        1.5810    -2.2920    -1.2240 H     1 <1>   0.0800 
 28 H        1.2530    -3.9910    -1.4070 H     1 <1>   0.0800 
 29 H       -2.8170    -3.0770    -1.9440 H     1 <1>   0.1500 
 30 H       -2.2150     0.0360     0.8790 H     1 <1>   0.1500 
 31 H       -0.6020    -5.2420     2.0560 H     1 <1>   0.0800 
 32 H       -0.2950    -3.5430     2.2530 H     1 <1>   0.0800 
 33 H        1.9130    -2.5530     1.1690 H     1 <1>   0.0800 
 34 H        2.9580    -3.6510     0.3200 H     1 <1>   0.0800 
 35 H       -5.2450    -2.7840    -1.7570 H     1 <1>   0.1500 
 36 H       -4.6360     0.3270     1.0870 H     1 <1>   0.1500 
 37 H        1.4480    -5.5210     0.7590 H     1 <1>   0.0800 
 38 H        1.8360    -4.7420     2.2680 H     1 <1>   0.0800 
 39 H       -7.0580    -1.9210    -0.2860 H     1 <1>   0.3700 
 40 H       -7.9970     2.0580     1.5390 H     1 <1>   0.1500 
 41 H       -5.5920     1.1080    -1.8340 H     1 <1>   0.1500 
 42 H       -4.8120     3.4260    -1.9380 H     1 <1>   0.1500 
 43 H       -5.6180     5.0730    -0.3070 H     1 <1>   0.1500 
 44 H       -8.1990     4.3130     2.2870 H     1 <1>   0.0800 
 45 H       -7.6830     5.5900     1.2180 H     1 <1>   0.0800 
 46 H       -6.5790     4.9540     2.4170 H     1 <1>   0.0800 
@<TRIPOS>BOND
  1   1   2  2   
  2   2   3  am  
  3   2   4  1   
  4   3   5  1   
  5   3   6  1   
  6   4   7  ar  
  7   4   8  ar  
  8   5   9  1   
  9   5  25  1   
 10   5  26  1   
 11   6  10  1   
 12   6  27  1   
 13   6  28  1   
 14   7  11  ar  
 15   7  29  1   
 16   8  12  ar  
 17   8  30  1   
 18   9  13  1   
 19   9  31  1   
 20   9  32  1   
 21  10  13  1   
 22  10  33  1   
 23  10  34  1   
 24  11  14  ar  
 25  11  35  1   
 26  12  14  ar  
 27  12  36  1   
 28  13  37  1   
 29  13  38  1   
 30  14  15  1   
 31  15  16  am  
 32  15  39  1   
 33  16  17  2   
 34  16  18  1   
 35  18  19  ar  
 36  18  20  ar  
 37  19  21  ar  
 38  19  40  1   
 39  20  22  ar  
 40  20  41  1   
 41  21  23  ar  
 42  21  24  1   
 43  22  23  ar  
 44  22  42  1   
 45  23  43  1   
 46  24  44  1   
 47  24  45  1   
 48  24  46  1   
@<TRIPOS>SUBSTRUCTURE
  1 ****  12 GROUP 4 **** **** 0

# MOE 2024.06 (io_trps.svl 2023.06)
