@<TRIPOS>MOLECULE
NONAME
37 38 1 0 0 
SMALL
USER_CHARGES


@<TRIPOS>ATOM
  1 S        0.4810    -0.4840     0.6190 S.3   1 <1>  -0.3710 
  2 C       -1.1850    -1.0210     0.3430 C.2   1 <1>   0.6510 
  3 C        1.3470    -0.9290    -0.9750 C.3   1 <1>   0.1310 
  4 N       -1.5130    -1.5740    -0.7850 N.2   1 <1>  -0.4500 
  5 N       -2.0350    -0.8110     1.3640 N.am  1 <1>  -0.4900 
  6 C        2.8220    -0.5510    -0.9630 C.2   1 <1>   0.5690 
  7 N       -2.7960    -1.9830    -0.9870 N.2   1 <1>  -0.4500 
  8 C       -3.3240    -1.2020     1.2100 C.2   1 <1>   0.6300 
  9 O        3.4720    -0.7960    -1.9500 O.2   1 <1>  -0.5700 
 10 N        3.3550     0.0420     0.1430 N.am  1 <1>  -0.7300 
 11 C       -3.6700    -1.8110    -0.0430 C.2   1 <1>   0.3890 
 12 O       -4.0910    -1.0070     2.1440 O.2   1 <1>  -0.5700 
 13 C        4.7440     0.4900     0.3760 C.3   1 <1>   0.2200 
 14 C       -5.0990    -2.2720    -0.2810 C.3   1 <1>  -0.1790 
 15 C        5.1400     1.5890    -0.6180 C.3   1 <1>  -0.1600 
 16 C        5.7180    -0.6940     0.3280 C.3   1 <1>  -0.1600 
 17 C        6.5840     2.0550    -0.3750 C.3   1 <1>  -0.1600 
 18 C        7.1610    -0.2290     0.5720 C.3   1 <1>  -0.1600 
 19 C        7.5620     0.8730    -0.4200 C.3   1 <1>  -0.1600 
 20 H        0.8430    -0.4110    -1.7700 H     1 <1>   0.0800 
 21 H        1.2420    -1.9890    -1.1130 H     1 <1>   0.0800 
 22 H       -1.7460    -0.3760     2.2340 H     1 <1>   0.3700 
 23 H        2.7200     0.2070     0.9270 H     1 <1>   0.3700 
 24 H        4.7890     0.9120     1.3660 H     1 <1>   0.0800 
 25 H       -5.7690    -1.4360    -0.2020 H     1 <1>   0.0800 
 26 H       -5.3710    -3.0090     0.4530 H     1 <1>   0.0800 
 27 H       -5.1960    -2.7050    -1.2610 H     1 <1>   0.0800 
 28 H        4.4710     2.4250    -0.5180 H     1 <1>   0.0800 
 29 H        5.0660     1.2120    -1.6230 H     1 <1>   0.0800 
 30 H        5.6670    -1.1660    -0.6370 H     1 <1>   0.0800 
 31 H        5.4430    -1.4180     1.0750 H     1 <1>   0.0800 
 32 H        6.6490     2.5360     0.5860 H     1 <1>   0.0800 
 33 H        6.8590     2.7780    -1.1250 H     1 <1>   0.0800 
 34 H        7.8300    -1.0660     0.4690 H     1 <1>   0.0800 
 35 H        7.2530     0.1450     1.5770 H     1 <1>   0.0800 
 36 H        8.5560     1.2180    -0.1940 H     1 <1>   0.0800 
 37 H        7.5740     0.4630    -1.4160 H     1 <1>   0.0800 
@<TRIPOS>BOND
  1   1   2  1   
  2   1   3  1   
  3   2   4  2   
  4   2   5  1   
  5   3   6  1   
  6   3  20  1   
  7   3  21  1   
  8   4   7  1   
  9   5   8  am  
 10   5  22  1   
 11   6   9  2   
 12   6  10  am  
 13   7  11  2   
 14   8  11  1   
 15   8  12  2   
 16  10  13  1   
 17  10  23  1   
 18  11  14  1   
 19  13  15  1   
 20  13  16  1   
 21  13  24  1   
 22  14  25  1   
 23  14  26  1   
 24  14  27  1   
 25  15  17  1   
 26  15  28  1   
 27  15  29  1   
 28  16  18  1   
 29  16  30  1   
 30  16  31  1   
 31  17  19  1   
 32  17  32  1   
 33  17  33  1   
 34  18  19  1   
 35  18  34  1   
 36  18  35  1   
 37  19  36  1   
 38  19  37  1   
@<TRIPOS>SUBSTRUCTURE
  1 ****   3 GROUP 4 **** **** 0

# MOE 2024.06 (io_trps.svl 2023.06)
