@<TRIPOS>MOLECULE
NONAME
35 36 1 0 0 
SMALL
USER_CHARGES


@<TRIPOS>ATOM
  1 O       -0.3230     1.3500    -2.2770 O.2   1 <1>  -0.5700 
  2 C       -0.2640     2.2270    -1.4380 C.2   1 <1>   0.6160 
  3 N        0.9410     2.4140    -0.8560 N.am  1 <1>  -0.8000 
  4 C       -1.4150     2.9640    -1.0540 C.2   1 <1>  -0.1360 
  5 C       -1.5280     4.1130    -0.3260 C.2   1 <1>   0.0720 
  6 N       -0.3950     4.8330     0.0230 N.pl3 1 <1>  -0.8690 
  7 C       -2.8150     4.6600     0.0830 C.ar  1 <1>   0.0280 
  8 C       -0.4530     6.1860     0.5890 C.3   1 <1>   0.3690 
  9 C       -2.9710     6.0360     0.2890 C.ar  1 <1>  -0.1430 
 10 C       -3.9230     3.8410     0.2970 C.ar  1 <1>  -0.1500 
 11 C       -1.7250     6.9000     0.0930 C.3   1 <1>  -0.0170 
 12 C        0.8000     6.9220     0.1200 C.3   1 <1>  -0.2400 
 13 C       -0.4370     6.0440     2.1110 C.3   1 <1>  -0.2400 
 14 C       -4.2020     6.5740     0.6530 C.ar  1 <1>  -0.1430 
 15 C       -5.1450     4.3670     0.6660 C.ar  1 <1>  -0.1500 
 16 C       -5.2840     5.7290     0.8390 C.ar  1 <1>  -0.1500 
 17 C       -4.4100     8.0680     0.8560 C.3   1 <1>  -0.0970 
 18 H        1.6640     1.7220    -1.0470 H     1 <1>   0.3700 
 19 H        0.9660     2.8710     0.0570 H     1 <1>   0.3700 
 20 H       -2.3120     2.5070    -1.4210 H     1 <1>   0.1500 
 21 H        0.4410     4.6790    -0.5510 H     1 <1>   0.4000 
 22 H       -3.8350     2.7780     0.1820 H     1 <1>   0.1500 
 23 H       -1.8100     7.8360     0.6100 H     1 <1>   0.0800 
 24 H       -1.6270     7.1140    -0.9560 H     1 <1>   0.0800 
 25 H        0.8200     6.9840    -0.9540 H     1 <1>   0.0800 
 26 H        1.6850     6.4150     0.4610 H     1 <1>   0.0800 
 27 H        0.8100     7.9210     0.5160 H     1 <1>   0.0800 
 28 H       -0.4580     7.0120     2.5760 H     1 <1>   0.0800 
 29 H        0.4490     5.5280     2.4300 H     1 <1>   0.0800 
 30 H       -1.2970     5.4910     2.4430 H     1 <1>   0.0800 
 31 H       -5.9880     3.7160     0.8220 H     1 <1>   0.1500 
 32 H       -6.2430     6.1260     1.1240 H     1 <1>   0.1500 
 33 H       -5.4520     8.2990     0.9860 H     1 <1>   0.0800 
 34 H       -4.0540     8.6120     0.0000 H     1 <1>   0.0800 
 35 H       -3.8800     8.3960     1.7310 H     1 <1>   0.0800 
@<TRIPOS>BOND
  1   1   2  2   
  2   2   3  am  
  3   2   4  1   
  4   3  18  1   
  5   3  19  1   
  6   4   5  2   
  7   4  20  1   
  8   5   6  1   
  9   5   7  1   
 10   6   8  1   
 11   6  21  1   
 12   7   9  ar  
 13   7  10  ar  
 14   8  11  1   
 15   8  12  1   
 16   8  13  1   
 17   9  11  1   
 18   9  14  ar  
 19  10  15  ar  
 20  10  22  1   
 21  11  23  1   
 22  11  24  1   
 23  12  25  1   
 24  12  26  1   
 25  12  27  1   
 26  13  28  1   
 27  13  29  1   
 28  13  30  1   
 29  14  16  ar  
 30  14  17  1   
 31  15  16  ar  
 32  15  31  1   
 33  16  32  1   
 34  17  33  1   
 35  17  34  1   
 36  17  35  1   
@<TRIPOS>SUBSTRUCTURE
  1 ****   7 GROUP 4 **** **** 0

# MOE 2024.06 (io_trps.svl 2023.06)
