@<TRIPOS>MOLECULE
NONAME
47 49 1 0 0 
SMALL
USER_CHARGES


@<TRIPOS>ATOM
  1 O       -0.7230     1.0880     2.9530 O.2   1 <1>  -0.5700 
  2 C       -0.0660     1.2230     1.9480 C.2   1 <1>   0.5690 
  3 N       -0.5920     1.0510     0.7090 N.am  1 <1>  -0.7300 
  4 C        1.4130     1.6150     2.0570 C.3   1 <1>   0.1710 
  5 C       -1.9810     0.6540     0.3920 C.3   1 <1>   0.1400 
  6 N        2.2370     1.2560     0.8630 N.3   1 <1>  -0.8100 
  7 C       -2.7560     1.8550    -0.1460 C.3   1 <1>  -0.0170 
  8 C        3.5420     1.9530     0.8980 C.3   1 <1>   0.1100 
  9 C        2.4750    -0.2080     0.8060 C.3   1 <1>   0.1100 
 10 C       -4.1670     1.4400    -0.5320 C.ar  1 <1>  -0.1440 
 11 C        4.4180     1.6200    -0.3240 C.3   1 <1>   0.2090 
 12 C        3.3150    -0.6210    -0.4170 C.3   1 <1>   0.2090 
 13 C       -5.1640     1.3880     0.4290 C.ar  1 <1>  -0.1500 
 14 C       -4.4670     1.1050    -1.8440 C.ar  1 <1>  -0.1500 
 15 N        4.6010     0.1420    -0.4780 N.pl3 1 <1>  -0.8380 
 16 C       -6.4490     1.0060     0.0830 C.ar  1 <1>  -0.1500 
 17 C       -5.7520     0.7230    -2.1900 C.ar  1 <1>  -0.1500 
 18 C        5.7940    -0.4300    -0.8710 C.ar  1 <1>   0.7200 
 19 C       -6.7440     0.6730    -1.2270 C.ar  1 <1>  -0.1500 
 20 N        6.8640     0.3650    -0.9270 N.ar  1 <1>  -0.6200 
 21 N        5.7790    -1.7300    -1.1660 N.ar  1 <1>  -0.6200 
 22 C        7.9880    -0.1900    -1.3040 C.ar  1 <1>   0.1600 
 23 C        6.9180    -2.2590    -1.5400 C.ar  1 <1>   0.1600 
 24 C        8.0720    -1.5220    -1.6270 C.ar  1 <1>  -0.1500 
 25 H        0.0670     1.1650    -0.0700 H     1 <1>   0.3700 
 26 H        1.8260     1.1580     2.9390 H     1 <1>   0.0800 
 27 H        1.4400     2.6800     2.1960 H     1 <1>   0.0800 
 28 H       -2.4650     0.2830     1.2810 H     1 <1>   0.0800 
 29 H       -1.9690    -0.1350    -0.3390 H     1 <1>   0.0800 
 30 H       -2.2510     2.2590    -1.0050 H     1 <1>   0.0800 
 31 H       -2.8010     2.6180     0.6110 H     1 <1>   0.0800 
 32 H        4.0810     1.6790     1.7900 H     1 <1>   0.0800 
 33 H        3.3780     3.0160     0.9200 H     1 <1>   0.0800 
 34 H        1.5340    -0.7280     0.7650 H     1 <1>   0.0800 
 35 H        2.9900    -0.5290     1.6950 H     1 <1>   0.0800 
 36 H        5.3630     2.1190    -0.2080 H     1 <1>   0.0800 
 37 H        3.9480     2.0070    -1.2110 H     1 <1>   0.0800 
 38 H        2.7530    -0.4320    -1.3140 H     1 <1>   0.0800 
 39 H        3.4950    -1.6800    -0.3580 H     1 <1>   0.0800 
 40 H       -4.9440     1.6440     1.4510 H     1 <1>   0.1500 
 41 H       -3.7050     1.1400    -2.6010 H     1 <1>   0.1500 
 42 H       -7.2190     0.9680     0.8350 H     1 <1>   0.1500 
 43 H       -5.9800     0.4650    -3.2100 H     1 <1>   0.1500 
 44 H       -7.7420     0.3760    -1.4960 H     1 <1>   0.1500 
 45 H        8.8660     0.4320    -1.3560 H     1 <1>   0.1500 
 46 H        6.9310    -3.3080    -1.7840 H     1 <1>   0.1500 
 47 H        8.9990    -1.9660    -1.9350 H     1 <1>   0.1500 
@<TRIPOS>BOND
  1   1   2  2   
  2   2   3  am  
  3   2   4  1   
  4   3   5  1   
  5   3  25  1   
  6   4   6  1   
  7   4  26  1   
  8   4  27  1   
  9   5   7  1   
 10   5  28  1   
 11   5  29  1   
 12   6   8  1   
 13   6   9  1   
 14   7  10  1   
 15   7  30  1   
 16   7  31  1   
 17   8  11  1   
 18   8  32  1   
 19   8  33  1   
 20   9  12  1   
 21   9  34  1   
 22   9  35  1   
 23  10  13  ar  
 24  10  14  ar  
 25  11  15  1   
 26  11  36  1   
 27  11  37  1   
 28  12  15  1   
 29  12  38  1   
 30  12  39  1   
 31  13  16  ar  
 32  13  40  1   
 33  14  17  ar  
 34  14  41  1   
 35  15  18  1   
 36  16  19  ar  
 37  16  42  1   
 38  17  19  ar  
 39  17  43  1   
 40  18  20  ar  
 41  18  21  ar  
 42  19  44  1   
 43  20  22  ar  
 44  21  23  ar  
 45  22  24  ar  
 46  22  45  1   
 47  23  24  ar  
 48  23  46  1   
 49  24  47  1   
@<TRIPOS>SUBSTRUCTURE
  1 ****   6 GROUP 4 **** **** 0

# MOE 2024.06 (io_trps.svl 2023.06)
