@<TRIPOS>MOLECULE
NONAME
47 49 1 0 0 
SMALL
USER_CHARGES


@<TRIPOS>ATOM
  1 BR       1.4740    -1.7430     3.3740 Br    1 <1>  -0.1110 
  2 C        2.8630    -2.0760     2.0910 C.ar  1 <1>   0.1110 
  3 C        4.0080    -2.7320     2.4990 C.ar  1 <1>  -0.1500 
  4 C        2.6850    -1.6520     0.7870 C.ar  1 <1>  -0.1500 
  5 C        5.0040    -2.9660     1.5670 C.ar  1 <1>  -0.1500 
  6 C        3.6930    -1.8940    -0.1300 C.ar  1 <1>  -0.1500 
  7 C        4.8730    -2.5470     0.2410 C.ar  1 <1>   0.0860 
  8 C        5.9310    -2.7940    -0.7190 C.2   1 <1>   0.5440 
  9 O        6.2980    -3.9390    -0.9030 O.2   1 <1>  -0.5700 
 10 N        6.5400    -1.7710    -1.4200 N.am  1 <1>  -0.6600 
 11 C        6.4460    -0.3350    -1.0380 C.3   1 <1>   0.1400 
 12 C        7.4920    -2.0470    -2.5330 C.3   1 <1>   0.1400 
 13 C        7.8320     0.1770    -0.6380 C.3   1 <1>  -0.1600 
 14 C        8.8890    -1.5600    -2.1430 C.3   1 <1>  -0.1600 
 15 C        8.8730    -0.0710    -1.7460 C.3   1 <1>  -0.0190 
 16 C       10.2580     0.4260    -1.3440 C.2   1 <1>   0.5690 
 17 O       10.7660     1.3190    -1.9780 O.2   1 <1>  -0.5700 
 18 N       10.8840    -0.1450    -0.2850 N.am  1 <1>  -0.7300 
 19 C       12.2440     0.1760     0.2020 C.3   1 <1>   0.1400 
 20 C       13.0150    -1.1180     0.4980 C.3   1 <1>   0.2000 
 21 O       12.2510    -1.9640     1.3010 O.3   1 <1>  -0.5600 
 22 C       14.3040    -0.9190     1.2810 C.3   1 <1>  -0.1600 
 23 C       13.0730    -2.8660     1.9720 C.3   1 <1>   0.1200 
 24 C       14.4710    -2.2510     1.9930 C.3   1 <1>  -0.1600 
 25 H        4.1130    -3.0550     3.5200 H     1 <1>   0.1500 
 26 H        1.7770    -1.1500     0.5020 H     1 <1>   0.1500 
 27 H        5.9030    -3.4830     1.8580 H     1 <1>   0.1500 
 28 H        3.5730    -1.5810    -1.1530 H     1 <1>   0.1500 
 29 H        5.7690    -0.1950    -0.2140 H     1 <1>   0.0800 
 30 H        6.0750     0.2280    -1.8780 H     1 <1>   0.0800 
 31 H        7.1560    -1.5330    -3.4170 H     1 <1>   0.0800 
 32 H        7.5250    -3.1000    -2.7580 H     1 <1>   0.0800 
 33 H        8.1330    -0.3170     0.2700 H     1 <1>   0.0800 
 34 H        7.7750     1.2320    -0.4320 H     1 <1>   0.0800 
 35 H        9.5590    -1.7050    -2.9720 H     1 <1>   0.0800 
 36 H        9.2440    -2.1640    -1.3260 H     1 <1>   0.0800 
 37 H        8.5750     0.4960    -2.6110 H     1 <1>   0.0800 
 38 H       10.4670    -0.9440     0.2020 H     1 <1>   0.3700 
 39 H       12.1630     0.7620     1.1000 H     1 <1>   0.0800 
 40 H       12.7740     0.7570    -0.5340 H     1 <1>   0.0800 
 41 H       13.2190    -1.6420    -0.4210 H     1 <1>   0.0800 
 42 H       14.1770    -0.1300     2.0020 H     1 <1>   0.0800 
 43 H       15.1330    -0.6840     0.6370 H     1 <1>   0.0800 
 44 H       13.0610    -3.7990     1.4340 H     1 <1>   0.0800 
 45 H       12.6790    -3.0080     2.9640 H     1 <1>   0.0800 
 46 H       14.8300    -2.1250     2.9990 H     1 <1>   0.0800 
 47 H       15.1510    -2.8900     1.4570 H     1 <1>   0.0800 
@<TRIPOS>BOND
  1   1   2  1   
  2   2   3  ar  
  3   2   4  ar  
  4   3   5  ar  
  5   3  25  1   
  6   4   6  ar  
  7   4  26  1   
  8   5   7  ar  
  9   5  27  1   
 10   6   7  ar  
 11   6  28  1   
 12   7   8  1   
 13   8   9  2   
 14   8  10  am  
 15  10  11  1   
 16  10  12  1   
 17  11  13  1   
 18  11  29  1   
 19  11  30  1   
 20  12  14  1   
 21  12  31  1   
 22  12  32  1   
 23  13  15  1   
 24  13  33  1   
 25  13  34  1   
 26  14  15  1   
 27  14  35  1   
 28  14  36  1   
 29  15  16  1   
 30  15  37  1   
 31  16  17  2   
 32  16  18  am  
 33  18  19  1   
 34  18  38  1   
 35  19  20  1   
 36  19  39  1   
 37  19  40  1   
 38  20  21  1   
 39  20  22  1   
 40  20  41  1   
 41  21  23  1   
 42  22  24  1   
 43  22  42  1   
 44  22  43  1   
 45  23  24  1   
 46  23  44  1   
 47  23  45  1   
 48  24  46  1   
 49  24  47  1   
@<TRIPOS>SUBSTRUCTURE
  1 ****  13 GROUP 4 **** **** 0

# MOE 2024.06 (io_trps.svl 2023.06)
