@<TRIPOS>MOLECULE
NONAME
47 48 1 0 0 
SMALL
USER_CHARGES


@<TRIPOS>ATOM
  1 O        1.0050    -3.9290     0.4240 O.3   1 <1>  -0.3630 
  2 C       -0.0540    -4.7730     0.3370 C.ar  1 <1>   0.0830 
  3 C        1.0150    -2.6920    -0.2600 C.3   1 <1>   0.1200 
  4 C       -1.2060    -4.5010    -0.3950 C.ar  1 <1>  -0.1500 
  5 C        0.0430    -5.9690     1.0250 C.ar  1 <1>  -0.1500 
  6 C        2.3480    -1.9920     0.0100 C.3   1 <1>   0.2000 
  7 C       -2.2480    -5.4150    -0.4390 C.ar  1 <1>  -0.1440 
  8 C       -0.9920    -6.8830     0.9840 C.ar  1 <1>  -0.1500 
  9 O        2.4300    -0.8540    -0.7680 O.3   1 <1>  -0.6800 
 10 C        3.5700    -2.8660    -0.3360 C.3   1 <1>   0.1100 
 11 C       -2.1410    -6.6170     0.2560 C.ar  1 <1>  -0.1430 
 12 C       -3.4920    -5.0800    -1.2510 C.3   1 <1>  -0.0970 
 13 N        4.8120    -2.0610    -0.5200 N.3   1 <1>  -0.8100 
 14 C       -3.2590    -7.6500     0.2370 C.3   1 <1>  -0.0970 
 15 C        5.8460    -2.8580    -1.2110 C.3   1 <1>   0.1100 
 16 C        5.3170    -1.5300     0.7670 C.3   1 <1>   0.1100 
 17 C        7.1400    -2.0460    -1.4290 C.3   1 <1>   0.3430 
 18 C        6.6060    -0.7030     0.5760 C.3   1 <1>   0.3430 
 19 N        7.6730    -1.4900    -0.1360 N.4   1 <1>  -0.9590 
 20 C        8.8930    -0.6600    -0.3670 C.3   1 <1>   0.2630 
 21 H        0.1990    -2.0940     0.1060 H     1 <1>   0.0800 
 22 H        0.9010    -2.8890    -1.3110 H     1 <1>   0.0800 
 23 H       -1.3050    -3.5790    -0.9350 H     1 <1>   0.1500 
 24 H        0.9310    -6.1790     1.5910 H     1 <1>   0.1500 
 25 H        2.3870    -1.6860     1.0410 H     1 <1>   0.0800 
 26 H       -0.8950    -7.8070     1.5270 H     1 <1>   0.1500 
 27 H        3.3760    -0.7860    -1.0320 H     1 <1>   0.4000 
 28 H        3.3460    -3.3860    -1.2530 H     1 <1>   0.0800 
 29 H        3.7080    -3.6130     0.4280 H     1 <1>   0.0800 
 30 H       -3.4000    -4.1190    -1.7230 H     1 <1>   0.0800 
 31 H       -4.3550    -5.0600    -0.6110 H     1 <1>   0.0800 
 32 H       -3.6410    -5.8190    -2.0180 H     1 <1>   0.0800 
 33 H       -3.4400    -7.9790    -0.7700 H     1 <1>   0.0800 
 34 H       -4.1610    -7.2240     0.6360 H     1 <1>   0.0800 
 35 H       -3.0010    -8.5090     0.8300 H     1 <1>   0.0800 
 36 H        5.4700    -3.1660    -2.1720 H     1 <1>   0.0800 
 37 H        6.0680    -3.7470    -0.6440 H     1 <1>   0.0800 
 38 H        5.5070    -2.3400     1.4520 H     1 <1>   0.0800 
 39 H        4.5700    -0.8930     1.2110 H     1 <1>   0.0800 
 40 H        6.9220    -1.2380    -2.1080 H     1 <1>   0.0800 
 41 H        7.8810    -2.6780    -1.8910 H     1 <1>   0.0800 
 42 H        6.9670    -0.3820     1.5390 H     1 <1>   0.0800 
 43 H        6.3610     0.1760     0.0030 H     1 <1>   0.0800 
 44 H        7.9170    -2.2890     0.4650 H     1 <1>   0.4500 
 45 H        8.6580     0.1850    -0.9950 H     1 <1>   0.0800 
 46 H        9.6590    -1.2450    -0.8490 H     1 <1>   0.0800 
 47 H        9.2810    -0.2940     0.5710 H     1 <1>   0.0800 
@<TRIPOS>BOND
  1   1   2  1   
  2   1   3  1   
  3   2   4  ar  
  4   2   5  ar  
  5   3   6  1   
  6   3  21  1   
  7   3  22  1   
  8   4   7  ar  
  9   4  23  1   
 10   5   8  ar  
 11   5  24  1   
 12   6   9  1   
 13   6  10  1   
 14   6  25  1   
 15   7  11  ar  
 16   7  12  1   
 17   8  11  ar  
 18   8  26  1   
 19   9  27  1   
 20  10  13  1   
 21  10  28  1   
 22  10  29  1   
 23  11  14  1   
 24  12  30  1   
 25  12  31  1   
 26  12  32  1   
 27  13  15  1   
 28  13  16  1   
 29  14  33  1   
 30  14  34  1   
 31  14  35  1   
 32  15  17  1   
 33  15  36  1   
 34  15  37  1   
 35  16  18  1   
 36  16  38  1   
 37  16  39  1   
 38  17  19  1   
 39  17  40  1   
 40  17  41  1   
 41  18  19  1   
 42  18  42  1   
 43  18  43  1   
 44  19  20  1   
 45  19  44  1   
 46  20  45  1   
 47  20  46  1   
 48  20  47  1   
@<TRIPOS>SUBSTRUCTURE
  1 ****   1 GROUP 4 **** **** 0

# MOE 2024.06 (io_trps.svl 2023.06)
