@<TRIPOS>MOLECULE
NONAME
50 51 1 0 0 
SMALL
USER_CHARGES


@<TRIPOS>ATOM
  1 S       -0.3140     0.0390    -0.0010 S.3   1 <1>  -0.3310 
  2 C       -0.3470    -1.6330     0.6380 C.2   1 <1>  -0.0370 
  3 C        1.5110     0.1730    -0.1730 C.3   1 <1>   0.0700 
  4 C       -1.4620    -2.2400     1.0690 C.2   1 <1>  -0.2880 
  5 C        1.0830    -2.1610     0.5890 C.3   1 <1>   0.3580 
  6 C        2.0230    -0.9420     0.7460 C.3   1 <1>   0.2200 
  7 C       -2.8680    -1.6610     1.0970 C.3   1 <1>  -0.0220 
  8 N        1.3150    -3.1590     1.6630 N.am  1 <1>  -0.7300 
  9 N        3.4710    -1.2520     0.5300 N.am  1 <1>  -0.7300 
 10 C       -3.7900    -2.4780     0.1870 C.3   1 <1>  -0.1600 
 11 C        1.8690    -4.3850     1.5720 C.2   1 <1>   0.5690 
 12 C        4.0310    -1.7350    -0.6200 C.2   1 <1>   0.5440 
 13 C       -5.2230    -1.9110     0.1690 C.3   1 <1>  -0.0990 
 14 O        2.0120    -5.0470     2.5650 O.2   1 <1>  -0.5700 
 15 C        2.3120    -4.9490     0.2440 C.3   1 <1>  -0.1790 
 16 O        3.3090    -1.9140    -1.5790 O.2   1 <1>  -0.5700 
 17 C        5.4460    -2.0640    -0.6770 C.ar  1 <1>   0.0860 
 18 C       -6.1850    -2.6850    -0.7180 C.2   1 <1>   0.6590 
 19 C        6.3840    -1.4480     0.1570 C.ar  1 <1>  -0.1500 
 20 C        5.9220    -3.0200    -1.5750 C.ar  1 <1>  -0.1500 
 21 O       -5.8760    -3.7030    -1.2820 O.2   1 <1>  -0.5700 
 22 O       -7.3990    -2.1610    -0.8250 O.3   1 <1>  -0.4300 
 23 C        7.7250    -1.7820     0.1050 C.ar  1 <1>  -0.1500 
 24 C        7.2620    -3.3580    -1.6330 C.ar  1 <1>  -0.1500 
 25 C       -8.4000    -2.7680    -1.6160 C.3   1 <1>   0.0400 
 26 C        8.1670    -2.7400    -0.7890 C.ar  1 <1>  -0.1500 
 27 H        1.7420    -0.0010    -1.2090 H     1 <1>   0.0800 
 28 H        1.8140     1.1540     0.1440 H     1 <1>   0.0800 
 29 H       -1.4380    -3.2490     1.4460 H     1 <1>   0.1500 
 30 H        1.2350    -2.6000    -0.3800 H     1 <1>   0.0800 
 31 H        1.9110    -0.5830     1.7540 H     1 <1>   0.0800 
 32 H       -3.2360    -1.6850     2.1080 H     1 <1>   0.0800 
 33 H       -2.8630    -0.6360     0.7730 H     1 <1>   0.0800 
 34 H        0.9720    -2.8930     2.5860 H     1 <1>   0.3700 
 35 H        4.0140    -1.3390     1.3910 H     1 <1>   0.3700 
 36 H       -3.8150    -3.5000     0.5240 H     1 <1>   0.0800 
 37 H       -3.3930    -2.4720    -0.8150 H     1 <1>   0.0800 
 38 H       -5.1980    -0.8950    -0.1810 H     1 <1>   0.0800 
 39 H       -5.6220    -1.9120     1.1660 H     1 <1>   0.0800 
 40 H        3.1150    -4.3610    -0.1550 H     1 <1>   0.0800 
 41 H        1.4900    -4.9550    -0.4460 H     1 <1>   0.0800 
 42 H        2.6570    -5.9570     0.3780 H     1 <1>   0.0800 
 43 H        6.0660    -0.6920     0.8510 H     1 <1>   0.1500 
 44 H        5.2260    -3.5040    -2.2390 H     1 <1>   0.1500 
 45 H        8.4300    -1.2960     0.7580 H     1 <1>   0.1500 
 46 H        7.6020    -4.1000    -2.3350 H     1 <1>   0.1500 
 47 H       -9.2930    -2.1720    -1.5540 H     1 <1>   0.0800 
 48 H       -8.5870    -3.7590    -1.2390 H     1 <1>   0.0800 
 49 H       -8.0550    -2.8180    -2.6340 H     1 <1>   0.0800 
 50 H        9.2110    -3.0020    -0.8310 H     1 <1>   0.1500 
@<TRIPOS>BOND
  1   1   2  1   
  2   1   3  1   
  3   2   4  2   
  4   2   5  1   
  5   3   6  1   
  6   3  27  1   
  7   3  28  1   
  8   4   7  1   
  9   4  29  1   
 10   5   6  1   
 11   5   8  1   
 12   5  30  1   
 13   6   9  1   
 14   6  31  1   
 15   7  10  1   
 16   7  32  1   
 17   7  33  1   
 18   8  11  am  
 19   8  34  1   
 20   9  12  am  
 21   9  35  1   
 22  10  13  1   
 23  10  36  1   
 24  10  37  1   
 25  11  14  2   
 26  11  15  1   
 27  12  16  2   
 28  12  17  1   
 29  13  18  1   
 30  13  38  1   
 31  13  39  1   
 32  15  40  1   
 33  15  41  1   
 34  15  42  1   
 35  17  19  ar  
 36  17  20  ar  
 37  18  21  2   
 38  18  22  1   
 39  19  23  ar  
 40  19  43  1   
 41  20  24  ar  
 42  20  44  1   
 43  22  25  1   
 44  23  26  ar  
 45  23  45  1   
 46  24  26  ar  
 47  24  46  1   
 48  25  47  1   
 49  25  48  1   
 50  25  49  1   
 51  26  50  1   
@<TRIPOS>SUBSTRUCTURE
  1 ****   5 GROUP 4 **** **** 0

# MOE 2024.06 (io_trps.svl 2023.06)
