@<TRIPOS>MOLECULE
NONAME
50 53 1 0 0 
SMALL
USER_CHARGES


@<TRIPOS>ATOM
  1 O        2.9990    -2.2450     2.3110 O.2   1 <1>  -0.5700 
  2 C        2.9120    -1.9780     1.1430 C.2   1 <1>   0.6590 
  3 O        3.6020    -0.9470     0.6600 O.3   1 <1>  -0.4300 
  4 C        2.0310    -2.8160     0.2010 C.3   1 <1>  -0.0190 
  5 C        3.4500    -0.3520    -0.6070 C.3   1 <1>   0.1200 
  6 C        0.8920    -3.5380     0.9520 C.3   1 <1>  -0.1600 
  7 C        2.8710    -3.8580    -0.5620 C.3   1 <1>  -0.1600 
  8 C        4.4400     0.8040    -0.6990 C.3   1 <1>  -0.2400 
  9 C        0.0240    -4.3690     0.0050 C.3   1 <1>   0.2090 
 10 C        2.0110    -4.7030    -1.5050 C.3   1 <1>   0.2090 
 11 N        0.8790    -5.3130    -0.7590 N.pl3 1 <1>  -0.8380 
 12 C        0.9310    -6.6370    -0.3820 C.ar  1 <1>   0.4100 
 13 N        2.0580    -7.0660     0.0930 N.ar  1 <1>  -0.6200 
 14 C       -0.2020    -7.4780    -0.4900 C.ar  1 <1>   0.0000 
 15 C        2.1200    -8.3300     0.5540 C.ar  1 <1>   0.6200 
 16 C       -0.0460    -8.7680     0.0210 C.ar  1 <1>   0.3100 
 17 C       -1.4360    -7.1270    -1.0750 C.ar  1 <1>  -0.1500 
 18 N        1.1230    -9.1770     0.5430 N.ar  1 <1>  -0.6200 
 19 C        3.3980    -8.7600     1.1050 C.ar  1 <1>   0.0000 
 20 C       -1.1300    -9.6560    -0.0230 C.ar  1 <1>  -0.1500 
 21 C       -2.4820    -8.0120    -1.1140 C.ar  1 <1>  -0.1500 
 22 C        4.2800    -7.8570     1.7080 C.ar  1 <1>  -0.1500 
 23 C        3.8020   -10.0980     1.0580 C.ar  1 <1>  -0.1500 
 24 C       -2.3310    -9.2910    -0.5760 C.ar  1 <1>  -0.1500 
 25 C        5.4940    -8.2630     2.2300 C.ar  1 <1>  -0.1500 
 26 C        5.0150   -10.5110     1.5780 C.ar  1 <1>  -0.1500 
 27 C        5.8660    -9.5930     2.1660 C.ar  1 <1>  -0.1500 
 28 H        1.5650    -2.1600    -0.5090 H     1 <1>   0.0800 
 29 H        2.4400     0.0090    -0.6990 H     1 <1>   0.0800 
 30 H        3.6570    -1.0850    -1.3660 H     1 <1>   0.0800 
 31 H        0.2760    -2.8180     1.4600 H     1 <1>   0.0800 
 32 H        1.3060    -4.1960     1.6980 H     1 <1>   0.0800 
 33 H        3.3530    -4.5160     0.1420 H     1 <1>   0.0800 
 34 H        3.6440    -3.3760    -1.1310 H     1 <1>   0.0800 
 35 H        4.2380     1.5270     0.0700 H     1 <1>   0.0800 
 36 H        4.3520     1.2870    -1.6560 H     1 <1>   0.0800 
 37 H        5.4470     0.4390    -0.5910 H     1 <1>   0.0800 
 38 H       -0.4980    -3.7270    -0.6830 H     1 <1>   0.0800 
 39 H       -0.7050    -4.9150     0.5800 H     1 <1>   0.0800 
 40 H        2.6130    -5.4780    -1.9500 H     1 <1>   0.0800 
 41 H        1.6170    -4.0910    -2.2980 H     1 <1>   0.0800 
 42 H       -1.5430    -6.1460    -1.5010 H     1 <1>   0.1500 
 43 H       -0.9890   -10.6380     0.3910 H     1 <1>   0.1500 
 44 H       -3.4230    -7.7350    -1.5590 H     1 <1>   0.1500 
 45 H        4.0070    -6.8170     1.7690 H     1 <1>   0.1500 
 46 H        3.1520   -10.8260     0.6040 H     1 <1>   0.1500 
 47 H       -3.1570    -9.9800    -0.6070 H     1 <1>   0.1500 
 48 H        6.1500    -7.5420     2.6870 H     1 <1>   0.1500 
 49 H        5.2970   -11.5480     1.5250 H     1 <1>   0.1500 
 50 H        6.8100    -9.9110     2.5710 H     1 <1>   0.1500 
@<TRIPOS>BOND
  1   1   2  2   
  2   2   3  1   
  3   2   4  1   
  4   3   5  1   
  5   4   6  1   
  6   4   7  1   
  7   4  28  1   
  8   5   8  1   
  9   5  29  1   
 10   5  30  1   
 11   6   9  1   
 12   6  31  1   
 13   6  32  1   
 14   7  10  1   
 15   7  33  1   
 16   7  34  1   
 17   8  35  1   
 18   8  36  1   
 19   8  37  1   
 20   9  11  1   
 21   9  38  1   
 22   9  39  1   
 23  10  11  1   
 24  10  40  1   
 25  10  41  1   
 26  11  12  1   
 27  12  13  ar  
 28  12  14  ar  
 29  13  15  ar  
 30  14  16  ar  
 31  14  17  ar  
 32  15  18  ar  
 33  15  19  1   
 34  16  18  ar  
 35  16  20  ar  
 36  17  21  ar  
 37  17  42  1   
 38  19  22  ar  
 39  19  23  ar  
 40  20  24  ar  
 41  20  43  1   
 42  21  24  ar  
 43  21  44  1   
 44  22  25  ar  
 45  22  45  1   
 46  23  26  ar  
 47  23  46  1   
 48  24  47  1   
 49  25  27  ar  
 50  25  48  1   
 51  26  27  ar  
 52  26  49  1   
 53  27  50  1   
@<TRIPOS>SUBSTRUCTURE
  1 ****  13 GROUP 4 **** **** 0

# MOE 2024.06 (io_trps.svl 2023.06)
