@<TRIPOS>MOLECULE
NONAME
54 56 1 0 0 
SMALL
USER_CHARGES


@<TRIPOS>ATOM
  1 O        1.4250    -3.1450    -1.1870 O.2   1 <1>  -0.5700 
  2 C        1.0690    -1.9840    -1.2550 C.2   1 <1>   0.6900 
  3 N        1.9420    -1.0560    -1.7470 N.am  1 <1>  -0.6600 
  4 N       -0.1330    -1.5450    -0.7990 N.am  1 <1>  -0.5470 
  5 C        2.4770    -0.0430    -0.7950 C.3   1 <1>   0.1400 
  6 C        2.9540    -1.5130    -2.7420 C.3   1 <1>   0.1400 
  7 C       -1.1750    -2.1330    -0.0600 C.ar  1 <1>   0.1170 
  8 C        3.7100    -0.6140    -0.0640 C.3   1 <1>   0.3430 
  9 C        4.1820    -2.0930    -2.0150 C.3   1 <1>   0.3430 
 10 C       -2.1720    -1.2900     0.4420 C.ar  1 <1>   0.0830 
 11 C       -1.2630    -3.4980     0.1880 C.ar  1 <1>  -0.1500 
 12 N        4.7690    -1.1160    -1.0230 N.4   1 <1>  -0.9590 
 13 O       -2.0530     0.0470     0.1750 O.3   1 <1>  -0.3620 
 14 C       -3.2250    -1.8220     1.1790 C.ar  1 <1>  -0.1500 
 15 C       -2.3100    -4.0270     0.9230 C.ar  1 <1>  -0.1430 
 16 C        5.9690    -1.6980    -0.3540 C.3   1 <1>   0.4230 
 17 C       -3.0610     0.9580     0.5590 C.3   1 <1>   0.0400 
 18 C       -3.2910    -3.1840     1.4170 C.ar  1 <1>  -0.1500 
 19 C       -2.3900    -5.5210     1.1820 C.3   1 <1>  -0.0970 
 20 C        5.6180    -2.8260     0.6340 C.3   1 <1>  -0.1600 
 21 C        6.7700    -0.5900     0.3410 C.3   1 <1>  -0.1600 
 22 C        6.8930    -3.4040     1.2650 C.3   1 <1>  -0.1600 
 23 C        8.0480    -1.1600     0.9750 C.3   1 <1>  -0.1600 
 24 C        7.7240    -2.3060     1.9430 C.3   1 <1>  -0.1600 
 25 H       -0.3270    -0.5690    -1.0150 H     1 <1>   0.3700 
 26 H        1.7240     0.2140    -0.0690 H     1 <1>   0.0800 
 27 H        2.7400     0.8530    -1.3290 H     1 <1>   0.0800 
 28 H        3.2420    -0.6910    -3.3730 H     1 <1>   0.0800 
 29 H        2.5210    -2.2740    -3.3710 H     1 <1>   0.0800 
 30 H        3.3740    -1.4270     0.5590 H     1 <1>   0.0800 
 31 H        4.1220     0.1460     0.5770 H     1 <1>   0.0800 
 32 H        4.9260    -2.3730    -2.7430 H     1 <1>   0.0800 
 33 H        3.8690    -2.9890    -1.5030 H     1 <1>   0.0800 
 34 H       -0.5130    -4.1610    -0.1990 H     1 <1>   0.1500 
 35 H        5.0980    -0.3070    -1.5610 H     1 <1>   0.4500 
 36 H       -4.0030    -1.2010     1.5790 H     1 <1>   0.1500 
 37 H        6.6070    -2.1220    -1.1130 H     1 <1>   0.0800 
 38 H       -2.7800     1.9360     0.2140 H     1 <1>   0.0800 
 39 H       -3.1420     0.9590     1.6320 H     1 <1>   0.0800 
 40 H       -3.9900     0.6640     0.1020 H     1 <1>   0.0800 
 41 H       -4.1100    -3.5860     1.9870 H     1 <1>   0.1500 
 42 H       -1.4160    -5.9700     1.1120 H     1 <1>   0.0800 
 43 H       -3.0360    -5.9810     0.4560 H     1 <1>   0.0800 
 44 H       -2.7800    -5.7100     2.1660 H     1 <1>   0.0800 
 45 H        5.0970    -3.6210     0.1320 H     1 <1>   0.0800 
 46 H        4.9960    -2.4560     1.4290 H     1 <1>   0.0800 
 47 H        6.1850    -0.1330     1.1190 H     1 <1>   0.0800 
 48 H        7.0490     0.1660    -0.3720 H     1 <1>   0.0800 
 49 H        7.4900    -3.8850     0.5070 H     1 <1>   0.0800 
 50 H        6.6300    -4.1530     1.9930 H     1 <1>   0.0800 
 51 H        8.5690    -0.3810     1.5060 H     1 <1>   0.0800 
 52 H        8.7060    -1.5230     0.2030 H     1 <1>   0.0800 
 53 H        8.6420    -2.7300     2.3160 H     1 <1>   0.0800 
 54 H        7.1820    -1.9180     2.7900 H     1 <1>   0.0800 
@<TRIPOS>BOND
  1   1   2  2   
  2   2   3  am  
  3   2   4  am  
  4   3   5  1   
  5   3   6  1   
  6   4   7  1   
  7   4  25  1   
  8   5   8  1   
  9   5  26  1   
 10   5  27  1   
 11   6   9  1   
 12   6  28  1   
 13   6  29  1   
 14   7  10  ar  
 15   7  11  ar  
 16   8  12  1   
 17   8  30  1   
 18   8  31  1   
 19   9  12  1   
 20   9  32  1   
 21   9  33  1   
 22  10  13  1   
 23  10  14  ar  
 24  11  15  ar  
 25  11  34  1   
 26  12  16  1   
 27  12  35  1   
 28  13  17  1   
 29  14  18  ar  
 30  14  36  1   
 31  15  18  ar  
 32  15  19  1   
 33  16  20  1   
 34  16  21  1   
 35  16  37  1   
 36  17  38  1   
 37  17  39  1   
 38  17  40  1   
 39  18  41  1   
 40  19  42  1   
 41  19  43  1   
 42  19  44  1   
 43  20  22  1   
 44  20  45  1   
 45  20  46  1   
 46  21  23  1   
 47  21  47  1   
 48  21  48  1   
 49  22  24  1   
 50  22  49  1   
 51  22  50  1   
 52  23  24  1   
 53  23  51  1   
 54  23  52  1   
 55  24  53  1   
 56  24  54  1   
@<TRIPOS>SUBSTRUCTURE
  1 ****   2 GROUP 4 **** **** 0

# MOE 2024.06 (io_trps.svl 2023.06)
