@<TRIPOS>MOLECULE
NONAME
37 36 1 0 0 
SMALL
USER_CHARGES


@<TRIPOS>ATOM
  1 O       -0.5940    -0.5500    -1.6110 O.3   1 <1>  -0.6800 
  2 C       -0.9750    -1.8120    -1.2440 C.3   1 <1>   0.4800 
  3 C        0.3590    -1.9930    -0.5870 C.1   1 <1>  -0.2000 
  4 C       -2.0010    -1.2040    -0.2050 C.3   1 <1>  -0.1600 
  5 C       -1.4110    -3.2780    -0.9560 C.3   1 <1>  -0.2400 
  6 C        1.4210    -2.1200    -0.0600 C.1   1 <1>  -0.2000 
  7 C       -3.3080    -0.7220    -0.8680 C.3   1 <1>  -0.0220 
  8 C        2.7480    -2.2870     0.5960 C.3   1 <1>   0.4000 
  9 C       -4.2850    -0.2470     0.1970 C.2   1 <1>  -0.2880 
 10 O        3.6580    -1.6360    -0.1990 O.3   1 <1>  -0.6800 
 11 C        3.1770    -3.7550     0.6980 C.3   1 <1>  -0.1600 
 12 C       -5.4300    -0.8140     0.5990 C.2   1 <1>  -0.2760 
 13 C        2.2790    -4.5810     1.6340 C.3   1 <1>  -0.2400 
 14 C       -6.2900    -0.1790     1.6800 C.3   1 <1>  -0.1020 
 15 C       -6.0300    -2.1130     0.0790 C.3   1 <1>  -0.1020 
 16 H        0.2720    -0.4030    -1.1840 H     1 <1>   0.4000 
 17 H       -2.2930    -1.8670     0.5920 H     1 <1>   0.0800 
 18 H       -1.5810    -0.3720     0.3420 H     1 <1>   0.0800 
 19 H       -2.4410    -3.4360    -1.2190 H     1 <1>   0.0800 
 20 H       -1.2710    -3.6180     0.0600 H     1 <1>   0.0800 
 21 H       -0.8450    -3.9450    -1.5830 H     1 <1>   0.0800 
 22 H       -3.7330    -1.5090    -1.4580 H     1 <1>   0.0800 
 23 H       -3.1030     0.0970    -1.5370 H     1 <1>   0.0800 
 24 H        2.7580    -1.8160     1.5650 H     1 <1>   0.0800 
 25 H       -3.9390     0.6730     0.6390 H     1 <1>   0.1500 
 26 H        3.4660    -1.8650    -1.1270 H     1 <1>   0.4000 
 27 H        3.1640    -4.2020    -0.2810 H     1 <1>   0.0800 
 28 H        4.1850    -3.7910     1.0750 H     1 <1>   0.0800 
 29 H        1.2690    -4.6110     1.2640 H     1 <1>   0.0800 
 30 H        2.2730    -4.1550     2.6220 H     1 <1>   0.0800 
 31 H        2.6460    -5.5900     1.6990 H     1 <1>   0.0800 
 32 H       -7.2680     0.0410     1.2930 H     1 <1>   0.0800 
 33 H       -5.8500     0.7380     2.0300 H     1 <1>   0.0800 
 34 H       -6.3870    -0.8480     2.5170 H     1 <1>   0.0800 
 35 H       -6.1780    -2.7990     0.8940 H     1 <1>   0.0800 
 36 H       -5.3990    -2.5940    -0.6430 H     1 <1>   0.0800 
 37 H       -6.9810    -1.9180    -0.3830 H     1 <1>   0.0800 
@<TRIPOS>BOND
  1   1   2  1   
  2   1  16  1   
  3   2   3  1   
  4   2   4  1   
  5   2   5  1   
  6   3   6  3   
  7   4   7  1   
  8   4  17  1   
  9   4  18  1   
 10   5  19  1   
 11   5  20  1   
 12   5  21  1   
 13   6   8  1   
 14   7   9  1   
 15   7  22  1   
 16   7  23  1   
 17   8  10  1   
 18   8  11  1   
 19   8  24  1   
 20   9  12  2   
 21   9  25  1   
 22  10  26  1   
 23  11  13  1   
 24  11  27  1   
 25  11  28  1   
 26  12  14  1   
 27  12  15  1   
 28  13  29  1   
 29  13  30  1   
 30  13  31  1   
 31  14  32  1   
 32  14  33  1   
 33  14  34  1   
 34  15  35  1   
 35  15  36  1   
 36  15  37  1   
@<TRIPOS>SUBSTRUCTURE
  1 ****   4 GROUP 4 **** **** 0

# MOE 2024.06 (io_trps.svl 2023.06)
