@<TRIPOS>MOLECULE
NONAME
42 44 1 0 0 
SMALL
USER_CHARGES


@<TRIPOS>ATOM
  1 O        0.1010    -0.3160     1.1700 O.2   1 <1>  -0.5700 
  2 C        0.1710     0.8800     1.3180 C.2   1 <1>   0.5690 
  3 N        1.3130     1.6350     1.3410 N.am  1 <1>  -0.2370 
  4 C       -1.0390     1.7300     1.6080 C.3   1 <1>   0.2370 
  5 C        2.5890     1.2080     0.9100 C.ar  1 <1>   0.1170 
  6 C        1.0200     2.8870     1.8190 C.2   1 <1>   0.5690 
  7 N       -1.7270     1.9720     0.3210 N.pl3 1 <1>   0.3140 
  8 C       -0.4320     3.0080     2.2080 C.3   1 <1>  -0.0990 
  9 C        3.1370     0.0110     1.3610 C.ar  1 <1>  -0.1500 
 10 C        3.3270     1.9790     0.0170 C.ar  1 <1>  -0.1500 
 11 O        1.7950     3.7930     1.9820 O.2   1 <1>  -0.5700 
 12 N       -1.3140     2.9270    -0.5380 N.2   1 <1>  -0.7070 
 13 C       -2.7900     1.2980    -0.1770 C.2   1 <1>  -0.3320 
 14 C        4.3870    -0.3990     0.9330 C.ar  1 <1>  -0.1500 
 15 C        4.5770     1.5740    -0.4130 C.ar  1 <1>  -0.1500 
 16 C       -2.1200     2.8440    -1.5470 C.2   1 <1>   0.1080 
 17 C       -3.0670     1.8430    -1.3800 C.2   1 <1>  -0.1500 
 18 C       -3.4960     0.1380     0.5070 C.3   1 <1>  -0.0600 
 19 C        5.1160     0.3760     0.0470 C.ar  1 <1>   0.0830 
 20 C       -2.0060     3.7480    -2.7510 C.3   1 <1>  -0.0590 
 21 O        6.3340    -0.0990    -0.3210 O.3   1 <1>  -0.3630 
 22 C        7.1550     0.6210    -1.2100 C.3   1 <1>   0.1200 
 23 C        8.4430    -0.1730    -1.4100 C.3   1 <1>  -0.2400 
 24 H       -1.7030     1.2420     2.2940 H     1 <1>   0.0800 
 25 H       -0.5000     2.9960     3.2790 H     1 <1>   0.0800 
 26 H       -0.8700     3.9130     1.8260 H     1 <1>   0.0800 
 27 H        2.5850    -0.6070     2.0460 H     1 <1>   0.1500 
 28 H        2.9180     2.9080    -0.3410 H     1 <1>   0.1500 
 29 H        4.8060    -1.3250     1.2830 H     1 <1>   0.1500 
 30 H        5.1110     2.2020    -1.1000 H     1 <1>   0.1500 
 31 H       -3.8390     1.5770    -2.0800 H     1 <1>   0.1500 
 32 H       -3.9290     0.4570     1.4380 H     1 <1>   0.0800 
 33 H       -2.8010    -0.6620     0.6930 H     1 <1>   0.0800 
 34 H       -4.2820    -0.2370    -0.1240 H     1 <1>   0.0800 
 35 H       -1.0430     3.6150    -3.2080 H     1 <1>   0.0800 
 36 H       -2.1060     4.7720    -2.4410 H     1 <1>   0.0800 
 37 H       -2.7720     3.5190    -3.4680 H     1 <1>   0.0800 
 38 H        7.3650     1.5840    -0.7780 H     1 <1>   0.0800 
 39 H        6.6300     0.7340    -2.1430 H     1 <1>   0.0800 
 40 H        8.9500    -0.2950    -0.4700 H     1 <1>   0.0800 
 41 H        9.0930     0.3510    -2.0870 H     1 <1>   0.0800 
 42 H        8.2200    -1.1390    -1.8260 H     1 <1>   0.0800 
@<TRIPOS>BOND
  1   1   2  2   
  2   2   3  am  
  3   2   4  1   
  4   3   5  1   
  5   3   6  am  
  6   4   7  1   
  7   4   8  1   
  8   4  24  1   
  9   5   9  ar  
 10   5  10  ar  
 11   6   8  1   
 12   6  11  2   
 13   7  12  1   
 14   7  13  1   
 15   8  25  1   
 16   8  26  1   
 17   9  14  ar  
 18   9  27  1   
 19  10  15  ar  
 20  10  28  1   
 21  12  16  2   
 22  13  17  2   
 23  13  18  1   
 24  14  19  ar  
 25  14  29  1   
 26  15  19  ar  
 27  15  30  1   
 28  16  17  1   
 29  16  20  1   
 30  17  31  1   
 31  18  32  1   
 32  18  33  1   
 33  18  34  1   
 34  19  21  1   
 35  20  35  1   
 36  20  36  1   
 37  20  37  1   
 38  21  22  1   
 39  22  23  1   
 40  22  38  1   
 41  22  39  1   
 42  23  40  1   
 43  23  41  1   
 44  23  42  1   
@<TRIPOS>SUBSTRUCTURE
  1 ****   3 GROUP 4 **** **** 0

# MOE 2024.06 (io_trps.svl 2023.06)
