@<TRIPOS>MOLECULE
NONAME
55 57 1 0 0 
SMALL
USER_CHARGES


@<TRIPOS>ATOM
  1 S        0.2870     0.3190     0.1630 S.o2  1 <1>   1.4470 
  2 O        0.0850    -0.6350    -0.9050 O.2   1 <1>  -0.6500 
  3 O        0.1840    -0.1200     1.5390 O.2   1 <1>  -0.6500 
  4 N        1.8570     0.9330    -0.0190 N.am  1 <1>  -0.8490 
  5 C       -0.7600     1.7740    -0.1170 C.ar  1 <1>  -0.0090 
  6 C        2.2640     1.7830     1.0990 C.3   1 <1>   0.1960 
  7 C        2.8220    -0.1460    -0.2640 C.3   1 <1>   0.1960 
  8 C       -1.7520     2.1360     0.7590 C.ar  1 <1>  -0.1500 
  9 C       -0.5670     2.5710    -1.2590 C.ar  1 <1>  -0.1500 
 10 C        3.5290     2.5710     0.7220 C.3   1 <1>  -0.1600 
 11 C        4.2790     0.3490    -0.2060 C.3   1 <1>  -0.1600 
 12 C       -2.5650     3.2690     0.5560 C.ar  1 <1>   0.0000 
 13 C       -1.3370     3.6770    -1.4900 C.ar  1 <1>  -0.1500 
 14 C        4.3710     1.8770    -0.3700 C.3   1 <1>  -0.0190 
 15 C       -2.3520     4.0580    -0.5930 C.ar  1 <1>   0.0000 
 16 C       -3.5810     3.6450     1.4570 C.ar  1 <1>  -0.1500 
 17 C        5.8020     2.4020    -0.4140 C.2   1 <1>   0.5690 
 18 C       -3.1620     5.1940    -0.7960 C.ar  1 <1>  -0.1500 
 19 C       -4.3530     4.7520     1.2360 C.ar  1 <1>  -0.1500 
 20 O        6.1400     3.1180    -1.3240 O.2   1 <1>  -0.5700 
 21 N        6.6890     2.0440     0.5540 N.am  1 <1>  -0.7300 
 22 C       -4.1410     5.5350     0.0960 C.ar  1 <1>  -0.1500 
 23 C        8.0380     2.6480     0.7850 C.3   1 <1>   0.1400 
 24 C        9.1090     2.1330    -0.2020 C.3   1 <1>   0.3430 
 25 N        8.8050     2.5270    -1.6120 N.4   1 <1>  -0.9590 
 26 C        9.3420     1.5570    -2.6080 C.3   1 <1>   0.2630 
 27 C        9.2220     3.9260    -1.9230 C.3   1 <1>   0.2630 
 28 H        2.4510     1.1690     1.9650 H     1 <1>   0.0800 
 29 H        1.4780     2.4780     1.3490 H     1 <1>   0.0800 
 30 H        2.6280    -0.5560    -1.2430 H     1 <1>   0.0800 
 31 H        2.6820    -0.9370     0.4550 H     1 <1>   0.0800 
 32 H       -1.9280     1.5430     1.6400 H     1 <1>   0.1500 
 33 H        0.2070     2.2880    -1.9530 H     1 <1>   0.1500 
 34 H        4.1090     2.7180     1.6150 H     1 <1>   0.0800 
 35 H        3.2410     3.5450     0.3680 H     1 <1>   0.0800 
 36 H        4.8450    -0.1440    -0.9770 H     1 <1>   0.0800 
 37 H        4.6980     0.0550     0.7400 H     1 <1>   0.0800 
 38 H       -1.1770     4.2770    -2.3680 H     1 <1>   0.1500 
 39 H        3.9230     2.1160    -1.3210 H     1 <1>   0.0800 
 40 H       -3.7410     3.0390     2.3320 H     1 <1>   0.1500 
 41 H       -2.9960     5.7920    -1.6740 H     1 <1>   0.1500 
 42 H       -5.1270     5.0340     1.9280 H     1 <1>   0.1500 
 43 H        6.3400     1.4530     1.3150 H     1 <1>   0.3700 
 44 H       -4.7570     6.4030    -0.0640 H     1 <1>   0.1500 
 45 H        8.3510     2.4130     1.7880 H     1 <1>   0.0800 
 46 H        7.9650     3.7200     0.7130 H     1 <1>   0.0800 
 47 H        9.1460     1.0590    -0.1240 H     1 <1>   0.0800 
 48 H       10.0750     2.5180     0.0800 H     1 <1>   0.0800 
 49 H        7.7600     2.5300    -1.6800 H     1 <1>   0.4500 
 50 H       10.4190     1.5360    -2.5700 H     1 <1>   0.0800 
 51 H        9.0370     1.8390    -3.6030 H     1 <1>   0.0800 
 52 H        8.9680     0.5670    -2.4050 H     1 <1>   0.0800 
 53 H       10.2910     4.0300    -1.8390 H     1 <1>   0.0800 
 54 H        8.7470     4.6150    -1.2440 H     1 <1>   0.0800 
 55 H        8.9250     4.1860    -2.9270 H     1 <1>   0.0800 
@<TRIPOS>BOND
  1   1   2  2   
  2   1   3  2   
  3   1   4  am  
  4   1   5  1   
  5   4   6  1   
  6   4   7  1   
  7   5   8  ar  
  8   5   9  ar  
  9   6  10  1   
 10   6  28  1   
 11   6  29  1   
 12   7  11  1   
 13   7  30  1   
 14   7  31  1   
 15   8  12  ar  
 16   8  32  1   
 17   9  13  ar  
 18   9  33  1   
 19  10  14  1   
 20  10  34  1   
 21  10  35  1   
 22  11  14  1   
 23  11  36  1   
 24  11  37  1   
 25  12  15  ar  
 26  12  16  ar  
 27  13  15  ar  
 28  13  38  1   
 29  14  17  1   
 30  14  39  1   
 31  15  18  ar  
 32  16  19  ar  
 33  16  40  1   
 34  17  20  2   
 35  17  21  am  
 36  18  22  ar  
 37  18  41  1   
 38  19  22  ar  
 39  19  42  1   
 40  21  23  1   
 41  21  43  1   
 42  22  44  1   
 43  23  24  1   
 44  23  45  1   
 45  23  46  1   
 46  24  25  1   
 47  24  47  1   
 48  24  48  1   
 49  25  26  1   
 50  25  27  1   
 51  25  49  1   
 52  26  50  1   
 53  26  51  1   
 54  26  52  1   
 55  27  53  1   
 56  27  54  1   
 57  27  55  1   
@<TRIPOS>SUBSTRUCTURE
  1 ****   6 GROUP 4 **** **** 0

# MOE 2024.06 (io_trps.svl 2023.06)
