@<TRIPOS>MOLECULE
NONAME
36 36 1 0 0 
SMALL
USER_CHARGES


@<TRIPOS>ATOM
  1 I        0.2250     0.3100    -1.4230 I     1 <1>  -0.0810 
  2 C       -0.9360     2.0070    -0.8340 C.ar  1 <1>   0.0810 
  3 C       -0.3070     3.1790    -0.4330 C.ar  1 <1>   0.0830 
  4 C       -2.3100     1.8700    -0.8650 C.ar  1 <1>  -0.1500 
  5 O        1.0460     3.2490    -0.3890 O.3   1 <1>  -0.3630 
  6 C       -1.1270     4.2590    -0.0880 C.ar  1 <1>   0.0830 
  7 C       -3.1320     2.9320    -0.4830 C.ar  1 <1>   0.0860 
  8 C        1.6400     3.4010     0.8820 C.3   1 <1>   0.0400 
  9 O       -0.6320     5.4680     0.2710 O.3   1 <1>  -0.3630 
 10 C       -2.5050     4.1230    -0.1040 C.ar  1 <1>  -0.1500 
 11 C       -4.5770     2.7940    -0.4900 C.2   1 <1>   0.5440 
 12 C        0.0480     6.1920    -0.7300 C.3   1 <1>   0.1200 
 13 O       -5.1170     1.9860    -1.2200 O.2   1 <1>  -0.5700 
 14 N       -5.3560     3.5570     0.3360 N.am  1 <1>  -0.7300 
 15 C        0.3890     7.5680    -0.1680 C.3   1 <1>  -0.2400 
 16 C       -6.8320     3.5270     0.3890 C.3   1 <1>   0.1400 
 17 C       -7.3560     4.9620     0.4490 C.3   1 <1>  -0.1600 
 18 C       -8.8870     4.9940     0.5050 C.3   1 <1>  -0.2400 
 19 H       -2.7570     0.9430    -1.1810 H     1 <1>   0.1500 
 20 H        2.7070     3.3370     0.7640 H     1 <1>   0.0800 
 21 H        1.2930     2.6100     1.5240 H     1 <1>   0.0800 
 22 H        1.3740     4.3590     1.2900 H     1 <1>   0.0800 
 23 H       -3.0980     4.9750     0.1710 H     1 <1>   0.1500 
 24 H       -0.5980     6.2760    -1.5870 H     1 <1>   0.0800 
 25 H        0.9430     5.6600    -1.0020 H     1 <1>   0.0800 
 26 H       -4.9070     4.1470     1.0370 H     1 <1>   0.3700 
 27 H       -0.5100     8.0890     0.1070 H     1 <1>   0.0800 
 28 H        0.9080     8.1450    -0.9110 H     1 <1>   0.0800 
 29 H        1.0250     7.4670     0.6940 H     1 <1>   0.0800 
 30 H       -7.1450     2.9780     1.2610 H     1 <1>   0.0800 
 31 H       -7.2220     3.0300    -0.4840 H     1 <1>   0.0800 
 32 H       -7.0270     5.4940    -0.4270 H     1 <1>   0.0800 
 33 H       -6.9630     5.4540     1.3210 H     1 <1>   0.0800 
 34 H       -9.3050     4.5230    -0.3680 H     1 <1>   0.0800 
 35 H       -9.2330     6.0120     0.5420 H     1 <1>   0.0800 
 36 H       -9.2440     4.4790     1.3810 H     1 <1>   0.0800 
@<TRIPOS>BOND
  1   1   2  1   
  2   2   3  ar  
  3   2   4  ar  
  4   3   5  1   
  5   3   6  ar  
  6   4   7  ar  
  7   4  19  1   
  8   5   8  1   
  9   6   9  1   
 10   6  10  ar  
 11   7  10  ar  
 12   7  11  1   
 13   8  20  1   
 14   8  21  1   
 15   8  22  1   
 16   9  12  1   
 17  10  23  1   
 18  11  13  2   
 19  11  14  am  
 20  12  15  1   
 21  12  24  1   
 22  12  25  1   
 23  14  16  1   
 24  14  26  1   
 25  15  27  1   
 26  15  28  1   
 27  15  29  1   
 28  16  17  1   
 29  16  30  1   
 30  16  31  1   
 31  17  18  1   
 32  17  32  1   
 33  17  33  1   
 34  18  34  1   
 35  18  35  1   
 36  18  36  1   
@<TRIPOS>SUBSTRUCTURE
  1 ****  10 GROUP 4 **** **** 0

# MOE 2024.06 (io_trps.svl 2023.06)
