@<TRIPOS>MOLECULE
NONAME
33 34 1 0 0 
SMALL
USER_CHARGES


@<TRIPOS>ATOM
  1 F       -2.5560    -0.6500    -2.6630 F     1 <1>  -0.1900 
  2 C       -2.6640    -0.9200    -1.3870 C.ar  1 <1>   0.1900 
  3 C       -1.6030    -1.4870    -0.6990 C.ar  1 <1>   0.1900 
  4 C       -3.8500    -0.6280    -0.7430 C.ar  1 <1>  -0.1500 
  5 F       -0.4810    -1.7610    -1.3170 F     1 <1>  -0.1900 
  6 C       -1.7090    -1.7730     0.6490 C.ar  1 <1>  -0.1500 
  7 C       -3.9750    -0.9170     0.6120 C.ar  1 <1>   0.1000 
  8 C       -2.9010    -1.4830     1.2970 C.ar  1 <1>  -0.1500 
  9 N       -5.1590    -0.6330     1.2980 N.pl3 1 <1>  -0.6000 
 10 C       -6.4410    -1.0710     1.0350 C.2   1 <1>  -0.0380 
 11 C       -7.5230    -0.6130     1.7120 C.2   1 <1>  -0.1360 
 12 C       -6.6310    -2.1180    -0.0650 C.3   1 <1>  -0.0220 
 13 C       -8.8620    -1.0130     1.4770 C.2   1 <1>   0.4950 
 14 C       -7.9300    -2.9430     0.1010 C.3   1 <1>   0.0000 
 15 O       -9.7990    -0.5920     2.1100 O.2   1 <1>  -0.5700 
 16 C       -9.1290    -2.0040     0.3580 C.3   1 <1>  -0.0990 
 17 C       -8.1880    -3.7580    -1.1760 C.3   1 <1>  -0.2400 
 18 C       -7.7790    -3.9300     1.2750 C.3   1 <1>  -0.2400 
 19 H       -4.6620    -0.1780    -1.2820 H     1 <1>   0.1500 
 20 H       -0.8790    -2.2130     1.1740 H     1 <1>   0.1500 
 21 H       -3.0060    -1.7030     2.3450 H     1 <1>   0.1500 
 22 H       -5.0360    -0.0400     2.1250 H     1 <1>   0.4000 
 23 H       -7.4110     0.1140     2.4920 H     1 <1>   0.1500 
 24 H       -5.7940    -2.7940    -0.0730 H     1 <1>   0.0800 
 25 H       -6.6460    -1.6080    -1.0110 H     1 <1>   0.0800 
 26 H       -9.3480    -1.4370    -0.5280 H     1 <1>   0.0800 
 27 H      -10.0040    -2.5790     0.6030 H     1 <1>   0.0800 
 28 H       -8.3060    -3.1100    -2.0260 H     1 <1>   0.0800 
 29 H       -9.0830    -4.3480    -1.0750 H     1 <1>   0.0800 
 30 H       -7.3650    -4.4250    -1.3720 H     1 <1>   0.0800 
 31 H       -7.5790    -3.4150     2.1980 H     1 <1>   0.0800 
 32 H       -6.9650    -4.6100     1.0940 H     1 <1>   0.0800 
 33 H       -8.6770    -4.5090     1.4020 H     1 <1>   0.0800 
@<TRIPOS>BOND
  1   1   2  1   
  2   2   3  ar  
  3   2   4  ar  
  4   3   5  1   
  5   3   6  ar  
  6   4   7  ar  
  7   4  19  1   
  8   6   8  ar  
  9   6  20  1   
 10   7   8  ar  
 11   7   9  1   
 12   8  21  1   
 13   9  10  1   
 14   9  22  1   
 15  10  11  2   
 16  10  12  1   
 17  11  13  1   
 18  11  23  1   
 19  12  14  1   
 20  12  24  1   
 21  12  25  1   
 22  13  15  2   
 23  13  16  1   
 24  14  16  1   
 25  14  17  1   
 26  14  18  1   
 27  16  26  1   
 28  16  27  1   
 29  17  28  1   
 30  17  29  1   
 31  17  30  1   
 32  18  31  1   
 33  18  32  1   
 34  18  33  1   
@<TRIPOS>SUBSTRUCTURE
  1 ****  12 GROUP 4 **** **** 0

# MOE 2024.06 (io_trps.svl 2023.06)
