@<TRIPOS>MOLECULE
NONAME
40 41 1 0 0 
SMALL
USER_CHARGES


@<TRIPOS>ATOM
  1 S        0.5470    -0.5510    -0.0180 S.3   1 <1>  -0.3320 
  2 C       -1.1700    -0.9870    -0.2110 C.ar  1 <1>   0.7220 
  3 C        1.0620     0.0310    -1.7110 C.3   1 <1>   0.1310 
  4 N       -1.7510    -1.4360     0.8870 N.ar  1 <1>  -0.6200 
  5 N       -1.6750    -0.8170    -1.4230 N.ar  1 <1>  -0.6200 
  6 C        2.5210     0.4590    -1.7460 C.2   1 <1>   0.5690 
  7 C       -3.0150    -1.7580     0.7480 C.ar  1 <1>   0.1660 
  8 C       -2.9430    -1.1490    -1.5270 C.ar  1 <1>   0.1600 
  9 O        2.9830     0.7730    -2.8160 O.2   1 <1>  -0.5700 
 10 N        3.2350     0.4630    -0.5770 N.am  1 <1>  -0.5470 
 11 C       -3.6650    -1.6300    -0.4590 C.ar  1 <1>  -0.1500 
 12 C       -3.7300    -2.2780     1.9770 C.3   1 <1>  -0.0970 
 13 C        4.5630     0.8010    -0.2730 C.ar  1 <1>   0.1170 
 14 C        5.4140     1.4570    -1.1560 C.ar  1 <1>  -0.1500 
 15 C        5.0550     0.4730     0.9840 C.ar  1 <1>  -0.1500 
 16 C        6.7120     1.7680    -0.7940 C.ar  1 <1>  -0.1500 
 17 C        6.3520     0.7840     1.3490 C.ar  1 <1>  -0.1500 
 18 C        7.1970     1.4350     0.4630 C.ar  1 <1>  -0.1430 
 19 C        8.6280     1.7710     0.8780 C.3   1 <1>   0.0630 
 20 C        8.8590     3.2860     0.8670 C.3   1 <1>  -0.2400 
 21 C        9.6410     1.0600    -0.0260 C.3   1 <1>  -0.2400 
 22 H        0.4280     0.8580    -1.9720 H     1 <1>   0.0800 
 23 H        0.8980    -0.7830    -2.3930 H     1 <1>   0.0800 
 24 H       -3.4180    -1.0350    -2.4880 H     1 <1>   0.1500 
 25 H        2.6940     0.1290     0.2230 H     1 <1>   0.3700 
 26 H       -4.7000    -1.8940    -0.5710 H     1 <1>   0.1500 
 27 H       -3.7000    -1.5340     2.7530 H     1 <1>   0.0800 
 28 H       -3.2370    -3.1650     2.3310 H     1 <1>   0.0800 
 29 H       -4.7560    -2.5120     1.7600 H     1 <1>   0.0800 
 30 H        5.0710     1.7330    -2.1350 H     1 <1>   0.1500 
 31 H        4.4190    -0.0330     1.6880 H     1 <1>   0.1500 
 32 H        7.3450     2.2730    -1.5010 H     1 <1>   0.1500 
 33 H        6.7020     0.5140     2.3300 H     1 <1>   0.1500 
 34 H        8.7870     1.4230     1.8850 H     1 <1>   0.0800 
 35 H        8.7610     3.6810    -0.1280 H     1 <1>   0.0800 
 36 H        9.8430     3.5160     1.2340 H     1 <1>   0.0800 
 37 H        8.1350     3.7690     1.5000 H     1 <1>   0.0800 
 38 H        9.5600     1.4080    -1.0390 H     1 <1>   0.0800 
 39 H        9.4590     0.0000    -0.0120 H     1 <1>   0.0800 
 40 H       10.6420     1.2410     0.3220 H     1 <1>   0.0800 
@<TRIPOS>BOND
  1   1   2  1   
  2   1   3  1   
  3   2   4  ar  
  4   2   5  ar  
  5   3   6  1   
  6   3  22  1   
  7   3  23  1   
  8   4   7  ar  
  9   5   8  ar  
 10   6   9  2   
 11   6  10  am  
 12   7  11  ar  
 13   7  12  1   
 14   8  11  ar  
 15   8  24  1   
 16  10  13  1   
 17  10  25  1   
 18  11  26  1   
 19  12  27  1   
 20  12  28  1   
 21  12  29  1   
 22  13  14  ar  
 23  13  15  ar  
 24  14  16  ar  
 25  14  30  1   
 26  15  17  ar  
 27  15  31  1   
 28  16  18  ar  
 29  16  32  1   
 30  17  18  ar  
 31  17  33  1   
 32  18  19  1   
 33  19  20  1   
 34  19  21  1   
 35  19  34  1   
 36  20  35  1   
 37  20  36  1   
 38  20  37  1   
 39  21  38  1   
 40  21  39  1   
 41  21  40  1   
@<TRIPOS>SUBSTRUCTURE
  1 ****  10 GROUP 4 **** **** 0

# MOE 2024.06 (io_trps.svl 2023.06)
