@<TRIPOS>MOLECULE
NONAME
27 28 1 0 0 
SMALL
USER_CHARGES


@<TRIPOS>ATOM
  1 S       -1.3180     1.0730    -0.8130 S.3   1 <1>  -0.0800 
  2 C       -0.1760     1.3120     0.4610 C.2   1 <1>   0.4620 
  3 C       -1.6160    -0.5030    -0.1510 C.2   1 <1>   0.1980 
  4 N       -0.0600     0.2920     1.2290 N.2   1 <1>  -0.3380 
  5 N        0.4670     2.5090     0.5440 N.pl3 1 <1>  -0.8840 
  6 N       -0.8850    -0.7390     0.8700 N.2   1 <1>  -0.3380 
  7 C       -2.6490    -1.3920    -0.8600 C.3   1 <1>   0.1000 
  8 C       -4.1070    -0.9850    -0.5590 C.3   1 <1>  -0.1860 
  9 C       -2.4510    -2.8960    -0.5300 C.3   1 <1>  -0.1600 
 10 C       -4.4460     0.3710    -1.1600 C.2   1 <1>   0.9060 
 11 C       -4.4280    -1.1370     0.9490 C.3   1 <1>  -0.1600 
 12 C       -3.4140    -3.4510     0.5420 C.3   1 <1>  -0.1600 
 13 O       -4.8090     1.3060    -0.4380 O.co2 1 <1>  -0.9000 
 14 O       -4.3530     0.4870    -2.3870 O.co2 1 <1>  -0.9000 
 15 C       -3.7920    -2.3900     1.5850 C.3   1 <1>  -0.1600 
 16 H        1.0020     2.7210     1.3850 H     1 <1>   0.4000 
 17 H        0.1170     3.3050     0.0100 H     1 <1>   0.4000 
 18 H       -2.4790    -1.2720    -1.9170 H     1 <1>   0.0800 
 19 H       -4.7400    -1.6690    -1.0920 H     1 <1>   0.0800 
 20 H       -1.4350    -3.0660    -0.2210 H     1 <1>   0.0800 
 21 H       -2.5980    -3.4650    -1.4310 H     1 <1>   0.0800 
 22 H       -5.4980    -1.1670     1.0640 H     1 <1>   0.0800 
 23 H       -4.0780    -0.2670     1.4790 H     1 <1>   0.0800 
 24 H       -2.9630    -4.2980     1.0280 H     1 <1>   0.0800 
 25 H       -4.3160    -3.7920     0.0630 H     1 <1>   0.0800 
 26 H       -4.4690    -2.8080     2.3080 H     1 <1>   0.0800 
 27 H       -2.9010    -2.0970     2.1130 H     1 <1>   0.0800 
@<TRIPOS>BOND
  1   1   2  1   
  2   1   3  1   
  3   2   4  2   
  4   2   5  1   
  5   3   6  2   
  6   3   7  1   
  7   4   6  1   
  8   5  16  1   
  9   5  17  1   
 10   7   8  1   
 11   7   9  1   
 12   7  18  1   
 13   8  10  1   
 14   8  11  1   
 15   8  19  1   
 16   9  12  1   
 17   9  20  1   
 18   9  21  1   
 19  10  13  ar  
 20  10  14  ar  
 21  11  15  1   
 22  11  22  1   
 23  11  23  1   
 24  12  15  1   
 25  12  24  1   
 26  12  25  1   
 27  15  26  1   
 28  15  27  1   
@<TRIPOS>SUBSTRUCTURE
  1 ****   3 GROUP 4 **** **** 0

# MOE 2024.06 (io_trps.svl 2023.06)
