@<TRIPOS>MOLECULE
NONAME
56 58 1 0 0 
SMALL
USER_CHARGES


@<TRIPOS>ATOM
  1 O       -0.8420    -1.6090    -2.3770 O.2   1 <1>  -0.5700 
  2 C        0.1500    -2.0800    -1.8540 C.2   1 <1>   0.5440 
  3 N        1.3030    -1.3130    -1.8280 N.am  1 <1>  -0.6600 
  4 C        0.0820    -3.3950    -1.2570 C.ar  1 <1>   0.0860 
  5 C        1.2310     0.1440    -2.1340 C.3   1 <1>   0.1400 
  6 C        2.5230    -1.6700    -1.0410 C.3   1 <1>   0.1400 
  7 C       -0.7670    -3.6670    -0.1710 C.ar  1 <1>   0.1170 
  8 C        0.8630    -4.4350    -1.7650 C.ar  1 <1>  -0.1500 
  9 C        1.1860     0.9210    -0.8100 C.3   1 <1>   0.3430 
 10 C        2.6110    -0.8410     0.2580 C.3   1 <1>   0.3430 
 11 N       -1.6460    -2.7180     0.3640 N.am  1 <1>  -0.5470 
 12 C       -0.7810    -4.9420     0.3820 C.ar  1 <1>  -0.1500 
 13 C        0.8380    -5.6970    -1.2060 C.ar  1 <1>  -0.1500 
 14 N        2.3920     0.6420     0.0560 N.4   1 <1>  -0.9590 
 15 C       -1.3840    -1.5280     0.9910 C.2   1 <1>   0.5690 
 16 C        0.0150    -5.9500    -0.1230 C.ar  1 <1>  -0.1500 
 17 C        2.2150     1.2980     1.3840 C.3   1 <1>   0.2630 
 18 O       -0.2490    -1.1670     1.2200 O.2   1 <1>  -0.5700 
 19 C       -2.5750    -0.6540     1.4380 C.3   1 <1>   0.2610 
 20 O       -3.4070    -0.3420     0.3280 O.3   1 <1>  -0.3630 
 21 C       -2.1620     0.6770     2.1000 C.3   1 <1>  -0.1600 
 22 C       -4.2350    -1.2970    -0.1480 C.ar  1 <1>   0.0820 
 23 C       -3.3610     1.5030     2.5930 C.3   1 <1>  -0.2400 
 24 C       -4.1070    -1.6740    -1.4740 C.ar  1 <1>  -0.1500 
 25 C       -5.1780    -1.9120     0.6650 C.ar  1 <1>  -0.1500 
 26 C       -4.8970    -2.6890    -1.9830 C.ar  1 <1>  -0.1500 
 27 C       -5.9670    -2.9270     0.1530 C.ar  1 <1>  -0.1500 
 28 C       -5.8240    -3.3180    -1.1680 C.ar  1 <1>  -0.1500 
 29 H        0.3530     0.3750    -2.7140 H     1 <1>   0.0800 
 30 H        2.0870     0.4380    -2.7150 H     1 <1>   0.0800 
 31 H        3.3950    -1.4870    -1.6440 H     1 <1>   0.0800 
 32 H        2.5270    -2.7130    -0.7830 H     1 <1>   0.0800 
 33 H        1.4940    -4.2460    -2.6170 H     1 <1>   0.1500 
 34 H        0.2890     0.6320    -0.2860 H     1 <1>   0.0800 
 35 H        1.1210     1.9760    -1.0200 H     1 <1>   0.0800 
 36 H        3.5750    -1.0060     0.7110 H     1 <1>   0.0800 
 37 H        1.8780    -1.2240     0.9440 H     1 <1>   0.0800 
 38 H       -2.6280    -2.8470     0.0920 H     1 <1>   0.3700 
 39 H       -1.4280    -5.1460     1.2170 H     1 <1>   0.1500 
 40 H        1.4500    -6.4860    -1.6100 H     1 <1>   0.1500 
 41 H        3.2190     1.0280    -0.4160 H     1 <1>   0.4500 
 42 H       -0.0080    -6.9330     0.3180 H     1 <1>   0.1500 
 43 H        1.3520     0.8880     1.8850 H     1 <1>   0.0800 
 44 H        2.0730     2.3600     1.2630 H     1 <1>   0.0800 
 45 H        3.0820     1.1340     2.0030 H     1 <1>   0.0800 
 46 H       -3.1510    -1.2160     2.1480 H     1 <1>   0.0800 
 47 H       -1.5900     1.2560     1.3980 H     1 <1>   0.0800 
 48 H       -1.5280     0.4600     2.9410 H     1 <1>   0.0800 
 49 H       -3.9950     1.7810     1.7690 H     1 <1>   0.0800 
 50 H       -3.0180     2.4030     3.0730 H     1 <1>   0.0800 
 51 H       -3.9440     0.9400     3.3000 H     1 <1>   0.0800 
 52 H       -3.3850    -1.1810    -2.1020 H     1 <1>   0.1500 
 53 H       -5.3050    -1.6000     1.6850 H     1 <1>   0.1500 
 54 H       -4.7890    -2.9860    -3.0120 H     1 <1>   0.1500 
 55 H       -6.6980    -3.4100     0.7780 H     1 <1>   0.1500 
 56 H       -6.4380    -4.1080    -1.5660 H     1 <1>   0.1500 
@<TRIPOS>BOND
  1   1   2  2   
  2   2   3  am  
  3   2   4  1   
  4   3   5  1   
  5   3   6  1   
  6   4   7  ar  
  7   4   8  ar  
  8   5   9  1   
  9   5  29  1   
 10   5  30  1   
 11   6  10  1   
 12   6  31  1   
 13   6  32  1   
 14   7  11  1   
 15   7  12  ar  
 16   8  13  ar  
 17   8  33  1   
 18   9  14  1   
 19   9  34  1   
 20   9  35  1   
 21  10  14  1   
 22  10  36  1   
 23  10  37  1   
 24  11  15  am  
 25  11  38  1   
 26  12  16  ar  
 27  12  39  1   
 28  13  16  ar  
 29  13  40  1   
 30  14  17  1   
 31  14  41  1   
 32  15  18  2   
 33  15  19  1   
 34  16  42  1   
 35  17  43  1   
 36  17  44  1   
 37  17  45  1   
 38  19  20  1   
 39  19  21  1   
 40  19  46  1   
 41  20  22  1   
 42  21  23  1   
 43  21  47  1   
 44  21  48  1   
 45  22  24  ar  
 46  22  25  ar  
 47  23  49  1   
 48  23  50  1   
 49  23  51  1   
 50  24  26  ar  
 51  24  52  1   
 52  25  27  ar  
 53  25  53  1   
 54  26  28  ar  
 55  26  54  1   
 56  27  28  ar  
 57  27  55  1   
 58  28  56  1   
@<TRIPOS>SUBSTRUCTURE
  1 ****  11 GROUP 4 **** **** 0

# MOE 2024.06 (io_trps.svl 2023.06)
