@<TRIPOS>MOLECULE
NONAME
40 41 1 0 0 
SMALL
USER_CHARGES


@<TRIPOS>ATOM
  1 O       -0.8340     0.4940     1.5070 O.2   1 <1>  -0.5700 
  2 C       -0.7310     1.4890     0.8280 C.2   1 <1>   0.5690 
  3 N       -1.5790     2.5590     0.9710 N.am  1 <1>  -0.6600 
  4 C        0.3810     1.5090    -0.1950 C.3   1 <1>  -0.1790 
  5 C       -1.5400     3.7930     0.1210 C.3   1 <1>   0.1400 
  6 C       -2.7210     2.4910     1.9310 C.3   1 <1>   0.1400 
  7 C       -2.9050     4.1340    -0.5250 C.3   1 <1>   0.0000 
  8 C       -4.0800     2.7820     1.2560 C.3   1 <1>   0.0000 
  9 C       -3.9810     4.1640     0.5790 C.3   1 <1>   0.2000 
 10 C       -3.2920     3.0880    -1.5960 C.3   1 <1>   0.1400 
 11 C       -2.7760     5.5160    -1.2030 C.3   1 <1>  -0.2400 
 12 C       -4.4310     1.6950     0.2080 C.3   1 <1>   0.1400 
 13 C       -5.1610     2.7820     2.3580 C.3   1 <1>  -0.2400 
 14 O       -5.2150     4.5360     0.0500 O.3   1 <1>  -0.6800 
 15 N       -3.5670     1.7320    -1.0210 N.am  1 <1>  -0.6600 
 16 C       -2.9580     0.6270    -1.5630 C.2   1 <1>   0.5690 
 17 O       -2.2470     0.7000    -2.5380 O.2   1 <1>  -0.5700 
 18 C       -3.1550    -0.7460    -0.9620 C.3   1 <1>  -0.1790 
 19 H        1.0310     2.3430    -0.0150 H     1 <1>   0.0800 
 20 H       -0.0350     1.5710    -1.1830 H     1 <1>   0.0800 
 21 H        0.9540     0.6030    -0.1240 H     1 <1>   0.0800 
 22 H       -0.8060     3.6950    -0.6570 H     1 <1>   0.0800 
 23 H       -1.2330     4.6110     0.7490 H     1 <1>   0.0800 
 24 H       -2.5440     3.2110     2.7110 H     1 <1>   0.0800 
 25 H       -2.7620     1.5210     2.3970 H     1 <1>   0.0800 
 26 H       -3.7220     4.9070     1.3150 H     1 <1>   0.0800 
 27 H       -2.4990     3.0310    -2.3220 H     1 <1>   0.0800 
 28 H       -4.1720     3.4140    -2.1220 H     1 <1>   0.0800 
 29 H       -1.9960     5.5050    -1.9440 H     1 <1>   0.0800 
 30 H       -2.5450     6.2740    -0.4750 H     1 <1>   0.0800 
 31 H       -3.6950     5.7930    -1.6900 H     1 <1>   0.0800 
 32 H       -5.4520     1.8230    -0.1050 H     1 <1>   0.0800 
 33 H       -4.3650     0.7360     0.6870 H     1 <1>   0.0800 
 34 H       -4.9610     3.5520     3.0830 H     1 <1>   0.0800 
 35 H       -5.1860     1.8350     2.8670 H     1 <1>   0.0800 
 36 H       -6.1370     2.9660     1.9420 H     1 <1>   0.0800 
 37 H       -5.4870     3.8950    -0.6320 H     1 <1>   0.4000 
 38 H       -4.1990    -0.9890    -0.9330 H     1 <1>   0.0800 
 39 H       -2.7430    -0.7710     0.0290 H     1 <1>   0.0800 
 40 H       -2.6460    -1.4790    -1.5600 H     1 <1>   0.0800 
@<TRIPOS>BOND
  1   1   2  2   
  2   2   3  am  
  3   2   4  1   
  4   3   5  1   
  5   3   6  1   
  6   4  19  1   
  7   4  20  1   
  8   4  21  1   
  9   5   7  1   
 10   5  22  1   
 11   5  23  1   
 12   6   8  1   
 13   6  24  1   
 14   6  25  1   
 15   7   9  1   
 16   7  10  1   
 17   7  11  1   
 18   8   9  1   
 19   8  12  1   
 20   8  13  1   
 21   9  14  1   
 22   9  26  1   
 23  10  15  1   
 24  10  27  1   
 25  10  28  1   
 26  11  29  1   
 27  11  30  1   
 28  11  31  1   
 29  12  15  1   
 30  12  32  1   
 31  12  33  1   
 32  13  34  1   
 33  13  35  1   
 34  13  36  1   
 35  14  37  1   
 36  15  16  am  
 37  16  17  2   
 38  16  18  1   
 39  18  38  1   
 40  18  39  1   
 41  18  40  1   
@<TRIPOS>SUBSTRUCTURE
  1 ****  15 GROUP 4 **** **** 0

# MOE 2024.06 (io_trps.svl 2023.06)
