@<TRIPOS>MOLECULE
NONAME
47 48 1 0 0 
SMALL
USER_CHARGES


@<TRIPOS>ATOM
  1 S        0.0780     0.1110     0.0580 S.3   1 <1>  -0.3710 
  2 C        1.5650    -0.8770     0.1230 C.2   1 <1>   0.6510 
  3 C       -1.0790    -0.8840    -1.0070 C.3   1 <1>   0.1310 
  4 N        1.4970    -2.0420    -0.4040 N.2   1 <1>  -0.6290 
  5 N        2.6660    -0.3400     0.7530 N.am  1 <1>  -0.4200 
  6 C       -2.4370    -0.2030    -1.1240 C.2   1 <1>   0.5690 
  7 C        2.6090    -2.8510    -0.3450 C.ar  1 <1>   0.1790 
  8 C        3.7900    -1.1250     0.8820 C.2   1 <1>   0.5440 
  9 C        2.6970     1.0710     1.2270 C.3   1 <1>   0.2780 
 10 O       -2.6420     0.4410    -2.1280 O.2   1 <1>  -0.5700 
 11 N       -3.3980    -0.3430    -0.1460 N.am  1 <1>  -0.6600 
 12 C        3.7820    -2.4360     0.2960 C.ar  1 <1>   0.0860 
 13 C        2.5580    -4.1110    -0.9330 C.ar  1 <1>  -0.1500 
 14 O        4.7680    -0.7070     1.4810 O.2   1 <1>  -0.5700 
 15 C        2.9840     2.0240     0.0680 C.2   1 <1>  -0.2760 
 16 C       -3.1540    -0.9970     1.1690 C.3   1 <1>   0.1400 
 17 C       -4.7220     0.3220    -0.3040 C.3   1 <1>   0.1400 
 18 C        4.8760    -3.3070     0.3300 C.ar  1 <1>  -0.1500 
 19 C        3.6460    -4.9590    -0.8920 C.ar  1 <1>  -0.1500 
 20 C        2.0930     2.9110    -0.3870 C.2   1 <1>  -0.3000 
 21 C        4.3780     1.8990    -0.5300 C.3   1 <1>  -0.1020 
 22 C       -3.6350    -2.4450     1.1370 C.3   1 <1>  -0.2400 
 23 C       -5.6410    -0.5340    -1.1730 C.3   1 <1>  -0.2400 
 24 C        4.8110    -4.5540    -0.2560 C.ar  1 <1>  -0.1500 
 25 H       -1.1710    -1.8600    -0.5710 H     1 <1>   0.0800 
 26 H       -0.6200    -0.9630    -1.9750 H     1 <1>   0.0800 
 27 H        3.4500     1.1970     1.9850 H     1 <1>   0.0800 
 28 H        1.7590     1.3220     1.6890 H     1 <1>   0.0800 
 29 H        1.6510    -4.4150    -1.4230 H     1 <1>   0.1500 
 30 H       -3.6680    -0.4570     1.9460 H     1 <1>   0.0800 
 31 H       -2.1060    -0.9730     1.4100 H     1 <1>   0.0800 
 32 H       -4.5820     1.2830    -0.7720 H     1 <1>   0.0800 
 33 H       -5.1740     0.4880     0.6580 H     1 <1>   0.0800 
 34 H        5.7800    -2.9920     0.8240 H     1 <1>   0.1500 
 35 H        3.5950    -5.9320    -1.3510 H     1 <1>   0.1500 
 36 H        2.2780     3.5920    -1.1990 H     1 <1>   0.1500 
 37 H        1.0980     3.0300     0.0080 H     1 <1>   0.1500 
 38 H        4.5060     0.9370    -0.9930 H     1 <1>   0.0800 
 39 H        5.1250     2.0140     0.2360 H     1 <1>   0.0800 
 40 H        4.5400     2.6540    -1.2780 H     1 <1>   0.0800 
 41 H       -4.7030    -2.4850     1.0360 H     1 <1>   0.0800 
 42 H       -3.3670    -2.9330     2.0570 H     1 <1>   0.0800 
 43 H       -3.1770    -2.9780     0.3230 H     1 <1>   0.0800 
 44 H       -5.2020    -0.6760    -2.1440 H     1 <1>   0.0800 
 45 H       -6.5840    -0.0350    -1.2990 H     1 <1>   0.0800 
 46 H       -5.8190    -1.4900    -0.7180 H     1 <1>   0.0800 
 47 H        5.6600    -5.2150    -0.2230 H     1 <1>   0.1500 
@<TRIPOS>BOND
  1   1   2  1   
  2   1   3  1   
  3   2   4  2   
  4   2   5  1   
  5   3   6  1   
  6   3  25  1   
  7   3  26  1   
  8   4   7  1   
  9   5   8  am  
 10   5   9  1   
 11   6  10  2   
 12   6  11  am  
 13   7  12  ar  
 14   7  13  ar  
 15   8  12  1   
 16   8  14  2   
 17   9  15  1   
 18   9  27  1   
 19   9  28  1   
 20  11  16  1   
 21  11  17  1   
 22  12  18  ar  
 23  13  19  ar  
 24  13  29  1   
 25  15  20  2   
 26  15  21  1   
 27  16  22  1   
 28  16  30  1   
 29  16  31  1   
 30  17  23  1   
 31  17  32  1   
 32  17  33  1   
 33  18  24  ar  
 34  18  34  1   
 35  19  24  ar  
 36  19  35  1   
 37  20  36  1   
 38  20  37  1   
 39  21  38  1   
 40  21  39  1   
 41  21  40  1   
 42  22  41  1   
 43  22  42  1   
 44  22  43  1   
 45  23  44  1   
 46  23  45  1   
 47  23  46  1   
 48  24  47  1   
@<TRIPOS>SUBSTRUCTURE
  1 ****   2 GROUP 4 **** **** 0

# MOE 2024.06 (io_trps.svl 2023.06)
