@<TRIPOS>MOLECULE
NONAME
38 39 1 0 0 
SMALL
USER_CHARGES


@<TRIPOS>ATOM
  1 S       -0.0110    -0.0780     0.3160 S.3   1 <1>  -0.2860 
  2 C       -1.4990     0.5670    -0.4490 C.2   1 <1>   0.2420 
  3 C        1.2220     0.0050    -1.0670 C.3   1 <1>   0.1310 
  4 N       -1.5530     0.9690    -1.6690 N.2   1 <1>  -0.3380 
  5 N       -2.6520     0.6750     0.2010 N.pl3 1 <1>   0.0480 
  6 C        2.5900    -0.4260    -0.5790 C.2   1 <1>   0.6590 
  7 N       -2.8090     1.3720    -1.8600 N.2   1 <1>  -0.3380 
  8 C       -3.4610     1.2030    -0.7400 C.2   1 <1>   0.1330 
  9 C       -2.9600     0.2900     1.5940 C.3   1 <1>   0.0160 
 10 O        3.0930    -1.4610    -0.9360 O.2   1 <1>  -0.5700 
 11 O        3.2070     0.4100     0.2480 O.3   1 <1>  -0.4300 
 12 C       -4.8500     1.5310    -0.5340 C.ar  1 <1>   0.0530 
 13 C        4.4800     0.1170     0.7750 C.3   1 <1>   0.1200 
 14 C       -5.2810     2.4010     0.4770 C.ar  1 <1>   0.0830 
 15 C       -5.8230     0.9640    -1.3540 C.ar  1 <1>  -0.1500 
 16 C        4.8900     1.2680     1.6870 C.3   1 <1>  -0.2400 
 17 O       -4.3990     3.0220     1.2900 O.3   1 <1>  -0.3630 
 18 C       -6.6290     2.6480     0.6800 C.ar  1 <1>  -0.1500 
 19 C       -7.1690     1.2210    -1.1610 C.ar  1 <1>  -0.1500 
 20 C       -3.6890     4.1090     0.7340 C.3   1 <1>   0.0400 
 21 C       -7.5750     2.0590    -0.1380 C.ar  1 <1>  -0.1500 
 22 H        1.2470     1.0210    -1.4160 H     1 <1>   0.0800 
 23 H        0.8720    -0.6460    -1.8460 H     1 <1>   0.0800 
 24 H       -2.6800     1.0910     2.2530 H     1 <1>   0.0800 
 25 H       -2.4130    -0.5980     1.8540 H     1 <1>   0.0800 
 26 H       -4.0130     0.0990     1.6940 H     1 <1>   0.0800 
 27 H        5.1710     0.0060    -0.0440 H     1 <1>   0.0800 
 28 H        4.4170    -0.8080     1.3230 H     1 <1>   0.0800 
 29 H       -5.5130     0.3120    -2.1520 H     1 <1>   0.1500 
 30 H        4.9390     2.1850     1.1280 H     1 <1>   0.0800 
 31 H        5.8590     1.0700     2.1070 H     1 <1>   0.0800 
 32 H        4.1830     1.3730     2.4910 H     1 <1>   0.0800 
 33 H       -6.9310     3.3060     1.4760 H     1 <1>   0.1500 
 34 H       -7.9010     0.7670    -1.8070 H     1 <1>   0.1500 
 35 H       -3.0710     4.5370     1.5020 H     1 <1>   0.0800 
 36 H       -4.3950     4.8390     0.3790 H     1 <1>   0.0800 
 37 H       -3.0760     3.7600    -0.0780 H     1 <1>   0.0800 
 38 H       -8.6220     2.2550     0.0170 H     1 <1>   0.1500 
@<TRIPOS>BOND
  1   1   2  1   
  2   1   3  1   
  3   2   4  2   
  4   2   5  1   
  5   3   6  1   
  6   3  22  1   
  7   3  23  1   
  8   4   7  1   
  9   5   8  1   
 10   5   9  1   
 11   6  10  2   
 12   6  11  1   
 13   7   8  2   
 14   8  12  1   
 15   9  24  1   
 16   9  25  1   
 17   9  26  1   
 18  11  13  1   
 19  12  14  ar  
 20  12  15  ar  
 21  13  16  1   
 22  13  27  1   
 23  13  28  1   
 24  14  17  1   
 25  14  18  ar  
 26  15  19  ar  
 27  15  29  1   
 28  16  30  1   
 29  16  31  1   
 30  16  32  1   
 31  17  20  1   
 32  18  21  ar  
 33  18  33  1   
 34  19  21  ar  
 35  19  34  1   
 36  20  35  1   
 37  20  36  1   
 38  20  37  1   
 39  21  38  1   
@<TRIPOS>SUBSTRUCTURE
  1 ****   2 GROUP 4 **** **** 0

# MOE 2024.06 (io_trps.svl 2023.06)
