@<TRIPOS>MOLECULE
NONAME
51 55 1 0 0 
SMALL
USER_CHARGES


@<TRIPOS>ATOM
  1 N        0.6790    -0.0180    -1.2090 N.pl3 1 <1>  -0.8380 
  2 C       -0.5170    -0.5020    -0.6820 C.ar  1 <1>   0.1000 
  3 C        0.7720     1.3860    -1.7020 C.3   1 <1>   0.2090 
  4 C        1.9470    -0.6380    -0.7330 C.3   1 <1>   0.2090 
  5 C       -1.2820     0.2350     0.2190 C.ar  1 <1>  -0.1500 
  6 C       -0.9640    -1.7650    -1.0510 C.ar  1 <1>  -0.1500 
  7 C        1.5820     2.2800    -0.7380 C.3   1 <1>   0.3430 
  8 C        2.7080     0.3030     0.2230 C.3   1 <1>   0.3430 
  9 C       -2.4570    -0.2790     0.7360 C.ar  1 <1>  -0.1500 
 10 C       -2.1370    -2.2830    -0.5350 C.ar  1 <1>  -0.1500 
 11 N        2.9190     1.6880    -0.3500 N.4   1 <1>  -0.9590 
 12 C       -2.8860    -1.5400     0.3610 C.ar  1 <1>  -0.1500 
 13 C        3.7220     2.5830     0.5530 C.3   1 <1>   0.4230 
 14 C        3.9520     3.9750    -0.0960 C.3   1 <1>  -0.0800 
 15 C        5.1090     1.9600     0.8720 C.3   1 <1>  -0.0800 
 16 C        4.7930     3.8430    -1.3870 C.3   1 <1>  -0.1600 
 17 C        4.7130     4.8790     0.8960 C.3   1 <1>  -0.1600 
 18 C        5.9540     1.8220    -0.4160 C.3   1 <1>  -0.1600 
 19 C        5.8630     2.8750     1.8580 C.3   1 <1>  -0.1600 
 20 C        6.1580     3.2070    -1.0600 C.3   1 <1>  -0.0800 
 21 C        6.0800     4.2630     1.2330 C.3   1 <1>  -0.0800 
 22 C        6.9010     4.1130    -0.0610 C.3   1 <1>  -0.1600 
 23 H       -0.2180     1.7920    -1.8250 H     1 <1>   0.0800 
 24 H        1.2390     1.3850    -2.6710 H     1 <1>   0.0800 
 25 H        2.5640    -0.8770    -1.5810 H     1 <1>   0.0800 
 26 H        1.7280    -1.5600    -0.2190 H     1 <1>   0.0800 
 27 H       -0.9620     1.2110     0.5240 H     1 <1>   0.1500 
 28 H       -0.3880    -2.3380    -1.7530 H     1 <1>   0.1500 
 29 H        0.9920     2.4370     0.1490 H     1 <1>   0.0800 
 30 H        1.7230     3.2350    -1.2130 H     1 <1>   0.0800 
 31 H        3.6550    -0.1540     0.4520 H     1 <1>   0.0800 
 32 H        2.1450     0.3750     1.1390 H     1 <1>   0.0800 
 33 H       -3.0420     0.2970     1.4320 H     1 <1>   0.1500 
 34 H       -2.4710    -3.2630    -0.8320 H     1 <1>   0.1500 
 35 H        3.4750     1.5870    -1.2080 H     1 <1>   0.4500 
 36 H       -3.8010    -1.9420     0.7620 H     1 <1>   0.1500 
 37 H        3.1860     2.7190     1.4790 H     1 <1>   0.0800 
 38 H        3.0190     4.4630    -0.3090 H     1 <1>   0.0800 
 39 H        5.0050     1.0050     1.3510 H     1 <1>   0.0800 
 40 H        4.2810     3.2560    -2.1270 H     1 <1>   0.0800 
 41 H        4.9520     4.8190    -1.8150 H     1 <1>   0.0800 
 42 H        4.1390     5.0090     1.7980 H     1 <1>   0.0800 
 43 H        4.8570     5.8560     0.4650 H     1 <1>   0.0800 
 44 H        5.4880     1.1540    -1.1180 H     1 <1>   0.0800 
 45 H        6.9150     1.4000    -0.1730 H     1 <1>   0.0800 
 46 H        5.3090     2.9720     2.7760 H     1 <1>   0.0800 
 47 H        6.8180     2.4400     2.1050 H     1 <1>   0.0800 
 48 H        6.7440     3.1110    -1.9600 H     1 <1>   0.0800 
 49 H        6.6080     4.8990     1.9260 H     1 <1>   0.0800 
 50 H        7.0690     5.0820    -0.5000 H     1 <1>   0.0800 
 51 H        7.8660     3.6930     0.1660 H     1 <1>   0.0800 
@<TRIPOS>BOND
  1   1   2  1   
  2   1   3  1   
  3   1   4  1   
  4   2   5  ar  
  5   2   6  ar  
  6   3   7  1   
  7   3  23  1   
  8   3  24  1   
  9   4   8  1   
 10   4  25  1   
 11   4  26  1   
 12   5   9  ar  
 13   5  27  1   
 14   6  10  ar  
 15   6  28  1   
 16   7  11  1   
 17   7  29  1   
 18   7  30  1   
 19   8  11  1   
 20   8  31  1   
 21   8  32  1   
 22   9  12  ar  
 23   9  33  1   
 24  10  12  ar  
 25  10  34  1   
 26  11  13  1   
 27  11  35  1   
 28  12  36  1   
 29  13  14  1   
 30  13  15  1   
 31  13  37  1   
 32  14  16  1   
 33  14  17  1   
 34  14  38  1   
 35  15  18  1   
 36  15  19  1   
 37  15  39  1   
 38  16  20  1   
 39  16  40  1   
 40  16  41  1   
 41  17  21  1   
 42  17  42  1   
 43  17  43  1   
 44  18  20  1   
 45  18  44  1   
 46  18  45  1   
 47  19  21  1   
 48  19  46  1   
 49  19  47  1   
 50  20  22  1   
 51  20  48  1   
 52  21  22  1   
 53  21  49  1   
 54  22  50  1   
 55  22  51  1   
@<TRIPOS>SUBSTRUCTURE
  1 ****  11 GROUP 4 **** **** 0

# MOE 2024.06 (io_trps.svl 2023.06)
