@<TRIPOS>MOLECULE
NONAME
44 47 1 0 0 
SMALL
USER_CHARGES


@<TRIPOS>ATOM
  1 O       -0.8720    -0.0990     0.2910 O.2   1 <1>  -0.5750 
  2 C       -1.8980    -0.7310     0.1470 C.2   1 <1>   0.6860 
  3 N       -1.8840    -2.1180     0.2570 N.am  1 <1>  -0.4260 
  4 N       -3.0860    -0.0680    -0.1280 N.am  1 <1>  -0.4420 
  5 C       -3.0480    -2.8630     0.1170 C.2   1 <1>   0.6990 
  6 C       -0.5880    -2.8050     0.5590 C.3   1 <1>   0.0510 
  7 C       -4.2280    -0.8260    -0.2970 C.2   1 <1>   0.4200 
  8 C       -3.1220     1.4210    -0.2430 C.3   1 <1>   0.0510 
  9 O       -3.0280    -4.0760     0.2440 O.2   1 <1>  -0.5750 
 10 C       -4.2670    -2.1680    -0.1820 C.2   1 <1>   0.2700 
 11 N       -5.4750    -0.3830    -0.6040 N.pl3 1 <1>  -0.7040 
 12 N       -5.6070    -2.5510    -0.4130 N.pl3 1 <1>  -0.7680 
 13 C       -6.3000    -1.4300    -0.6890 C.cat 1 <1>   1.0690 
 14 C       -6.0440    -3.9620    -0.2020 C.3   1 <1>   0.2670 
 15 N       -7.6020    -1.3000    -1.0320 N.pl3 1 <1>  -0.5970 
 16 C       -8.3370    -0.0040    -0.9460 C.3   1 <1>   0.3040 
 17 C       -8.5090    -2.3830    -1.5060 C.3   1 <1>   0.1590 
 18 C       -9.5840    -0.1530    -0.0880 C.ar  1 <1>  -0.1520 
 19 C       -9.5760    -2.6710    -0.4430 C.3   1 <1>  -0.0260 
 20 C      -10.1690    -1.3960     0.1380 C.ar  1 <1>  -0.1520 
 21 C      -10.1530     0.9820     0.4710 C.ar  1 <1>  -0.1580 
 22 C      -11.3090    -1.4850     0.9200 C.ar  1 <1>  -0.1580 
 23 C      -11.2910     0.8850     1.2500 C.ar  1 <1>  -0.1580 
 24 C      -11.8690    -0.3500     1.4750 C.ar  1 <1>  -0.1580 
 25 H        0.2190    -2.3210     0.0350 H     1 <1>   0.0710 
 26 H       -0.6150    -3.8360     0.2520 H     1 <1>   0.0710 
 27 H       -0.3930    -2.7580     1.6160 H     1 <1>   0.0710 
 28 H       -2.2700     1.8620     0.2470 H     1 <1>   0.0710 
 29 H       -4.0090     1.8110     0.2230 H     1 <1>   0.0710 
 30 H       -3.1040     1.7060    -1.2810 H     1 <1>   0.0710 
 31 H       -5.7320     0.5810    -0.7850 H     1 <1>   0.4440 
 32 H       -5.4580    -4.4240     0.5740 H     1 <1>   0.0710 
 33 H       -5.9180    -4.5270    -1.1110 H     1 <1>   0.0710 
 34 H       -7.0700    -4.0040     0.1090 H     1 <1>   0.0710 
 35 H       -8.6290     0.3060    -1.9360 H     1 <1>   0.0710 
 36 H       -7.7210     0.7670    -0.5200 H     1 <1>   0.0710 
 37 H       -7.9690    -3.2760    -1.7620 H     1 <1>   0.0710 
 38 H       -9.0030    -2.0470    -2.4020 H     1 <1>   0.0710 
 39 H       -9.1530    -3.2470     0.3590 H     1 <1>   0.0710 
 40 H      -10.3590    -3.2610    -0.8870 H     1 <1>   0.0710 
 41 H       -9.7230     1.9540     0.3050 H     1 <1>   0.1420 
 42 H      -11.7700    -2.4400     1.1040 H     1 <1>   0.1420 
 43 H      -11.7290     1.7680     1.6820 H     1 <1>   0.1420 
 44 H      -12.7550    -0.4270     2.0820 H     1 <1>   0.1420 
@<TRIPOS>BOND
  1   1   2  2   
  2   2   3  am  
  3   2   4  am  
  4   3   5  am  
  5   3   6  1   
  6   4   7  1   
  7   4   8  1   
  8   5   9  2   
  9   5  10  1   
 10   6  25  1   
 11   6  26  1   
 12   6  27  1   
 13   7  10  2   
 14   7  11  1   
 15   8  28  1   
 16   8  29  1   
 17   8  30  1   
 18  10  12  1   
 19  11  13  ar  
 20  11  31  1   
 21  12  13  ar  
 22  12  14  1   
 23  13  15  ar  
 24  14  32  1   
 25  14  33  1   
 26  14  34  1   
 27  15  16  1   
 28  15  17  1   
 29  16  18  1   
 30  16  35  1   
 31  16  36  1   
 32  17  19  1   
 33  17  37  1   
 34  17  38  1   
 35  18  20  ar  
 36  18  21  ar  
 37  19  20  1   
 38  19  39  1   
 39  19  40  1   
 40  20  22  ar  
 41  21  23  ar  
 42  21  41  1   
 43  22  24  ar  
 44  22  42  1   
 45  23  24  ar  
 46  23  43  1   
 47  24  44  1   
@<TRIPOS>SUBSTRUCTURE
  1 ****  13 GROUP 4 **** **** 0

# MOE 2024.06 (io_trps.svl 2023.06)
