@<TRIPOS>MOLECULE
NONAME
50 52 1 0 0 
SMALL
USER_CHARGES


@<TRIPOS>ATOM
  1 N       -0.1280    -5.2640    -0.8160 N.4   1 <1>  -0.9590 
  2 C       -1.5940    -5.5080    -0.6110 C.3   1 <1>   0.4230 
  3 C        0.6360    -6.5670    -0.8820 C.3   1 <1>   0.3430 
  4 C        0.4800    -4.3050     0.1870 C.3   1 <1>   0.3430 
  5 C       -2.3860    -4.2340    -0.9340 C.3   1 <1>  -0.1600 
  6 C       -1.9290    -6.0220     0.8010 C.3   1 <1>  -0.1600 
  7 C        2.1710    -6.3780    -1.0530 C.3   1 <1>   0.3430 
  8 C        2.0140    -4.1170     0.0120 C.3   1 <1>   0.3430 
  9 C       -3.8940    -4.4860    -0.8030 C.3   1 <1>  -0.1600 
 10 C       -3.4360    -6.2820     0.9330 C.3   1 <1>  -0.1600 
 11 N        2.7940    -5.4180    -0.0560 N.4   1 <1>  -0.9590 
 12 C       -4.2490    -5.0270     0.5880 C.3   1 <1>  -0.1600 
 13 C        4.2590    -5.1880    -0.3270 C.3   1 <1>   0.4230 
 14 C        5.0160    -6.5310    -0.3350 C.3   1 <1>  -0.1600 
 15 C        4.8570    -4.2510     0.7410 C.3   1 <1>  -0.1600 
 16 C        6.5290    -6.3400    -0.5100 C.3   1 <1>  -0.1600 
 17 C        6.3710    -4.0650     0.5640 C.3   1 <1>  -0.1600 
 18 C        7.1000    -5.4110     0.5640 C.3   1 <1>  -0.1600 
 19 H       -0.0780    -4.8200    -1.7460 H     1 <1>   0.4500 
 20 H       -1.9170    -6.2630    -1.3120 H     1 <1>   0.0800 
 21 H        0.2640    -7.1620    -1.7020 H     1 <1>   0.0800 
 22 H        0.4650    -7.1290     0.0210 H     1 <1>   0.0800 
 23 H        0.3000    -4.6660     1.1860 H     1 <1>   0.0800 
 24 H        0.0010    -3.3420     0.1050 H     1 <1>   0.0800 
 25 H       -2.1820    -3.9140    -1.9400 H     1 <1>   0.0800 
 26 H       -2.1240    -3.4400    -0.2570 H     1 <1>   0.0800 
 27 H       -1.6590    -5.2960     1.5470 H     1 <1>   0.0800 
 28 H       -1.4140    -6.9420     1.0070 H     1 <1>   0.0800 
 29 H        2.3610    -6.0240    -2.0530 H     1 <1>   0.0800 
 30 H        2.6370    -7.3460    -0.9650 H     1 <1>   0.0800 
 31 H        2.3730    -3.5220     0.8360 H     1 <1>   0.0800 
 32 H        2.1880    -3.5500    -0.8880 H     1 <1>   0.0800 
 33 H       -4.2140    -5.1940    -1.5500 H     1 <1>   0.0800 
 34 H       -4.4340    -3.5700    -0.9760 H     1 <1>   0.0800 
 35 H       -3.6670    -6.5880     1.9400 H     1 <1>   0.0800 
 36 H       -3.7290    -7.0850     0.2770 H     1 <1>   0.0800 
 37 H        2.7740    -5.8580     0.8770 H     1 <1>   0.4500 
 38 H       -5.3010    -5.2610     0.6230 H     1 <1>   0.0800 
 39 H       -4.0670    -4.2650     1.3280 H     1 <1>   0.0800 
 40 H        4.3830    -4.7230    -1.2930 H     1 <1>   0.0800 
 41 H        4.6890    -7.1540    -1.1480 H     1 <1>   0.0800 
 42 H        4.8480    -7.0530     0.5910 H     1 <1>   0.0800 
 43 H        4.6810    -4.6540     1.7240 H     1 <1>   0.0800 
 44 H        4.4190    -3.2710     0.6850 H     1 <1>   0.0800 
 45 H        6.7370    -5.9270    -1.4830 H     1 <1>   0.0800 
 46 H        7.0250    -7.2950    -0.4510 H     1 <1>   0.0800 
 47 H        6.7580    -3.4540     1.3630 H     1 <1>   0.0800 
 48 H        6.5720    -3.5530    -0.3620 H     1 <1>   0.0800 
 49 H        8.1490    -5.2510     0.3800 H     1 <1>   0.0800 
 50 H        7.0090    -5.8750     1.5330 H     1 <1>   0.0800 
@<TRIPOS>BOND
  1   1   2  1   
  2   1   3  1   
  3   1   4  1   
  4   1  19  1   
  5   2   5  1   
  6   2   6  1   
  7   2  20  1   
  8   3   7  1   
  9   3  21  1   
 10   3  22  1   
 11   4   8  1   
 12   4  23  1   
 13   4  24  1   
 14   5   9  1   
 15   5  25  1   
 16   5  26  1   
 17   6  10  1   
 18   6  27  1   
 19   6  28  1   
 20   7  11  1   
 21   7  29  1   
 22   7  30  1   
 23   8  11  1   
 24   8  31  1   
 25   8  32  1   
 26   9  12  1   
 27   9  33  1   
 28   9  34  1   
 29  10  12  1   
 30  10  35  1   
 31  10  36  1   
 32  11  13  1   
 33  11  37  1   
 34  12  38  1   
 35  12  39  1   
 36  13  14  1   
 37  13  15  1   
 38  13  40  1   
 39  14  16  1   
 40  14  41  1   
 41  14  42  1   
 42  15  17  1   
 43  15  43  1   
 44  15  44  1   
 45  16  18  1   
 46  16  45  1   
 47  16  46  1   
 48  17  18  1   
 49  17  47  1   
 50  17  48  1   
 51  18  49  1   
 52  18  50  1   
@<TRIPOS>SUBSTRUCTURE
  1 ****   8 GROUP 4 **** **** 0

# MOE 2024.06 (io_trps.svl 2023.06)
