@<TRIPOS>MOLECULE
NONAME
30 30 1 0 0 
SMALL
USER_CHARGES


@<TRIPOS>ATOM
  1 CL      -0.0190    -0.3740    -1.4680 Cl    1 <1>  -0.1770 
  2 C       -1.5330    -0.9920    -0.8450 C.ar  1 <1>   0.1770 
  3 C       -2.3500    -0.1850    -0.0680 C.ar  1 <1>  -0.1440 
  4 C       -1.8780    -2.2940    -1.1500 C.ar  1 <1>  -0.1500 
  5 C       -3.5410    -0.7130     0.4070 C.ar  1 <1>  -0.1500 
  6 C       -1.9600     1.2470     0.2640 C.3   1 <1>  -0.0960 
  7 C       -3.0740    -2.8140    -0.6700 C.ar  1 <1>   0.0830 
  8 C       -3.9200    -2.0200     0.1140 C.ar  1 <1>   0.1170 
  9 O       -3.4810    -4.0930    -0.9300 O.3   1 <1>  -0.3630 
 10 N       -5.1190    -2.5890     0.5790 N.am  1 <1>  -0.5470 
 11 C       -2.6830    -4.9790    -1.6840 C.3   1 <1>   0.0400 
 12 C       -6.2580    -2.0690     1.1260 C.2   1 <1>   0.5690 
 13 O       -6.4230    -0.8940     1.3480 O.2   1 <1>  -0.5700 
 14 C       -7.3920    -3.0270     1.4650 C.3   1 <1>   0.1310 
 15 S       -7.3680    -4.5210     0.4040 S.3   1 <1>  -0.4600 
 16 C       -7.7300    -3.8710    -1.2530 C.3   1 <1>  -0.0100 
 17 H       -1.2040    -2.8680    -1.7540 H     1 <1>   0.1500 
 18 H       -4.1800    -0.1000     1.0150 H     1 <1>   0.1500 
 19 H       -1.8420     1.8150    -0.6420 H     1 <1>   0.0800 
 20 H       -1.0310     1.2600     0.8060 H     1 <1>   0.0800 
 21 H       -2.7130     1.7230     0.8670 H     1 <1>   0.0800 
 22 H       -5.1820    -3.5910     0.3670 H     1 <1>   0.3700 
 23 H       -3.1970    -5.9220    -1.7450 H     1 <1>   0.0800 
 24 H       -1.7390    -5.1110    -1.1850 H     1 <1>   0.0800 
 25 H       -2.5460    -4.5740    -2.6710 H     1 <1>   0.0800 
 26 H       -8.3430    -2.5480     1.3240 H     1 <1>   0.0800 
 27 H       -7.3010    -3.3600     2.4820 H     1 <1>   0.0800 
 28 H       -7.7720    -4.7060    -1.9290 H     1 <1>   0.0800 
 29 H       -6.9420    -3.1940    -1.5320 H     1 <1>   0.0800 
 30 H       -8.6780    -3.3640    -1.2130 H     1 <1>   0.0800 
@<TRIPOS>BOND
  1   1   2  1   
  2   2   3  ar  
  3   2   4  ar  
  4   3   5  ar  
  5   3   6  1   
  6   4   7  ar  
  7   4  17  1   
  8   5   8  ar  
  9   5  18  1   
 10   6  19  1   
 11   6  20  1   
 12   6  21  1   
 13   7   8  ar  
 14   7   9  1   
 15   8  10  1   
 16   9  11  1   
 17  10  12  am  
 18  10  22  1   
 19  11  23  1   
 20  11  24  1   
 21  11  25  1   
 22  12  13  2   
 23  12  14  1   
 24  14  15  1   
 25  14  26  1   
 26  14  27  1   
 27  15  16  1   
 28  16  28  1   
 29  16  29  1   
 30  16  30  1   
@<TRIPOS>SUBSTRUCTURE
  1 ****   8 GROUP 4 **** **** 0

# MOE 2024.06 (io_trps.svl 2023.06)
