@<TRIPOS>MOLECULE
NONAME
35 36 1 0 0 
SMALL
USER_CHARGES


@<TRIPOS>ATOM
  1 CL       0.3360     0.2890    -1.1640 Cl    1 <1>  -0.1770 
  2 C        2.0120     0.0800    -0.7230 C.ar  1 <1>   0.1770 
  3 C        2.6280     1.0300     0.0690 C.ar  1 <1>  -0.1500 
  4 C        2.6970    -1.0340    -1.1720 C.ar  1 <1>  -0.1500 
  5 C        3.9570     0.8600     0.4160 C.ar  1 <1>  -0.1500 
  6 C        4.0270    -1.2030    -0.8240 C.ar  1 <1>  -0.1500 
  7 C        4.6620    -0.2520    -0.0250 C.ar  1 <1>   0.0830 
  8 O        5.9590    -0.3380     0.3640 O.3   1 <1>  -0.3630 
  9 C        6.7730    -1.4200    -0.0150 C.3   1 <1>   0.1200 
 10 C        8.1520    -1.1840     0.6050 C.3   1 <1>   0.3430 
 11 N        9.1100    -2.2810     0.2700 N.4   1 <1>  -0.9060 
 12 C       10.4540    -2.0790     0.8460 C.3   1 <1>   0.4230 
 13 C       11.2130    -1.0470     0.0170 C.3   1 <1>  -0.1600 
 14 C       11.2580    -3.3520     0.6130 C.3   1 <1>  -0.1600 
 15 C       11.7200    -1.7950    -1.2220 C.3   1 <1>  -0.1600 
 16 C       11.7460    -3.2810    -0.8390 C.3   1 <1>  -0.1600 
 17 H        2.0730     1.8880     0.4060 H     1 <1>   0.1500 
 18 H        2.1880    -1.7550    -1.7870 H     1 <1>   0.1500 
 19 H        4.4510     1.5900     1.0320 H     1 <1>   0.1500 
 20 H        4.5380    -2.0750    -1.1840 H     1 <1>   0.1500 
 21 H        6.8280    -1.4350    -1.0900 H     1 <1>   0.0800 
 22 H        6.3250    -2.3220     0.3640 H     1 <1>   0.0800 
 23 H        8.0410    -1.1160     1.6750 H     1 <1>   0.0800 
 24 H        8.5330    -0.2440     0.2410 H     1 <1>   0.0800 
 25 H        9.2400    -2.3610    -0.7460 H     1 <1>   0.4500 
 26 H        8.7520    -3.1830     0.6040 H     1 <1>   0.4500 
 27 H       10.3990    -1.8180     1.8920 H     1 <1>   0.0800 
 28 H       12.0660    -0.7230     0.5890 H     1 <1>   0.0800 
 29 H       10.6360    -0.1750    -0.2340 H     1 <1>   0.0800 
 30 H       10.7070    -4.2520     0.8250 H     1 <1>   0.0800 
 31 H       12.1180    -3.3290     1.2620 H     1 <1>   0.0800 
 32 H       12.7030    -1.4500    -1.5000 H     1 <1>   0.0800 
 33 H       11.0600    -1.6400    -2.0590 H     1 <1>   0.0800 
 34 H       11.0930    -3.8410    -1.4880 H     1 <1>   0.0800 
 35 H       12.7400    -3.6880    -0.9270 H     1 <1>   0.0800 
@<TRIPOS>BOND
  1   1   2  1   
  2   2   3  ar  
  3   2   4  ar  
  4   3   5  ar  
  5   3  17  1   
  6   4   6  ar  
  7   4  18  1   
  8   5   7  ar  
  9   5  19  1   
 10   6   7  ar  
 11   6  20  1   
 12   7   8  1   
 13   8   9  1   
 14   9  10  1   
 15   9  21  1   
 16   9  22  1   
 17  10  11  1   
 18  10  23  1   
 19  10  24  1   
 20  11  12  1   
 21  11  25  1   
 22  11  26  1   
 23  12  13  1   
 24  12  14  1   
 25  12  27  1   
 26  13  15  1   
 27  13  28  1   
 28  13  29  1   
 29  14  16  1   
 30  14  30  1   
 31  14  31  1   
 32  15  16  1   
 33  15  32  1   
 34  15  33  1   
 35  16  34  1   
 36  16  35  1   
@<TRIPOS>SUBSTRUCTURE
  1 ****   9 GROUP 4 **** **** 0

# MOE 2024.06 (io_trps.svl 2023.06)
