@<TRIPOS>MOLECULE
NONAME
40 42 1 0 0 
SMALL
USER_CHARGES


@<TRIPOS>ATOM
  1 BR      -1.2010     2.3910    -0.3290 Br    1 <1>  -0.0580 
  2 C       -2.6860     1.3900     0.3640 C.2   1 <1>   0.0980 
  3 S       -3.4070     0.2330    -0.7310 S.3   1 <1>  -0.0800 
  4 C       -3.2840     1.4210     1.5670 C.2   1 <1>  -0.1500 
  5 C       -4.5750    -0.2190     0.5150 C.2   1 <1>  -0.1400 
  6 C       -4.3700     0.4890     1.6470 C.2   1 <1>  -0.1500 
  7 C       -5.5860    -1.2970     0.1680 C.3   1 <1>   0.2900 
  8 N       -6.8810    -0.7050    -0.2300 N.3   1 <1>  -0.8100 
  9 C       -6.7680     0.1650    -1.4300 C.3   1 <1>   0.1100 
 10 C       -7.9100    -1.7520    -0.4360 C.3   1 <1>   0.1100 
 11 C       -8.1340     0.7250    -1.8960 C.3   1 <1>   0.3430 
 12 C       -9.2960    -1.1560    -0.7900 C.3   1 <1>   0.3430 
 13 N       -9.2230     0.3360    -0.9470 N.4   1 <1>  -0.9590 
 14 C      -10.5330     0.9820    -1.2190 C.3   1 <1>   0.4860 
 15 C      -11.5050     0.6020    -0.1190 C.ar  1 <1>  -0.1440 
 16 C      -11.3600     1.1240     1.1590 C.ar  1 <1>  -0.1500 
 17 C      -12.5450    -0.2800    -0.3820 C.ar  1 <1>  -0.1500 
 18 C      -12.2380     0.7590     2.1640 C.ar  1 <1>  -0.1500 
 19 C      -13.4220    -0.6430     0.6250 C.ar  1 <1>  -0.1500 
 20 C      -13.2680    -0.1250     1.8980 C.ar  1 <1>  -0.1500 
 21 H       -3.0080     2.0520     2.3930 H     1 <1>   0.1500 
 22 H       -4.9460     0.3960     2.5510 H     1 <1>   0.1500 
 23 H       -5.7350    -1.9090     1.0410 H     1 <1>   0.0800 
 24 H       -5.1980    -1.9240    -0.6180 H     1 <1>   0.0800 
 25 H       -6.3120    -0.3780    -2.2400 H     1 <1>   0.0800 
 26 H       -6.1290     1.0020    -1.2040 H     1 <1>   0.0800 
 27 H       -8.0100    -2.3400     0.4610 H     1 <1>   0.0800 
 28 H       -7.6020    -2.4170    -1.2260 H     1 <1>   0.0800 
 29 H       -8.3530     0.3470    -2.8810 H     1 <1>   0.0800 
 30 H       -8.0650     1.7980    -1.9630 H     1 <1>   0.0800 
 31 H       -9.9890    -1.4050    -0.0020 H     1 <1>   0.0800 
 32 H       -9.6570    -1.6090    -1.6970 H     1 <1>   0.0800 
 33 H       -8.8870     0.6500    -0.0240 H     1 <1>   0.4500 
 34 H      -10.9160     0.6580    -2.1720 H     1 <1>   0.0800 
 35 H      -10.4210     2.0540    -1.2400 H     1 <1>   0.0800 
 36 H      -10.5700     1.8190     1.3900 H     1 <1>   0.1500 
 37 H      -12.6880    -0.6920    -1.3670 H     1 <1>   0.1500 
 38 H      -12.1260     1.1650     3.1560 H     1 <1>   0.1500 
 39 H      -14.2290    -1.3260     0.4210 H     1 <1>   0.1500 
 40 H      -13.9520    -0.4070     2.6810 H     1 <1>   0.1500 
@<TRIPOS>BOND
  1   1   2  1   
  2   2   3  1   
  3   2   4  2   
  4   3   5  1   
  5   4   6  1   
  6   4  21  1   
  7   5   6  2   
  8   5   7  1   
  9   6  22  1   
 10   7   8  1   
 11   7  23  1   
 12   7  24  1   
 13   8   9  1   
 14   8  10  1   
 15   9  11  1   
 16   9  25  1   
 17   9  26  1   
 18  10  12  1   
 19  10  27  1   
 20  10  28  1   
 21  11  13  1   
 22  11  29  1   
 23  11  30  1   
 24  12  13  1   
 25  12  31  1   
 26  12  32  1   
 27  13  14  1   
 28  13  33  1   
 29  14  15  1   
 30  14  34  1   
 31  14  35  1   
 32  15  16  ar  
 33  15  17  ar  
 34  16  18  ar  
 35  16  36  1   
 36  17  19  ar  
 37  17  37  1   
 38  18  20  ar  
 39  18  38  1   
 40  19  20  ar  
 41  19  39  1   
 42  20  40  1   
@<TRIPOS>SUBSTRUCTURE
  1 ****   8 GROUP 4 **** **** 0

# MOE 2024.06 (io_trps.svl 2023.06)
