@<TRIPOS>MOLECULE
NONAME
50 52 1 0 0 
SMALL
USER_CHARGES


@<TRIPOS>ATOM
  1 O       -1.3210     0.0590     0.9270 O.3   1 <1>  -0.3630 
  2 C       -2.1790     0.8170     0.2020 C.ar  1 <1>   0.0820 
  3 C       -1.4040     0.1670     2.3320 C.3   1 <1>   0.0400 
  4 C       -2.1410     2.2160     0.1920 C.ar  1 <1>   0.0820 
  5 C       -3.1260     0.1500    -0.5530 C.ar  1 <1>  -0.1500 
  6 O       -1.2180     2.9410     0.8720 O.3   1 <1>  -0.3630 
  7 C       -3.0800     2.9230    -0.5370 C.ar  1 <1>  -0.1500 
  8 C       -4.0630     0.8630    -1.2950 C.ar  1 <1>   0.0820 
  9 C        0.1270     2.7900     0.4690 C.3   1 <1>   0.0400 
 10 C       -4.0420     2.2550    -1.2790 C.ar  1 <1>  -0.1440 
 11 O       -5.0320     0.2600    -2.0400 O.3   1 <1>  -0.3630 
 12 C       -5.0690     3.0450    -2.0650 C.3   1 <1>   0.4860 
 13 C       -4.9530    -1.1230    -2.3340 C.3   1 <1>   0.0400 
 14 N       -6.4100     2.6980    -1.5500 N.4   1 <1>  -0.9060 
 15 C       -6.6360     3.0070    -0.1290 C.3   1 <1>   0.5660 
 16 C       -7.8940     2.2470     0.2770 C.ar  1 <1>  -0.1430 
 17 C       -6.7300     4.5350     0.0340 C.3   1 <1>  -0.1600 
 18 C       -9.0120     2.8980     0.7930 C.ar  1 <1>  -0.1430 
 19 C       -7.9190     0.8620     0.1430 C.ar  1 <1>  -0.1500 
 20 C       -7.6070     4.9410     1.2230 C.3   1 <1>  -0.1600 
 21 C      -10.1430     2.1680     1.1220 C.ar  1 <1>  -0.1500 
 22 C       -9.0260     4.4010     1.0310 C.3   1 <1>  -0.0170 
 23 C       -9.0510     0.1410     0.4770 C.ar  1 <1>  -0.1500 
 24 C      -10.1670     0.7960     0.9610 C.ar  1 <1>  -0.1500 
 25 H       -2.4140    -0.0400     2.6390 H     1 <1>   0.0800 
 26 H       -0.7330    -0.5530     2.7640 H     1 <1>   0.0800 
 27 H       -1.1170     1.1580     2.6340 H     1 <1>   0.0800 
 28 H       -3.1110    -0.9230    -0.5320 H     1 <1>   0.1500 
 29 H       -3.0300     3.9980    -0.5130 H     1 <1>   0.1500 
 30 H        0.7230     3.5030     1.0090 H     1 <1>   0.0800 
 31 H        0.4610     1.7930     0.6940 H     1 <1>   0.0800 
 32 H        0.1990     2.9770    -0.5880 H     1 <1>   0.0800 
 33 H       -4.9960     2.7790    -3.1070 H     1 <1>   0.0800 
 34 H       -4.8870     4.1020    -1.9640 H     1 <1>   0.0800 
 35 H       -5.7410    -1.3700    -3.0240 H     1 <1>   0.0800 
 36 H       -5.0770    -1.6870    -1.4260 H     1 <1>   0.0800 
 37 H       -3.9980    -1.3330    -2.7850 H     1 <1>   0.0800 
 38 H       -6.4830     1.6750    -1.6350 H     1 <1>   0.4500 
 39 H       -7.1710     3.0980    -2.1020 H     1 <1>   0.4500 
 40 H       -5.8190     2.6360     0.4700 H     1 <1>   0.0800 
 41 H       -7.1530     4.9800    -0.8500 H     1 <1>   0.0800 
 42 H       -5.7420     4.9360     0.1770 H     1 <1>   0.0800 
 43 H       -7.0620     0.3170    -0.2110 H     1 <1>   0.1500 
 44 H       -7.6390     6.0140     1.3090 H     1 <1>   0.0800 
 45 H       -7.1950     4.5480     2.1380 H     1 <1>   0.0800 
 46 H      -11.0160     2.6640     1.5120 H     1 <1>   0.1500 
 47 H       -9.6070     4.6260     1.9090 H     1 <1>   0.0800 
 48 H       -9.4970     4.8870     0.1930 H     1 <1>   0.0800 
 49 H       -9.0680    -0.9300     0.3670 H     1 <1>   0.1500 
 50 H      -11.0510     0.2380     1.2190 H     1 <1>   0.1500 
@<TRIPOS>BOND
  1   1   2  1   
  2   1   3  1   
  3   2   4  ar  
  4   2   5  ar  
  5   3  25  1   
  6   3  26  1   
  7   3  27  1   
  8   4   6  1   
  9   4   7  ar  
 10   5   8  ar  
 11   5  28  1   
 12   6   9  1   
 13   7  10  ar  
 14   7  29  1   
 15   8  10  ar  
 16   8  11  1   
 17   9  30  1   
 18   9  31  1   
 19   9  32  1   
 20  10  12  1   
 21  11  13  1   
 22  12  14  1   
 23  12  33  1   
 24  12  34  1   
 25  13  35  1   
 26  13  36  1   
 27  13  37  1   
 28  14  15  1   
 29  14  38  1   
 30  14  39  1   
 31  15  16  1   
 32  15  17  1   
 33  15  40  1   
 34  16  18  ar  
 35  16  19  ar  
 36  17  20  1   
 37  17  41  1   
 38  17  42  1   
 39  18  21  ar  
 40  18  22  1   
 41  19  23  ar  
 42  19  43  1   
 43  20  22  1   
 44  20  44  1   
 45  20  45  1   
 46  21  24  ar  
 47  21  46  1   
 48  22  47  1   
 49  22  48  1   
 50  23  24  ar  
 51  23  49  1   
 52  24  50  1   
@<TRIPOS>SUBSTRUCTURE
  1 ****  15 GROUP 4 **** **** 0

# MOE 2024.06 (io_trps.svl 2023.06)
