@<TRIPOS>MOLECULE
NONAME
34 34 1 0 0 
SMALL
USER_CHARGES


@<TRIPOS>ATOM
  1 O       -0.5810     0.1170     0.6450 O.2   1 <1>  -0.5700 
  2 C       -1.6000     0.4200     0.0680 C.2   1 <1>   0.6340 
  3 O       -1.5910     1.5730    -0.6080 O.3   1 <1>  -0.4300 
  4 C       -2.7940    -0.3980     0.1160 C.ar  1 <1>   0.0860 
  5 C       -2.7430     2.3720    -0.7840 C.3   1 <1>   0.0400 
  6 C       -3.5090    -0.7410    -1.0350 C.ar  1 <1>  -0.1500 
  7 C       -3.2760    -0.8920     1.3280 C.ar  1 <1>  -0.1500 
  8 C       -4.6530    -1.5130    -0.9710 C.ar  1 <1>  -0.1500 
  9 C       -4.4200    -1.6630     1.3940 C.ar  1 <1>  -0.1500 
 10 C       -5.1340    -1.9880     0.2440 C.ar  1 <1>   0.1170 
 11 N       -6.3050    -2.7540     0.2440 N.am  1 <1>  -0.5470 
 12 C       -6.8940    -3.5380     1.2030 C.2   1 <1>   0.5690 
 13 O       -6.4230    -3.7260     2.2950 O.2   1 <1>  -0.5700 
 14 C       -8.2180    -4.1880     0.8920 C.3   1 <1>  -0.0380 
 15 C       -8.1430    -4.8700    -0.4440 C.2   1 <1>   0.6590 
 16 O       -8.0490    -4.2290    -1.4610 O.2   1 <1>  -0.5700 
 17 O       -8.1850    -6.1930    -0.4360 O.3   1 <1>  -0.4300 
 18 C       -8.1130    -6.9420    -1.6280 C.3   1 <1>   0.1200 
 19 C       -8.1840    -8.4200    -1.2620 C.3   1 <1>  -0.2400 
 20 H       -2.4250     3.3480    -1.1080 H     1 <1>   0.0800 
 21 H       -3.2640     2.4530     0.1540 H     1 <1>   0.0800 
 22 H       -3.3740     1.9310    -1.5340 H     1 <1>   0.0800 
 23 H       -3.1520    -0.3990    -1.9910 H     1 <1>   0.1500 
 24 H       -2.7360    -0.6640     2.2320 H     1 <1>   0.1500 
 25 H       -5.1780    -1.7570    -1.8780 H     1 <1>   0.1500 
 26 H       -4.7550    -2.0120     2.3540 H     1 <1>   0.1500 
 27 H       -6.7760    -2.8060    -0.6670 H     1 <1>   0.3700 
 28 H       -8.9850    -3.4390     0.8690 H     1 <1>   0.0800 
 29 H       -8.4580    -4.9060     1.6530 H     1 <1>   0.0800 
 30 H       -7.1830    -6.7100    -2.1210 H     1 <1>   0.0800 
 31 H       -8.9380    -6.6590    -2.2600 H     1 <1>   0.0800 
 32 H       -7.3610    -8.6840    -0.6220 H     1 <1>   0.0800 
 33 H       -8.1290    -9.0180    -2.1530 H     1 <1>   0.0800 
 34 H       -9.1110    -8.6350    -0.7620 H     1 <1>   0.0800 
@<TRIPOS>BOND
  1   1   2  2   
  2   2   3  1   
  3   2   4  1   
  4   3   5  1   
  5   4   6  ar  
  6   4   7  ar  
  7   5  20  1   
  8   5  21  1   
  9   5  22  1   
 10   6   8  ar  
 11   6  23  1   
 12   7   9  ar  
 13   7  24  1   
 14   8  10  ar  
 15   8  25  1   
 16   9  10  ar  
 17   9  26  1   
 18  10  11  1   
 19  11  12  am  
 20  11  27  1   
 21  12  13  2   
 22  12  14  1   
 23  14  15  1   
 24  14  28  1   
 25  14  29  1   
 26  15  16  2   
 27  15  17  1   
 28  17  18  1   
 29  18  19  1   
 30  18  30  1   
 31  18  31  1   
 32  19  32  1   
 33  19  33  1   
 34  19  34  1   
@<TRIPOS>SUBSTRUCTURE
  1 ****  10 GROUP 4 **** **** 0

# MOE 2024.06 (io_trps.svl 2023.06)
