@<TRIPOS>MOLECULE
NONAME
29 29 1 0 0 
SMALL
USER_CHARGES


@<TRIPOS>ATOM
  1 CL      -2.4490     3.6300    -2.4220 Cl    1 <1>  -0.1770 
  2 C       -1.2400     3.7100    -1.1640 C.ar  1 <1>   0.1770 
  3 C       -1.5310     4.2890     0.0590 C.ar  1 <1>   0.1770 
  4 C        0.0140     3.1860    -1.4090 C.ar  1 <1>  -0.1500 
  5 CL      -3.1090     4.9560     0.3880 Cl    1 <1>  -0.1770 
  6 C       -0.5610     4.3430     1.0410 C.ar  1 <1>  -0.1500 
  7 C        1.0200     3.2220    -0.4370 C.ar  1 <1>   0.0860 
  8 C        0.6960     3.8160     0.7930 C.ar  1 <1>  -0.1500 
  9 C        2.3260     2.6600    -0.7300 C.2   1 <1>   0.4230 
 10 O        2.6060     2.1910    -1.8020 O.2   1 <1>  -0.5700 
 11 C        3.4240     2.6370     0.3250 C.3   1 <1>  -0.0990 
 12 C        4.6580     1.9010    -0.2130 C.3   1 <1>   0.3430 
 13 N        5.7500     1.7990     0.8070 N.4   1 <1>  -0.9590 
 14 C        6.4040     3.1190     1.0790 C.3   1 <1>   0.2630 
 15 C        6.7740     0.8110     0.3430 C.3   1 <1>   0.2630 
 16 H        0.2100     2.7430    -2.3710 H     1 <1>   0.1500 
 17 H       -0.7970     4.7960     1.9890 H     1 <1>   0.1500 
 18 H        1.4250     3.8780     1.5810 H     1 <1>   0.1500 
 19 H        3.0550     2.1280     1.1960 H     1 <1>   0.0800 
 20 H        3.6760     3.6510     0.5720 H     1 <1>   0.0800 
 21 H        5.0200     2.4080    -1.0940 H     1 <1>   0.0800 
 22 H        4.3530     0.9110    -0.5160 H     1 <1>   0.0800 
 23 H        5.3450     1.4380     1.6850 H     1 <1>   0.4500 
 24 H        6.8250     3.5220     0.1720 H     1 <1>   0.0800 
 25 H        7.1950     3.0020     1.8020 H     1 <1>   0.0800 
 26 H        5.6880     3.8230     1.4700 H     1 <1>   0.0800 
 27 H        7.2230     1.1420    -0.5800 H     1 <1>   0.0800 
 28 H        6.3190    -0.1520     0.1770 H     1 <1>   0.0800 
 29 H        7.5510     0.7000     1.0830 H     1 <1>   0.0800 
@<TRIPOS>BOND
  1   1   2  1   
  2   2   3  ar  
  3   2   4  ar  
  4   3   5  1   
  5   3   6  ar  
  6   4   7  ar  
  7   4  16  1   
  8   6   8  ar  
  9   6  17  1   
 10   7   8  ar  
 11   7   9  1   
 12   8  18  1   
 13   9  10  2   
 14   9  11  1   
 15  11  12  1   
 16  11  19  1   
 17  11  20  1   
 18  12  13  1   
 19  12  21  1   
 20  12  22  1   
 21  13  14  1   
 22  13  15  1   
 23  13  23  1   
 24  14  24  1   
 25  14  25  1   
 26  14  26  1   
 27  15  27  1   
 28  15  28  1   
 29  15  29  1   
@<TRIPOS>SUBSTRUCTURE
  1 ****   7 GROUP 4 **** **** 0

# MOE 2024.06 (io_trps.svl 2023.06)
