@<TRIPOS>MOLECULE
NONAME
49 51 1 0 0 
SMALL
USER_CHARGES


@<TRIPOS>ATOM
  1 O        0.3750     0.8560    -0.9660 O.2   1 <1>  -0.5700 
  2 C        0.2240     1.8530    -0.2850 C.2   1 <1>   0.5440 
  3 N        1.2910     2.3320     0.4520 N.am  1 <1>  -0.6600 
  4 C       -1.0720     2.5060    -0.2760 C.ar  1 <1>   0.0860 
  5 C        2.5630     1.5670     0.5670 C.3   1 <1>   0.1400 
  6 C        1.3300     3.6960     1.0500 C.3   1 <1>   0.1400 
  7 C       -1.6390     2.9860    -1.4550 C.ar  1 <1>  -0.1500 
  8 C       -1.7940     2.6730     0.9060 C.ar  1 <1>  -0.1500 
  9 C        3.7030     2.3620    -0.0760 C.3   1 <1>  -0.1600 
 10 C        2.4670     4.5020     0.4170 C.3   1 <1>  -0.1600 
 11 C       -2.8670     3.6210    -1.4550 C.ar  1 <1>  -0.1500 
 12 C       -3.0230     3.3080     0.9130 C.ar  1 <1>  -0.1500 
 13 C        3.8220     3.7730     0.5290 C.3   1 <1>  -0.0190 
 14 C       -3.5610     3.7860    -0.2690 C.ar  1 <1>  -0.1500 
 15 C        4.9740     4.5500    -0.1120 C.2   1 <1>   0.5690 
 16 O        4.7410     5.3460    -0.9890 O.2   1 <1>  -0.5700 
 17 N        6.2340     4.2790     0.3500 N.am  1 <1>  -0.5470 
 18 C        7.4920     4.8020     0.0030 C.ar  1 <1>   0.1170 
 19 C        8.6430     4.0580     0.2710 C.ar  1 <1>  -0.1430 
 20 C        7.6320     6.0570    -0.5830 C.ar  1 <1>  -0.1500 
 21 C        9.8900     4.5730    -0.0500 C.ar  1 <1>  -0.1500 
 22 C        8.5650     2.6760     0.9080 C.3   1 <1>  -0.0970 
 23 C        8.8790     6.5610    -0.9010 C.ar  1 <1>  -0.1500 
 24 C       10.0170     5.8210    -0.6370 C.ar  1 <1>  -0.1430 
 25 C       11.3890     6.3700    -0.9820 C.3   1 <1>  -0.0970 
 26 H        2.4780     0.6070     0.0860 H     1 <1>   0.0800 
 27 H        2.7730     1.3960     1.6080 H     1 <1>   0.0800 
 28 H        1.4850     3.6100     2.1110 H     1 <1>   0.0800 
 29 H        0.4030     4.2180     0.8880 H     1 <1>   0.0800 
 30 H       -1.1020     2.8510    -2.3780 H     1 <1>   0.1500 
 31 H       -1.3820     2.2950     1.8250 H     1 <1>   0.1500 
 32 H        3.5170     2.4360    -1.1350 H     1 <1>   0.0800 
 33 H        4.6230     1.8220     0.0540 H     1 <1>   0.0800 
 34 H        2.5340     5.4630     0.8960 H     1 <1>   0.0800 
 35 H        2.2310     4.6730    -0.6190 H     1 <1>   0.0800 
 36 H       -3.2850     3.9860    -2.3780 H     1 <1>   0.1500 
 37 H       -3.5650     3.4280     1.8360 H     1 <1>   0.1500 
 38 H        4.0470     3.6720     1.5760 H     1 <1>   0.0800 
 39 H       -4.5170     4.2800    -0.2670 H     1 <1>   0.1500 
 40 H        6.2890     3.5250     1.0270 H     1 <1>   0.3700 
 41 H        6.7640     6.6530    -0.7930 H     1 <1>   0.1500 
 42 H       10.7770     4.0020     0.1570 H     1 <1>   0.1500 
 43 H        7.9350     2.0330     0.3190 H     1 <1>   0.0800 
 44 H        8.1700     2.7500     1.9050 H     1 <1>   0.0800 
 45 H        9.5390     2.2240     0.9660 H     1 <1>   0.0800 
 46 H        8.9560     7.5330    -1.3540 H     1 <1>   0.1500 
 47 H       12.0480     5.5740    -1.2770 H     1 <1>   0.0800 
 48 H       11.8060     6.8690    -0.1260 H     1 <1>   0.0800 
 49 H       11.3210     7.0720    -1.7940 H     1 <1>   0.0800 
@<TRIPOS>BOND
  1   1   2  2   
  2   2   3  am  
  3   2   4  1   
  4   3   5  1   
  5   3   6  1   
  6   4   7  ar  
  7   4   8  ar  
  8   5   9  1   
  9   5  26  1   
 10   5  27  1   
 11   6  10  1   
 12   6  28  1   
 13   6  29  1   
 14   7  11  ar  
 15   7  30  1   
 16   8  12  ar  
 17   8  31  1   
 18   9  13  1   
 19   9  32  1   
 20   9  33  1   
 21  10  13  1   
 22  10  34  1   
 23  10  35  1   
 24  11  14  ar  
 25  11  36  1   
 26  12  14  ar  
 27  12  37  1   
 28  13  15  1   
 29  13  38  1   
 30  14  39  1   
 31  15  16  2   
 32  15  17  am  
 33  17  18  1   
 34  17  40  1   
 35  18  19  ar  
 36  18  20  ar  
 37  19  21  ar  
 38  19  22  1   
 39  20  23  ar  
 40  20  41  1   
 41  21  24  ar  
 42  21  42  1   
 43  22  43  1   
 44  22  44  1   
 45  22  45  1   
 46  23  24  ar  
 47  23  46  1   
 48  24  25  1   
 49  25  47  1   
 50  25  48  1   
 51  25  49  1   
@<TRIPOS>SUBSTRUCTURE
  1 ****  13 GROUP 4 **** **** 0

# MOE 2024.06 (io_trps.svl 2023.06)
