@<TRIPOS>MOLECULE
NONAME
46 49 1 0 0 
SMALL
USER_CHARGES


@<TRIPOS>ATOM
  1 CL      -0.7830    -0.4270     1.6310 Cl    1 <1>  -0.1770 
  2 C       -2.3940     0.0140     1.1240 C.ar  1 <1>   0.1770 
  3 C       -2.6340     1.2930     0.6580 C.ar  1 <1>  -0.1500 
  4 C       -3.4080    -0.9220     1.1940 C.ar  1 <1>  -0.1500 
  5 C       -3.9130     1.6380     0.2560 C.ar  1 <1>  -0.1500 
  6 C       -4.6840    -0.5680     0.7910 C.ar  1 <1>  -0.1500 
  7 C       -4.9560     0.7140     0.3160 C.ar  1 <1>   0.1170 
  8 N       -6.2620     1.0660    -0.0940 N.am  1 <1>  -0.2370 
  9 C       -7.0580     0.3140    -0.9150 C.2   1 <1>   0.5690 
 10 C       -6.9160     2.2210     0.2380 C.2   1 <1>   0.5690 
 11 O       -6.7090    -0.6780    -1.5100 O.2   1 <1>  -0.5700 
 12 C       -8.4580     0.9360    -1.0620 C.3   1 <1>   0.2510 
 13 O       -6.4880     3.1110     0.9260 O.2   1 <1>  -0.5700 
 14 C       -8.2810     2.3050    -0.3920 C.3   1 <1>  -0.0990 
 15 N       -9.5810     0.2070    -0.3990 N.3   1 <1>  -0.8100 
 16 C       -9.5740    -1.2500    -0.7090 C.3   1 <1>   0.1100 
 17 C      -10.8990     0.7690    -0.8060 C.3   1 <1>   0.1100 
 18 C      -10.7450    -2.0090    -0.0530 C.3   1 <1>   0.2090 
 19 C      -12.0800     0.0570    -0.1220 C.3   1 <1>   0.2090 
 20 N      -12.0580    -1.4020    -0.4160 N.pl3 1 <1>  -0.8380 
 21 C      -13.1860    -2.1210    -0.0420 C.ar  1 <1>   0.1000 
 22 C      -13.9850    -2.6900    -1.0280 C.ar  1 <1>  -0.1500 
 23 C      -13.5360    -2.2830     1.2980 C.ar  1 <1>  -0.1500 
 24 C      -15.1180    -3.4120    -0.6940 C.ar  1 <1>  -0.1500 
 25 C      -14.6650    -3.0020     1.6500 C.ar  1 <1>  -0.1500 
 26 C      -15.4360    -3.5530     0.6440 C.ar  1 <1>   0.1900 
 27 F      -16.5060    -4.2340     0.9700 F     1 <1>  -0.1900 
 28 H       -1.8300     2.0050     0.6140 H     1 <1>   0.1500 
 29 H       -3.1970    -1.9120     1.5580 H     1 <1>   0.1500 
 30 H       -4.1010     2.6350    -0.1020 H     1 <1>   0.1500 
 31 H       -5.4750    -1.2970     0.8410 H     1 <1>   0.1500 
 32 H       -8.6680     1.0490    -2.1120 H     1 <1>   0.0800 
 33 H       -8.2840     3.0940    -1.1210 H     1 <1>   0.0800 
 34 H       -9.0110     2.5000     0.3710 H     1 <1>   0.0800 
 35 H       -8.6640    -1.6960    -0.3500 H     1 <1>   0.0800 
 36 H       -9.6200    -1.3990    -1.7740 H     1 <1>   0.0800 
 37 H      -11.0210     0.6770    -1.8720 H     1 <1>   0.0800 
 38 H      -10.9500     1.8130    -0.5550 H     1 <1>   0.0800 
 39 H      -10.6210    -1.9900     1.0160 H     1 <1>   0.0800 
 40 H      -10.7290    -3.0350    -0.3740 H     1 <1>   0.0800 
 41 H      -13.0060     0.4740    -0.4790 H     1 <1>   0.0800 
 42 H      -12.0250     0.2160     0.9410 H     1 <1>   0.0800 
 43 H      -13.7040    -2.5580    -2.0570 H     1 <1>   0.1500 
 44 H      -12.9180    -1.8440     2.0590 H     1 <1>   0.1500 
 45 H      -15.7410    -3.8550    -1.4480 H     1 <1>   0.1500 
 46 H      -14.9460    -3.1340     2.6790 H     1 <1>   0.1500 
@<TRIPOS>BOND
  1   1   2  1   
  2   2   3  ar  
  3   2   4  ar  
  4   3   5  ar  
  5   3  28  1   
  6   4   6  ar  
  7   4  29  1   
  8   5   7  ar  
  9   5  30  1   
 10   6   7  ar  
 11   6  31  1   
 12   7   8  1   
 13   8   9  am  
 14   8  10  am  
 15   9  11  2   
 16   9  12  1   
 17  10  13  2   
 18  10  14  1   
 19  12  14  1   
 20  12  15  1   
 21  12  32  1   
 22  14  33  1   
 23  14  34  1   
 24  15  16  1   
 25  15  17  1   
 26  16  18  1   
 27  16  35  1   
 28  16  36  1   
 29  17  19  1   
 30  17  37  1   
 31  17  38  1   
 32  18  20  1   
 33  18  39  1   
 34  18  40  1   
 35  19  20  1   
 36  19  41  1   
 37  19  42  1   
 38  20  21  1   
 39  21  22  ar  
 40  21  23  ar  
 41  22  24  ar  
 42  22  43  1   
 43  23  25  ar  
 44  23  44  1   
 45  24  26  ar  
 46  24  45  1   
 47  25  26  ar  
 48  25  46  1   
 49  26  27  1   
@<TRIPOS>SUBSTRUCTURE
  1 ****  15 GROUP 4 **** **** 0

# MOE 2024.06 (io_trps.svl 2023.06)
