@<TRIPOS>MOLECULE
NONAME
49 50 1 0 0 
SMALL
USER_CHARGES


@<TRIPOS>ATOM
  1 O       -0.9420    -0.7410     0.1250 O.3   1 <1>  -0.3630 
  2 C       -2.2440    -1.0250    -0.1160 C.ar  1 <1>   0.0820 
  3 C       -0.0180    -1.1470    -0.8620 C.3   1 <1>   0.0400 
  4 C       -2.9780    -0.4190    -1.1410 C.ar  1 <1>   0.0820 
  5 C       -2.8480    -1.9630     0.7020 C.ar  1 <1>  -0.1500 
  6 O       -2.4750     0.5420    -1.9560 O.3   1 <1>  -0.3630 
  7 C       -4.2890    -0.8020    -1.3600 C.ar  1 <1>  -0.1500 
  8 C       -4.1730    -2.3330     0.4910 C.ar  1 <1>   0.0820 
  9 C       -2.0340     1.7380    -1.3460 C.3   1 <1>   0.0400 
 10 C       -4.8920    -1.7530    -0.5510 C.ar  1 <1>  -0.1440 
 11 O       -4.8190    -3.2480     1.2680 O.3   1 <1>  -0.3630 
 12 C       -6.3320    -2.1520    -0.8060 C.3   1 <1>   0.4860 
 13 C       -4.1040    -4.0260     2.2100 C.3   1 <1>   0.0400 
 14 N       -7.1300    -1.8470     0.4090 N.4   1 <1>  -0.9590 
 15 C       -8.4470    -2.5510     0.3890 C.3   1 <1>   0.4860 
 16 C       -7.2180    -0.3810     0.6300 C.3   1 <1>   0.3430 
 17 C       -9.2680    -2.1370    -0.8240 C.ar  1 <1>  -0.1440 
 18 C       -7.6490    -0.1030     2.0650 C.3   1 <1>  -0.2400 
 19 C      -10.1060    -1.0310    -0.7640 C.ar  1 <1>  -0.1500 
 20 C       -9.1960    -2.8700    -2.0010 C.ar  1 <1>  -0.1500 
 21 C      -10.8410    -0.6500    -1.8720 C.ar  1 <1>  -0.1500 
 22 C       -9.9310    -2.4880    -3.1090 C.ar  1 <1>  -0.1500 
 23 C      -10.7520    -1.3760    -3.0460 C.ar  1 <1>  -0.1500 
 24 H        0.9710    -0.9110    -0.5130 H     1 <1>   0.0800 
 25 H       -0.2180    -0.6210    -1.7780 H     1 <1>   0.0800 
 26 H       -0.1130    -2.2080    -1.0120 H     1 <1>   0.0800 
 27 H       -2.2550    -2.3870     1.4900 H     1 <1>   0.1500 
 28 H       -4.8220    -0.3380    -2.1730 H     1 <1>   0.1500 
 29 H       -1.8400     2.4570    -2.1210 H     1 <1>   0.0800 
 30 H       -1.1310     1.5490    -0.7950 H     1 <1>   0.0800 
 31 H       -2.8040     2.1020    -0.6900 H     1 <1>   0.0800 
 32 H       -6.3650    -3.2090    -1.0130 H     1 <1>   0.0800 
 33 H       -6.7280    -1.6210    -1.6570 H     1 <1>   0.0800 
 34 H       -3.7080    -3.3810     2.9750 H     1 <1>   0.0800 
 35 H       -3.3100    -4.5490     1.7040 H     1 <1>   0.0800 
 36 H       -4.7810    -4.7360     2.6500 H     1 <1>   0.0800 
 37 H       -6.5550    -2.2430     1.1710 H     1 <1>   0.4500 
 38 H       -8.9990    -2.3280     1.2870 H     1 <1>   0.0800 
 39 H       -8.2880    -3.6160     0.3570 H     1 <1>   0.0800 
 40 H       -7.9100     0.0640    -0.0660 H     1 <1>   0.0800 
 41 H       -6.2500     0.0690     0.4710 H     1 <1>   0.0800 
 42 H       -7.6380     0.9600     2.2330 H     1 <1>   0.0800 
 43 H       -6.9650    -0.5540     2.7620 H     1 <1>   0.0800 
 44 H       -8.6470    -0.4520     2.2550 H     1 <1>   0.0800 
 45 H      -10.2030    -0.4560     0.1410 H     1 <1>   0.1500 
 46 H       -8.5760    -3.7480    -2.0740 H     1 <1>   0.1500 
 47 H      -11.4890     0.2090    -1.8250 H     1 <1>   0.1500 
 48 H       -9.8730    -3.0560    -4.0220 H     1 <1>   0.1500 
 49 H      -11.3250    -1.0800    -3.9080 H     1 <1>   0.1500 
@<TRIPOS>BOND
  1   1   2  1   
  2   1   3  1   
  3   2   4  ar  
  4   2   5  ar  
  5   3  24  1   
  6   3  25  1   
  7   3  26  1   
  8   4   6  1   
  9   4   7  ar  
 10   5   8  ar  
 11   5  27  1   
 12   6   9  1   
 13   7  10  ar  
 14   7  28  1   
 15   8  10  ar  
 16   8  11  1   
 17   9  29  1   
 18   9  30  1   
 19   9  31  1   
 20  10  12  1   
 21  11  13  1   
 22  12  14  1   
 23  12  32  1   
 24  12  33  1   
 25  13  34  1   
 26  13  35  1   
 27  13  36  1   
 28  14  15  1   
 29  14  16  1   
 30  14  37  1   
 31  15  17  1   
 32  15  38  1   
 33  15  39  1   
 34  16  18  1   
 35  16  40  1   
 36  16  41  1   
 37  17  19  ar  
 38  17  20  ar  
 39  18  42  1   
 40  18  43  1   
 41  18  44  1   
 42  19  21  ar  
 43  19  45  1   
 44  20  22  ar  
 45  20  46  1   
 46  21  23  ar  
 47  21  47  1   
 48  22  23  ar  
 49  22  48  1   
 50  23  49  1   
@<TRIPOS>SUBSTRUCTURE
  1 ****  10 GROUP 4 **** **** 0

# MOE 2024.06 (io_trps.svl 2023.06)
