@<TRIPOS>MOLECULE
NONAME
40 41 1 0 0 
SMALL
USER_CHARGES


@<TRIPOS>ATOM
  1 O       -1.0520     1.6700     1.3320 O.2   1 <1>  -0.5700 
  2 C       -0.5630     2.0180     0.2750 C.2   1 <1>   0.5440 
  3 N       -1.2980     1.8540    -0.8680 N.am  1 <1>  -0.7300 
  4 C        0.7740     2.5880     0.2230 C.ar  1 <1>   0.0860 
  5 C       -2.6240     1.1940    -0.9390 C.3   1 <1>   0.1400 
  6 C        1.7260     2.2630     1.1890 C.ar  1 <1>  -0.1500 
  7 C        1.1640     3.4760    -0.7810 C.ar  1 <1>  -0.1500 
  8 C       -3.7110     2.1640    -0.4710 C.3   1 <1>  -0.0990 
  9 C        3.0060     2.7850     1.1500 C.ar  1 <1>  -0.1500 
 10 C        2.4440     4.0010    -0.8250 C.ar  1 <1>  -0.1500 
 11 C       -5.1040     1.5680    -0.5830 C.2   1 <1>   0.5690 
 12 C        3.3750     3.6560     0.1390 C.ar  1 <1>  -0.1430 
 13 O       -5.2750     0.6640    -1.3680 O.2   1 <1>  -0.5700 
 14 N       -6.1370     2.0590     0.1750 N.am  1 <1>  -0.6600 
 15 C        4.7790     4.2310     0.0950 C.3   1 <1>  -0.0970 
 16 C       -7.4870     1.4180     0.1580 C.3   1 <1>   0.1400 
 17 C       -6.0700     3.2480     1.0820 C.3   1 <1>   0.1400 
 18 C       -8.5900     2.4700    -0.0400 C.3   1 <1>   0.1200 
 19 C       -7.2610     4.1910     0.8370 C.3   1 <1>   0.1200 
 20 O       -8.4720     3.4940     0.9080 O.3   1 <1>  -0.5600 
 21 H       -0.8480     2.0270    -1.7670 H     1 <1>   0.3700 
 22 H       -2.6260     0.3190    -0.3100 H     1 <1>   0.0800 
 23 H       -2.8130     0.8820    -1.9530 H     1 <1>   0.0800 
 24 H        1.4520     1.5890     1.9820 H     1 <1>   0.1500 
 25 H        0.4580     3.7710    -1.5350 H     1 <1>   0.1500 
 26 H       -3.6770     3.0580    -1.0630 H     1 <1>   0.0800 
 27 H       -3.5130     2.4060     0.5560 H     1 <1>   0.0800 
 28 H        3.7150     2.5110     1.9130 H     1 <1>   0.1500 
 29 H        2.7140     4.6840    -1.6120 H     1 <1>   0.1500 
 30 H        5.4840     3.5330     0.5100 H     1 <1>   0.0800 
 31 H        4.8160     5.1420     0.6640 H     1 <1>   0.0800 
 32 H        5.0690     4.4420    -0.9190 H     1 <1>   0.0800 
 33 H       -7.6480     0.9090     1.0920 H     1 <1>   0.0800 
 34 H       -7.5530     0.6880    -0.6290 H     1 <1>   0.0800 
 35 H       -5.1620     3.8020     0.9300 H     1 <1>   0.0800 
 36 H       -6.0910     2.9130     2.1040 H     1 <1>   0.0800 
 37 H       -9.5580     2.0180     0.0830 H     1 <1>   0.0800 
 38 H       -8.5310     2.8990    -1.0250 H     1 <1>   0.0800 
 39 H       -7.1860     4.6520    -0.1330 H     1 <1>   0.0800 
 40 H       -7.2840     4.9620     1.5850 H     1 <1>   0.0800 
@<TRIPOS>BOND
  1   1   2  2   
  2   2   3  am  
  3   2   4  1   
  4   3   5  1   
  5   3  21  1   
  6   4   6  ar  
  7   4   7  ar  
  8   5   8  1   
  9   5  22  1   
 10   5  23  1   
 11   6   9  ar  
 12   6  24  1   
 13   7  10  ar  
 14   7  25  1   
 15   8  11  1   
 16   8  26  1   
 17   8  27  1   
 18   9  12  ar  
 19   9  28  1   
 20  10  12  ar  
 21  10  29  1   
 22  11  13  2   
 23  11  14  am  
 24  12  15  1   
 25  14  16  1   
 26  14  17  1   
 27  15  30  1   
 28  15  31  1   
 29  15  32  1   
 30  16  18  1   
 31  16  33  1   
 32  16  34  1   
 33  17  19  1   
 34  17  35  1   
 35  17  36  1   
 36  18  20  1   
 37  18  37  1   
 38  18  38  1   
 39  19  20  1   
 40  19  39  1   
 41  19  40  1   
@<TRIPOS>SUBSTRUCTURE
  1 ****   8 GROUP 4 **** **** 0

# MOE 2024.06 (io_trps.svl 2023.06)
