@<TRIPOS>MOLECULE
NONAME
33 33 1 0 0 
SMALL
USER_CHARGES


@<TRIPOS>ATOM
  1 O       -0.6130    -0.1950    -0.3890 O.2   1 <1>  -0.5700 
  2 C       -1.4750     0.6660    -0.2910 C.2   1 <1>   0.7060 
  3 O       -2.7190     0.2220    -0.0610 O.3   1 <1>  -0.2270 
  4 C       -1.2240     2.0650    -0.3950 C.2   1 <1>   0.0290 
  5 C       -3.7460     1.0520     0.0880 C.2   1 <1>  -0.0610 
  6 C       -2.2810     2.9520    -0.2100 C.2   1 <1>   0.1000 
  7 C        0.1150     2.4320    -0.6960 C.2   1 <1>   0.4950 
  8 C       -3.5630     2.3870     0.0210 C.2   1 <1>  -0.1500 
  9 C       -5.0730     0.3600     0.3290 C.3   1 <1>  -0.1020 
 10 N       -2.2460     4.3200    -0.2000 N.pl3 1 <1>  -0.8690 
 11 O        0.4420     3.0530    -1.6820 O.2   1 <1>  -0.5700 
 12 C        1.2370     2.0570     0.2530 C.3   1 <1>  -0.1790 
 13 C       -1.1100     5.2420    -0.4270 C.3   1 <1>   0.2090 
 14 C       -1.5170     6.6430     0.0240 C.3   1 <1>  -0.1600 
 15 C       -0.3710     7.6430    -0.1740 C.3   1 <1>  -0.1600 
 16 C       -0.7810     9.0480     0.2780 C.3   1 <1>  -0.2400 
 17 H       -4.3890     3.0650     0.1430 H     1 <1>   0.1500 
 18 H       -5.0170    -0.2360     1.2220 H     1 <1>   0.0800 
 19 H       -5.3050    -0.2830    -0.5020 H     1 <1>   0.0800 
 20 H       -5.8630     1.0790     0.4410 H     1 <1>   0.0800 
 21 H       -3.1290     4.8300    -0.0970 H     1 <1>   0.4000 
 22 H        1.8300     1.2780    -0.1900 H     1 <1>   0.0800 
 23 H        0.8470     1.7120     1.1920 H     1 <1>   0.0800 
 24 H        1.8620     2.9140     0.4270 H     1 <1>   0.0800 
 25 H       -0.8590     5.2500    -1.4760 H     1 <1>   0.0800 
 26 H       -0.2530     4.9160     0.1360 H     1 <1>   0.0800 
 27 H       -1.7860     6.6120     1.0660 H     1 <1>   0.0800 
 28 H       -2.3700     6.9640    -0.5470 H     1 <1>   0.0800 
 29 H       -0.0920     7.6740    -1.2140 H     1 <1>   0.0800 
 30 H        0.4890     7.3270     0.3920 H     1 <1>   0.0800 
 31 H       -1.6250     9.3960    -0.2910 H     1 <1>   0.0800 
 32 H        0.0350     9.7340     0.1320 H     1 <1>   0.0800 
 33 H       -1.0430     9.0470     1.3220 H     1 <1>   0.0800 
@<TRIPOS>BOND
  1   1   2  2   
  2   2   3  1   
  3   2   4  1   
  4   3   5  1   
  5   4   6  2   
  6   4   7  1   
  7   5   8  2   
  8   5   9  1   
  9   6   8  1   
 10   6  10  1   
 11   7  11  2   
 12   7  12  1   
 13   8  17  1   
 14   9  18  1   
 15   9  19  1   
 16   9  20  1   
 17  10  13  1   
 18  10  21  1   
 19  12  22  1   
 20  12  23  1   
 21  12  24  1   
 22  13  14  1   
 23  13  25  1   
 24  13  26  1   
 25  14  15  1   
 26  14  27  1   
 27  14  28  1   
 28  15  16  1   
 29  15  29  1   
 30  15  30  1   
 31  16  31  1   
 32  16  32  1   
 33  16  33  1   
@<TRIPOS>SUBSTRUCTURE
  1 ****   6 GROUP 4 **** **** 0

# MOE 2024.06 (io_trps.svl 2023.06)
