@<TRIPOS>MOLECULE
NONAME
47 49 1 0 0 
SMALL
USER_CHARGES


@<TRIPOS>ATOM
  1 CL       0.3400    -0.4500    -1.7620 Cl    1 <1>  -0.1770 
  2 C       -0.0660    -1.8740    -0.8370 C.ar  1 <1>   0.1770 
  3 C       -1.3820    -2.2830    -0.7640 C.ar  1 <1>  -0.1500 
  4 C        0.9440    -2.5690    -0.1980 C.ar  1 <1>  -0.1500 
  5 C       -1.7170    -3.4170    -0.0310 C.ar  1 <1>   0.1170 
  6 C        0.6210    -3.7010     0.5310 C.ar  1 <1>  -0.1500 
  7 N       -3.0310    -3.8950     0.0710 N.am  1 <1>  -0.5470 
  8 C       -0.6970    -4.1170     0.6100 C.ar  1 <1>  -0.1500 
  9 C       -4.2360    -3.2400    -0.0370 C.2   1 <1>   0.5440 
 10 O       -4.2710    -2.0300    -0.1290 O.2   1 <1>  -0.5700 
 11 C       -5.4680    -4.0030    -0.0090 C.ar  1 <1>   0.0860 
 12 C       -6.5980    -3.5110     0.6390 C.ar  1 <1>  -0.1500 
 13 C       -5.5800    -5.2460    -0.6260 C.ar  1 <1>  -0.1500 
 14 C       -7.8040    -4.1990     0.7000 C.ar  1 <1>  -0.0090 
 15 C       -6.7630    -5.9550    -0.5850 C.ar  1 <1>  -0.1500 
 16 S       -9.2170    -3.4320     1.5630 S.o2  1 <1>   1.4470 
 17 C       -7.8730    -5.4440     0.0690 C.ar  1 <1>  -0.1440 
 18 O       -8.8240    -2.1580     2.1270 O.2   1 <1>  -0.6500 
 19 O       -9.8490    -4.4030     2.4310 O.2   1 <1>  -0.6500 
 20 N      -10.3060    -3.0820     0.3110 N.am  1 <1>  -0.8490 
 21 C       -9.1510    -6.2760     0.0700 C.3   1 <1>  -0.0970 
 22 C      -11.6330    -2.7570     0.8410 C.3   1 <1>   0.1960 
 23 C       -9.8130    -2.0090    -0.5600 C.3   1 <1>   0.1960 
 24 C      -12.6380    -2.5970    -0.3050 C.3   1 <1>  -0.1600 
 25 C      -10.7470    -1.8340    -1.7620 C.3   1 <1>  -0.1600 
 26 C      -12.1810    -1.5360    -1.3120 C.3   1 <1>  -0.1600 
 27 H       -2.1350    -1.7170    -1.2790 H     1 <1>   0.1500 
 28 H        1.9600    -2.2260    -0.2720 H     1 <1>   0.1500 
 29 H        1.3960    -4.2530     1.0360 H     1 <1>   0.1500 
 30 H       -3.1090    -4.8690     0.3570 H     1 <1>   0.3700 
 31 H       -0.9340    -4.9950     1.1820 H     1 <1>   0.1500 
 32 H       -6.5220    -2.5450     1.1140 H     1 <1>   0.1500 
 33 H       -4.7390    -5.6590    -1.1550 H     1 <1>   0.1500 
 34 H       -6.8170    -6.9140    -1.0730 H     1 <1>   0.1500 
 35 H       -9.0470    -7.1530    -0.5420 H     1 <1>   0.0800 
 36 H       -9.3860    -6.5950     1.0700 H     1 <1>   0.0800 
 37 H       -9.9760    -5.7030    -0.3150 H     1 <1>   0.0800 
 38 H      -11.5830    -1.8490     1.4210 H     1 <1>   0.0800 
 39 H      -11.9730    -3.5500     1.4870 H     1 <1>   0.0800 
 40 H       -8.8280    -2.2520    -0.9200 H     1 <1>   0.0800 
 41 H       -9.7520    -1.0840    -0.0090 H     1 <1>   0.0800 
 42 H      -13.5970    -2.3260     0.0980 H     1 <1>   0.0800 
 43 H      -12.7470    -3.5460    -0.8010 H     1 <1>   0.0800 
 44 H      -10.7280    -2.7360    -2.3490 H     1 <1>   0.0800 
 45 H      -10.3860    -1.0310    -2.3800 H     1 <1>   0.0800 
 46 H      -12.2160    -0.5640    -0.8480 H     1 <1>   0.0800 
 47 H      -12.8410    -1.5250    -2.1630 H     1 <1>   0.0800 
@<TRIPOS>BOND
  1   1   2  1   
  2   2   3  ar  
  3   2   4  ar  
  4   3   5  ar  
  5   3  27  1   
  6   4   6  ar  
  7   4  28  1   
  8   5   7  1   
  9   5   8  ar  
 10   6   8  ar  
 11   6  29  1   
 12   7   9  am  
 13   7  30  1   
 14   8  31  1   
 15   9  10  2   
 16   9  11  1   
 17  11  12  ar  
 18  11  13  ar  
 19  12  14  ar  
 20  12  32  1   
 21  13  15  ar  
 22  13  33  1   
 23  14  16  1   
 24  14  17  ar  
 25  15  17  ar  
 26  15  34  1   
 27  16  18  2   
 28  16  19  2   
 29  16  20  am  
 30  17  21  1   
 31  20  22  1   
 32  20  23  1   
 33  21  35  1   
 34  21  36  1   
 35  21  37  1   
 36  22  24  1   
 37  22  38  1   
 38  22  39  1   
 39  23  25  1   
 40  23  40  1   
 41  23  41  1   
 42  24  26  1   
 43  24  42  1   
 44  24  43  1   
 45  25  26  1   
 46  25  44  1   
 47  25  45  1   
 48  26  46  1   
 49  26  47  1   
@<TRIPOS>SUBSTRUCTURE
  1 ****  12 GROUP 4 **** **** 0

# MOE 2024.06 (io_trps.svl 2023.06)
