@<TRIPOS>MOLECULE
NONAME
39 40 1 0 0 
SMALL
USER_CHARGES


@<TRIPOS>ATOM
  1 S        1.1200    -1.1050    -1.3650 S.3   1 <1>  -0.0800 
  2 C        0.9490    -0.9420     0.3780 C.2   1 <1>  -0.1400 
  3 C       -0.5580    -0.6650    -1.6200 C.2   1 <1>  -0.1100 
  4 C       -0.3130    -0.5870     0.6910 C.2   1 <1>  -0.1500 
  5 C        2.1640    -1.2290     1.2430 C.3   1 <1>   0.3200 
  6 C       -1.1690    -0.4260    -0.4450 C.2   1 <1>  -0.1500 
  7 N        3.1910    -0.1570     1.1090 N.am  1 <1>  -0.6600 
  8 C        3.2170     0.9490     1.9240 C.2   1 <1>   0.5690 
  9 C        4.2260    -0.4240     0.0600 C.3   1 <1>   0.2200 
 10 O        4.1250     1.7450     1.9240 O.2   1 <1>  -0.5700 
 11 C        2.0820     1.2290     2.8840 C.3   1 <1>  -0.1790 
 12 C        5.5900    -0.7230     0.6930 C.3   1 <1>  -0.1600 
 13 C        4.3180     0.7060    -0.9800 C.3   1 <1>  -0.1600 
 14 C        6.6420    -1.0300    -0.3950 C.3   1 <1>   0.2800 
 15 C        5.7570     0.9060    -1.4670 C.3   1 <1>   0.1200 
 16 O        6.3730    -0.3410    -1.5820 O.3   1 <1>  -0.5600 
 17 C        6.6150    -2.5110    -0.7770 C.3   1 <1>  -0.2400 
 18 C        8.0500    -0.6410     0.0590 C.3   1 <1>  -0.2400 
 19 H       -0.9130    -0.6320    -2.6340 H     1 <1>   0.1500 
 20 H       -0.6930    -0.4270     1.6840 H     1 <1>   0.1500 
 21 H        2.5860    -2.1790     0.9650 H     1 <1>   0.0800 
 22 H        1.8560    -1.3130     2.2690 H     1 <1>   0.0800 
 23 H       -2.1990    -0.1380    -0.3250 H     1 <1>   0.1500 
 24 H        3.9430    -1.3070    -0.4860 H     1 <1>   0.0800 
 25 H        2.2290     2.1900     3.3430 H     1 <1>   0.0800 
 26 H        2.0580     0.4850     3.6560 H     1 <1>   0.0800 
 27 H        1.1490     1.2480     2.3550 H     1 <1>   0.0800 
 28 H        5.5120    -1.5490     1.3750 H     1 <1>   0.0800 
 29 H        5.9160     0.1290     1.2590 H     1 <1>   0.0800 
 30 H        3.9630     1.6410    -0.5900 H     1 <1>   0.0800 
 31 H        3.7020     0.4550    -1.8230 H     1 <1>   0.0800 
 32 H        6.3200     1.5100    -0.7760 H     1 <1>   0.0800 
 33 H        5.7700     1.3780    -2.4340 H     1 <1>   0.0800 
 34 H        5.6430    -2.7880    -1.1400 H     1 <1>   0.0800 
 35 H        6.8510    -3.1220     0.0750 H     1 <1>   0.0800 
 36 H        7.3410    -2.7060    -1.5460 H     1 <1>   0.0800 
 37 H        8.0960     0.4050     0.3000 H     1 <1>   0.0800 
 38 H        8.7620    -0.8510    -0.7190 H     1 <1>   0.0800 
 39 H        8.3240    -1.2000     0.9340 H     1 <1>   0.0800 
@<TRIPOS>BOND
  1   1   2  1   
  2   1   3  1   
  3   2   4  2   
  4   2   5  1   
  5   3   6  2   
  6   3  19  1   
  7   4   6  1   
  8   4  20  1   
  9   5   7  1   
 10   5  21  1   
 11   5  22  1   
 12   6  23  1   
 13   7   8  am  
 14   7   9  1   
 15   8  10  2   
 16   8  11  1   
 17   9  12  1   
 18   9  13  1   
 19   9  24  1   
 20  11  25  1   
 21  11  26  1   
 22  11  27  1   
 23  12  14  1   
 24  12  28  1   
 25  12  29  1   
 26  13  15  1   
 27  13  30  1   
 28  13  31  1   
 29  14  16  1   
 30  14  17  1   
 31  14  18  1   
 32  15  16  1   
 33  15  32  1   
 34  15  33  1   
 35  17  34  1   
 36  17  35  1   
 37  17  36  1   
 38  18  37  1   
 39  18  38  1   
 40  18  39  1   
@<TRIPOS>SUBSTRUCTURE
  1 ****   9 GROUP 4 **** **** 0

# MOE 2024.06 (io_trps.svl 2023.06)
