@<TRIPOS>MOLECULE
NONAME
52 54 1 0 0 
SMALL
USER_CHARGES


@<TRIPOS>ATOM
  1 S       -0.4050     1.3880    -1.4420 S.o2  1 <1>   1.4470 
  2 O       -0.7560     0.5530    -2.5690 O.2   1 <1>  -0.6500 
  3 O        0.8450     2.1160    -1.5020 O.2   1 <1>  -0.6500 
  4 N       -0.3300     0.3760    -0.1030 N.am  1 <1>  -0.9140 
  5 C       -1.8100     2.4820    -1.0440 C.ar  1 <1>  -0.0090 
  6 C        0.7210    -0.6080    -0.1850 C.3   1 <1>   0.2760 
  7 C       -1.7640     3.8530    -0.7640 C.ar  1 <1>  -0.1430 
  8 C       -3.0440     1.8660    -0.9720 C.ar  1 <1>  -0.1500 
  9 C        0.2050    -1.9250     0.4010 C.3   1 <1>  -0.1600 
 10 C        1.9390    -0.1050     0.6020 C.3   1 <1>  -0.1600 
 11 C       -2.9250     4.5260    -0.4040 C.ar  1 <1>  -0.1500 
 12 C       -0.4670     4.6490    -0.8310 C.3   1 <1>  -0.0970 
 13 C       -4.2040     2.4900    -0.5300 C.ar  1 <1>   0.0860 
 14 C        1.3080    -2.9900     0.4800 C.3   1 <1>  -0.1600 
 15 C        3.0490    -1.1640     0.6710 C.3   1 <1>  -0.1600 
 16 C       -4.1280     3.8550    -0.2810 C.ar  1 <1>  -0.1500 
 17 C       -5.3860     1.6900    -0.2910 C.2   1 <1>   0.5440 
 18 C        2.5220    -2.4770     1.2650 C.3   1 <1>  -0.1600 
 19 O       -6.5040     2.1110    -0.5190 O.2   1 <1>  -0.5700 
 20 N       -5.1720     0.4390     0.2300 N.am  1 <1>  -0.5470 
 21 C       -5.8080    -0.7920     0.1020 C.ar  1 <1>   0.1170 
 22 C       -5.0300    -1.9640     0.1690 C.ar  1 <1>  -0.1790 
 23 C       -7.1840    -0.8710    -0.0870 C.ar  1 <1>  -0.1500 
 24 C       -3.5780    -1.9680     0.3530 C.2   1 <1>   0.9790 
 25 C       -5.7050    -3.1820     0.0430 C.ar  1 <1>  -0.1500 
 26 C       -7.8170    -2.0900    -0.2120 C.ar  1 <1>  -0.1500 
 27 O       -2.8840    -0.9260     0.2930 O.co2 1 <1>  -0.9000 
 28 O       -2.9690    -3.0280     0.5680 O.co2 1 <1>  -0.9000 
 29 C       -7.0710    -3.2520    -0.1450 C.ar  1 <1>  -0.1500 
 30 H       -1.2210    -0.1670    -0.0860 H     1 <1>   0.4200 
 31 H        0.9990    -0.7840    -1.2120 H     1 <1>   0.0800 
 32 H       -3.0980     0.8310    -1.2610 H     1 <1>   0.1500 
 33 H       -0.5920    -2.2990    -0.2180 H     1 <1>   0.0800 
 34 H       -0.1970    -1.7530     1.3840 H     1 <1>   0.0800 
 35 H        1.6290     0.1460     1.6010 H     1 <1>   0.0800 
 36 H        2.3300     0.7820     0.1370 H     1 <1>   0.0800 
 37 H       -2.8980     5.5830    -0.2010 H     1 <1>   0.1500 
 38 H        0.2370     4.2680    -0.1120 H     1 <1>   0.0800 
 39 H       -0.6340     5.6890    -0.6170 H     1 <1>   0.0800 
 40 H       -0.0360     4.5740    -1.8140 H     1 <1>   0.0800 
 41 H        1.6110    -3.2600    -0.5170 H     1 <1>   0.0800 
 42 H        0.9120    -3.8710     0.9550 H     1 <1>   0.0800 
 43 H        3.8610    -0.7950     1.2730 H     1 <1>   0.0800 
 44 H        3.4270    -1.3470    -0.3210 H     1 <1>   0.0800 
 45 H       -5.0180     4.3780     0.0230 H     1 <1>   0.1500 
 46 H        3.3000    -3.2200     1.2540 H     1 <1>   0.0800 
 47 H        2.2350    -2.3130     2.2900 H     1 <1>   0.0800 
 48 H       -4.1740     0.2740     0.4540 H     1 <1>   0.3700 
 49 H       -7.7630     0.0330    -0.1330 H     1 <1>   0.1500 
 50 H       -5.1330    -4.0950     0.0950 H     1 <1>   0.1500 
 51 H       -8.8810    -2.1350    -0.3580 H     1 <1>   0.1500 
 52 H       -7.5510    -4.2100    -0.2390 H     1 <1>   0.1500 
@<TRIPOS>BOND
  1   1   2  2   
  2   1   3  2   
  3   1   4  am  
  4   1   5  1   
  5   4   6  1   
  6   4  30  1   
  7   5   7  ar  
  8   5   8  ar  
  9   6   9  1   
 10   6  10  1   
 11   6  31  1   
 12   7  11  ar  
 13   7  12  1   
 14   8  13  ar  
 15   8  32  1   
 16   9  14  1   
 17   9  33  1   
 18   9  34  1   
 19  10  15  1   
 20  10  35  1   
 21  10  36  1   
 22  11  16  ar  
 23  11  37  1   
 24  12  38  1   
 25  12  39  1   
 26  12  40  1   
 27  13  16  ar  
 28  13  17  1   
 29  14  18  1   
 30  14  41  1   
 31  14  42  1   
 32  15  18  1   
 33  15  43  1   
 34  15  44  1   
 35  16  45  1   
 36  17  19  2   
 37  17  20  am  
 38  18  46  1   
 39  18  47  1   
 40  20  21  1   
 41  20  48  1   
 42  21  22  ar  
 43  21  23  ar  
 44  22  24  1   
 45  22  25  ar  
 46  23  26  ar  
 47  23  49  1   
 48  24  27  ar  
 49  24  28  ar  
 50  25  29  ar  
 51  25  50  1   
 52  26  29  ar  
 53  26  51  1   
 54  29  52  1   
@<TRIPOS>SUBSTRUCTURE
  1 ****  27 GROUP 4 **** **** 0

# MOE 2024.06 (io_trps.svl 2023.06)
