@<TRIPOS>MOLECULE
NONAME
34 35 1 0 0 
SMALL
USER_CHARGES


@<TRIPOS>ATOM
  1 BR      -0.1270    -0.5750     1.0190 Br    1 <1>  -0.1110 
  2 C       -1.9880    -0.2240     0.6690 C.ar  1 <1>   0.1110 
  3 C       -2.9220    -1.1820     1.0100 C.ar  1 <1>  -0.1500 
  4 C       -2.3440     0.9770     0.0840 C.ar  1 <1>  -0.1500 
  5 C       -4.2500    -0.9060     0.7490 C.ar  1 <1>   0.1770 
  6 C       -3.6820     1.2300    -0.1680 C.ar  1 <1>  -0.1500 
  7 CL      -5.4480    -2.1150     1.1630 Cl    1 <1>  -0.1770 
  8 C       -4.6640     0.2950     0.1660 C.ar  1 <1>   0.1170 
  9 N       -6.0340     0.5060    -0.0740 N.am  1 <1>  -0.5470 
 10 C       -6.7710     1.6360    -0.2750 C.2   1 <1>   0.6900 
 11 O       -6.2620     2.7370    -0.1830 O.2   1 <1>  -0.5700 
 12 N       -8.1090     1.5070    -0.5520 N.am  1 <1>  -0.6600 
 13 C       -9.0390     2.6650    -0.4190 C.3   1 <1>   0.1400 
 14 C       -8.7540     0.2730    -1.0770 C.3   1 <1>   0.1400 
 15 C      -10.2070     2.2920     0.5100 C.3   1 <1>  -0.0800 
 16 C       -9.8960    -0.1370    -0.1430 C.3   1 <1>  -0.1600 
 17 C      -10.9070     1.0060     0.0360 C.3   1 <1>  -0.1600 
 18 C      -11.2140     3.4450     0.6040 C.3   1 <1>  -0.2400 
 19 H       -2.6250    -2.1110     1.4620 H     1 <1>   0.1500 
 20 H       -1.5890     1.7000    -0.1710 H     1 <1>   0.1500 
 21 H       -3.9610     2.1610    -0.6290 H     1 <1>   0.1500 
 22 H       -6.6230    -0.3050     0.0940 H     1 <1>   0.3700 
 23 H       -9.4100     2.9270    -1.3940 H     1 <1>   0.0800 
 24 H       -8.5230     3.5200    -0.0170 H     1 <1>   0.0800 
 25 H       -8.0470    -0.5310    -1.1720 H     1 <1>   0.0800 
 26 H       -9.1470     0.4810    -2.0580 H     1 <1>   0.0800 
 27 H       -9.8000     2.1230     1.4930 H     1 <1>   0.0800 
 28 H       -9.4870    -0.4140     0.8130 H     1 <1>   0.0800 
 29 H      -10.3960    -0.9980    -0.5490 H     1 <1>   0.0800 
 30 H      -11.4000     1.1910    -0.9030 H     1 <1>   0.0800 
 31 H      -11.6560     0.7140     0.7530 H     1 <1>   0.0800 
 32 H      -11.6410     3.6570    -0.3610 H     1 <1>   0.0800 
 33 H      -10.7290     4.3330     0.9680 H     1 <1>   0.0800 
 34 H      -12.0080     3.1910     1.2840 H     1 <1>   0.0800 
@<TRIPOS>BOND
  1   1   2  1   
  2   2   3  ar  
  3   2   4  ar  
  4   3   5  ar  
  5   3  19  1   
  6   4   6  ar  
  7   4  20  1   
  8   5   7  1   
  9   5   8  ar  
 10   6   8  ar  
 11   6  21  1   
 12   8   9  1   
 13   9  10  am  
 14   9  22  1   
 15  10  11  2   
 16  10  12  am  
 17  12  13  1   
 18  12  14  1   
 19  13  15  1   
 20  13  23  1   
 21  13  24  1   
 22  14  16  1   
 23  14  25  1   
 24  14  26  1   
 25  15  17  1   
 26  15  18  1   
 27  15  27  1   
 28  16  17  1   
 29  16  28  1   
 30  16  29  1   
 31  17  30  1   
 32  17  31  1   
 33  18  32  1   
 34  18  33  1   
 35  18  34  1   
@<TRIPOS>SUBSTRUCTURE
  1 ****   9 GROUP 4 **** **** 0

# MOE 2024.06 (io_trps.svl 2023.06)
