@<TRIPOS>MOLECULE
NONAME
48 52 1 0 0 
SMALL
USER_CHARGES


@<TRIPOS>ATOM
  1 CL       0.4960    -1.1620     0.9030 Cl    1 <1>  -0.1770 
  2 C       -0.9040    -2.1190     0.4720 C.ar  1 <1>   0.1770 
  3 C       -2.1590    -1.5330     0.3540 C.ar  1 <1>  -0.1440 
  4 C       -0.7010    -3.4680     0.2530 C.ar  1 <1>  -0.1500 
  5 C       -3.2370    -2.3440    -0.0200 C.ar  1 <1>   0.1170 
  6 C       -2.3350    -0.0370     0.6240 C.3   1 <1>  -0.0970 
  7 C       -1.7720    -4.2680    -0.0980 C.ar  1 <1>  -0.1500 
  8 N       -4.5380    -1.8320    -0.1950 N.am  1 <1>  -0.2370 
  9 C       -3.0270    -3.7040    -0.2310 C.ar  1 <1>  -0.1500 
 10 C       -5.6330    -2.1490     0.5900 C.2   1 <1>   0.5690 
 11 C       -4.9420    -0.9700    -1.2030 C.2   1 <1>   0.5690 
 12 O       -5.7360    -3.0270     1.4070 O.2   1 <1>  -0.5700 
 13 C       -6.7030    -1.1510     0.2620 C.3   1 <1>  -0.0190 
 14 O       -4.2570    -0.3210    -1.9500 O.2   1 <1>  -0.5700 
 15 C       -6.4420    -1.0050    -1.2410 C.3   1 <1>  -0.0190 
 16 C       -8.2140    -0.9100     0.3790 C.3   1 <1>   0.1960 
 17 C       -7.6240    -0.1160    -1.6890 C.3   1 <1>   0.1960 
 18 C       -8.1470     0.4180    -0.3660 C.2   1 <1>  -0.2760 
 19 C       -9.0400    -1.6400    -0.6710 C.2   1 <1>  -0.2880 
 20 C       -8.7380    -1.1370    -1.8710 C.2   1 <1>  -0.2880 
 21 C       -8.4420     1.6670     0.0210 C.2   1 <1>  -0.2760 
 22 C       -8.9810     2.0010     1.4140 C.3   1 <1>  -0.0220 
 23 C       -8.2680     2.8820    -0.8930 C.3   1 <1>  -0.0220 
 24 C       -9.8390     3.2710     1.3940 C.3   1 <1>  -0.1600 
 25 C       -7.9240     4.1380    -0.0850 C.3   1 <1>  -0.1600 
 26 C       -9.0370     4.4960     0.9170 C.3   1 <1>  -0.1600 
 27 H        0.2850    -3.8830     0.3570 H     1 <1>   0.1500 
 28 H       -2.1390     0.5170    -0.2770 H     1 <1>   0.0800 
 29 H       -1.6620     0.3010     1.3890 H     1 <1>   0.0800 
 30 H       -3.3300     0.1900     0.9580 H     1 <1>   0.0800 
 31 H       -1.6290    -5.3220    -0.2660 H     1 <1>   0.1500 
 32 H       -3.8590    -4.3310    -0.5010 H     1 <1>   0.1500 
 33 H       -6.2980    -0.2890     0.7750 H     1 <1>   0.0800 
 34 H       -6.6040    -1.9550    -1.7270 H     1 <1>   0.0800 
 35 H       -8.6240    -0.8570     1.3720 H     1 <1>   0.0800 
 36 H       -7.4700     0.5710    -2.5030 H     1 <1>   0.0800 
 37 H       -9.7360    -2.4070    -0.3780 H     1 <1>   0.1500 
 38 H       -9.1170    -1.3660    -2.8530 H     1 <1>   0.1500 
 39 H       -9.5710     1.1860     1.7910 H     1 <1>   0.0800 
 40 H       -8.1530     2.1510     2.0840 H     1 <1>   0.0800 
 41 H       -7.4920     2.7030    -1.6150 H     1 <1>   0.0800 
 42 H       -9.1850     3.0500    -1.4310 H     1 <1>   0.0800 
 43 H      -10.6670     3.1080     0.7250 H     1 <1>   0.0800 
 44 H      -10.2430     3.4600     2.3730 H     1 <1>   0.0800 
 45 H       -7.0090     3.9530     0.4520 H     1 <1>   0.0800 
 46 H       -7.7520     4.9670    -0.7480 H     1 <1>   0.0800 
 47 H       -8.5890     4.9860     1.7650 H     1 <1>   0.0800 
 48 H       -9.7190     5.1950     0.4630 H     1 <1>   0.0800 
@<TRIPOS>BOND
  1   1   2  1   
  2   2   3  ar  
  3   2   4  ar  
  4   3   5  ar  
  5   3   6  1   
  6   4   7  ar  
  7   4  27  1   
  8   5   8  1   
  9   5   9  ar  
 10   6  28  1   
 11   6  29  1   
 12   6  30  1   
 13   7   9  ar  
 14   7  31  1   
 15   8  10  am  
 16   8  11  am  
 17   9  32  1   
 18  10  12  2   
 19  10  13  1   
 20  11  14  2   
 21  11  15  1   
 22  13  15  1   
 23  13  16  1   
 24  13  33  1   
 25  15  17  1   
 26  15  34  1   
 27  16  18  1   
 28  16  19  1   
 29  16  35  1   
 30  17  18  1   
 31  17  20  1   
 32  17  36  1   
 33  18  21  2   
 34  19  20  2   
 35  19  37  1   
 36  20  38  1   
 37  21  22  1   
 38  21  23  1   
 39  22  24  1   
 40  22  39  1   
 41  22  40  1   
 42  23  25  1   
 43  23  41  1   
 44  23  42  1   
 45  24  26  1   
 46  24  43  1   
 47  24  44  1   
 48  25  26  1   
 49  25  45  1   
 50  25  46  1   
 51  26  47  1   
 52  26  48  1   
@<TRIPOS>SUBSTRUCTURE
  1 ****  13 GROUP 4 **** **** 0

# MOE 2024.06 (io_trps.svl 2023.06)
