@<TRIPOS>MOLECULE
NONAME
34 35 1 0 0 
SMALL
USER_CHARGES


@<TRIPOS>ATOM
  1 O       -0.8220     0.2260    -0.0230 O.3   1 <1>  -0.5600 
  2 C       -0.3290     1.2210     0.8280 C.3   1 <1>   0.1200 
  3 C       -2.2140     0.2580    -0.1600 C.3   1 <1>   0.1200 
  4 C       -0.7210     2.6160     0.3080 C.3   1 <1>   0.1100 
  5 C       -2.6730     1.6220    -0.7040 C.3   1 <1>   0.1100 
  6 N       -2.1830     2.7300     0.1480 N.3   1 <1>  -0.8100 
  7 C       -2.5530     4.0490    -0.3880 C.3   1 <1>   0.3100 
  8 C       -4.0310     4.2280    -0.3240 C.1   1 <1>  -0.2000 
  9 C       -5.2170     4.2810    -0.2440 C.1   1 <1>  -0.2000 
 10 C       -6.6990     4.2270    -0.0900 C.3   1 <1>   0.5430 
 11 O       -7.0170     4.9420     1.0390 O.3   1 <1>  -0.6800 
 12 C       -7.2210     2.8020     0.1000 C.ar  1 <1>  -0.1440 
 13 C       -8.4440     2.4450    -0.4510 C.ar  1 <1>  -0.1500 
 14 C       -6.5050     1.8470     0.8170 C.ar  1 <1>  -0.1500 
 15 C       -8.9410     1.1620    -0.2960 C.ar  1 <1>  -0.1500 
 16 C       -7.0010     0.5640     0.9720 C.ar  1 <1>  -0.1500 
 17 C       -8.2190     0.2200     0.4150 C.ar  1 <1>  -0.1500 
 18 H        0.7410     1.1220     0.8630 H     1 <1>   0.0800 
 19 H       -0.7270     1.0610     1.8140 H     1 <1>   0.0800 
 20 H       -2.6600     0.0690     0.8010 H     1 <1>   0.0800 
 21 H       -2.4970    -0.5280    -0.8360 H     1 <1>   0.0800 
 22 H       -0.2300     2.7870    -0.6340 H     1 <1>   0.0800 
 23 H       -0.3790     3.3580     1.0090 H     1 <1>   0.0800 
 24 H       -3.7490     1.6330    -0.7350 H     1 <1>   0.0800 
 25 H       -2.3080     1.7380    -1.7100 H     1 <1>   0.0800 
 26 H       -2.2150     4.1460    -1.4060 H     1 <1>   0.0800 
 27 H       -2.0910     4.8200     0.2040 H     1 <1>   0.0800 
 28 H       -7.1750     4.7040    -0.9290 H     1 <1>   0.0800 
 29 H       -6.5790     4.5010     1.7880 H     1 <1>   0.4000 
 30 H       -9.0210     3.1680    -1.0010 H     1 <1>   0.1500 
 31 H       -5.5540     2.0930     1.2600 H     1 <1>   0.1500 
 32 H       -9.8900     0.8970    -0.7280 H     1 <1>   0.1500 
 33 H       -6.4390    -0.1660     1.5280 H     1 <1>   0.1500 
 34 H       -8.6050    -0.7770     0.5350 H     1 <1>   0.1500 
@<TRIPOS>BOND
  1   1   2  1   
  2   1   3  1   
  3   2   4  1   
  4   2  18  1   
  5   2  19  1   
  6   3   5  1   
  7   3  20  1   
  8   3  21  1   
  9   4   6  1   
 10   4  22  1   
 11   4  23  1   
 12   5   6  1   
 13   5  24  1   
 14   5  25  1   
 15   6   7  1   
 16   7   8  1   
 17   7  26  1   
 18   7  27  1   
 19   8   9  3   
 20   9  10  1   
 21  10  11  1   
 22  10  12  1   
 23  10  28  1   
 24  11  29  1   
 25  12  13  ar  
 26  12  14  ar  
 27  13  15  ar  
 28  13  30  1   
 29  14  16  ar  
 30  14  31  1   
 31  15  17  ar  
 32  15  32  1   
 33  16  17  ar  
 34  16  33  1   
 35  17  34  1   
@<TRIPOS>SUBSTRUCTURE
  1 ****  14 GROUP 4 **** **** 0

# MOE 2024.06 (io_trps.svl 2023.06)
