@<TRIPOS>MOLECULE
NONAME
42 44 1 0 0 
SMALL
USER_CHARGES


@<TRIPOS>ATOM
  1 O        0.1390    -0.9480    -1.1410 O.3   1 <1>  -0.6800 
  2 C        1.4370    -1.4320    -1.1020 C.3   1 <1>   0.1200 
  3 C        2.2240    -0.6090    -0.0770 C.3   1 <1>   0.1100 
  4 N        3.6300    -1.0610     0.0390 N.3   1 <1>  -0.8100 
  5 C        4.4530    -0.0200     0.6980 C.3   1 <1>   0.1100 
  6 C        3.7430    -2.3430     0.7820 C.3   1 <1>   0.1100 
  7 C        5.9460    -0.4220     0.7920 C.3   1 <1>   0.3430 
  8 C        5.2140    -2.7550     1.0470 C.3   1 <1>   0.3430 
  9 N        6.1680    -1.8380     0.3420 N.4   1 <1>  -0.9590 
 10 C        7.5780    -2.3230     0.4080 C.3   1 <1>   0.3430 
 11 C        8.5080    -1.5720    -0.5640 C.3   1 <1>  -0.0800 
 12 C        9.8740    -2.4670    -0.8390 C.3   1 <1>   0.0580 
 13 C        9.0430    -0.0470     0.0000 C.3   1 <1>  -0.1600 
 14 C       11.4740    -2.3860    -0.6450 C.2   1 <1>  -0.2880 
 15 C       10.1610    -1.2270    -0.4440 C.3   1 <1>  -0.1600 
 16 C       10.6960    -0.0940     0.0090 C.3   1 <1>   0.0580 
 17 C       11.9050    -1.1440    -0.2000 C.2   1 <1>  -0.2880 
 18 H       -0.3870    -1.4110    -1.8230 H     1 <1>   0.4000 
 19 H        1.8690    -1.3250    -2.0820 H     1 <1>   0.0800 
 20 H        1.3940    -2.4700    -0.8230 H     1 <1>   0.0800 
 21 H        1.7360    -0.6630     0.8820 H     1 <1>   0.0800 
 22 H        2.2060     0.4160    -0.4080 H     1 <1>   0.0800 
 23 H        4.0750     0.1700     1.6880 H     1 <1>   0.0800 
 24 H        4.3800     0.9010     0.1440 H     1 <1>   0.0800 
 25 H        3.2670    -3.1260     0.2180 H     1 <1>   0.0800 
 26 H        3.2280    -2.2690     1.7260 H     1 <1>   0.0800 
 27 H        6.2840    -0.2950     1.8070 H     1 <1>   0.0800 
 28 H        6.5150     0.2480     0.1700 H     1 <1>   0.0800 
 29 H        5.3560    -3.7690     0.7110 H     1 <1>   0.0800 
 30 H        5.4010    -2.7310     2.1080 H     1 <1>   0.0800 
 31 H        5.8330    -1.8390    -0.6340 H     1 <1>   0.4500 
 32 H        7.5960    -3.3680     0.1440 H     1 <1>   0.0800 
 33 H        7.9590    -2.2330     1.4130 H     1 <1>   0.0800 
 34 H        7.9820    -1.4540    -1.5030 H     1 <1>   0.0800 
 35 H        9.7920    -2.7040    -1.8910 H     1 <1>   0.0800 
 36 H        8.6900     0.1570     0.9990 H     1 <1>   0.0800 
 37 H        8.6890     0.7480    -0.6430 H     1 <1>   0.0800 
 38 H       12.0670    -3.2600    -0.8650 H     1 <1>   0.1500 
 39 H       10.2730    -0.8680    -1.5510 H     1 <1>   0.0800 
 40 H       10.1350    -1.6310     0.7060 H     1 <1>   0.0800 
 41 H       10.9620     0.7010    -0.6740 H     1 <1>   0.0800 
 42 H       12.9110    -0.8170     0.0090 H     1 <1>   0.1500 
@<TRIPOS>BOND
  1   1   2  1   
  2   1  18  1   
  3   2   3  1   
  4   2  19  1   
  5   2  20  1   
  6   3   4  1   
  7   3  21  1   
  8   3  22  1   
  9   4   5  1   
 10   4   6  1   
 11   5   7  1   
 12   5  23  1   
 13   5  24  1   
 14   6   8  1   
 15   6  25  1   
 16   6  26  1   
 17   7   9  1   
 18   7  27  1   
 19   7  28  1   
 20   8   9  1   
 21   8  29  1   
 22   8  30  1   
 23   9  10  1   
 24   9  31  1   
 25  10  11  1   
 26  10  32  1   
 27  10  33  1   
 28  11  12  1   
 29  11  13  1   
 30  11  34  1   
 31  12  14  1   
 32  12  15  1   
 33  12  35  1   
 34  13  16  1   
 35  13  36  1   
 36  13  37  1   
 37  14  17  2   
 38  14  38  1   
 39  15  16  1   
 40  15  39  1   
 41  15  40  1   
 42  16  17  1   
 43  16  41  1   
 44  17  42  1   
@<TRIPOS>SUBSTRUCTURE
  1 ****   9 GROUP 4 **** **** 0

# MOE 2024.06 (io_trps.svl 2023.06)
