@<TRIPOS>MOLECULE
NONAME
40 40 1 0 0 
SMALL
USER_CHARGES


@<TRIPOS>ATOM
  1 BR       0.0170     0.4620     0.9440 Br    1 <1>  -0.1110 
  2 C        1.8060     1.0920     0.6120 C.ar  1 <1>   0.1110 
  3 C        2.8700     0.2660     0.9220 C.ar  1 <1>  -0.1500 
  4 C        1.9790     2.3520     0.0730 C.ar  1 <1>  -0.1500 
  5 C        4.1570     0.7200     0.6830 C.ar  1 <1>  -0.1500 
  6 C        3.2690     2.7960    -0.1630 C.ar  1 <1>  -0.1500 
  7 C        4.3590     1.9900     0.1390 C.ar  1 <1>   0.0830 
  8 O        5.5840     2.5090    -0.1260 O.3   1 <1>  -0.3630 
  9 C        6.7620     1.7860     0.1340 C.3   1 <1>   0.1200 
 10 C        7.9420     2.6670    -0.2820 C.3   1 <1>  -0.1600 
 11 C        9.2900     1.9700    -0.0460 C.3   1 <1>  -0.1600 
 12 C       10.4430     2.8840    -0.4690 C.3   1 <1>   0.3430 
 13 N       11.7620     2.2640    -0.1490 N.4   1 <1>  -0.9590 
 14 C       12.8330     3.2960    -0.2150 C.3   1 <1>   0.3430 
 15 C       12.0620     1.0970    -1.0240 C.3   1 <1>   0.3430 
 16 C       14.0810     2.7960     0.5020 C.3   1 <1>  -0.2400 
 17 C       12.1460    -0.1490    -0.1530 C.3   1 <1>  -0.2400 
 18 H        2.6920    -0.7080     1.3410 H     1 <1>   0.1500 
 19 H        1.1280     2.9670    -0.1570 H     1 <1>   0.1500 
 20 H        4.9800     0.0760     0.9260 H     1 <1>   0.1500 
 21 H        3.4390     3.7720    -0.5810 H     1 <1>   0.1500 
 22 H        6.7340     0.8770    -0.4420 H     1 <1>   0.0800 
 23 H        6.7960     1.5630     1.1870 H     1 <1>   0.0800 
 24 H        7.9000     3.5810     0.2870 H     1 <1>   0.0800 
 25 H        7.8350     2.9080    -1.3260 H     1 <1>   0.0800 
 26 H        9.3090     1.0580    -0.6160 H     1 <1>   0.0800 
 27 H        9.3810     1.7330     1.0000 H     1 <1>   0.0800 
 28 H       10.3490     3.8190     0.0600 H     1 <1>   0.0800 
 29 H       10.3780     3.0910    -1.5260 H     1 <1>   0.0800 
 30 H       11.7240     1.9240     0.8210 H     1 <1>   0.4500 
 31 H       12.4960     4.2000     0.2680 H     1 <1>   0.0800 
 32 H       13.0630     3.5310    -1.2430 H     1 <1>   0.0800 
 33 H       12.9990     1.2430    -1.5380 H     1 <1>   0.0800 
 34 H       11.2890     0.9730    -1.7660 H     1 <1>   0.0800 
 35 H       13.8620     2.5480     1.5250 H     1 <1>   0.0800 
 36 H       14.5090     1.9450     0.0050 H     1 <1>   0.0800 
 37 H       14.8210     3.5770     0.5040 H     1 <1>   0.0800 
 38 H       12.3630    -1.0000    -0.7750 H     1 <1>   0.0800 
 39 H       12.9360    -0.0600     0.5700 H     1 <1>   0.0800 
 40 H       11.2140    -0.3360     0.3480 H     1 <1>   0.0800 
@<TRIPOS>BOND
  1   1   2  1   
  2   2   3  ar  
  3   2   4  ar  
  4   3   5  ar  
  5   3  18  1   
  6   4   6  ar  
  7   4  19  1   
  8   5   7  ar  
  9   5  20  1   
 10   6   7  ar  
 11   6  21  1   
 12   7   8  1   
 13   8   9  1   
 14   9  10  1   
 15   9  22  1   
 16   9  23  1   
 17  10  11  1   
 18  10  24  1   
 19  10  25  1   
 20  11  12  1   
 21  11  26  1   
 22  11  27  1   
 23  12  13  1   
 24  12  28  1   
 25  12  29  1   
 26  13  14  1   
 27  13  15  1   
 28  13  30  1   
 29  14  16  1   
 30  14  31  1   
 31  14  32  1   
 32  15  17  1   
 33  15  33  1   
 34  15  34  1   
 35  16  35  1   
 36  16  36  1   
 37  16  37  1   
 38  17  38  1   
 39  17  39  1   
 40  17  40  1   
@<TRIPOS>SUBSTRUCTURE
  1 ****   9 GROUP 4 **** **** 0

# MOE 2024.06 (io_trps.svl 2023.06)
