@<TRIPOS>MOLECULE
NONAME
41 42 1 0 0 
SMALL
USER_CHARGES


@<TRIPOS>ATOM
  1 CL      -2.3320     1.0830     2.1640 Cl    1 <1>  -0.1770 
  2 C       -1.2870     2.2130     1.3360 C.ar  1 <1>   0.1770 
  3 C       -1.5370     2.5240     0.0070 C.ar  1 <1>  -0.1440 
  4 C       -0.2420     2.7900     2.0310 C.ar  1 <1>  -0.1500 
  5 C       -0.7110     3.4390    -0.6300 C.ar  1 <1>  -0.1500 
  6 C       -2.6860     1.8720    -0.7250 C.3   1 <1>   0.4870 
  7 C        0.5750     3.7020     1.3860 C.ar  1 <1>  -0.1500 
  8 C        0.3390     4.0240     0.0600 C.ar  1 <1>  -0.1500 
  9 N       -3.9410     2.4450    -0.1790 N.4   1 <1>  -0.9060 
 10 C       -5.1710     1.8520    -0.7610 C.3   1 <1>   0.3430 
 11 C       -6.4070     2.4450    -0.0720 C.3   1 <1>  -0.1600 
 12 C       -7.6990     1.8160    -0.6150 C.3   1 <1>   0.3430 
 13 N       -8.8840     2.2900     0.1530 N.4   1 <1>  -0.9590 
 14 C      -10.1020     1.4310    -0.0720 C.3   1 <1>   0.3430 
 15 C       -9.2590     3.7380    -0.0550 C.3   1 <1>   0.3430 
 16 C      -11.2850     1.8990     0.8090 C.3   1 <1>   0.1200 
 17 C      -10.5090     4.1190     0.7740 C.3   1 <1>   0.1200 
 18 O      -10.9370     3.0360     1.5530 O.3   1 <1>  -0.5600 
 19 H       -0.0660     2.5300     3.0610 H     1 <1>   0.1500 
 20 H       -0.8610     3.7070    -1.6640 H     1 <1>   0.1500 
 21 H       -2.6560     0.8050    -0.5640 H     1 <1>   0.0800 
 22 H       -2.6070     2.0660    -1.7830 H     1 <1>   0.0800 
 23 H        1.3950     4.1600     1.9150 H     1 <1>   0.1500 
 24 H        0.9820     4.7340    -0.4350 H     1 <1>   0.1500 
 25 H       -3.8960     3.4640    -0.3090 H     1 <1>   0.4500 
 26 H       -3.9000     2.2860     0.8400 H     1 <1>   0.4500 
 27 H       -5.1550     0.7820    -0.6190 H     1 <1>   0.0800 
 28 H       -5.2070     2.0540    -1.8210 H     1 <1>   0.0800 
 29 H       -6.4270     3.5060    -0.2420 H     1 <1>   0.0800 
 30 H       -6.3450     2.2500     0.9850 H     1 <1>   0.0800 
 31 H       -7.6320     0.7430    -0.5240 H     1 <1>   0.0800 
 32 H       -7.8230     2.0550    -1.6600 H     1 <1>   0.0800 
 33 H       -8.7220     2.2100     1.1710 H     1 <1>   0.4500 
 34 H       -9.8820     0.4010     0.1620 H     1 <1>   0.0800 
 35 H      -10.4000     1.4720    -1.1070 H     1 <1>   0.0800 
 36 H       -9.4630     3.9230    -1.0970 H     1 <1>   0.0800 
 37 H       -8.4450     4.3790     0.2370 H     1 <1>   0.0800 
 38 H      -11.5600     1.1250     1.5050 H     1 <1>   0.0800 
 39 H      -12.1460     2.1290     0.2050 H     1 <1>   0.0800 
 40 H      -11.3180     4.4260     0.1320 H     1 <1>   0.0800 
 41 H      -10.2820     4.9340     1.4390 H     1 <1>   0.0800 
@<TRIPOS>BOND
  1   1   2  1   
  2   2   3  ar  
  3   2   4  ar  
  4   3   5  ar  
  5   3   6  1   
  6   4   7  ar  
  7   4  19  1   
  8   5   8  ar  
  9   5  20  1   
 10   6   9  1   
 11   6  21  1   
 12   6  22  1   
 13   7   8  ar  
 14   7  23  1   
 15   8  24  1   
 16   9  10  1   
 17   9  25  1   
 18   9  26  1   
 19  10  11  1   
 20  10  27  1   
 21  10  28  1   
 22  11  12  1   
 23  11  29  1   
 24  11  30  1   
 25  12  13  1   
 26  12  31  1   
 27  12  32  1   
 28  13  14  1   
 29  13  15  1   
 30  13  33  1   
 31  14  16  1   
 32  14  34  1   
 33  14  35  1   
 34  15  17  1   
 35  15  36  1   
 36  15  37  1   
 37  16  18  1   
 38  16  38  1   
 39  16  39  1   
 40  17  18  1   
 41  17  40  1   
 42  17  41  1   
@<TRIPOS>SUBSTRUCTURE
  1 ****   9 GROUP 4 **** **** 0

# MOE 2024.06 (io_trps.svl 2023.06)
