@<TRIPOS>MOLECULE
NONAME
47 48 1 0 0 
SMALL
USER_CHARGES


@<TRIPOS>ATOM
  1 S        0.3150     0.1460     0.2220 S.o2  1 <1>   1.3330 
  2 O        0.0110    -0.8170     1.2570 O.2   1 <1>  -0.6500 
  3 O       -0.3050     0.0240    -1.0790 O.2   1 <1>  -0.6500 
  4 N        1.9920     0.1410    -0.0130 N.am  1 <1>  -0.8490 
  5 C        0.0120     1.7920     0.8830 C.3   1 <1>  -0.0550 
  6 C        2.5500    -1.2150     0.1290 C.3   1 <1>   0.1960 
  7 C        2.3980     0.7430    -1.2840 C.3   1 <1>   0.1960 
  8 C       -1.4650     2.0880     1.2030 C.3   1 <1>  -0.2400 
  9 C        4.0180    -1.3050    -0.3230 C.3   1 <1>  -0.1600 
 10 C        3.9080     1.0230    -1.2770 C.3   1 <1>  -0.1600 
 11 C        4.7000     0.0730    -0.3530 C.3   1 <1>  -0.0190 
 12 C        6.1690    -0.0060    -0.7580 C.2   1 <1>   0.5690 
 13 O        6.4870    -0.6320    -1.7410 O.2   1 <1>  -0.5700 
 14 N        7.0810     0.6460     0.0000 N.am  1 <1>  -0.7300 
 15 C        8.5200     0.7500    -0.2840 C.3   1 <1>   0.2840 
 16 C        8.9180     2.2160    -0.2170 C.ar  1 <1>  -0.1440 
 17 C        8.9050     2.9060     0.9930 C.ar  1 <1>   0.0820 
 18 C        9.3000     2.8730    -1.3770 C.ar  1 <1>  -0.1500 
 19 O        8.5080     2.2300     2.1050 O.3   1 <1>  -0.3620 
 20 C        9.2880     4.2460     1.0240 C.ar  1 <1>  -0.1500 
 21 C        9.6780     4.2030    -1.3400 C.ar  1 <1>  -0.1500 
 22 C        8.6040     2.8010     3.3910 C.3   1 <1>   0.0400 
 23 C        9.6730     4.8890    -0.1390 C.ar  1 <1>  -0.1500 
 24 H        0.3590     2.5210     0.1770 H     1 <1>   0.0800 
 25 H        0.5870     1.9110     1.7810 H     1 <1>   0.0800 
 26 H        1.9600    -1.9160    -0.4410 H     1 <1>   0.0800 
 27 H        2.4840    -1.5010     1.1660 H     1 <1>   0.0800 
 28 H        1.8670     1.6640    -1.4540 H     1 <1>   0.0800 
 29 H        2.1530     0.0690    -2.0900 H     1 <1>   0.0800 
 30 H       -2.0620     1.9990     0.3120 H     1 <1>   0.0800 
 31 H       -1.5700     3.0840     1.5950 H     1 <1>   0.0800 
 32 H       -1.8320     1.3870     1.9330 H     1 <1>   0.0800 
 33 H        4.0510    -1.7360    -1.3090 H     1 <1>   0.0800 
 34 H        4.5520    -1.9700     0.3310 H     1 <1>   0.0800 
 35 H        4.0820     2.0380    -0.9670 H     1 <1>   0.0800 
 36 H        4.2670     0.9340    -2.2870 H     1 <1>   0.0800 
 37 H        4.6520     0.4690     0.6460 H     1 <1>   0.0800 
 38 H        6.8000     1.2070     0.8070 H     1 <1>   0.3700 
 39 H        8.7390     0.3400    -1.2550 H     1 <1>   0.0800 
 40 H        9.0700     0.1900     0.4530 H     1 <1>   0.0800 
 41 H        9.3030     2.3490    -2.3180 H     1 <1>   0.1500 
 42 H        9.2890     4.8060     1.9390 H     1 <1>   0.1500 
 43 H        9.9750     4.7040    -2.2450 H     1 <1>   0.1500 
 44 H        8.2940     2.0640     4.1100 H     1 <1>   0.0800 
 45 H        7.9550     3.6570     3.4440 H     1 <1>   0.0800 
 46 H        9.6270     3.0800     3.5730 H     1 <1>   0.0800 
 47 H        9.9680     5.9230    -0.1110 H     1 <1>   0.1500 
@<TRIPOS>BOND
  1   1   2  2   
  2   1   3  2   
  3   1   4  am  
  4   1   5  1   
  5   4   6  1   
  6   4   7  1   
  7   5   8  1   
  8   5  24  1   
  9   5  25  1   
 10   6   9  1   
 11   6  26  1   
 12   6  27  1   
 13   7  10  1   
 14   7  28  1   
 15   7  29  1   
 16   8  30  1   
 17   8  31  1   
 18   8  32  1   
 19   9  11  1   
 20   9  33  1   
 21   9  34  1   
 22  10  11  1   
 23  10  35  1   
 24  10  36  1   
 25  11  12  1   
 26  11  37  1   
 27  12  13  2   
 28  12  14  am  
 29  14  15  1   
 30  14  38  1   
 31  15  16  1   
 32  15  39  1   
 33  15  40  1   
 34  16  17  ar  
 35  16  18  ar  
 36  17  19  1   
 37  17  20  ar  
 38  18  21  ar  
 39  18  41  1   
 40  19  22  1   
 41  20  23  ar  
 42  20  42  1   
 43  21  23  ar  
 44  21  43  1   
 45  22  44  1   
 46  22  45  1   
 47  22  46  1   
 48  23  47  1   
@<TRIPOS>SUBSTRUCTURE
  1 ****  11 GROUP 4 **** **** 0

# MOE 2024.06 (io_trps.svl 2023.06)
