@<TRIPOS>MOLECULE
NONAME
30 30 1 0 0 
SMALL
USER_CHARGES


@<TRIPOS>ATOM
  1 S       -0.1400     0.0950     0.6250 S.o2  1 <1>   1.4470 
  2 O       -0.5260     0.6720     1.8930 O.2   1 <1>  -0.6500 
  3 O       -0.6820    -1.1780     0.2080 O.2   1 <1>  -0.6500 
  4 N       -0.6590     1.1520    -0.5730 N.am  1 <1>  -0.9140 
  5 C        1.6640     0.1180     0.4450 C.ar  1 <1>  -0.0090 
  6 C       -2.0140     1.6520    -0.3550 C.3   1 <1>   0.1160 
  7 C        2.3740    -1.0320     0.1180 C.ar  1 <1>  -0.1500 
  8 C        2.3830     1.2930     0.6260 C.ar  1 <1>  -0.1500 
  9 C        3.7520    -1.0210    -0.0270 C.ar  1 <1>  -0.1430 
 10 C        3.7590     1.3240     0.4860 C.ar  1 <1>  -0.1500 
 11 C        4.4550     0.1650     0.1570 C.ar  1 <1>   0.0830 
 12 C        4.4860    -2.3060    -0.3860 C.3   1 <1>  -0.0970 
 13 O        5.8040     0.1310     0.0040 O.3   1 <1>  -0.3630 
 14 C        6.6050     1.2750     0.1840 C.3   1 <1>   0.1200 
 15 C        8.0580     0.8770    -0.0550 C.3   1 <1>  -0.2400 
 16 H       -0.6780     0.5670    -1.4070 H     1 <1>   0.4200 
 17 H       -2.0450     2.2550     0.5380 H     1 <1>   0.0800 
 18 H       -2.7040     0.8310    -0.2460 H     1 <1>   0.0800 
 19 H       -2.3170     2.2590    -1.1900 H     1 <1>   0.0800 
 20 H        1.8330    -1.9520    -0.0240 H     1 <1>   0.1500 
 21 H        1.8530     2.1950     0.8810 H     1 <1>   0.1500 
 22 H        4.2670     2.2580     0.6370 H     1 <1>   0.1500 
 23 H        3.8040    -3.1300    -0.4930 H     1 <1>   0.0800 
 24 H        5.1960    -2.5450     0.3850 H     1 <1>   0.0800 
 25 H        5.0160    -2.1750    -1.3120 H     1 <1>   0.0800 
 26 H        6.4680     1.6320     1.1900 H     1 <1>   0.0800 
 27 H        6.2940     2.0230    -0.5250 H     1 <1>   0.0800 
 28 H        8.3530     0.1180     0.6470 H     1 <1>   0.0800 
 29 H        8.6960     1.7320     0.0750 H     1 <1>   0.0800 
 30 H        8.1790     0.5070    -1.0570 H     1 <1>   0.0800 
@<TRIPOS>BOND
  1   1   2  2   
  2   1   3  2   
  3   1   4  am  
  4   1   5  1   
  5   4   6  1   
  6   4  16  1   
  7   5   7  ar  
  8   5   8  ar  
  9   6  17  1   
 10   6  18  1   
 11   6  19  1   
 12   7   9  ar  
 13   7  20  1   
 14   8  10  ar  
 15   8  21  1   
 16   9  11  ar  
 17   9  12  1   
 18  10  11  ar  
 19  10  22  1   
 20  11  13  1   
 21  12  23  1   
 22  12  24  1   
 23  12  25  1   
 24  13  14  1   
 25  14  15  1   
 26  14  26  1   
 27  14  27  1   
 28  15  28  1   
 29  15  29  1   
 30  15  30  1   
@<TRIPOS>SUBSTRUCTURE
  1 ****   5 GROUP 4 **** **** 0

# MOE 2024.06 (io_trps.svl 2023.06)
