@<TRIPOS>MOLECULE
NONAME
43 45 1 0 0 
SMALL
USER_CHARGES


@<TRIPOS>ATOM
  1 O       -0.0880    -0.8390     1.6010 O.2   1 <1>  -0.5750 
  2 C       -0.7690    -1.7200     1.1170 C.2   1 <1>   0.6860 
  3 N       -0.1630    -2.8440     0.5630 N.am  1 <1>  -0.4270 
  4 N       -2.1530    -1.6030     1.1160 N.am  1 <1>  -0.4430 
  5 C       -0.9190    -3.8720     0.0150 C.2   1 <1>   0.6990 
  6 C        1.3300    -2.9460     0.5900 C.3   1 <1>   0.0510 
  7 C       -2.8910    -2.6180     0.5400 C.2   1 <1>   0.4200 
  8 C       -2.8200    -0.4030     1.7060 C.3   1 <1>   0.0510 
  9 O       -0.3860    -4.8710    -0.4400 O.2   1 <1>  -0.5750 
 10 C       -2.3440    -3.7280     0.0010 C.2   1 <1>   0.2690 
 11 N       -4.2430    -2.6960     0.4070 N.pl3 1 <1>  -0.7040 
 12 N       -3.4150    -4.5120    -0.4730 N.pl3 1 <1>  -0.7680 
 13 C       -4.5340    -3.8410    -0.2020 C.cat 1 <1>   1.0690 
 14 C       -3.2050    -5.8310    -1.1360 C.3   1 <1>   0.2660 
 15 N       -5.7590    -4.2540    -0.4980 N.pl3 1 <1>  -0.7190 
 16 C       -7.0370    -3.5780    -0.2340 C.3   1 <1>   0.2400 
 17 C       -7.8940    -4.4800     0.6590 C.3   1 <1>  -0.1690 
 18 C       -7.7290    -3.2950    -1.5700 C.3   1 <1>  -0.1690 
 19 C       -9.2790    -3.8600     0.8910 C.3   1 <1>  -0.1690 
 20 C       -9.1130    -2.6710    -1.3450 C.3   1 <1>  -0.1690 
 21 C       -9.9790    -3.5570    -0.4400 C.3   1 <1>  -0.1690 
 22 H        1.7710    -1.9850     0.3830 H     1 <1>   0.0710 
 23 H        1.6860    -3.6430    -0.1490 H     1 <1>   0.0710 
 24 H        1.6510    -3.2720     1.5630 H     1 <1>   0.0710 
 25 H       -2.1690     0.0840     2.4120 H     1 <1>   0.0710 
 26 H       -3.7170    -0.6900     2.2250 H     1 <1>   0.0710 
 27 H       -3.0630     0.2960     0.9250 H     1 <1>   0.0710 
 28 H       -4.9270    -2.0100     0.7080 H     1 <1>   0.4440 
 29 H       -2.5950    -5.7050    -2.0160 H     1 <1>   0.0710 
 30 H       -4.1430    -6.2730    -1.4250 H     1 <1>   0.0710 
 31 H       -2.6980    -6.5020    -0.4630 H     1 <1>   0.0710 
 32 H       -5.8690    -5.1480    -0.9690 H     1 <1>   0.4440 
 33 H       -6.8740    -2.6440     0.2760 H     1 <1>   0.0710 
 34 H       -7.4130    -4.6220     1.6110 H     1 <1>   0.0710 
 35 H       -8.0260    -5.4420     0.1940 H     1 <1>   0.0710 
 36 H       -7.8540    -4.2100    -2.1220 H     1 <1>   0.0710 
 37 H       -7.1340    -2.6180    -2.1570 H     1 <1>   0.0710 
 38 H       -9.1800    -2.9480     1.4550 H     1 <1>   0.0710 
 39 H       -9.8860    -4.5370     1.4680 H     1 <1>   0.0710 
 40 H       -9.6080    -2.5370    -2.2920 H     1 <1>   0.0710 
 41 H       -9.0060    -1.6990    -0.8920 H     1 <1>   0.0710 
 42 H      -10.9180    -3.0650    -0.2480 H     1 <1>   0.0710 
 43 H      -10.1950    -4.4820    -0.9480 H     1 <1>   0.0710 
@<TRIPOS>BOND
  1   1   2  2   
  2   2   3  am  
  3   2   4  am  
  4   3   5  am  
  5   3   6  1   
  6   4   7  1   
  7   4   8  1   
  8   5   9  2   
  9   5  10  1   
 10   6  22  1   
 11   6  23  1   
 12   6  24  1   
 13   7  10  2   
 14   7  11  1   
 15   8  25  1   
 16   8  26  1   
 17   8  27  1   
 18  10  12  1   
 19  11  13  ar  
 20  11  28  1   
 21  12  13  ar  
 22  12  14  1   
 23  13  15  ar  
 24  14  29  1   
 25  14  30  1   
 26  14  31  1   
 27  15  16  1   
 28  15  32  1   
 29  16  17  1   
 30  16  18  1   
 31  16  33  1   
 32  17  19  1   
 33  17  34  1   
 34  17  35  1   
 35  18  20  1   
 36  18  36  1   
 37  18  37  1   
 38  19  21  1   
 39  19  38  1   
 40  19  39  1   
 41  20  21  1   
 42  20  40  1   
 43  20  41  1   
 44  21  42  1   
 45  21  43  1   
@<TRIPOS>SUBSTRUCTURE
  1 ****  11 GROUP 4 **** **** 0

# MOE 2024.06 (io_trps.svl 2023.06)
