@<TRIPOS>MOLECULE
NONAME
38 39 1 0 0 
SMALL
USER_CHARGES


@<TRIPOS>ATOM
  1 BR       0.7300    -0.6610    -2.0140 Br    1 <1>  -0.1110 
  2 C        0.8320    -2.2190    -0.8810 C.ar  1 <1>   0.1110 
  3 C        2.0500    -2.6190    -0.3450 C.ar  1 <1>  -0.1440 
  4 C       -0.3520    -2.8890    -0.6320 C.ar  1 <1>  -0.1500 
  5 C        2.0440    -3.7360     0.4840 C.ar  1 <1>  -0.1500 
  6 C        3.3300    -1.8470    -0.6500 C.3   1 <1>   0.3530 
  7 C       -0.3300    -4.0020     0.1890 C.ar  1 <1>  -0.1500 
  8 C        0.8670    -4.4210     0.7460 C.ar  1 <1>  -0.1500 
  9 N        4.5190    -2.7260    -0.5640 N.pl3 1 <1>  -0.8690 
 10 C        5.6690    -2.4830     0.1080 C.2   1 <1>  -0.0500 
 11 C        6.7600    -3.3240     0.2000 C.2   1 <1>   0.0290 
 12 C        7.9070    -2.8980     0.9440 C.2   1 <1>   0.4950 
 13 C        6.7960    -4.6180    -0.4240 C.2   1 <1>   0.4950 
 14 O        7.9640    -1.8430     1.5320 O.2   1 <1>  -0.5700 
 15 C        9.1500    -3.7660     1.0560 C.3   1 <1>  -0.0990 
 16 O        5.8800    -5.1090    -1.0460 O.2   1 <1>  -0.5700 
 17 C        8.0300    -5.5020    -0.3230 C.3   1 <1>  -0.0990 
 18 C        9.3320    -4.7110    -0.1390 C.3   1 <1>   0.0000 
 19 C       10.4890    -5.6810     0.1450 C.3   1 <1>  -0.2400 
 20 C        9.6680    -3.9150    -1.4140 C.3   1 <1>  -0.2400 
 21 H       -1.2710    -2.5450    -1.0710 H     1 <1>   0.1500 
 22 H        2.9590    -4.0820     0.9340 H     1 <1>   0.1500 
 23 H        3.4310    -1.0310     0.0450 H     1 <1>   0.0800 
 24 H        3.2930    -1.4400    -1.6450 H     1 <1>   0.0800 
 25 H       -1.2390    -4.5400     0.3960 H     1 <1>   0.1500 
 26 H        0.8860    -5.2850     1.3870 H     1 <1>   0.1500 
 27 H        4.4090    -3.6270    -1.0660 H     1 <1>   0.4000 
 28 H        5.7210    -1.5300     0.6160 H     1 <1>   0.1500 
 29 H       10.0120    -3.1280     1.1470 H     1 <1>   0.0800 
 30 H        9.0710    -4.3310     1.9670 H     1 <1>   0.0800 
 31 H        7.8830    -6.1700     0.5060 H     1 <1>   0.0800 
 32 H        8.0990    -6.1050    -1.2110 H     1 <1>   0.0800 
 33 H       11.4090    -5.1410     0.2890 H     1 <1>   0.0800 
 34 H       10.6240    -6.3600    -0.6790 H     1 <1>   0.0800 
 35 H       10.2980    -6.2610     1.0310 H     1 <1>   0.0800 
 36 H        8.8930    -3.2150    -1.6710 H     1 <1>   0.0800 
 37 H        9.8000    -4.5820    -2.2490 H     1 <1>   0.0800 
 38 H       10.5830    -3.3630    -1.2830 H     1 <1>   0.0800 
@<TRIPOS>BOND
  1   1   2  1   
  2   2   3  ar  
  3   2   4  ar  
  4   3   5  ar  
  5   3   6  1   
  6   4   7  ar  
  7   4  21  1   
  8   5   8  ar  
  9   5  22  1   
 10   6   9  1   
 11   6  23  1   
 12   6  24  1   
 13   7   8  ar  
 14   7  25  1   
 15   8  26  1   
 16   9  10  1   
 17   9  27  1   
 18  10  11  2   
 19  10  28  1   
 20  11  12  1   
 21  11  13  1   
 22  12  14  2   
 23  12  15  1   
 24  13  16  2   
 25  13  17  1   
 26  15  18  1   
 27  15  29  1   
 28  15  30  1   
 29  17  18  1   
 30  17  31  1   
 31  17  32  1   
 32  18  19  1   
 33  18  20  1   
 34  19  33  1   
 35  19  34  1   
 36  19  35  1   
 37  20  36  1   
 38  20  37  1   
 39  20  38  1   
@<TRIPOS>SUBSTRUCTURE
  1 ****   9 GROUP 4 **** **** 0

# MOE 2024.06 (io_trps.svl 2023.06)
