@<TRIPOS>MOLECULE
NONAME
35 36 1 0 0 
SMALL
USER_CHARGES


@<TRIPOS>ATOM
  1 CL      -0.4320    -0.7070    -1.2980 Cl    1 <1>  -0.1770 
  2 C       -1.1700     0.6950    -0.5480 C.ar  1 <1>   0.1770 
  3 C       -0.4870     1.5120     0.3570 C.ar  1 <1>   0.0830 
  4 C       -2.4900     0.9520    -0.8770 C.ar  1 <1>  -0.1500 
  5 O        0.8090     1.3530     0.7320 O.3   1 <1>  -0.3630 
  6 C       -1.1650     2.5730     0.9380 C.ar  1 <1>  -0.1500 
  7 C       -3.1490     2.0240    -0.2970 C.ar  1 <1>  -0.1500 
  8 C        1.8000     1.0970    -0.2360 C.3   1 <1>   0.1200 
  9 C       -2.4860     2.8310     0.6120 C.ar  1 <1>  -0.1500 
 10 C        3.1060     1.7310     0.2410 C.3   1 <1>  -0.1600 
 11 C        4.2380     1.4900    -0.7620 C.3   1 <1>   0.0210 
 12 C        5.5220     2.1380    -0.2750 C.2   1 <1>  -0.1810 
 13 C        5.9470     3.4410    -0.5320 C.2   1 <1>   0.1080 
 14 C        6.4980     1.6040     0.4920 C.2   1 <1>  -0.3320 
 15 N        7.0890     3.7030     0.0180 N.2   1 <1>  -0.7070 
 16 C        5.2010     4.4680    -1.3530 C.3   1 <1>  -0.0590 
 17 N        7.4290     2.5680     0.6510 N.pl3 1 <1>   0.3000 
 18 C        6.6240     0.2210     1.1090 C.3   1 <1>  -0.0600 
 19 H       -2.9970     0.3140    -1.5770 H     1 <1>   0.1500 
 20 H       -0.6500     3.1980     1.6460 H     1 <1>   0.1500 
 21 H       -4.1760     2.2260    -0.5500 H     1 <1>   0.1500 
 22 H        1.4900     1.5250    -1.1740 H     1 <1>   0.0800 
 23 H        1.9110     0.0320    -0.3310 H     1 <1>   0.0800 
 24 H       -3.0000     3.6600     1.0680 H     1 <1>   0.1500 
 25 H        3.3820     1.3080     1.1910 H     1 <1>   0.0800 
 26 H        2.9630     2.7900     0.3670 H     1 <1>   0.0800 
 27 H        3.9760     1.8940    -1.7230 H     1 <1>   0.0800 
 28 H        4.3980     0.4330    -0.8850 H     1 <1>   0.0800 
 29 H        4.1910     4.5560    -1.0030 H     1 <1>   0.0800 
 30 H        5.2000     4.1750    -2.3860 H     1 <1>   0.0800 
 31 H        5.6840     5.4240    -1.2630 H     1 <1>   0.0800 
 32 H        8.3020     2.4840     1.1850 H     1 <1>   0.2700 
 33 H        5.7510    -0.3690     0.8980 H     1 <1>   0.0800 
 34 H        6.7290     0.3000     2.1760 H     1 <1>   0.0800 
 35 H        7.4840    -0.2860     0.7080 H     1 <1>   0.0800 
@<TRIPOS>BOND
  1   1   2  1   
  2   2   3  ar  
  3   2   4  ar  
  4   3   5  1   
  5   3   6  ar  
  6   4   7  ar  
  7   4  19  1   
  8   5   8  1   
  9   6   9  ar  
 10   6  20  1   
 11   7   9  ar  
 12   7  21  1   
 13   8  10  1   
 14   8  22  1   
 15   8  23  1   
 16   9  24  1   
 17  10  11  1   
 18  10  25  1   
 19  10  26  1   
 20  11  12  1   
 21  11  27  1   
 22  11  28  1   
 23  12  13  1   
 24  12  14  2   
 25  13  15  2   
 26  13  16  1   
 27  14  17  1   
 28  14  18  1   
 29  15  17  1   
 30  16  29  1   
 31  16  30  1   
 32  16  31  1   
 33  17  32  1   
 34  18  33  1   
 35  18  34  1   
 36  18  35  1   
@<TRIPOS>SUBSTRUCTURE
  1 ****  10 GROUP 4 **** **** 0

# MOE 2024.06 (io_trps.svl 2023.06)
