@<TRIPOS>MOLECULE
NONAME
52 55 1 0 0 
SMALL
USER_CHARGES


@<TRIPOS>ATOM
  1 CL       2.1550     1.7930    -2.4950 Cl    1 <1>  -0.1770 
  2 C        3.3130     1.1330    -1.3650 C.ar  1 <1>   0.1770 
  3 C        3.7000     1.8590    -0.2520 C.ar  1 <1>  -0.1440 
  4 C        3.8280    -0.1230    -1.6110 C.ar  1 <1>  -0.1500 
  5 C        4.6240     1.2920     0.6110 C.ar  1 <1>  -0.1500 
  6 C        3.1270     3.2410     0.0260 C.3   1 <1>  -0.0960 
  7 C        4.7540    -0.6810    -0.7410 C.ar  1 <1>  -0.1440 
  8 C        5.1700     0.0280     0.3910 C.ar  1 <1>  -0.0090 
  9 C        5.2770    -2.0780    -1.0580 C.3   1 <1>  -0.0960 
 10 S        6.4090    -0.6070     1.5690 S.o2  1 <1>   1.4470 
 11 O        6.1630    -1.9910     1.9050 O.2   1 <1>  -0.6500 
 12 O        6.6430     0.3440     2.6340 O.2   1 <1>  -0.6500 
 13 N        7.8610    -0.6020     0.6850 N.am  1 <1>  -0.8490 
 14 C        8.9050    -1.3440     1.4160 C.3   1 <1>   0.1960 
 15 C        8.3120     0.7660     0.3580 C.3   1 <1>   0.1960 
 16 C       10.2360    -1.3920     0.6360 C.3   1 <1>   0.3430 
 17 C        9.6260     0.7570    -0.4520 C.3   1 <1>   0.3430 
 18 N       10.7170    -0.0220     0.2420 N.4   1 <1>  -0.9590 
 19 C       11.9570    -0.0870    -0.5790 C.3   1 <1>   0.4860 
 20 C       12.4800     1.3220    -0.7760 C.ar  1 <1>  -0.1440 
 21 C       13.0860     1.9910     0.2850 C.ar  1 <1>  -0.1500 
 22 C       12.3510     1.9510    -2.0160 C.ar  1 <1>  -0.1500 
 23 C       13.5320     3.2790     0.0720 C.ar  1 <1>   0.0820 
 24 C       12.8110     3.2480    -2.2080 C.ar  1 <1>  -0.1500 
 25 O       14.1300     4.0990     0.9400 O.3   1 <1>  -0.3620 
 26 C       13.3990     3.8920    -1.1380 C.ar  1 <1>   0.0820 
 27 C       14.4130     5.3080     0.2340 C.3   1 <1>   0.4000 
 28 O       13.9080     5.1260    -1.0880 O.3   1 <1>  -0.3620 
 29 H        3.4920    -0.6540    -2.4840 H     1 <1>   0.1500 
 30 H        4.9250     1.8450     1.4840 H     1 <1>   0.1500 
 31 H        2.0570     3.1800     0.1260 H     1 <1>   0.0800 
 32 H        3.3590     3.9070    -0.7860 H     1 <1>   0.0800 
 33 H        3.5290     3.6550     0.9330 H     1 <1>   0.0800 
 34 H        4.9140    -2.4210    -2.0110 H     1 <1>   0.0800 
 35 H        4.9440    -2.7750    -0.3090 H     1 <1>   0.0800 
 36 H        6.3500    -2.0870    -1.0900 H     1 <1>   0.0800 
 37 H        8.5760    -2.3580     1.5800 H     1 <1>   0.0800 
 38 H        9.0660    -0.8960     2.3830 H     1 <1>   0.0800 
 39 H        8.4580     1.3380     1.2600 H     1 <1>   0.0800 
 40 H        7.5550     1.2640    -0.2250 H     1 <1>   0.0800 
 41 H       10.0820    -1.9900    -0.2470 H     1 <1>   0.0800 
 42 H       10.9800    -1.8840     1.2420 H     1 <1>   0.0800 
 43 H        9.9470     1.7740    -0.6110 H     1 <1>   0.0800 
 44 H        9.4250     0.3200    -1.4160 H     1 <1>   0.0800 
 45 H       10.9590     0.5000     1.0950 H     1 <1>   0.4500 
 46 H       11.7510    -0.5410    -1.5350 H     1 <1>   0.0800 
 47 H       12.7070    -0.6760    -0.0760 H     1 <1>   0.0800 
 48 H       13.2250     1.5480     1.2560 H     1 <1>   0.1500 
 49 H       11.8990     1.4420    -2.8510 H     1 <1>   0.1500 
 50 H       12.7240     3.7510    -3.1560 H     1 <1>   0.1500 
 51 H       15.4770     5.4630     0.1950 H     1 <1>   0.0800 
 52 H       13.9070     6.1310     0.7060 H     1 <1>   0.0800 
@<TRIPOS>BOND
  1   1   2  1   
  2   2   3  ar  
  3   2   4  ar  
  4   3   5  ar  
  5   3   6  1   
  6   4   7  ar  
  7   4  29  1   
  8   5   8  ar  
  9   5  30  1   
 10   6  31  1   
 11   6  32  1   
 12   6  33  1   
 13   7   8  ar  
 14   7   9  1   
 15   8  10  1   
 16   9  34  1   
 17   9  35  1   
 18   9  36  1   
 19  10  11  2   
 20  10  12  2   
 21  10  13  am  
 22  13  14  1   
 23  13  15  1   
 24  14  16  1   
 25  14  37  1   
 26  14  38  1   
 27  15  17  1   
 28  15  39  1   
 29  15  40  1   
 30  16  18  1   
 31  16  41  1   
 32  16  42  1   
 33  17  18  1   
 34  17  43  1   
 35  17  44  1   
 36  18  19  1   
 37  18  45  1   
 38  19  20  1   
 39  19  46  1   
 40  19  47  1   
 41  20  21  ar  
 42  20  22  ar  
 43  21  23  ar  
 44  21  48  1   
 45  22  24  ar  
 46  22  49  1   
 47  23  25  1   
 48  23  26  ar  
 49  24  26  ar  
 50  24  50  1   
 51  25  27  1   
 52  26  28  1   
 53  27  28  1   
 54  27  51  1   
 55  27  52  1   
@<TRIPOS>SUBSTRUCTURE
  1 ****  15 GROUP 4 **** **** 0

# MOE 2024.06 (io_trps.svl 2023.06)
