@<TRIPOS>MOLECULE
NONAME
46 48 1 0 0 
SMALL
USER_CHARGES


@<TRIPOS>ATOM
  1 S       -1.3850     0.5500    -1.7000 S.3   1 <1>  -0.0800 
  2 C       -0.0520     1.2940    -0.8290 C.2   1 <1>   0.1040 
  3 C       -2.2720     0.2600    -0.2160 C.2   1 <1>  -0.1100 
  4 N        1.0390     1.7940    -1.5190 N.am  1 <1>  -0.4940 
  5 C       -0.2970     1.2960     0.5170 C.2   1 <1>  -0.0860 
  6 C       -1.5720     0.7060     0.8400 C.2   1 <1>  -0.1500 
  7 C        1.5020     1.6560    -2.7990 C.2   1 <1>   0.5690 
  8 C        0.6030     1.8080     1.5120 C.2   1 <1>   0.8060 
  9 O        0.9780     0.9790    -3.6490 O.2   1 <1>  -0.5700 
 10 C        2.7860     2.4160    -3.1390 C.3   1 <1>   0.1710 
 11 O        1.7220     2.2160     1.2550 O.2   1 <1>  -0.5700 
 12 O        0.1900     1.8330     2.7860 O.3   1 <1>  -0.4300 
 13 N        3.4910     2.9720    -1.9450 N.3   1 <1>  -0.8100 
 14 C        1.0120     2.3330     3.8240 C.3   1 <1>   0.0400 
 15 C        4.4300     4.0530    -2.3260 C.3   1 <1>   0.1100 
 16 C        4.2310     1.9220    -1.1950 C.3   1 <1>   0.1100 
 17 C        5.1450     4.6550    -1.1000 C.3   1 <1>   0.2090 
 18 C        4.9340     2.4930     0.0510 C.3   1 <1>   0.2090 
 19 N        5.8630     3.5990    -0.3270 N.pl3 1 <1>  -0.8380 
 20 C        6.7070     4.0540     0.6940 C.ar  1 <1>   0.1000 
 21 C        6.2870     4.7210     1.8520 C.ar  1 <1>   0.1900 
 22 C        8.0720     3.8300     0.5630 C.ar  1 <1>  -0.1500 
 23 F        5.0110     4.9660     2.0420 F     1 <1>  -0.1900 
 24 C        7.1640     5.1460     2.8310 C.ar  1 <1>  -0.1500 
 25 C        8.9680     4.2470     1.5340 C.ar  1 <1>  -0.1500 
 26 C        8.5180     4.9050     2.6690 C.ar  1 <1>  -0.1500 
 27 H       -3.2320    -0.2190    -0.3020 H     1 <1>   0.1500 
 28 H        1.7040     2.3510    -0.9600 H     1 <1>   0.3700 
 29 H       -1.9050     0.6420     1.8620 H     1 <1>   0.1500 
 30 H        2.5040     3.2230    -3.7910 H     1 <1>   0.0800 
 31 H        3.4450     1.7650    -3.6860 H     1 <1>   0.0800 
 32 H        0.4720     2.2620     4.7510 H     1 <1>   0.0800 
 33 H        1.2540     3.3610     3.6140 H     1 <1>   0.0800 
 34 H        1.9110     1.7430     3.8730 H     1 <1>   0.0800 
 35 H        3.8880     4.8370    -2.8250 H     1 <1>   0.0800 
 36 H        5.1730     3.6710    -3.0050 H     1 <1>   0.0800 
 37 H        4.9740     1.4730    -1.8310 H     1 <1>   0.0800 
 38 H        3.5540     1.1490    -0.8770 H     1 <1>   0.0800 
 39 H        4.4170     5.1360    -0.4700 H     1 <1>   0.0800 
 40 H        5.8520     5.3980    -1.4250 H     1 <1>   0.0800 
 41 H        5.4910     1.7120     0.5380 H     1 <1>   0.0800 
 42 H        4.1930     2.8580     0.7400 H     1 <1>   0.0800 
 43 H        8.4230     3.3200    -0.3160 H     1 <1>   0.1500 
 44 H        6.7930     5.6540     3.7020 H     1 <1>   0.1500 
 45 H       10.0190     4.0590     1.4060 H     1 <1>   0.1500 
 46 H        9.2190     5.2270     3.4200 H     1 <1>   0.1500 
@<TRIPOS>BOND
  1   1   2  1   
  2   1   3  1   
  3   2   4  1   
  4   2   5  2   
  5   3   6  2   
  6   3  27  1   
  7   4   7  am  
  8   4  28  1   
  9   5   6  1   
 10   5   8  1   
 11   6  29  1   
 12   7   9  2   
 13   7  10  1   
 14   8  11  2   
 15   8  12  1   
 16  10  13  1   
 17  10  30  1   
 18  10  31  1   
 19  12  14  1   
 20  13  15  1   
 21  13  16  1   
 22  14  32  1   
 23  14  33  1   
 24  14  34  1   
 25  15  17  1   
 26  15  35  1   
 27  15  36  1   
 28  16  18  1   
 29  16  37  1   
 30  16  38  1   
 31  17  19  1   
 32  17  39  1   
 33  17  40  1   
 34  18  19  1   
 35  18  41  1   
 36  18  42  1   
 37  19  20  1   
 38  20  21  ar  
 39  20  22  ar  
 40  21  23  1   
 41  21  24  ar  
 42  22  25  ar  
 43  22  43  1   
 44  24  26  ar  
 45  24  44  1   
 46  25  26  ar  
 47  25  45  1   
 48  26  46  1   
@<TRIPOS>SUBSTRUCTURE
  1 ****  18 GROUP 4 **** **** 0

# MOE 2024.06 (io_trps.svl 2023.06)
