@<TRIPOS>MOLECULE
NONAME
49 51 1 0 0 
SMALL
USER_CHARGES


@<TRIPOS>ATOM
  1 F        0.7880    -0.0360    -0.0140 F     1 <1>  -0.1900 
  2 C        1.8770     0.6890    -0.0540 C.ar  1 <1>   0.1900 
  3 C        2.5020     1.0200     1.1330 C.ar  1 <1>  -0.1500 
  4 C        2.3610     1.0970    -1.2830 C.ar  1 <1>  -0.1500 
  5 C        3.6530     1.7880     1.0830 C.ar  1 <1>  -0.1500 
  6 C        3.5130     1.8640    -1.3160 C.ar  1 <1>  -0.1500 
  7 C        4.1680     2.2160    -0.1400 C.ar  1 <1>   0.1000 
  8 N        5.3220     2.9870    -0.2100 N.pl3 1 <1>  -0.8380 
  9 C        6.5950     2.3050     0.1540 C.3   1 <1>   0.2090 
 10 C        5.2140     4.3850     0.2910 C.3   1 <1>   0.2090 
 11 C        7.8120     3.1570    -0.2660 C.3   1 <1>   0.3430 
 12 C        6.4460     5.2140    -0.1320 C.3   1 <1>   0.3430 
 13 N        7.7670     4.5810     0.2650 N.4   1 <1>  -0.9590 
 14 C        8.9460     5.4100    -0.1470 C.3   1 <1>   0.4230 
 15 C       10.2620     4.6750     0.1820 C.3   1 <1>  -0.1600 
 16 C        8.8750     6.7610     0.5770 C.3   1 <1>  -0.2400 
 17 C       11.5430     5.4620    -0.1430 C.3   1 <1>  -0.0170 
 18 C       12.7430     4.5450     0.0060 C.ar  1 <1>  -0.1430 
 19 C       13.3240     4.3530     1.2500 C.ar  1 <1>  -0.1500 
 20 C       13.2640     3.8850    -1.0970 C.ar  1 <1>  -0.1500 
 21 C       14.4100     3.5060     1.3920 C.ar  1 <1>  -0.1500 
 22 C       14.3500     3.0380    -0.9560 C.ar  1 <1>  -0.1500 
 23 C       14.9220     2.8480     0.2880 C.ar  1 <1>  -0.1500 
 24 H        2.0920     0.6820     2.0680 H     1 <1>   0.1500 
 25 H        1.8460     0.8190    -2.1850 H     1 <1>   0.1500 
 26 H        4.1520     2.0540     1.9950 H     1 <1>   0.1500 
 27 H        3.9120     2.1960    -2.2570 H     1 <1>   0.1500 
 28 H        6.6390     1.3520    -0.3440 H     1 <1>   0.0800 
 29 H        6.6220     2.1250     1.2150 H     1 <1>   0.0800 
 30 H        5.1240     4.3820     1.3630 H     1 <1>   0.0800 
 31 H        4.3240     4.8350    -0.1150 H     1 <1>   0.0800 
 32 H        7.8480     3.1770    -1.3430 H     1 <1>   0.0800 
 33 H        8.7000     2.6590     0.0840 H     1 <1>   0.0800 
 34 H        6.3530     6.1910     0.3100 H     1 <1>   0.0800 
 35 H        6.4130     5.3330    -1.2030 H     1 <1>   0.0800 
 36 H        7.7840     4.5220     1.2890 H     1 <1>   0.4500 
 37 H        8.9070     5.5810    -1.2120 H     1 <1>   0.0800 
 38 H       10.3220     3.7730    -0.3970 H     1 <1>   0.0800 
 39 H       10.2840     4.4110     1.2250 H     1 <1>   0.0800 
 40 H        8.9160     6.6300     1.6440 H     1 <1>   0.0800 
 41 H        7.9930     7.3140     0.3150 H     1 <1>   0.0800 
 42 H        9.7020     7.3830     0.2870 H     1 <1>   0.0800 
 43 H       11.6660     6.2980     0.5230 H     1 <1>   0.0800 
 44 H       11.5070     5.8420    -1.1500 H     1 <1>   0.0800 
 45 H       12.9400     4.8610     2.1170 H     1 <1>   0.1500 
 46 H       12.8330     4.0240    -2.0730 H     1 <1>   0.1500 
 47 H       14.8590     3.3610     2.3590 H     1 <1>   0.1500 
 48 H       14.7520     2.5290    -1.8150 H     1 <1>   0.1500 
 49 H       15.7670     2.1900     0.3980 H     1 <1>   0.1500 
@<TRIPOS>BOND
  1   1   2  1   
  2   2   3  ar  
  3   2   4  ar  
  4   3   5  ar  
  5   3  24  1   
  6   4   6  ar  
  7   4  25  1   
  8   5   7  ar  
  9   5  26  1   
 10   6   7  ar  
 11   6  27  1   
 12   7   8  1   
 13   8   9  1   
 14   8  10  1   
 15   9  11  1   
 16   9  28  1   
 17   9  29  1   
 18  10  12  1   
 19  10  30  1   
 20  10  31  1   
 21  11  13  1   
 22  11  32  1   
 23  11  33  1   
 24  12  13  1   
 25  12  34  1   
 26  12  35  1   
 27  13  14  1   
 28  13  36  1   
 29  14  15  1   
 30  14  16  1   
 31  14  37  1   
 32  15  17  1   
 33  15  38  1   
 34  15  39  1   
 35  16  40  1   
 36  16  41  1   
 37  16  42  1   
 38  17  18  1   
 39  17  43  1   
 40  17  44  1   
 41  18  19  ar  
 42  18  20  ar  
 43  19  21  ar  
 44  19  45  1   
 45  20  22  ar  
 46  20  46  1   
 47  21  23  ar  
 48  21  47  1   
 49  22  23  ar  
 50  22  48  1   
 51  23  49  1   
@<TRIPOS>SUBSTRUCTURE
  1 ****  11 GROUP 4 **** **** 0

# MOE 2024.06 (io_trps.svl 2023.06)
