@<TRIPOS>MOLECULE
NONAME
44 45 1 0 0 
SMALL
USER_CHARGES


@<TRIPOS>ATOM
  1 O        0.9170     2.9590     1.3990 O.2   1 <1>  -0.5700 
  2 C        0.9220     2.0640     0.5890 C.2   1 <1>   0.5690 
  3 N       -0.1930     1.6320    -0.0710 N.am  1 <1>  -0.5470 
  4 C        2.2380     1.3600     0.2550 C.3   1 <1>  -0.0190 
  5 C       -1.5460     2.0190    -0.0510 C.ar  1 <1>   0.1170 
  6 C        3.2360     1.3650     1.4320 C.3   1 <1>  -0.1600 
  7 C        2.8940     1.9850    -0.9900 C.3   1 <1>  -0.1600 
  8 C       -2.4280     1.3390    -0.8990 C.ar  1 <1>   0.0820 
  9 C       -2.0430     3.0330     0.7590 C.ar  1 <1>  -0.1500 
 10 C        4.5520     0.6790     1.0590 C.3   1 <1>   0.1400 
 11 C        4.2170     1.2980    -1.3400 C.3   1 <1>   0.1400 
 12 O       -1.9000     0.3460    -1.6820 O.3   1 <1>  -0.3630 
 13 C       -3.7770     1.6800    -0.9200 C.ar  1 <1>  -0.1500 
 14 C       -3.3850     3.3740     0.7380 C.ar  1 <1>   0.0820 
 15 N        5.1200     1.3260    -0.1560 N.am  1 <1>  -0.6600 
 16 C       -2.7170    -0.4000    -2.5590 C.3   1 <1>   0.0400 
 17 C       -4.2540     2.6930    -0.1060 C.ar  1 <1>  -0.1500 
 18 O       -3.7730     4.3790     1.5670 O.3   1 <1>  -0.3620 
 19 C        6.3490     1.9320    -0.2250 C.2   1 <1>   0.5690 
 20 C       -5.1160     4.8030     1.6240 C.3   1 <1>   0.0400 
 21 O        6.7750     2.4140    -1.2470 O.2   1 <1>  -0.5700 
 22 C        7.2350     2.0230     0.9960 C.3   1 <1>  -0.1790 
 23 H       -0.0450     0.8740    -0.7390 H     1 <1>   0.3700 
 24 H        2.0080     0.3330     0.0330 H     1 <1>   0.0800 
 25 H        2.7980     0.8650     2.2780 H     1 <1>   0.0800 
 26 H        3.4470     2.3790     1.7280 H     1 <1>   0.0800 
 27 H        3.0830     3.0300    -0.8140 H     1 <1>   0.0800 
 28 H        2.2280     1.9130    -1.8320 H     1 <1>   0.0800 
 29 H       -1.3950     3.5750     1.4190 H     1 <1>   0.1500 
 30 H        4.3750    -0.3620     0.8490 H     1 <1>   0.0800 
 31 H        5.2310     0.7360     1.8900 H     1 <1>   0.0800 
 32 H        4.6700     1.8010    -2.1780 H     1 <1>   0.0800 
 33 H        4.0420     0.2750    -1.6230 H     1 <1>   0.0800 
 34 H       -4.4740     1.1750    -1.5600 H     1 <1>   0.1500 
 35 H       -2.0970    -1.1190    -3.0640 H     1 <1>   0.0800 
 36 H       -3.1600     0.2670    -3.2780 H     1 <1>   0.0800 
 37 H       -3.4720    -0.9080    -1.9870 H     1 <1>   0.0800 
 38 H       -5.2990     2.9350    -0.1440 H     1 <1>   0.1500 
 39 H       -5.1830     5.6010     2.3420 H     1 <1>   0.0800 
 40 H       -5.7300     3.9780     1.9370 H     1 <1>   0.0800 
 41 H       -5.4110     5.1610     0.6530 H     1 <1>   0.0800 
 42 H        7.5000     1.0380     1.3290 H     1 <1>   0.0800 
 43 H        6.7240     2.5530     1.7780 H     1 <1>   0.0800 
 44 H        8.1340     2.5570     0.7510 H     1 <1>   0.0800 
@<TRIPOS>BOND
  1   1   2  2   
  2   2   3  am  
  3   2   4  1   
  4   3   5  1   
  5   3  23  1   
  6   4   6  1   
  7   4   7  1   
  8   4  24  1   
  9   5   8  ar  
 10   5   9  ar  
 11   6  10  1   
 12   6  25  1   
 13   6  26  1   
 14   7  11  1   
 15   7  27  1   
 16   7  28  1   
 17   8  12  1   
 18   8  13  ar  
 19   9  14  ar  
 20   9  29  1   
 21  10  15  1   
 22  10  30  1   
 23  10  31  1   
 24  11  15  1   
 25  11  32  1   
 26  11  33  1   
 27  12  16  1   
 28  13  17  ar  
 29  13  34  1   
 30  14  17  ar  
 31  14  18  1   
 32  15  19  am  
 33  16  35  1   
 34  16  36  1   
 35  16  37  1   
 36  17  38  1   
 37  18  20  1   
 38  19  21  2   
 39  19  22  1   
 40  20  39  1   
 41  20  40  1   
 42  20  41  1   
 43  22  42  1   
 44  22  43  1   
 45  22  44  1   
@<TRIPOS>SUBSTRUCTURE
  1 ****   2 GROUP 4 **** **** 0

# MOE 2024.06 (io_trps.svl 2023.06)
