@<TRIPOS>MOLECULE
NONAME
46 48 1 0 0 
SMALL
USER_CHARGES


@<TRIPOS>ATOM
  1 N       -0.1600     0.2760     0.4000 N.pl3 1 <1>  -0.8380 
  2 C       -1.4390     0.7670     0.1640 C.ar  1 <1>   0.1000 
  3 C        0.9420     0.9110    -0.3770 C.3   1 <1>   0.2090 
  4 C       -0.0400    -1.2010     0.5540 C.3   1 <1>   0.2090 
  5 C       -2.0960     0.5390    -1.0400 C.ar  1 <1>  -0.1500 
  6 C       -2.0820     1.5030     1.1490 C.ar  1 <1>  -0.1500 
  7 C        2.3170     0.5100     0.1960 C.3   1 <1>   0.3430 
  8 C        1.3440    -1.5770     1.1240 C.3   1 <1>   0.3430 
  9 C       -3.3690     1.0370    -1.2530 C.ar  1 <1>  -0.1500 
 10 C       -3.3540     2.0030     0.9400 C.ar  1 <1>  -0.1500 
 11 N        2.4870    -0.9870     0.3310 N.4   1 <1>  -0.9590 
 12 C       -4.0000     1.7700    -0.2630 C.ar  1 <1>  -0.1500 
 13 C        3.7950    -1.3750     0.9410 C.3   1 <1>   0.3430 
 14 C        4.9910    -1.0150     0.0430 C.3   1 <1>  -0.0800 
 15 C        6.0260    -2.1550     0.0810 C.3   1 <1>  -0.1600 
 16 C        5.6570     0.3070     0.4800 C.3   1 <1>  -0.1600 
 17 C        7.2450    -1.8360    -0.7940 C.3   1 <1>  -0.1600 
 18 C        6.8730     0.6350    -0.3960 C.3   1 <1>  -0.1600 
 19 C        7.8930    -0.5100    -0.3790 C.3   1 <1>  -0.1600 
 20 H        0.8330     1.9810    -0.3310 H     1 <1>   0.0800 
 21 H        0.8740     0.6160    -1.4100 H     1 <1>   0.0800 
 22 H       -0.1890    -1.6790    -0.3990 H     1 <1>   0.0800 
 23 H       -0.8090    -1.5490     1.2230 H     1 <1>   0.0800 
 24 H       -1.6130    -0.0290    -1.8120 H     1 <1>   0.1500 
 25 H       -1.5790     1.6820     2.0800 H     1 <1>   0.1500 
 26 H        2.4220     0.9720     1.1640 H     1 <1>   0.0800 
 27 H        3.0840     0.9100    -0.4450 H     1 <1>   0.0800 
 28 H        1.4300    -2.6500     1.1510 H     1 <1>   0.0800 
 29 H        1.3900    -1.2180     2.1390 H     1 <1>   0.0800 
 30 H       -3.8720     0.8570    -2.1880 H     1 <1>   0.1500 
 31 H       -3.8440     2.5730     1.7100 H     1 <1>   0.1500 
 32 H        2.4450    -1.3870    -0.6150 H     1 <1>   0.4500 
 33 H       -4.9900     2.1590    -0.4270 H     1 <1>   0.1500 
 34 H        3.7990    -2.4430     1.0930 H     1 <1>   0.0800 
 35 H        3.9120    -0.9090     1.9060 H     1 <1>   0.0800 
 36 H        4.6600    -0.9220    -0.9770 H     1 <1>   0.0800 
 37 H        5.5810    -3.0720    -0.2690 H     1 <1>   0.0800 
 38 H        6.3600    -2.3150     1.0930 H     1 <1>   0.0800 
 39 H        5.9840     0.2270     1.5040 H     1 <1>   0.0800 
 40 H        4.9680     1.1290     0.4240 H     1 <1>   0.0800 
 41 H        6.9460    -1.7780    -1.8270 H     1 <1>   0.0800 
 42 H        7.9700    -2.6280    -0.7080 H     1 <1>   0.0800 
 43 H        7.3450     1.5360    -0.0390 H     1 <1>   0.0800 
 44 H        6.5550     0.8120    -1.4090 H     1 <1>   0.0800 
 45 H        8.7040    -0.2800    -1.0490 H     1 <1>   0.0800 
 46 H        8.3050    -0.6070     0.6110 H     1 <1>   0.0800 
@<TRIPOS>BOND
  1   1   2  1   
  2   1   3  1   
  3   1   4  1   
  4   2   5  ar  
  5   2   6  ar  
  6   3   7  1   
  7   3  20  1   
  8   3  21  1   
  9   4   8  1   
 10   4  22  1   
 11   4  23  1   
 12   5   9  ar  
 13   5  24  1   
 14   6  10  ar  
 15   6  25  1   
 16   7  11  1   
 17   7  26  1   
 18   7  27  1   
 19   8  11  1   
 20   8  28  1   
 21   8  29  1   
 22   9  12  ar  
 23   9  30  1   
 24  10  12  ar  
 25  10  31  1   
 26  11  13  1   
 27  11  32  1   
 28  12  33  1   
 29  13  14  1   
 30  13  34  1   
 31  13  35  1   
 32  14  15  1   
 33  14  16  1   
 34  14  36  1   
 35  15  17  1   
 36  15  37  1   
 37  15  38  1   
 38  16  18  1   
 39  16  39  1   
 40  16  40  1   
 41  17  19  1   
 42  17  41  1   
 43  17  42  1   
 44  18  19  1   
 45  18  43  1   
 46  18  44  1   
 47  19  45  1   
 48  19  46  1   
@<TRIPOS>SUBSTRUCTURE
  1 ****   7 GROUP 4 **** **** 0

# MOE 2024.06 (io_trps.svl 2023.06)
