@<TRIPOS>MOLECULE
NONAME
34 36 1 0 0 
SMALL
USER_CHARGES


@<TRIPOS>ATOM
  1 S      -10.8050     1.6870    -0.3340 S.3   1 <1>  -0.0800 
  2 C       -9.0830     1.4910    -0.6620 C.ar  1 <1>   0.2970 
  3 C      -10.5260     3.2150     0.5080 C.2   1 <1>  -0.1400 
  4 N       -8.5830     0.4650    -1.3160 N.ar  1 <1>  -0.5670 
  5 C       -8.3760     2.5470    -0.1430 C.ar  1 <1>   0.0000 
  6 C       -9.2150     3.5160     0.5170 C.2   1 <1>  -0.1500 
  7 C      -11.7440     3.9210     1.0650 C.3   1 <1>  -0.0600 
  8 C       -7.2710     0.5420    -1.4370 C.ar  1 <1>   0.4700 
  9 C       -6.9980     2.4930    -0.3460 C.ar  1 <1>   0.4100 
 10 N       -6.4470     1.4840    -0.9960 N.ar  1 <1>  -0.6200 
 11 N       -6.1780     3.4830     0.1310 N.pl3 1 <1>  -0.8690 
 12 C       -4.7110     3.5320     0.0070 C.3   1 <1>   0.2890 
 13 C       -4.0900     3.1360     1.3490 C.3   1 <1>  -0.1600 
 14 C       -4.3030     4.9520    -0.3970 C.3   1 <1>  -0.1600 
 15 C       -2.5610     3.2850     1.3230 C.3   1 <1>  -0.1600 
 16 C       -2.7750     5.1050    -0.4300 C.3   1 <1>  -0.1600 
 17 C       -2.1490     4.7060     0.9140 C.3   1 <1>  -0.1600 
 18 H       -8.7820     4.3920     0.9630 H     1 <1>   0.1500 
 19 H      -12.2410     3.2880     1.7780 H     1 <1>   0.0800 
 20 H      -12.4290     4.1530     0.2690 H     1 <1>   0.0800 
 21 H      -11.4550     4.8340     1.5520 H     1 <1>   0.0800 
 22 H       -6.8030    -0.2720    -1.9650 H     1 <1>   0.1500 
 23 H       -6.5800     4.2130     0.7160 H     1 <1>   0.4000 
 24 H       -4.3770     2.8460    -0.7540 H     1 <1>   0.0800 
 25 H       -4.3470     2.1140     1.5640 H     1 <1>   0.0800 
 26 H       -4.4910     3.7600     2.1280 H     1 <1>   0.0800 
 27 H       -4.7100     5.6560     0.3070 H     1 <1>   0.0800 
 28 H       -4.7050     5.1690    -1.3710 H     1 <1>   0.0800 
 29 H       -2.1480     2.5790     0.6220 H     1 <1>   0.0800 
 30 H       -2.1600     3.0570     2.2950 H     1 <1>   0.0800 
 31 H       -2.5190     6.1250    -0.6600 H     1 <1>   0.0800 
 32 H       -2.3720     4.4800    -1.2090 H     1 <1>   0.0800 
 33 H       -1.0760     4.7630     0.8430 H     1 <1>   0.0800 
 34 H       -2.4650     5.4000     1.6740 H     1 <1>   0.0800 
@<TRIPOS>BOND
  1   1   2  1   
  2   1   3  1   
  3   2   4  ar  
  4   2   5  ar  
  5   3   6  2   
  6   3   7  1   
  7   4   8  ar  
  8   5   6  1   
  9   5   9  ar  
 10   6  18  1   
 11   7  19  1   
 12   7  20  1   
 13   7  21  1   
 14   8  10  ar  
 15   8  22  1   
 16   9  10  ar  
 17   9  11  1   
 18  11  12  1   
 19  11  23  1   
 20  12  13  1   
 21  12  14  1   
 22  12  24  1   
 23  13  15  1   
 24  13  25  1   
 25  13  26  1   
 26  14  16  1   
 27  14  27  1   
 28  14  28  1   
 29  15  17  1   
 30  15  29  1   
 31  15  30  1   
 32  16  17  1   
 33  16  31  1   
 34  16  32  1   
 35  17  33  1   
 36  17  34  1   
@<TRIPOS>SUBSTRUCTURE
  1 ****   9 GROUP 4 **** **** 0

# MOE 2024.06 (io_trps.svl 2023.06)
