@<TRIPOS>MOLECULE
NONAME
45 46 1 0 0 
SMALL
USER_CHARGES


@<TRIPOS>ATOM
  1 O       -0.2190     0.3130     0.0710 O.2   1 <1>  -0.5700 
  2 C       -0.1190     1.4920     0.3480 C.2   1 <1>   0.5440 
  3 N       -1.2420     2.1680     0.7430 N.am  1 <1>  -0.7300 
  4 C        1.1640     2.1670     0.2700 C.ar  1 <1>   0.0860 
  5 C       -2.6010     1.5850     0.8530 C.3   1 <1>   0.1400 
  6 C        2.3560     1.4630     0.4520 C.ar  1 <1>  -0.1500 
  7 C        1.2680     3.5370     0.0140 C.ar  1 <1>  -0.1500 
  8 C       -3.4730     2.0800    -0.3020 C.3   1 <1>  -0.0220 
  9 C        3.5890     2.0870     0.3960 C.ar  1 <1>  -0.1500 
 10 C        2.4960     4.1700    -0.0440 C.ar  1 <1>  -0.1500 
 11 C       -4.9040     1.5710    -0.1800 C.2   1 <1>  -0.2760 
 12 C        3.6670     3.4520     0.1430 C.ar  1 <1>   0.0830 
 13 C       -5.9190     2.3560     0.1950 C.2   1 <1>  -0.2880 
 14 C       -5.0920     0.0990    -0.5390 C.3   1 <1>  -0.0220 
 15 O        4.8330     4.1430     0.0820 O.3   1 <1>  -0.2320 
 16 C       -7.3660     1.9000     0.2960 C.3   1 <1>  -0.0220 
 17 C       -6.4570    -0.4320    -0.0770 C.3   1 <1>  -0.1600 
 18 C        6.0520     3.7080    -0.2370 C.2   1 <1>   0.6590 
 19 C       -7.5800     0.5560    -0.4150 C.3   1 <1>  -0.1600 
 20 O        6.2860     2.5860    -0.6070 O.2   1 <1>  -0.5700 
 21 C        7.1480     4.7580    -0.1050 C.3   1 <1>  -0.0990 
 22 C        8.5680     4.2490    -0.4120 C.3   1 <1>  -0.2400 
 23 H       -1.1540     3.1350     1.0560 H     1 <1>   0.3700 
 24 H       -3.0400     1.8750     1.7910 H     1 <1>   0.0800 
 25 H       -2.5390     0.5100     0.8320 H     1 <1>   0.0800 
 26 H        2.3070     0.4040     0.6420 H     1 <1>   0.1500 
 27 H        0.3770     4.1150    -0.1510 H     1 <1>   0.1500 
 28 H       -3.0530     1.7570    -1.2380 H     1 <1>   0.0800 
 29 H       -3.4820     3.1550    -0.2910 H     1 <1>   0.0800 
 30 H        4.4760     1.5010     0.5550 H     1 <1>   0.1500 
 31 H        2.5530     5.2260    -0.2400 H     1 <1>   0.1500 
 32 H       -5.7940     3.3920     0.4610 H     1 <1>   0.1500 
 33 H       -4.3230    -0.5050    -0.0890 H     1 <1>   0.0800 
 34 H       -5.0080    -0.0070    -1.6070 H     1 <1>   0.0800 
 35 H       -8.0100     2.6380    -0.1490 H     1 <1>   0.0800 
 36 H       -7.6280     1.8090     1.3350 H     1 <1>   0.0800 
 37 H       -6.4320    -0.5820     0.9890 H     1 <1>   0.0800 
 38 H       -6.6490    -1.3830    -0.5430 H     1 <1>   0.0800 
 39 H       -7.5930     0.7200    -1.4780 H     1 <1>   0.0800 
 40 H       -8.5330     0.1450    -0.1290 H     1 <1>   0.0800 
 41 H        7.1230     5.1400     0.8990 H     1 <1>   0.0800 
 42 H        6.9140     5.5680    -0.7720 H     1 <1>   0.0800 
 43 H        8.8300     3.4480     0.2570 H     1 <1>   0.0800 
 44 H        9.2830     5.0440    -0.2960 H     1 <1>   0.0800 
 45 H        8.6220     3.8810    -1.4230 H     1 <1>   0.0800 
@<TRIPOS>BOND
  1   1   2  2   
  2   2   3  am  
  3   2   4  1   
  4   3   5  1   
  5   3  23  1   
  6   4   6  ar  
  7   4   7  ar  
  8   5   8  1   
  9   5  24  1   
 10   5  25  1   
 11   6   9  ar  
 12   6  26  1   
 13   7  10  ar  
 14   7  27  1   
 15   8  11  1   
 16   8  28  1   
 17   8  29  1   
 18   9  12  ar  
 19   9  30  1   
 20  10  12  ar  
 21  10  31  1   
 22  11  13  2   
 23  11  14  1   
 24  12  15  1   
 25  13  16  1   
 26  13  32  1   
 27  14  17  1   
 28  14  33  1   
 29  14  34  1   
 30  15  18  1   
 31  16  19  1   
 32  16  35  1   
 33  16  36  1   
 34  17  19  1   
 35  17  37  1   
 36  17  38  1   
 37  18  20  2   
 38  18  21  1   
 39  19  39  1   
 40  19  40  1   
 41  21  22  1   
 42  21  41  1   
 43  21  42  1   
 44  22  43  1   
 45  22  44  1   
 46  22  45  1   
@<TRIPOS>SUBSTRUCTURE
  1 ****   2 GROUP 4 **** **** 0

# MOE 2024.06 (io_trps.svl 2023.06)
