@<TRIPOS>MOLECULE
NONAME
48 51 1 0 0 
SMALL
USER_CHARGES


@<TRIPOS>ATOM
  1 S       -0.3300     0.9280     1.6260 S.o2  1 <1>   1.4470 
  2 O       -0.9600     1.6290     2.7240 O.2   1 <1>  -0.6500 
  3 O       -0.1330    -0.5020     1.7130 O.2   1 <1>  -0.6500 
  4 N       -1.2880     1.2050     0.2560 N.am  1 <1>  -0.8490 
  5 C        1.2420     1.7220     1.1880 C.ar  1 <1>  -0.0090 
  6 C       -2.5070     0.3720     0.2860 C.3   1 <1>   0.1960 
  7 C       -1.6500     2.6300     0.1040 C.3   1 <1>   0.1960 
  8 C        1.9900     1.2920     0.1210 C.ar  1 <1>  -0.1500 
  9 C        1.7230     2.8160     1.9300 C.ar  1 <1>  -0.1500 
 10 C       -3.3790     0.5730    -0.9670 C.3   1 <1>   0.1400 
 11 C       -2.4670     2.8640    -1.1760 C.3   1 <1>   0.1400 
 12 C        3.2030     1.9040    -0.2520 C.ar  1 <1>   0.0000 
 13 C        2.8960     3.4360     1.5970 C.ar  1 <1>  -0.1500 
 14 N       -3.6990     2.0200    -1.1500 N.am  1 <1>  -0.6600 
 15 C        3.6660     3.0020     0.5020 C.ar  1 <1>   0.0000 
 16 C        3.9700     1.4620    -1.3480 C.ar  1 <1>  -0.1500 
 17 C       -4.9880     2.4940    -1.0310 C.2   1 <1>   0.5690 
 18 C        4.8770     3.6180     0.1290 C.ar  1 <1>  -0.1500 
 19 C        5.1430     2.0780    -1.6870 C.ar  1 <1>  -0.1500 
 20 O       -5.9210     1.7200    -1.0000 O.2   1 <1>  -0.5700 
 21 C       -5.2870     4.0130    -0.9570 C.3   1 <1>   0.2610 
 22 C        5.6010     3.1690    -0.9410 C.ar  1 <1>  -0.1500 
 23 O       -4.5580     4.6690     0.0610 O.3   1 <1>  -0.5600 
 24 C       -6.7490     4.3950    -0.7080 C.3   1 <1>  -0.1600 
 25 C       -5.3340     5.6050     0.7450 C.3   1 <1>   0.1200 
 26 C       -6.6300     5.7470    -0.0380 C.3   1 <1>  -0.1600 
 27 H       -3.0900     0.6080     1.1610 H     1 <1>   0.0800 
 28 H       -2.2310    -0.6680     0.3440 H     1 <1>   0.0800 
 29 H       -0.7560     3.2280     0.0550 H     1 <1>   0.0800 
 30 H       -2.2280     2.9630     0.9510 H     1 <1>   0.0800 
 31 H        1.6450     0.4550    -0.4630 H     1 <1>   0.1500 
 32 H        1.1480     3.1600     2.7740 H     1 <1>   0.1500 
 33 H       -4.2790    -0.0090    -0.8670 H     1 <1>   0.0800 
 34 H       -2.8500     0.2140    -1.8320 H     1 <1>   0.0800 
 35 H       -1.8710     2.5890    -2.0290 H     1 <1>   0.0800 
 36 H       -2.7030     3.9070    -1.2700 H     1 <1>   0.0800 
 37 H        3.2530     4.2710     2.1740 H     1 <1>   0.1500 
 38 H        3.6160     0.6220    -1.9180 H     1 <1>   0.1500 
 39 H        5.2260     4.4550     0.7070 H     1 <1>   0.1500 
 40 H        5.7260     1.7370    -2.5250 H     1 <1>   0.1500 
 41 H       -4.9750     4.4550    -1.8850 H     1 <1>   0.0800 
 42 H        6.5260     3.6430    -1.2210 H     1 <1>   0.1500 
 43 H       -7.2020     3.6900    -0.0320 H     1 <1>   0.0800 
 44 H       -7.3180     4.4240    -1.6200 H     1 <1>   0.0800 
 45 H       -4.7920     6.5320     0.8160 H     1 <1>   0.0800 
 46 H       -5.5220     5.2120     1.7300 H     1 <1>   0.0800 
 47 H       -7.4660     5.9690     0.6010 H     1 <1>   0.0800 
 48 H       -6.5230     6.5260    -0.7720 H     1 <1>   0.0800 
@<TRIPOS>BOND
  1   1   2  2   
  2   1   3  2   
  3   1   4  am  
  4   1   5  1   
  5   4   6  1   
  6   4   7  1   
  7   5   8  ar  
  8   5   9  ar  
  9   6  10  1   
 10   6  27  1   
 11   6  28  1   
 12   7  11  1   
 13   7  29  1   
 14   7  30  1   
 15   8  12  ar  
 16   8  31  1   
 17   9  13  ar  
 18   9  32  1   
 19  10  14  1   
 20  10  33  1   
 21  10  34  1   
 22  11  14  1   
 23  11  35  1   
 24  11  36  1   
 25  12  15  ar  
 26  12  16  ar  
 27  13  15  ar  
 28  13  37  1   
 29  14  17  am  
 30  15  18  ar  
 31  16  19  ar  
 32  16  38  1   
 33  17  20  2   
 34  17  21  1   
 35  18  22  ar  
 36  18  39  1   
 37  19  22  ar  
 38  19  40  1   
 39  21  23  1   
 40  21  24  1   
 41  21  41  1   
 42  22  42  1   
 43  23  25  1   
 44  24  26  1   
 45  24  43  1   
 46  24  44  1   
 47  25  26  1   
 48  25  45  1   
 49  25  46  1   
 50  26  47  1   
 51  26  48  1   
@<TRIPOS>SUBSTRUCTURE
  1 ****   7 GROUP 4 **** **** 0

# MOE 2024.06 (io_trps.svl 2023.06)
