@<TRIPOS>MOLECULE
NONAME
51 52 1 0 0 
SMALL
USER_CHARGES


@<TRIPOS>ATOM
  1 O       -5.1710    -9.4680     0.2550 O.3   1 <1>  -0.3630 
  2 C       -6.4290    -8.9780     0.3860 C.ar  1 <1>   0.0830 
  3 C       -4.2330    -8.8080    -0.5870 C.3   1 <1>   0.1200 
  4 C       -6.9840    -8.9640     1.6540 C.ar  1 <1>  -0.1500 
  5 C       -7.1690    -8.5080    -0.6930 C.ar  1 <1>  -0.1500 
  6 C       -3.1160    -8.1660     0.2550 C.3   1 <1>   0.2000 
  7 C       -8.2580    -8.4600     1.8600 C.ar  1 <1>  -0.1440 
  8 C       -8.4470    -8.0090    -0.4990 C.ar  1 <1>  -0.1440 
  9 O       -2.4590    -9.1740     0.9420 O.3   1 <1>  -0.6800 
 10 C       -3.6320    -7.1420     1.2830 C.3   1 <1>   0.1100 
 11 C       -8.9840    -7.9850     0.7790 C.ar  1 <1>  -0.1500 
 12 C       -8.8640    -8.4530     3.2510 C.3   1 <1>  -0.0970 
 13 C       -9.2760    -7.5250    -1.6750 C.3   1 <1>  -0.0970 
 14 N       -4.6140    -6.2110     0.6890 N.3   1 <1>  -0.8100 
 15 C       -5.6280    -5.7390     1.6550 C.3   1 <1>   0.1100 
 16 C       -4.0320    -5.0820    -0.0690 C.3   1 <1>   0.1100 
 17 C       -6.8310    -5.1030     0.9220 C.3   1 <1>   0.3430 
 18 C       -5.1220    -4.1160    -0.6030 C.3   1 <1>   0.3430 
 19 N       -6.4880    -4.7280    -0.4920 N.4   1 <1>  -0.9590 
 20 C       -7.5760    -4.0240    -1.2250 C.3   1 <1>   0.3430 
 21 C       -7.3690    -4.1150    -2.7500 C.3   1 <1>   0.1200 
 22 O       -6.8710    -5.3740    -3.0930 O.3   1 <1>  -0.6800 
 23 H       -4.7240    -8.0490    -1.1660 H     1 <1>   0.0800 
 24 H       -3.8180    -9.5380    -1.2570 H     1 <1>   0.0800 
 25 H       -6.4100    -9.3550     2.4740 H     1 <1>   0.1500 
 26 H       -6.7600    -8.5540    -1.6850 H     1 <1>   0.1500 
 27 H       -2.3940    -7.6960    -0.3890 H     1 <1>   0.0800 
 28 H       -3.1300    -9.7970     1.2920 H     1 <1>   0.4000 
 29 H       -2.8060    -6.5970     1.7080 H     1 <1>   0.0800 
 30 H       -4.1120    -7.6950     2.0730 H     1 <1>   0.0800 
 31 H       -9.9830    -7.6130     0.9310 H     1 <1>   0.1500 
 32 H       -8.0940    -8.4320     4.0020 H     1 <1>   0.0800 
 33 H       -9.4550    -9.3410     3.3910 H     1 <1>   0.0800 
 34 H       -9.4950    -7.5930     3.3850 H     1 <1>   0.0800 
 35 H       -8.6700    -7.4220    -2.5570 H     1 <1>   0.0800 
 36 H       -9.7270    -6.5760    -1.4520 H     1 <1>   0.0800 
 37 H      -10.0550    -8.2370    -1.8810 H     1 <1>   0.0800 
 38 H       -5.1860    -5.0220     2.3250 H     1 <1>   0.0800 
 39 H       -5.9880    -6.5590     2.2500 H     1 <1>   0.0800 
 40 H       -3.4740    -5.4710    -0.9040 H     1 <1>   0.0800 
 41 H       -3.3460    -4.5330     0.5530 H     1 <1>   0.0800 
 42 H       -7.1620    -4.2380     1.4720 H     1 <1>   0.0800 
 43 H       -7.6370    -5.8170     0.9120 H     1 <1>   0.0800 
 44 H       -4.9030    -3.8800    -1.6310 H     1 <1>   0.0800 
 45 H       -5.0890    -3.2000    -0.0380 H     1 <1>   0.0800 
 46 H       -6.3810    -5.6410    -0.9740 H     1 <1>   0.4500 
 47 H       -7.6350    -2.9930    -0.9190 H     1 <1>   0.0800 
 48 H       -8.5180    -4.4930    -0.9890 H     1 <1>   0.0800 
 49 H       -6.6640    -3.3720    -3.0810 H     1 <1>   0.0800 
 50 H       -8.3040    -3.9620    -3.2630 H     1 <1>   0.0800 
 51 H       -6.8110    -5.4750    -4.0680 H     1 <1>   0.4000 
@<TRIPOS>BOND
  1   1   2  1   
  2   1   3  1   
  3   2   4  ar  
  4   2   5  ar  
  5   3   6  1   
  6   3  23  1   
  7   3  24  1   
  8   4   7  ar  
  9   4  25  1   
 10   5   8  ar  
 11   5  26  1   
 12   6   9  1   
 13   6  10  1   
 14   6  27  1   
 15   7  11  ar  
 16   7  12  1   
 17   8  11  ar  
 18   8  13  1   
 19   9  28  1   
 20  10  14  1   
 21  10  29  1   
 22  10  30  1   
 23  11  31  1   
 24  12  32  1   
 25  12  33  1   
 26  12  34  1   
 27  13  35  1   
 28  13  36  1   
 29  13  37  1   
 30  14  15  1   
 31  14  16  1   
 32  15  17  1   
 33  15  38  1   
 34  15  39  1   
 35  16  18  1   
 36  16  40  1   
 37  16  41  1   
 38  17  19  1   
 39  17  42  1   
 40  17  43  1   
 41  18  19  1   
 42  18  44  1   
 43  18  45  1   
 44  19  20  1   
 45  19  46  1   
 46  20  21  1   
 47  20  47  1   
 48  20  48  1   
 49  21  22  1   
 50  21  49  1   
 51  21  50  1   
 52  22  51  1   
@<TRIPOS>SUBSTRUCTURE
  1 ****  14 GROUP 4 **** **** 0

# MOE 2024.06 (io_trps.svl 2023.06)
