@<TRIPOS>MOLECULE
NONAME
34 34 1 0 0 
SMALL
USER_CHARGES


@<TRIPOS>ATOM
  1 CL       0.3130     0.4840    -0.4410 Cl    1 <1>  -0.1770 
  2 C        1.9430     1.1050    -0.3750 C.ar  1 <1>   0.1770 
  3 C        3.0020     0.2200    -0.2920 C.ar  1 <1>  -0.1500 
  4 C        2.1500     2.4710    -0.4070 C.ar  1 <1>  -0.1500 
  5 C        4.2980     0.7090    -0.2400 C.ar  1 <1>  -0.1500 
  6 C        3.4450     2.9580    -0.3550 C.ar  1 <1>  -0.1500 
  7 C        4.5220     2.0860    -0.2710 C.ar  1 <1>   0.0830 
  8 O        5.7550     2.6510    -0.2250 O.3   1 <1>  -0.3630 
  9 C        6.9210     1.8710    -0.1390 C.3   1 <1>   0.1200 
 10 C        8.1070     2.8370    -0.1080 C.3   1 <1>   0.3430 
 11 N        9.4170     2.1140    -0.0170 N.4   1 <1>  -0.9060 
 12 C       10.6190     2.9520     0.0200 C.3   1 <1>   0.5030 
 13 C       10.5850     3.8550     1.2520 C.3   1 <1>  -0.2400 
 14 C       10.7160     3.7760    -1.2640 C.3   1 <1>  -0.2400 
 15 C       11.8030     1.9960     0.1120 C.3   1 <1>  -0.2400 
 16 H        2.8070    -0.8370    -0.2690 H     1 <1>   0.1500 
 17 H        1.3090     3.1380    -0.4720 H     1 <1>   0.1500 
 18 H        5.1040     0.0040    -0.1760 H     1 <1>   0.1500 
 19 H        3.6220     4.0190    -0.3790 H     1 <1>   0.1500 
 20 H        6.9600     1.2350    -1.0070 H     1 <1>   0.0800 
 21 H        6.8680     1.2910     0.7660 H     1 <1>   0.0800 
 22 H        7.9920     3.4900     0.7420 H     1 <1>   0.0800 
 23 H        8.0830     3.4360    -1.0040 H     1 <1>   0.0800 
 24 H        9.5200     1.4830    -0.8180 H     1 <1>   0.4500 
 25 H        9.4350     1.5340     0.8280 H     1 <1>   0.4500 
 26 H       10.4650     3.2800     2.1530 H     1 <1>   0.0800 
 27 H        9.8000     4.5870     1.1890 H     1 <1>   0.0800 
 28 H       11.5130     4.3940     1.3310 H     1 <1>   0.0800 
 29 H        9.9310     4.5080    -1.3280 H     1 <1>   0.0800 
 30 H       10.6890     3.1460    -2.1350 H     1 <1>   0.0800 
 31 H       11.6490     4.3130    -1.2790 H     1 <1>   0.0800 
 32 H       11.7560     1.4010     1.0070 H     1 <1>   0.0800 
 33 H       12.7230     2.5540     0.1420 H     1 <1>   0.0800 
 34 H       11.8480     1.3460    -0.7450 H     1 <1>   0.0800 
@<TRIPOS>BOND
  1   1   2  1   
  2   2   3  ar  
  3   2   4  ar  
  4   3   5  ar  
  5   3  16  1   
  6   4   6  ar  
  7   4  17  1   
  8   5   7  ar  
  9   5  18  1   
 10   6   7  ar  
 11   6  19  1   
 12   7   8  1   
 13   8   9  1   
 14   9  10  1   
 15   9  20  1   
 16   9  21  1   
 17  10  11  1   
 18  10  22  1   
 19  10  23  1   
 20  11  12  1   
 21  11  24  1   
 22  11  25  1   
 23  12  13  1   
 24  12  14  1   
 25  12  15  1   
 26  13  26  1   
 27  13  27  1   
 28  13  28  1   
 29  14  29  1   
 30  14  30  1   
 31  14  31  1   
 32  15  32  1   
 33  15  33  1   
 34  15  34  1   
@<TRIPOS>SUBSTRUCTURE
  1 ****   8 GROUP 4 **** **** 0

# MOE 2024.06 (io_trps.svl 2023.06)
