@<TRIPOS>MOLECULE
NONAME
48 50 1 0 0 
SMALL
USER_CHARGES


@<TRIPOS>ATOM
  1 S        0.9710    -0.7910     1.9360 S.o2  1 <1>   1.4470 
  2 O        1.9040    -1.5820     2.7060 O.2   1 <1>  -0.6500 
  3 O        0.6660     0.5640     2.3280 O.2   1 <1>  -0.6500 
  4 N        1.6450    -0.6050     0.4210 N.am  1 <1>  -0.9140 
  5 C       -0.5380    -1.7380     1.5950 C.ar  1 <1>  -0.0090 
  6 C        3.0510    -0.2870     0.5090 C.3   1 <1>   0.3760 
  7 C       -1.7750    -1.1190     1.4960 C.ar  1 <1>  -0.1500 
  8 C       -0.4860    -3.1110     1.3940 C.ar  1 <1>  -0.1500 
  9 C        3.4960     0.2790    -0.8230 C.2   1 <1>  -0.1400 
 10 C       -2.9460    -1.8170     1.2040 C.ar  1 <1>   0.0860 
 11 C       -1.6270    -3.8380     1.1150 C.ar  1 <1>  -0.1500 
 12 S        3.5070    -0.8070    -2.2070 S.3   1 <1>  -0.0800 
 13 C        3.9090     1.5080    -1.1880 C.2   1 <1>  -0.1500 
 14 C       -2.8610    -3.2020     1.0220 C.ar  1 <1>   0.0830 
 15 C       -4.1930    -1.0890     1.1090 C.2   1 <1>   0.5440 
 16 C        4.0830     0.4720    -3.2610 C.2   1 <1>  -0.1100 
 17 C        4.2420     1.6180    -2.5750 C.2   1 <1>  -0.1500 
 18 O       -4.0030    -3.8820     0.7600 O.3   1 <1>  -0.3620 
 19 O       -4.6360    -0.5590     2.1120 O.2   1 <1>  -0.5700 
 20 N       -4.8540    -0.9220    -0.0930 N.am  1 <1>  -0.6600 
 21 C       -4.0660    -5.2910     0.7300 C.3   1 <1>   0.0400 
 22 C       -6.1350    -0.1670    -0.1860 C.3   1 <1>   0.1400 
 23 C       -4.3190    -1.4600    -1.3800 C.3   1 <1>   0.1400 
 24 C       -5.9710     1.0320    -1.1320 C.3   1 <1>  -0.1600 
 25 C       -4.9460    -0.7720    -2.6030 C.3   1 <1>  -0.1600 
 26 C       -5.1040     0.7360    -2.3720 C.3   1 <1>  -0.1600 
 27 H        1.2030     0.2320     0.0490 H     1 <1>   0.4200 
 28 H        3.6170    -1.1730     0.7450 H     1 <1>   0.0800 
 29 H        3.2220     0.4490     1.2780 H     1 <1>   0.0800 
 30 H       -1.8490    -0.0550     1.6520 H     1 <1>   0.1500 
 31 H        0.4650    -3.6150     1.4600 H     1 <1>   0.1500 
 32 H       -1.5340    -4.8990     0.9730 H     1 <1>   0.1500 
 33 H        3.9980     2.3610    -0.5360 H     1 <1>   0.1500 
 34 H        4.2440     0.2250    -4.2960 H     1 <1>   0.1500 
 35 H        4.5850     2.5500    -2.9890 H     1 <1>   0.1500 
 36 H       -5.0920    -5.5740     0.5760 H     1 <1>   0.0800 
 37 H       -3.7190    -5.6770     1.6720 H     1 <1>   0.0800 
 38 H       -3.4620    -5.6520    -0.0830 H     1 <1>   0.0800 
 39 H       -6.4580     0.1750     0.7820 H     1 <1>   0.0800 
 40 H       -6.8920    -0.8310    -0.5660 H     1 <1>   0.0800 
 41 H       -4.5050    -2.5200    -1.4270 H     1 <1>   0.0800 
 42 H       -3.2550    -1.3040    -1.4030 H     1 <1>   0.0800 
 43 H       -5.5350     1.8470    -0.5830 H     1 <1>   0.0800 
 44 H       -6.9510     1.3470    -1.4430 H     1 <1>   0.0800 
 45 H       -5.9070    -1.2120    -2.8030 H     1 <1>   0.0800 
 46 H       -4.3260    -0.9500    -3.4640 H     1 <1>   0.0800 
 47 H       -4.1270     1.1620    -2.2210 H     1 <1>   0.0800 
 48 H       -5.5350     1.2030    -3.2410 H     1 <1>   0.0800 
@<TRIPOS>BOND
  1   1   2  2   
  2   1   3  2   
  3   1   4  am  
  4   1   5  1   
  5   4   6  1   
  6   4  27  1   
  7   5   7  ar  
  8   5   8  ar  
  9   6   9  1   
 10   6  28  1   
 11   6  29  1   
 12   7  10  ar  
 13   7  30  1   
 14   8  11  ar  
 15   8  31  1   
 16   9  12  1   
 17   9  13  2   
 18  10  14  ar  
 19  10  15  1   
 20  11  14  ar  
 21  11  32  1   
 22  12  16  1   
 23  13  17  1   
 24  13  33  1   
 25  14  18  1   
 26  15  19  2   
 27  15  20  am  
 28  16  17  2   
 29  16  34  1   
 30  17  35  1   
 31  18  21  1   
 32  20  22  1   
 33  20  23  1   
 34  21  36  1   
 35  21  37  1   
 36  21  38  1   
 37  22  24  1   
 38  22  39  1   
 39  22  40  1   
 40  23  25  1   
 41  23  41  1   
 42  23  42  1   
 43  24  26  1   
 44  24  43  1   
 45  24  44  1   
 46  25  26  1   
 47  25  45  1   
 48  25  46  1   
 49  26  47  1   
 50  26  48  1   
@<TRIPOS>SUBSTRUCTURE
  1 ****   7 GROUP 4 **** **** 0

# MOE 2024.06 (io_trps.svl 2023.06)
