@<TRIPOS>MOLECULE
NONAME
48 49 1 0 0 
SMALL
USER_CHARGES


@<TRIPOS>ATOM
  1 S        0.1400    -0.3730    -0.1740 S.o2  1 <1>   1.4470 
  2 O       -0.4510    -1.0460     0.9600 O.2   1 <1>  -0.6500 
  3 O       -0.0690    -0.8760    -1.5120 O.2   1 <1>  -0.6500 
  4 N       -0.4850     1.1810    -0.2480 N.am  1 <1>  -0.9140 
  5 C        1.9010    -0.0820     0.1330 C.ar  1 <1>  -0.0090 
  6 C       -1.8800     1.2690     0.0920 C.3   1 <1>   0.2760 
  7 C        2.8750    -0.5210    -0.7570 C.ar  1 <1>  -0.1500 
  8 C        2.3170     0.5910     1.2740 C.ar  1 <1>  -0.1500 
  9 C       -2.5020     2.3170    -0.8240 C.3   1 <1>  -0.2400 
 10 C       -1.9990     1.6990     1.5510 C.3   1 <1>  -0.2400 
 11 C        4.2230    -0.2950    -0.5280 C.ar  1 <1>  -0.1430 
 12 C        3.6570     0.8250     1.5210 C.ar  1 <1>  -0.1500 
 13 C        4.6190     0.3880     0.6160 C.ar  1 <1>   0.0830 
 14 C        5.2540    -0.7980    -1.5280 C.3   1 <1>  -0.0970 
 15 O        5.9460     0.6010     0.7940 O.3   1 <1>  -0.3630 
 16 C        6.4330     1.4560     1.8160 C.3   1 <1>   0.1810 
 17 C        7.9330     1.6950     1.6710 C.2   1 <1>   0.5690 
 18 O        8.6230     1.4410     2.6320 O.2   1 <1>  -0.5700 
 19 N        8.4760     2.2040     0.5140 N.am  1 <1>  -0.6600 
 20 C        7.7070     2.5790    -0.7120 C.3   1 <1>   0.1400 
 21 C        9.9530     2.3600     0.3500 C.3   1 <1>   0.1400 
 22 C        8.1870     3.9310    -1.2680 C.3   1 <1>   0.1200 
 23 C       10.2950     3.7270    -0.2620 C.3   1 <1>   0.1200 
 24 O        9.5740     3.9350    -1.4440 O.3   1 <1>  -0.5600 
 25 H       -0.4320     1.3840    -1.2430 H     1 <1>   0.4200 
 26 H       -2.3790     0.3240    -0.0640 H     1 <1>   0.0800 
 27 H        2.5660    -1.0490    -1.6440 H     1 <1>   0.1500 
 28 H        1.5760     0.9330     1.9780 H     1 <1>   0.1500 
 29 H       -2.0130     3.2680    -0.7010 H     1 <1>   0.0800 
 30 H       -3.5430     2.4370    -0.5820 H     1 <1>   0.0800 
 31 H       -2.4330     2.0060    -1.8510 H     1 <1>   0.0800 
 32 H       -1.4960     2.6360     1.7110 H     1 <1>   0.0800 
 33 H       -1.5740     0.9550     2.1990 H     1 <1>   0.0800 
 34 H       -3.0340     1.8160     1.8150 H     1 <1>   0.0800 
 35 H        3.9260     1.3430     2.4220 H     1 <1>   0.1500 
 36 H        4.7900    -1.3560    -2.3210 H     1 <1>   0.0800 
 37 H        5.9620    -1.4380    -1.0310 H     1 <1>   0.0800 
 38 H        5.7840     0.0330    -1.9560 H     1 <1>   0.0800 
 39 H        6.2350     0.9900     2.7640 H     1 <1>   0.0800 
 40 H        5.9180     2.3960     1.7540 H     1 <1>   0.0800 
 41 H        6.6560     2.6460    -0.5040 H     1 <1>   0.0800 
 42 H        7.8490     1.8190    -1.4610 H     1 <1>   0.0800 
 43 H       10.3200     1.5820    -0.2960 H     1 <1>   0.0800 
 44 H       10.4520     2.2640     1.2990 H     1 <1>   0.0800 
 45 H        7.9230     4.7310    -0.5980 H     1 <1>   0.0800 
 46 H        7.7350     4.1190    -2.2260 H     1 <1>   0.0800 
 47 H       11.3420     3.7740    -0.5030 H     1 <1>   0.0800 
 48 H       10.0630     4.5190     0.4290 H     1 <1>   0.0800 
@<TRIPOS>BOND
  1   1   2  2   
  2   1   3  2   
  3   1   4  am  
  4   1   5  1   
  5   4   6  1   
  6   4  25  1   
  7   5   7  ar  
  8   5   8  ar  
  9   6   9  1   
 10   6  10  1   
 11   6  26  1   
 12   7  11  ar  
 13   7  27  1   
 14   8  12  ar  
 15   8  28  1   
 16   9  29  1   
 17   9  30  1   
 18   9  31  1   
 19  10  32  1   
 20  10  33  1   
 21  10  34  1   
 22  11  13  ar  
 23  11  14  1   
 24  12  13  ar  
 25  12  35  1   
 26  13  15  1   
 27  14  36  1   
 28  14  37  1   
 29  14  38  1   
 30  15  16  1   
 31  16  17  1   
 32  16  39  1   
 33  16  40  1   
 34  17  18  2   
 35  17  19  am  
 36  19  20  1   
 37  19  21  1   
 38  20  22  1   
 39  20  41  1   
 40  20  42  1   
 41  21  23  1   
 42  21  43  1   
 43  21  44  1   
 44  22  24  1   
 45  22  45  1   
 46  22  46  1   
 47  23  24  1   
 48  23  47  1   
 49  23  48  1   
@<TRIPOS>SUBSTRUCTURE
  1 ****  13 GROUP 4 **** **** 0

# MOE 2024.06 (io_trps.svl 2023.06)
