@<TRIPOS>MOLECULE
NONAME
42 44 1 0 0 
SMALL
USER_CHARGES


@<TRIPOS>ATOM
  1 O       -0.3820    -1.5440    -2.3700 O.2   1 <1>  -0.5700 
  2 C       -0.5420    -2.0330    -1.2770 C.2   1 <1>   0.5690 
  3 N       -1.8150    -2.2520    -0.8560 N.am  1 <1>  -0.7300 
  4 C        0.6930    -2.3620    -0.4010 C.3   1 <1>   0.1990 
  5 C       -2.3290    -2.8950     0.3750 C.3   1 <1>   0.2840 
  6 C        1.0670    -3.8470    -0.2610 C.2   1 <1>  -0.2760 
  7 C        2.0200    -1.8170    -0.9190 C.3   1 <1>  -0.1600 
  8 C        0.6670    -1.7390     1.0160 C.3   1 <1>  -0.1600 
  9 C       -3.5370    -3.7650     0.0480 C.ar  1 <1>   0.1660 
 10 C        0.3210    -4.9190    -0.5570 C.2   1 <1>  -0.3000 
 11 C        2.5160    -3.8670     0.2250 C.3   1 <1>   0.1380 
 12 C        2.8560    -2.3500     0.2430 C.3   1 <1>  -0.0800 
 13 C        2.1520    -1.6290     1.4060 C.3   1 <1>  -0.1600 
 14 N       -4.6070    -3.1430    -0.4330 N.ar  1 <1>  -0.6200 
 15 C       -3.4710    -5.1350     0.2600 C.ar  1 <1>  -0.1500 
 16 C        3.4080    -4.6100    -0.7850 C.3   1 <1>  -0.2400 
 17 C        2.6320    -4.5760     1.5840 C.3   1 <1>  -0.2400 
 18 C       -5.6440    -3.9170    -0.7140 C.ar  1 <1>   0.1600 
 19 C       -4.5590    -5.9270    -0.0360 C.ar  1 <1>  -0.1500 
 20 C       -5.6730    -5.2890    -0.5370 C.ar  1 <1>  -0.1500 
 21 H       -2.5600    -2.0150    -1.5180 H     1 <1>   0.3700 
 22 H       -2.6300    -2.1310     1.0690 H     1 <1>   0.0800 
 23 H       -1.5640    -3.4930     0.8340 H     1 <1>   0.0800 
 24 H        2.0220    -0.7420    -0.9880 H     1 <1>   0.0800 
 25 H        2.2810    -2.2340    -1.8750 H     1 <1>   0.0800 
 26 H        0.1370    -2.3640     1.7110 H     1 <1>   0.0800 
 27 H        0.2140    -0.7630     0.9930 H     1 <1>   0.0800 
 28 H        0.6620    -5.9330    -0.4500 H     1 <1>   0.1500 
 29 H       -0.6820    -4.8780    -0.9440 H     1 <1>   0.1500 
 30 H        3.9080    -2.1320     0.1790 H     1 <1>   0.0800 
 31 H        2.3660    -2.0510     2.3700 H     1 <1>   0.0800 
 32 H        2.4490    -0.5940     1.4210 H     1 <1>   0.0800 
 33 H       -2.5760    -5.5840     0.6520 H     1 <1>   0.1500 
 34 H        3.3060    -4.2020    -1.7730 H     1 <1>   0.0800 
 35 H        3.1380    -5.6490    -0.8310 H     1 <1>   0.0800 
 36 H        4.4400    -4.5390    -0.4910 H     1 <1>   0.0800 
 37 H        3.6060    -4.4100     2.0090 H     1 <1>   0.0800 
 38 H        1.8840    -4.2280     2.2700 H     1 <1>   0.0800 
 39 H        2.4870    -5.6350     1.4640 H     1 <1>   0.0800 
 40 H       -6.5200    -3.4290    -1.1070 H     1 <1>   0.1500 
 41 H       -4.5400    -6.9930     0.1160 H     1 <1>   0.1500 
 42 H       -6.5560    -5.8470    -0.7900 H     1 <1>   0.1500 
@<TRIPOS>BOND
  1   1   2  2   
  2   2   3  am  
  3   2   4  1   
  4   3   5  1   
  5   3  21  1   
  6   4   6  1   
  7   4   7  1   
  8   4   8  1   
  9   5   9  1   
 10   5  22  1   
 11   5  23  1   
 12   6  10  2   
 13   6  11  1   
 14   7  12  1   
 15   7  24  1   
 16   7  25  1   
 17   8  13  1   
 18   8  26  1   
 19   8  27  1   
 20   9  14  ar  
 21   9  15  ar  
 22  10  28  1   
 23  10  29  1   
 24  11  12  1   
 25  11  16  1   
 26  11  17  1   
 27  12  13  1   
 28  12  30  1   
 29  13  31  1   
 30  13  32  1   
 31  14  18  ar  
 32  15  19  ar  
 33  15  33  1   
 34  16  34  1   
 35  16  35  1   
 36  16  36  1   
 37  17  37  1   
 38  17  38  1   
 39  17  39  1   
 40  18  20  ar  
 41  18  40  1   
 42  19  20  ar  
 43  19  41  1   
 44  20  42  1   
@<TRIPOS>SUBSTRUCTURE
  1 ****   3 GROUP 4 **** **** 0

# MOE 2024.06 (io_trps.svl 2023.06)
