@<TRIPOS>MOLECULE
NONAME
37 38 1 0 0 
SMALL
USER_CHARGES


@<TRIPOS>ATOM
  1 O       -5.3770    -1.4660     2.0610 O.2   1 <1>  -0.5700 
  2 C       -5.6990    -1.8960     0.9700 C.2   1 <1>   0.5690 
  3 N       -5.6710    -1.1650    -0.1760 N.am  1 <1>  -0.4100 
  4 C       -6.1470    -3.3540     0.8580 C.3   1 <1>   0.1710 
  5 N       -5.4380     0.2720    -0.3100 N.pl3 1 <1>  -0.4890 
  6 N       -7.1020    -3.6140    -0.2620 N.3   1 <1>  -0.8100 
  7 C       -6.5130     1.1570    -0.3290 C.ar  1 <1>   0.1000 
  8 C       -4.0370     0.7100    -0.1150 C.3   1 <1>   0.1290 
  9 C       -7.2890    -5.0650    -0.5090 C.3   1 <1>   0.1100 
 10 C       -8.3960    -2.9200    -0.0180 C.3   1 <1>   0.1100 
 11 C       -7.5910     0.9350    -1.1830 C.ar  1 <1>  -0.1500 
 12 C       -6.5520     2.2760     0.5000 C.ar  1 <1>  -0.1500 
 13 C       -8.5620    -5.6260     0.1560 C.3   1 <1>   0.1200 
 14 C       -9.5780    -3.6290    -0.7040 C.3   1 <1>   0.1200 
 15 C       -8.6670     1.8020    -1.2150 C.ar  1 <1>  -0.1500 
 16 C       -7.6250     3.1470     0.4710 C.ar  1 <1>  -0.1500 
 17 O       -9.7240    -4.9550    -0.2620 O.3   1 <1>  -0.5600 
 18 C       -8.6860     2.9120    -0.3880 C.ar  1 <1>  -0.1500 
 19 H       -5.9680    -1.6620    -1.0240 H     1 <1>   0.3700 
 20 H       -6.5900    -3.6510     1.7920 H     1 <1>   0.0800 
 21 H       -5.2590    -3.9440     0.7120 H     1 <1>   0.0800 
 22 H       -3.3850     0.1180    -0.7320 H     1 <1>   0.0800 
 23 H       -3.7650     0.5790     0.9180 H     1 <1>   0.0800 
 24 H       -3.9340     1.7450    -0.3850 H     1 <1>   0.0800 
 25 H       -6.4300    -5.6200    -0.1730 H     1 <1>   0.0800 
 26 H       -7.3720    -5.2250    -1.5710 H     1 <1>   0.0800 
 27 H       -8.3320    -1.9070    -0.3770 H     1 <1>   0.0800 
 28 H       -8.6070    -2.8760     1.0380 H     1 <1>   0.0800 
 29 H       -7.5730     0.0780    -1.8290 H     1 <1>   0.1500 
 30 H       -5.7400     2.4540     1.1800 H     1 <1>   0.1500 
 31 H       -8.4910    -5.5290     1.2250 H     1 <1>   0.0800 
 32 H       -8.6840    -6.6660    -0.0850 H     1 <1>   0.0800 
 33 H       -9.4260    -3.6460    -1.7690 H     1 <1>   0.0800 
 34 H      -10.4980    -3.1120    -0.4960 H     1 <1>   0.0800 
 35 H       -9.4890     1.6170    -1.8840 H     1 <1>   0.1500 
 36 H       -7.6390     4.0060     1.1190 H     1 <1>   0.1500 
 37 H       -9.5220     3.5890    -0.4110 H     1 <1>   0.1500 
@<TRIPOS>BOND
  1   1   2  2   
  2   2   3  am  
  3   2   4  1   
  4   3   5  1   
  5   3  19  1   
  6   4   6  1   
  7   4  20  1   
  8   4  21  1   
  9   5   7  1   
 10   5   8  1   
 11   6   9  1   
 12   6  10  1   
 13   7  11  ar  
 14   7  12  ar  
 15   8  22  1   
 16   8  23  1   
 17   8  24  1   
 18   9  13  1   
 19   9  25  1   
 20   9  26  1   
 21  10  14  1   
 22  10  27  1   
 23  10  28  1   
 24  11  15  ar  
 25  11  29  1   
 26  12  16  ar  
 27  12  30  1   
 28  13  17  1   
 29  13  31  1   
 30  13  32  1   
 31  14  17  1   
 32  14  33  1   
 33  14  34  1   
 34  15  18  ar  
 35  15  35  1   
 36  16  18  ar  
 37  16  36  1   
 38  18  37  1   
@<TRIPOS>SUBSTRUCTURE
  1 ****   3 GROUP 4 **** **** 0

# MOE 2024.06 (io_trps.svl 2023.06)
