@<TRIPOS>MOLECULE
NONAME
34 34 1 0 0 
SMALL
USER_CHARGES


@<TRIPOS>ATOM
  1 S        0.4530    -0.1030     0.8110 S.o2  1 <1>   1.3330 
  2 O        1.8630    -0.2620     1.0860 O.2   1 <1>  -0.6500 
  3 O       -0.1250    -0.7190    -0.3560 O.2   1 <1>  -0.6500 
  4 N        0.1640     1.5990     0.7180 N.am  1 <1>  -0.6930 
  5 C       -0.4660    -0.5640     2.2640 C.3   1 <1>  -0.1350 
  6 C       -1.1030     2.0860     0.4240 C.ar  1 <1>   0.1990 
  7 C        1.3270     2.4550     0.3240 C.3   1 <1>   0.2570 
  8 C       -1.6430     1.9670    -0.8500 C.ar  1 <1>  -0.1500 
  9 C       -1.8510     2.7120     1.4130 C.ar  1 <1>  -0.1500 
 10 C        1.8680     2.1860    -1.0870 C.2   1 <1>   0.5690 
 11 C       -2.9060     2.4520    -1.1340 C.ar  1 <1>  -0.1500 
 12 C       -3.1150     3.1980     1.1360 C.ar  1 <1>  -0.1500 
 13 O        1.6330     2.9640    -1.9760 O.2   1 <1>  -0.5700 
 14 N        2.6210     1.0940    -1.3340 N.am  1 <1>  -0.8000 
 15 C       -3.6520     3.0720    -0.1350 C.ar  1 <1>   0.0820 
 16 O       -4.9010     3.5750    -0.3200 O.3   1 <1>  -0.3620 
 17 C       -5.5210     3.5150    -1.5840 C.3   1 <1>   0.1200 
 18 C       -6.8960     4.1650    -1.4660 C.3   1 <1>  -0.2400 
 19 H       -0.3490    -1.6120     2.4550 H     1 <1>   0.0800 
 20 H       -1.5080    -0.3550     2.1230 H     1 <1>   0.0800 
 21 H       -0.1130    -0.0160     3.1150 H     1 <1>   0.0800 
 22 H        2.1250     2.3120     1.0300 H     1 <1>   0.0800 
 23 H        1.0320     3.4880     0.3740 H     1 <1>   0.0800 
 24 H       -1.0650     1.4880    -1.6230 H     1 <1>   0.1500 
 25 H       -1.4380     2.8170     2.3990 H     1 <1>   0.1500 
 26 H       -3.2860     2.3380    -2.1310 H     1 <1>   0.1500 
 27 H       -3.6960     3.6820     1.9010 H     1 <1>   0.1500 
 28 H        2.9230     0.8860    -2.2850 H     1 <1>   0.3700 
 29 H        2.7540     0.3510    -0.6350 H     1 <1>   0.3700 
 30 H       -5.6120     2.4820    -1.8700 H     1 <1>   0.0800 
 31 H       -4.9080     4.0480    -2.2900 H     1 <1>   0.0800 
 32 H       -7.4940     3.6350    -0.7460 H     1 <1>   0.0800 
 33 H       -7.3950     4.1350    -2.4170 H     1 <1>   0.0800 
 34 H       -6.7940     5.1910    -1.1620 H     1 <1>   0.0800 
@<TRIPOS>BOND
  1   1   2  2   
  2   1   3  2   
  3   1   4  am  
  4   1   5  1   
  5   4   6  1   
  6   4   7  1   
  7   5  19  1   
  8   5  20  1   
  9   5  21  1   
 10   6   8  ar  
 11   6   9  ar  
 12   7  10  1   
 13   7  22  1   
 14   7  23  1   
 15   8  11  ar  
 16   8  24  1   
 17   9  12  ar  
 18   9  25  1   
 19  10  13  2   
 20  10  14  am  
 21  11  15  ar  
 22  11  26  1   
 23  12  15  ar  
 24  12  27  1   
 25  14  28  1   
 26  14  29  1   
 27  15  16  1   
 28  16  17  1   
 29  17  18  1   
 30  17  30  1   
 31  17  31  1   
 32  18  32  1   
 33  18  33  1   
 34  18  34  1   
@<TRIPOS>SUBSTRUCTURE
  1 ****   6 GROUP 4 **** **** 0

# MOE 2024.06 (io_trps.svl 2023.06)
