@<TRIPOS>MOLECULE
NONAME
50 52 1 0 0 
SMALL
USER_CHARGES


@<TRIPOS>ATOM
  1 S       -0.4350     0.3930    -0.2570 S.o2  1 <1>   1.2570 
  2 O       -0.3070     0.3470    -1.7000 O.2   1 <1>  -0.6500 
  3 O       -1.1200     1.5240     0.3330 O.2   1 <1>  -0.6500 
  4 C       -1.3080    -1.1190     0.2600 C.2   1 <1>   0.1240 
  5 C        1.1730     0.1720     0.5100 C.3   1 <1>   0.0890 
  6 N       -0.9220    -1.9260     1.2000 N.2   1 <1>  -0.5650 
  7 N       -2.4790    -1.5120    -0.3320 N.pl3 1 <1>   0.0480 
  8 C        2.1460     1.3110     0.2350 C.ar  1 <1>  -0.1440 
  9 C       -1.8520    -2.9130     1.2260 C.ar  1 <1>   0.2270 
 10 C       -2.8230    -2.6860     0.2710 C.ar  1 <1>  -0.1520 
 11 C       -3.2170    -0.8230    -1.4280 C.3   1 <1>   0.1570 
 12 C        2.4020     2.2650     1.2080 C.ar  1 <1>  -0.1500 
 13 C        2.7750     1.4060    -0.9970 C.ar  1 <1>  -0.1500 
 14 C       -1.9110    -4.0390     2.0450 C.ar  1 <1>  -0.1500 
 15 C       -3.8710    -3.5990     0.0980 C.ar  1 <1>  -0.1500 
 16 C       -4.7100    -0.7240    -1.1580 C.2   1 <1>   0.5690 
 17 C        3.2850     3.3000     0.9540 C.ar  1 <1>  -0.1500 
 18 C        3.6570     2.4420    -1.2510 C.ar  1 <1>  -0.1500 
 19 C       -2.9460    -4.9320     1.8840 C.ar  1 <1>  -0.1500 
 20 C       -3.9240    -4.7110     0.9080 C.ar  1 <1>  -0.1500 
 21 O       -5.4250    -1.4010    -1.8610 O.2   1 <1>  -0.5700 
 22 N       -5.2310     0.0970    -0.1830 N.am  1 <1>  -0.6600 
 23 C        3.9140     3.3880    -0.2750 C.ar  1 <1>  -0.1500 
 24 C       -4.4340     1.0470     0.6430 C.3   1 <1>   0.1400 
 25 C       -6.6700    -0.0200     0.1890 C.3   1 <1>   0.1400 
 26 C       -4.1970     2.3490    -0.1220 C.3   1 <1>  -0.2400 
 27 C       -7.4960     1.0380    -0.5360 C.3   1 <1>  -0.2400 
 28 H        1.6100    -0.7420     0.1560 H     1 <1>   0.0800 
 29 H        1.0460     0.0710     1.5700 H     1 <1>   0.0800 
 30 H       -3.0660    -1.3800    -2.3330 H     1 <1>   0.0800 
 31 H       -2.8320     0.1630    -1.5810 H     1 <1>   0.0800 
 32 H        1.9170     2.2130     2.1680 H     1 <1>   0.1500 
 33 H        2.5800     0.6810    -1.7680 H     1 <1>   0.1500 
 34 H       -1.1450    -4.1850     2.7830 H     1 <1>   0.1500 
 35 H       -4.6240    -3.4420    -0.6540 H     1 <1>   0.1500 
 36 H        3.4820     4.0380     1.7120 H     1 <1>   0.1500 
 37 H        4.1430     2.5120    -2.2090 H     1 <1>   0.1500 
 38 H       -3.0120    -5.8080     2.5060 H     1 <1>   0.1500 
 39 H       -4.7230    -5.4240     0.7940 H     1 <1>   0.1500 
 40 H        4.5990     4.1940    -0.4730 H     1 <1>   0.1500 
 41 H       -3.4930     0.6050     0.9150 H     1 <1>   0.0800 
 42 H       -4.9560     1.2640     1.5590 H     1 <1>   0.0800 
 43 H       -6.7870     0.0820     1.2540 H     1 <1>   0.0800 
 44 H       -7.0360    -0.9980    -0.0810 H     1 <1>   0.0800 
 45 H       -3.6760     2.1700    -1.0440 H     1 <1>   0.0800 
 46 H       -3.5920     3.0060     0.4760 H     1 <1>   0.0800 
 47 H       -5.1250     2.8450    -0.3320 H     1 <1>   0.0800 
 48 H       -7.2450     2.0220    -0.1900 H     1 <1>   0.0800 
 49 H       -8.5400     0.8710    -0.3440 H     1 <1>   0.0800 
 50 H       -7.3300     0.9720    -1.5970 H     1 <1>   0.0800 
@<TRIPOS>BOND
  1   1   2  2   
  2   1   3  2   
  3   1   4  1   
  4   1   5  1   
  5   4   6  2   
  6   4   7  1   
  7   5   8  1   
  8   5  28  1   
  9   5  29  1   
 10   6   9  1   
 11   7  10  1   
 12   7  11  1   
 13   8  12  ar  
 14   8  13  ar  
 15   9  10  ar  
 16   9  14  ar  
 17  10  15  ar  
 18  11  16  1   
 19  11  30  1   
 20  11  31  1   
 21  12  17  ar  
 22  12  32  1   
 23  13  18  ar  
 24  13  33  1   
 25  14  19  ar  
 26  14  34  1   
 27  15  20  ar  
 28  15  35  1   
 29  16  21  2   
 30  16  22  am  
 31  17  23  ar  
 32  17  36  1   
 33  18  23  ar  
 34  18  37  1   
 35  19  20  ar  
 36  19  38  1   
 37  20  39  1   
 38  22  24  1   
 39  22  25  1   
 40  23  40  1   
 41  24  26  1   
 42  24  41  1   
 43  24  42  1   
 44  25  27  1   
 45  25  43  1   
 46  25  44  1   
 47  26  45  1   
 48  26  46  1   
 49  26  47  1   
 50  27  48  1   
 51  27  49  1   
 52  27  50  1   
@<TRIPOS>SUBSTRUCTURE
  1 ****   4 GROUP 4 **** **** 0

# MOE 2024.06 (io_trps.svl 2023.06)
