@<TRIPOS>MOLECULE
NONAME
44 45 1 0 0 
SMALL
USER_CHARGES


@<TRIPOS>ATOM
  1 O       -5.2570     6.3220     1.1450 O.3   1 <1>  -0.2800 
  2 C       -6.0620     6.8050     0.2160 C.2   1 <1>  -0.0400 
  3 C       -4.1450     7.0310     1.1130 C.2   1 <1>  -0.0100 
  4 C       -5.4740     7.8320    -0.4360 C.2   1 <1>  -0.1500 
  5 C       -7.4150     6.1530     0.0450 C.3   1 <1>   0.5230 
  6 C       -4.2130     7.9800     0.1570 C.2   1 <1>  -0.1500 
  7 N       -7.1690     4.6980    -0.0620 N.4   1 <1>  -0.9060 
  8 C       -8.4130     3.8770    -0.0160 C.3   1 <1>   0.3430 
  9 C       -8.1050     2.3800    -0.0760 C.3   1 <1>   0.1200 
 10 O       -9.3380     1.7100    -0.0390 O.3   1 <1>  -0.3630 
 11 C       -9.4250     0.3520    -0.0690 C.ar  1 <1>   0.0830 
 12 C      -10.6930    -0.2280    -0.0180 C.ar  1 <1>  -0.1430 
 13 C       -8.2920    -0.4590    -0.1470 C.ar  1 <1>  -0.1500 
 14 C      -10.7930    -1.6120    -0.0460 C.ar  1 <1>  -0.1500 
 15 C      -11.9750     0.6120     0.0670 C.3   1 <1>   0.0630 
 16 C       -8.4100    -1.8370    -0.1760 C.ar  1 <1>  -0.1430 
 17 C       -9.6670    -2.4100    -0.1230 C.ar  1 <1>  -0.1500 
 18 C      -12.7350     0.3200     1.3660 C.3   1 <1>  -0.2400 
 19 C      -12.8730     0.3710    -1.1510 C.3   1 <1>  -0.2400 
 20 C       -7.1770    -2.7210    -0.2590 C.3   1 <1>  -0.0970 
 21 H       -3.3520     6.7980     1.8060 H     1 <1>   0.1500 
 22 H       -5.8440     8.4450    -1.2420 H     1 <1>   0.1500 
 23 H       -7.9080     6.5300    -0.8360 H     1 <1>   0.0800 
 24 H       -8.0220     6.3660     0.9110 H     1 <1>   0.0800 
 25 H       -3.4730     8.7140    -0.1160 H     1 <1>   0.1500 
 26 H       -6.5360     4.4750     0.7210 H     1 <1>   0.4500 
 27 H       -6.6270     4.5300    -0.9170 H     1 <1>   0.4500 
 28 H       -9.0480     4.1300    -0.8490 H     1 <1>   0.0800 
 29 H       -8.9480     4.0780     0.8990 H     1 <1>   0.0800 
 30 H       -7.5300     2.0670     0.7770 H     1 <1>   0.0800 
 31 H       -7.6130     2.1200    -0.9970 H     1 <1>   0.0800 
 32 H       -7.3060    -0.0430    -0.1850 H     1 <1>   0.1500 
 33 H      -11.7570    -2.0870    -0.0070 H     1 <1>   0.1500 
 34 H      -11.7300     1.6580     0.0750 H     1 <1>   0.0800 
 35 H       -9.7760    -3.4800    -0.1410 H     1 <1>   0.1500 
 36 H      -13.0780    -0.6980     1.3920 H     1 <1>   0.0800 
 37 H      -13.5880     0.9700     1.4530 H     1 <1>   0.0800 
 38 H      -12.0910     0.4860     2.2110 H     1 <1>   0.0800 
 39 H      -13.2210    -0.6460    -1.1790 H     1 <1>   0.0800 
 40 H      -12.3230     0.5680    -2.0540 H     1 <1>   0.0800 
 41 H      -13.7270     1.0230    -1.1200 H     1 <1>   0.0800 
 42 H       -6.3660    -2.2000    -0.7340 H     1 <1>   0.0800 
 43 H       -7.3910    -3.6060    -0.8310 H     1 <1>   0.0800 
 44 H       -6.8720    -3.0130     0.7300 H     1 <1>   0.0800 
@<TRIPOS>BOND
  1   1   2  1   
  2   1   3  1   
  3   2   4  2   
  4   2   5  1   
  5   3   6  2   
  6   3  21  1   
  7   4   6  1   
  8   4  22  1   
  9   5   7  1   
 10   5  23  1   
 11   5  24  1   
 12   6  25  1   
 13   7   8  1   
 14   7  26  1   
 15   7  27  1   
 16   8   9  1   
 17   8  28  1   
 18   8  29  1   
 19   9  10  1   
 20   9  30  1   
 21   9  31  1   
 22  10  11  1   
 23  11  12  ar  
 24  11  13  ar  
 25  12  14  ar  
 26  12  15  1   
 27  13  16  ar  
 28  13  32  1   
 29  14  17  ar  
 30  14  33  1   
 31  15  18  1   
 32  15  19  1   
 33  15  34  1   
 34  16  17  ar  
 35  16  20  1   
 36  17  35  1   
 37  18  36  1   
 38  18  37  1   
 39  18  38  1   
 40  19  39  1   
 41  19  40  1   
 42  19  41  1   
 43  20  42  1   
 44  20  43  1   
 45  20  44  1   
@<TRIPOS>SUBSTRUCTURE
  1 ****   9 GROUP 4 **** **** 0

# MOE 2024.06 (io_trps.svl 2023.06)
