@<TRIPOS>MOLECULE
NONAME
28 28 1 0 0 
SMALL
USER_CHARGES


@<TRIPOS>ATOM
  1 S       -6.2880     2.0980     0.6730 S.3   1 <1>  -0.3610 
  2 C       -4.7040     1.6170     1.2390 C.cat 1 <1>   0.8400 
  3 C       -6.6030     1.1530    -0.8880 C.3   1 <1>   0.2140 
  4 N       -4.2410     2.3180     2.2340 N.pl3 1 <1>  -0.7540 
  5 N       -4.0730     0.6320     0.6820 N.pl3 1 <1>  -0.7540 
  6 C       -7.0160    -0.2680    -0.5330 C.ar  1 <1>  -0.1430 
  7 C       -6.1120    -1.3260    -0.7210 C.ar  1 <1>  -0.1710 
  8 C       -8.2800    -0.5520    -0.0600 C.ar  1 <1>  -0.1500 
  9 O       -4.9510    -1.0810    -1.1280 O.3   1 <1>  -0.8290 
 10 C       -6.5280    -2.6400    -0.4570 C.ar  1 <1>   0.2180 
 11 C       -8.6490    -1.8620     0.2060 C.ar  1 <1>   0.2170 
 12 N       -7.7650    -2.8600    -0.0040 N.ar  1 <1>  -0.1790 
 13 C       -5.6020    -3.8260    -0.6760 C.3   1 <1>  -0.0970 
 14 C      -10.0340    -2.2070     0.7250 C.3   1 <1>  -0.0970 
 15 H       -5.7130     1.1860    -1.4920 H     1 <1>   0.0800 
 16 H       -7.3960     1.6600    -1.4070 H     1 <1>   0.0800 
 17 H       -3.3370     2.1620     2.6740 H     1 <1>   0.4500 
 18 H       -4.7890     3.0830     2.6280 H     1 <1>   0.4500 
 19 H       -3.1540     0.2660     0.9030 H     1 <1>   0.4500 
 20 H       -4.5130     0.0440    -0.0680 H     1 <1>   0.4500 
 21 H       -8.9830     0.2470     0.0940 H     1 <1>   0.1500 
 22 H       -8.0430    -3.8230     0.1790 H     1 <1>   0.4570 
 23 H       -4.7200    -3.5210    -1.2120 H     1 <1>   0.0800 
 24 H       -6.0910    -4.5860    -1.2580 H     1 <1>   0.0800 
 25 H       -5.2940    -4.2360     0.2680 H     1 <1>   0.0800 
 26 H      -10.6240    -1.3160     0.8470 H     1 <1>   0.0800 
 27 H       -9.9640    -2.6970     1.6800 H     1 <1>   0.0800 
 28 H      -10.5410    -2.8540     0.0320 H     1 <1>   0.0800 
@<TRIPOS>BOND
  1   1   2  1   
  2   1   3  1   
  3   2   4  ar  
  4   2   5  ar  
  5   3   6  1   
  6   3  15  1   
  7   3  16  1   
  8   4  17  1   
  9   4  18  1   
 10   5  19  1   
 11   5  20  1   
 12   6   7  ar  
 13   6   8  ar  
 14   7   9  1   
 15   7  10  ar  
 16   8  11  ar  
 17   8  21  1   
 18  10  12  ar  
 19  10  13  1   
 20  11  12  ar  
 21  11  14  1   
 22  12  22  1   
 23  13  23  1   
 24  13  24  1   
 25  13  25  1   
 26  14  26  1   
 27  14  27  1   
 28  14  28  1   
@<TRIPOS>SUBSTRUCTURE
  1 ****   6 GROUP 4 **** **** 0

# MOE 2024.06 (io_trps.svl 2023.06)
