@<TRIPOS>MOLECULE
NONAME
30 30 1 0 0 
SMALL
USER_CHARGES


@<TRIPOS>ATOM
  1 O        0.5790    -2.5180    -0.4220 O.2   1 <1>  -0.5700 
  2 C       -0.1530    -2.0180     0.3890 C.2   1 <1>   0.5690 
  3 N        0.2900    -1.0340     1.1910 N.am  1 <1>  -0.8000 
  4 C       -1.5850    -2.4910     0.5060 C.3   1 <1>  -0.0990 
  5 C       -2.4490    -1.9230    -0.6260 C.3   1 <1>  -0.0160 
  6 C       -3.8930    -2.3700    -0.4670 C.ar  1 <1>  -0.1430 
  7 C       -4.7910    -1.5970     0.2500 C.ar  1 <1>  -0.1500 
  8 C       -4.3280    -3.5560    -1.0330 C.ar  1 <1>  -0.1500 
  9 C       -6.1110    -1.9860     0.4080 C.ar  1 <1>   0.0820 
 10 C       -5.6410    -3.9660    -0.8790 C.ar  1 <1>  -0.1500 
 11 O       -6.8790    -1.1190     1.1280 O.3   1 <1>  -0.3630 
 12 C       -6.5490    -3.1980    -0.1530 C.ar  1 <1>   0.0820 
 13 C       -8.2500    -0.9500     0.8420 C.3   1 <1>   0.0400 
 14 O       -7.8390    -3.6100     0.0320 O.3   1 <1>  -0.3620 
 15 C       -8.2800    -4.8920    -0.3590 C.3   1 <1>   0.0400 
 16 H        1.2600    -0.7250     1.1060 H     1 <1>   0.3700 
 17 H       -0.2780    -0.5740     1.9000 H     1 <1>   0.3700 
 18 H       -1.9900    -2.1940     1.4560 H     1 <1>   0.0800 
 19 H       -1.5950    -3.5640     0.4600 H     1 <1>   0.0800 
 20 H       -2.0650    -2.2580    -1.5750 H     1 <1>   0.0800 
 21 H       -2.3990    -0.8480    -0.6170 H     1 <1>   0.0800 
 22 H       -4.4750    -0.6730     0.6970 H     1 <1>   0.1500 
 23 H       -3.6430    -4.1660    -1.5960 H     1 <1>   0.1500 
 24 H       -5.9310    -4.8920    -1.3350 H     1 <1>   0.1500 
 25 H       -8.8030    -1.7420     1.3140 H     1 <1>   0.0800 
 26 H       -8.5620    -0.0030     1.2410 H     1 <1>   0.0800 
 27 H       -8.3920    -0.9670    -0.2240 H     1 <1>   0.0800 
 28 H       -9.3000    -5.0050    -0.0410 H     1 <1>   0.0800 
 29 H       -8.2210    -4.9710    -1.4300 H     1 <1>   0.0800 
 30 H       -7.6650    -5.6340     0.1190 H     1 <1>   0.0800 
@<TRIPOS>BOND
  1   1   2  2   
  2   2   3  am  
  3   2   4  1   
  4   3  16  1   
  5   3  17  1   
  6   4   5  1   
  7   4  18  1   
  8   4  19  1   
  9   5   6  1   
 10   5  20  1   
 11   5  21  1   
 12   6   7  ar  
 13   6   8  ar  
 14   7   9  ar  
 15   7  22  1   
 16   8  10  ar  
 17   8  23  1   
 18   9  11  1   
 19   9  12  ar  
 20  10  12  ar  
 21  10  24  1   
 22  11  13  1   
 23  12  14  1   
 24  13  25  1   
 25  13  26  1   
 26  13  27  1   
 27  14  15  1   
 28  15  28  1   
 29  15  29  1   
 30  15  30  1   
@<TRIPOS>SUBSTRUCTURE
  1 ****   6 GROUP 4 **** **** 0

# MOE 2024.06 (io_trps.svl 2023.06)
