@<TRIPOS>MOLECULE
NONAME
47 51 1 0 0 
SMALL
USER_CHARGES


@<TRIPOS>ATOM
  1 O        0.2530     0.1140     0.5050 O.co2 1 <1>  -0.9000 
  2 C       -0.1390     1.0790    -0.1600 C.2   1 <1>   0.9060 
  3 O        0.1310     1.1970    -1.3570 O.co2 1 <1>  -0.9000 
  4 C       -1.0350     2.0820     0.5480 C.3   1 <1>  -0.1860 
  5 C       -2.7000     1.6520     0.6160 C.3   1 <1>  -0.0190 
  6 C       -0.9640     3.6250    -0.0560 C.3   1 <1>   0.0580 
  7 C       -3.1530     0.3100     0.0150 C.2   1 <1>   0.5690 
  8 C       -3.5330     2.9680     0.0320 C.3   1 <1>   0.0580 
  9 C       -1.9460     4.8570    -0.4210 C.2   1 <1>  -0.2880 
 10 C       -2.2180     3.1790     0.0130 C.3   1 <1>  -0.1600 
 11 O       -4.2620     0.2270    -0.4640 O.2   1 <1>  -0.5700 
 12 N       -2.3580    -0.7840     0.0990 N.am  1 <1>  -0.7300 
 13 C       -3.2910     4.5140    -0.3740 C.2   1 <1>  -0.2880 
 14 C       -2.6000    -2.0540    -0.6080 C.3   1 <1>   0.2200 
 15 C       -3.5090    -2.9920     0.2160 C.3   1 <1>  -0.0800 
 16 C       -1.2660    -2.7670    -0.9110 C.3   1 <1>  -0.0800 
 17 C       -3.8110    -4.2450    -0.6330 C.3   1 <1>  -0.1600 
 18 C       -2.8040    -3.4320     1.5190 C.3   1 <1>  -0.1600 
 19 C       -1.5680    -4.0200    -1.7600 C.3   1 <1>  -0.1600 
 20 C       -0.5710    -3.2160     0.3940 C.3   1 <1>  -0.1600 
 21 C       -2.4980    -4.9750    -0.9830 C.3   1 <1>  -0.0800 
 22 C       -1.4900    -4.1650     1.1860 C.3   1 <1>  -0.0800 
 23 C       -1.8010    -5.4030     0.3230 C.3   1 <1>  -0.1600 
 24 H       -0.6570     2.1040     1.5580 H     1 <1>   0.0800 
 25 H       -2.9520     1.5480     1.6610 H     1 <1>   0.0800 
 26 H       -0.3880     3.5280    -0.9660 H     1 <1>   0.0800 
 27 H       -4.0350     2.5970    -0.8510 H     1 <1>   0.0800 
 28 H       -1.4990     5.8050    -0.6670 H     1 <1>   0.1500 
 29 H       -2.1650     2.8310    -1.1000 H     1 <1>   0.0800 
 30 H       -2.2840     3.5950     1.1560 H     1 <1>   0.0800 
 31 H       -1.3620    -0.6510     0.3700 H     1 <1>   0.3700 
 32 H       -4.1510     5.1290    -0.5730 H     1 <1>   0.1500 
 33 H       -3.0890    -1.8230    -1.5390 H     1 <1>   0.0800 
 34 H       -4.4290    -2.4820     0.4430 H     1 <1>   0.0800 
 35 H       -0.6220    -2.0980    -1.4600 H     1 <1>   0.0800 
 36 H       -4.3180    -3.9550    -1.5360 H     1 <1>   0.0800 
 37 H       -4.4630    -4.9050    -0.0880 H     1 <1>   0.0800 
 38 H       -2.5940    -2.5690     2.1270 H     1 <1>   0.0800 
 39 H       -3.4520    -4.0790     2.0830 H     1 <1>   0.0800 
 40 H       -2.0340    -3.7250    -2.6840 H     1 <1>   0.0800 
 41 H       -0.6470    -4.5210    -2.0040 H     1 <1>   0.0800 
 42 H       -0.3270    -2.3580     0.9960 H     1 <1>   0.0800 
 43 H        0.3550    -3.7090     0.1590 H     1 <1>   0.0800 
 44 H       -2.7110    -5.8430    -1.5820 H     1 <1>   0.0800 
 45 H       -1.0000    -4.4650     2.0960 H     1 <1>   0.0800 
 46 H       -0.8870    -5.9230     0.0940 H     1 <1>   0.0800 
 47 H       -2.4340    -6.0780     0.8710 H     1 <1>   0.0800 
@<TRIPOS>BOND
  1   1   2  ar  
  2   2   3  ar  
  3   2   4  1   
  4   4   5  1   
  5   4   6  1   
  6   4  24  1   
  7   5   7  1   
  8   5   8  1   
  9   5  25  1   
 10   6   9  1   
 11   6  10  1   
 12   6  26  1   
 13   7  11  2   
 14   7  12  am  
 15   8  10  1   
 16   8  13  1   
 17   8  27  1   
 18   9  13  2   
 19   9  28  1   
 20  10  29  1   
 21  10  30  1   
 22  12  14  1   
 23  12  31  1   
 24  13  32  1   
 25  14  15  1   
 26  14  16  1   
 27  14  33  1   
 28  15  17  1   
 29  15  18  1   
 30  15  34  1   
 31  16  19  1   
 32  16  20  1   
 33  16  35  1   
 34  17  21  1   
 35  17  36  1   
 36  17  37  1   
 37  18  22  1   
 38  18  38  1   
 39  18  39  1   
 40  19  21  1   
 41  19  40  1   
 42  19  41  1   
 43  20  22  1   
 44  20  42  1   
 45  20  43  1   
 46  21  23  1   
 47  21  44  1   
 48  22  23  1   
 49  22  45  1   
 50  23  46  1   
 51  23  47  1   
@<TRIPOS>SUBSTRUCTURE
  1 ****  12 GROUP 4 **** **** 0

# MOE 2024.06 (io_trps.svl 2023.06)
