@<TRIPOS>MOLECULE
NONAME
33 33 1 0 0 
SMALL
USER_CHARGES


@<TRIPOS>ATOM
  1 CL      -0.2080     0.7310    -0.2530 Cl    1 <1>  -0.1770 
  2 C        1.5130     1.0120    -0.2940 C.ar  1 <1>   0.1770 
  3 C        2.2630     0.4680    -1.3210 C.ar  1 <1>  -0.1500 
  4 C        2.0970     1.7740     0.7030 C.ar  1 <1>  -0.1500 
  5 C        3.6300     0.6940    -1.3500 C.ar  1 <1>  -0.1500 
  6 C        3.4640     2.0000     0.6740 C.ar  1 <1>  -0.1500 
  7 C        4.2220     1.4560    -0.3550 C.ar  1 <1>   0.1020 
  8 S        6.0050     1.6900    -0.4870 S.3   1 <1>  -0.3320 
  9 C        6.5710     2.6750     0.9890 C.3   1 <1>   0.2110 
 10 C        7.9080     3.3630     0.6940 C.2   1 <1>   0.5690 
 11 C        6.6580     1.7060     2.1760 C.3   1 <1>  -0.2400 
 12 O        8.1460     4.4150     1.2380 O.2   1 <1>  -0.5700 
 13 N        8.8040     2.7790    -0.1450 N.am  1 <1>  -0.7300 
 14 C       10.1480     3.2910    -0.4910 C.3   1 <1>   0.1400 
 15 C       11.1790     2.1610    -0.4130 C.3   1 <1>   0.1200 
 16 O       10.7440     1.0790    -1.1840 O.3   1 <1>  -0.5600 
 17 C       11.6000    -0.0170    -1.1510 C.3   1 <1>   0.0400 
 18 H        1.7840    -0.1200    -2.0820 H     1 <1>   0.1500 
 19 H        1.4850     2.1830     1.4870 H     1 <1>   0.1500 
 20 H        4.2360     0.2830    -2.1380 H     1 <1>   0.1500 
 21 H        3.9060     2.5930     1.4500 H     1 <1>   0.1500 
 22 H        5.8370     3.4390     1.1600 H     1 <1>   0.0800 
 23 H        7.3940     0.9470     1.9780 H     1 <1>   0.0800 
 24 H        5.7100     1.2330     2.3550 H     1 <1>   0.0800 
 25 H        6.9490     2.2430     3.0610 H     1 <1>   0.0800 
 26 H        8.5730     1.8910    -0.6050 H     1 <1>   0.3700 
 27 H       10.4240     4.0850     0.1820 H     1 <1>   0.0800 
 28 H       10.1280     3.6880    -1.4910 H     1 <1>   0.0800 
 29 H       11.2900     1.8390     0.6080 H     1 <1>   0.0800 
 30 H       12.1280     2.4980    -0.7910 H     1 <1>   0.0800 
 31 H       11.1800    -0.7880    -1.7720 H     1 <1>   0.0800 
 32 H       11.6830    -0.3730    -0.1380 H     1 <1>   0.0800 
 33 H       12.5640     0.2720    -1.5330 H     1 <1>   0.0800 
@<TRIPOS>BOND
  1   1   2  1   
  2   2   3  ar  
  3   2   4  ar  
  4   3   5  ar  
  5   3  18  1   
  6   4   6  ar  
  7   4  19  1   
  8   5   7  ar  
  9   5  20  1   
 10   6   7  ar  
 11   6  21  1   
 12   7   8  1   
 13   8   9  1   
 14   9  10  1   
 15   9  11  1   
 16   9  22  1   
 17  10  12  2   
 18  10  13  am  
 19  11  23  1   
 20  11  24  1   
 21  11  25  1   
 22  13  14  1   
 23  13  26  1   
 24  14  15  1   
 25  14  27  1   
 26  14  28  1   
 27  15  16  1   
 28  15  29  1   
 29  15  30  1   
 30  16  17  1   
 31  17  31  1   
 32  17  32  1   
 33  17  33  1   
@<TRIPOS>SUBSTRUCTURE
  1 ****   8 GROUP 4 **** **** 0

# MOE 2024.06 (io_trps.svl 2023.06)
