@<TRIPOS>MOLECULE
NONAME
37 40 1 0 0 
SMALL
USER_CHARGES


@<TRIPOS>ATOM
  1 O        0.1280    -1.2540     0.2130 O.2   1 <1>  -0.5700 
  2 C       -0.5330    -2.0960    -0.3600 C.2   1 <1>   0.5440 
  3 N        0.0390    -3.0530    -1.1540 N.am  1 <1>  -0.4200 
  4 C       -1.9650    -2.2890    -0.3300 C.ar  1 <1>   0.3960 
  5 C       -0.9490    -3.8720    -1.6310 C.2   1 <1>   0.5440 
  6 C        1.4930    -3.1840    -1.4360 C.3   1 <1>   0.1400 
  7 N       -2.8890    -1.6010     0.2970 N.ar  1 <1>  -0.6200 
  8 C       -2.2300    -3.4180    -1.1370 C.ar  1 <1>   0.3960 
  9 O       -0.7140    -4.8250    -2.3460 O.2   1 <1>  -0.5700 
 10 C        2.2520    -3.7300    -0.2200 C.3   1 <1>   0.2000 
 11 C       -4.1450    -2.0760     0.0980 C.ar  1 <1>   0.3100 
 12 N       -3.4310    -3.9030    -1.3490 N.ar  1 <1>  -0.6200 
 13 O        3.5820    -3.9240    -0.5650 O.3   1 <1>  -0.5600 
 14 C        1.7920    -5.1020     0.2610 C.3   1 <1>  -0.1600 
 15 C       -4.4120    -3.2130    -0.7150 C.ar  1 <1>   0.3100 
 16 C       -5.2230    -1.4240     0.7170 C.ar  1 <1>  -0.1500 
 17 C        4.1790    -4.8240     0.3110 C.3   1 <1>   0.1200 
 18 C        3.0530    -5.6950     0.8660 C.3   1 <1>  -0.1600 
 19 C       -5.7420    -3.6320    -0.8630 C.ar  1 <1>  -0.1500 
 20 C       -6.5160    -1.8550     0.5550 C.ar  1 <1>  -0.1430 
 21 C       -6.7720    -2.9730    -0.2450 C.ar  1 <1>  -0.1500 
 22 C       -7.6780    -1.1450     1.2270 C.3   1 <1>  -0.0970 
 23 H        1.8880    -2.2150    -1.6880 H     1 <1>   0.0800 
 24 H        1.6380    -3.8450    -2.2720 H     1 <1>   0.0800 
 25 H        2.2320    -3.0160     0.5860 H     1 <1>   0.0800 
 26 H        1.4710    -5.6940    -0.5790 H     1 <1>   0.0800 
 27 H        0.9880    -5.0270     0.9710 H     1 <1>   0.0800 
 28 H       -4.9970    -0.5670     1.3260 H     1 <1>   0.1500 
 29 H        4.6610    -4.2620     1.0930 H     1 <1>   0.0800 
 30 H        4.9070    -5.4000    -0.2340 H     1 <1>   0.0800 
 31 H        3.1820    -6.7240     0.5810 H     1 <1>   0.0800 
 32 H        3.0390    -5.6270     1.9400 H     1 <1>   0.0800 
 33 H       -5.9310    -4.4920    -1.4800 H     1 <1>   0.1500 
 34 H       -7.7880    -3.3100    -0.3710 H     1 <1>   0.1500 
 35 H       -7.3340    -0.3080     1.8080 H     1 <1>   0.0800 
 36 H       -8.1950    -1.8240     1.8810 H     1 <1>   0.0800 
 37 H       -8.3670    -0.7850     0.4840 H     1 <1>   0.0800 
@<TRIPOS>BOND
  1   1   2  2   
  2   2   3  am  
  3   2   4  1   
  4   3   5  am  
  5   3   6  1   
  6   4   7  ar  
  7   4   8  ar  
  8   5   8  1   
  9   5   9  2   
 10   6  10  1   
 11   6  23  1   
 12   6  24  1   
 13   7  11  ar  
 14   8  12  ar  
 15  10  13  1   
 16  10  14  1   
 17  10  25  1   
 18  11  15  ar  
 19  11  16  ar  
 20  12  15  ar  
 21  13  17  1   
 22  14  18  1   
 23  14  26  1   
 24  14  27  1   
 25  15  19  ar  
 26  16  20  ar  
 27  16  28  1   
 28  17  18  1   
 29  17  29  1   
 30  17  30  1   
 31  18  31  1   
 32  18  32  1   
 33  19  21  ar  
 34  19  33  1   
 35  20  21  ar  
 36  20  22  1   
 37  21  34  1   
 38  22  35  1   
 39  22  36  1   
 40  22  37  1   
@<TRIPOS>SUBSTRUCTURE
  1 ****   4 GROUP 4 **** **** 0

# MOE 2024.06 (io_trps.svl 2023.06)
