@<TRIPOS>MOLECULE
NONAME
42 44 1 0 0 
SMALL
USER_CHARGES


@<TRIPOS>ATOM
  1 N      -11.3550    -0.2550    -2.2520 N.ar  1 <1>  -0.6200 
  2 C      -10.5860     0.0570    -1.2220 C.ar  1 <1>   0.1600 
  3 C      -11.7810    -1.5080    -2.2780 C.ar  1 <1>   0.1600 
  4 C      -10.2040    -0.8200    -0.2170 C.ar  1 <1>  -0.1440 
  5 C      -11.4680    -2.4640    -1.3270 C.ar  1 <1>  -0.1500 
  6 C      -10.6580    -2.1230    -0.2650 C.ar  1 <1>  -0.1500 
  7 C       -9.2960    -0.3420     0.9030 C.3   1 <1>   0.2540 
  8 N       -8.0520     0.2270     0.3480 N.3   1 <1>  -0.8100 
  9 C       -7.2110     0.8460     1.3990 C.3   1 <1>   0.1100 
 10 C       -7.2660    -0.7770    -0.4180 C.3   1 <1>   0.1100 
 11 C       -5.9170     1.4740     0.8220 C.3   1 <1>   0.3430 
 12 C       -5.9600    -0.1850    -1.0020 C.3   1 <1>   0.3430 
 13 N       -5.8240     1.2690    -0.6640 N.4   1 <1>  -0.9590 
 14 C       -4.6960     1.9310    -1.3760 C.3   1 <1>   0.4230 
 15 C       -3.3320     1.5680    -0.7850 C.3   1 <1>  -0.1600 
 16 C       -4.7750     3.4500    -1.2350 C.3   1 <1>  -0.1600 
 17 C       -2.9850     2.6440     0.2510 C.3   1 <1>  -0.1600 
 18 C       -3.8760     3.8530    -0.0580 C.3   1 <1>  -0.1600 
 19 H      -10.2330     1.0730    -1.1760 H     1 <1>   0.1500 
 20 H      -12.4140    -1.7870    -3.1030 H     1 <1>   0.1500 
 21 H      -11.8570    -3.4620    -1.4210 H     1 <1>   0.1500 
 22 H      -10.4000    -2.8480     0.4880 H     1 <1>   0.1500 
 23 H       -9.0650    -1.1570     1.5690 H     1 <1>   0.0800 
 24 H       -9.8180     0.4140     1.4670 H     1 <1>   0.0800 
 25 H       -6.9450     0.1090     2.1380 H     1 <1>   0.0800 
 26 H       -7.7740     1.6160     1.9000 H     1 <1>   0.0800 
 27 H       -7.8560    -1.1540    -1.2370 H     1 <1>   0.0800 
 28 H       -7.0230    -1.6140     0.2140 H     1 <1>   0.0800 
 29 H       -5.0620     1.0350     1.3080 H     1 <1>   0.0800 
 30 H       -5.9160     2.5270     1.0460 H     1 <1>   0.0800 
 31 H       -5.9700    -0.3140    -2.0720 H     1 <1>   0.0800 
 32 H       -5.1180    -0.7340    -0.6140 H     1 <1>   0.0800 
 33 H       -6.7080     1.6700    -1.0110 H     1 <1>   0.4500 
 34 H       -4.7330     1.6620    -2.4200 H     1 <1>   0.0800 
 35 H       -2.6070     1.6290    -1.5780 H     1 <1>   0.0800 
 36 H       -3.2930     0.5760    -0.3750 H     1 <1>   0.0800 
 37 H       -5.7830     3.8100    -1.1260 H     1 <1>   0.0800 
 38 H       -4.3640     3.8840    -2.1300 H     1 <1>   0.0800 
 39 H       -1.9420     2.9090     0.1900 H     1 <1>   0.0800 
 40 H       -3.1800     2.2880     1.2480 H     1 <1>   0.0800 
 41 H       -4.4660     4.1110     0.8040 H     1 <1>   0.0800 
 42 H       -3.2770     4.7100    -0.3210 H     1 <1>   0.0800 
@<TRIPOS>BOND
  1   1   2  ar  
  2   1   3  ar  
  3   2   4  ar  
  4   2  19  1   
  5   3   5  ar  
  6   3  20  1   
  7   4   6  ar  
  8   4   7  1   
  9   5   6  ar  
 10   5  21  1   
 11   6  22  1   
 12   7   8  1   
 13   7  23  1   
 14   7  24  1   
 15   8   9  1   
 16   8  10  1   
 17   9  11  1   
 18   9  25  1   
 19   9  26  1   
 20  10  12  1   
 21  10  27  1   
 22  10  28  1   
 23  11  13  1   
 24  11  29  1   
 25  11  30  1   
 26  12  13  1   
 27  12  31  1   
 28  12  32  1   
 29  13  14  1   
 30  13  33  1   
 31  14  15  1   
 32  14  16  1   
 33  14  34  1   
 34  15  17  1   
 35  15  35  1   
 36  15  36  1   
 37  16  18  1   
 38  16  37  1   
 39  16  38  1   
 40  17  18  1   
 41  17  39  1   
 42  17  40  1   
 43  18  41  1   
 44  18  42  1   
@<TRIPOS>SUBSTRUCTURE
  1 ****   8 GROUP 4 **** **** 0

# MOE 2024.06 (io_trps.svl 2023.06)
