@<TRIPOS>MOLECULE
NONAME
47 48 1 0 0 
SMALL
USER_CHARGES


@<TRIPOS>ATOM
  1 O       -2.1240     1.2900    -1.4510 O.2   1 <1>  -0.5700 
  2 C       -1.8990     1.8150    -0.3870 C.2   1 <1>   0.6590 
  3 O       -2.0160     1.1490     0.7610 O.3   1 <1>  -0.4300 
  4 C       -1.4510     3.2920    -0.3110 C.3   1 <1>   0.2510 
  5 C       -2.3310    -0.2220     0.8270 C.3   1 <1>   0.1200 
  6 N        0.0180     3.5000    -0.0930 N.3   1 <1>  -0.8100 
  7 C       -2.2510     4.0440     0.7710 C.3   1 <1>  -0.1600 
  8 C       -1.0340    -1.0210     0.7250 C.3   1 <1>  -0.2400 
  9 C        0.3780     4.9290    -0.1020 C.3   1 <1>   0.1100 
 10 C        0.8120     2.7220    -1.0760 C.3   1 <1>   0.2530 
 11 C       -1.9010     5.5340     0.8120 C.3   1 <1>  -0.1600 
 12 C       -0.3890     5.6930     0.9800 C.3   1 <1>  -0.1600 
 13 C        2.3180     2.8580    -0.8720 C.ar  1 <1>  -0.1430 
 14 C        3.0000     2.0530     0.0370 C.ar  1 <1>   0.0830 
 15 C        3.0280     3.7870    -1.6230 C.ar  1 <1>  -0.1500 
 16 O        2.3140     1.0890     0.7030 O.3   1 <1>  -0.3630 
 17 C        4.3760     2.2350     0.2340 C.ar  1 <1>   0.0830 
 18 C        4.3940     3.9360    -1.4580 C.ar  1 <1>  -0.1500 
 19 C        2.6200    -0.2420     0.3540 C.3   1 <1>   0.0400 
 20 O        5.0880     1.5390     1.1540 O.3   1 <1>  -0.3630 
 21 C        5.0650     3.1620    -0.5280 C.ar  1 <1>  -0.1500 
 22 C        4.7360     1.7470     2.5050 C.3   1 <1>   0.0400 
 23 H       -1.7030     3.7280    -1.2620 H     1 <1>   0.0800 
 24 H       -3.0150    -0.4720     0.0320 H     1 <1>   0.0800 
 25 H       -2.8090    -0.4010     1.7740 H     1 <1>   0.0800 
 26 H       -2.0390     3.6020     1.7300 H     1 <1>   0.0800 
 27 H       -3.3030     3.9290     0.5820 H     1 <1>   0.0800 
 28 H       -0.5630    -0.8430    -0.2250 H     1 <1>   0.0800 
 29 H       -1.2460    -2.0710     0.8110 H     1 <1>   0.0800 
 30 H       -0.3660    -0.7360     1.5180 H     1 <1>   0.0800 
 31 H        0.1710     5.3530    -1.0700 H     1 <1>   0.0800 
 32 H        1.4290     5.0410     0.1030 H     1 <1>   0.0800 
 33 H        0.5560     3.0370    -2.0730 H     1 <1>   0.0800 
 34 H        0.5640     1.6780    -0.9960 H     1 <1>   0.0800 
 35 H       -2.4130     6.0090     1.6310 H     1 <1>   0.0800 
 36 H       -2.2150     6.0060    -0.1030 H     1 <1>   0.0800 
 37 H       -0.1260     6.7340     0.9340 H     1 <1>   0.0800 
 38 H       -0.0860     5.3190     1.9420 H     1 <1>   0.0800 
 39 H        2.5150     4.4020    -2.3410 H     1 <1>   0.1500 
 40 H        4.9340     4.6560    -2.0480 H     1 <1>   0.1500 
 41 H        3.6550    -0.4390     0.5690 H     1 <1>   0.0800 
 42 H        2.4240    -0.3780    -0.6950 H     1 <1>   0.0800 
 43 H        1.9960    -0.8950     0.9360 H     1 <1>   0.0800 
 44 H        6.1240     3.2770    -0.3840 H     1 <1>   0.1500 
 45 H        5.4690     1.2620     3.1220 H     1 <1>   0.0800 
 46 H        3.7650     1.3250     2.6900 H     1 <1>   0.0800 
 47 H        4.7260     2.8040     2.7020 H     1 <1>   0.0800 
@<TRIPOS>BOND
  1   1   2  2   
  2   2   3  1   
  3   2   4  1   
  4   3   5  1   
  5   4   6  1   
  6   4   7  1   
  7   4  23  1   
  8   5   8  1   
  9   5  24  1   
 10   5  25  1   
 11   6   9  1   
 12   6  10  1   
 13   7  11  1   
 14   7  26  1   
 15   7  27  1   
 16   8  28  1   
 17   8  29  1   
 18   8  30  1   
 19   9  12  1   
 20   9  31  1   
 21   9  32  1   
 22  10  13  1   
 23  10  33  1   
 24  10  34  1   
 25  11  12  1   
 26  11  35  1   
 27  11  36  1   
 28  12  37  1   
 29  12  38  1   
 30  13  14  ar  
 31  13  15  ar  
 32  14  16  1   
 33  14  17  ar  
 34  15  18  ar  
 35  15  39  1   
 36  16  19  1   
 37  17  20  1   
 38  17  21  ar  
 39  18  21  ar  
 40  18  40  1   
 41  19  41  1   
 42  19  42  1   
 43  19  43  1   
 44  20  22  1   
 45  21  44  1   
 46  22  45  1   
 47  22  46  1   
 48  22  47  1   
@<TRIPOS>SUBSTRUCTURE
  1 ****  10 GROUP 4 **** **** 0

# MOE 2024.06 (io_trps.svl 2023.06)
