@<TRIPOS>MOLECULE
NONAME
43 44 1 0 0 
SMALL
USER_CHARGES


@<TRIPOS>ATOM
  1 BR       0.0500     0.0580    -0.5240 Br    1 <1>  -0.1110 
  2 C       -1.0540    -1.5090    -0.2990 C.ar  1 <1>   0.1110 
  3 C       -0.4860    -2.6890     0.1630 C.ar  1 <1>   0.0820 
  4 C       -2.3930    -1.3960    -0.6080 C.ar  1 <1>  -0.1500 
  5 O        0.8390    -2.7100     0.4430 O.3   1 <1>  -0.3630 
  6 C       -1.3250    -3.7890     0.3120 C.ar  1 <1>  -0.1500 
  7 C       -3.2410    -2.4970    -0.4680 C.ar  1 <1>   0.0860 
  8 C        1.4820    -3.8700     0.9240 C.3   1 <1>   0.0400 
  9 C       -2.6710    -3.6850     0.0010 C.ar  1 <1>  -0.1500 
 10 C       -4.6560    -2.4260    -0.7870 C.2   1 <1>   0.5440 
 11 O       -5.4530    -3.1900    -0.2780 O.2   1 <1>  -0.5700 
 12 N       -5.1430    -1.4910    -1.6600 N.am  1 <1>  -0.7300 
 13 C       -6.5130    -1.4620    -2.2230 C.3   1 <1>   0.1400 
 14 C       -7.3770    -0.4710    -1.4390 C.3   1 <1>  -0.1600 
 15 C       -7.6110    -0.8620     0.0250 C.3   1 <1>   0.3430 
 16 N       -8.7400    -1.8300     0.1550 N.4   1 <1>  -0.9590 
 17 C       -9.5610    -1.5340     1.3780 C.3   1 <1>   0.3430 
 18 C       -8.2460    -3.2520     0.2220 C.3   1 <1>   0.3430 
 19 C      -10.6690    -2.5860     1.5830 C.3   1 <1>   0.1200 
 20 C       -9.3930    -4.2450     0.4910 C.3   1 <1>   0.1200 
 21 O      -10.1160    -3.8680     1.6290 O.3   1 <1>  -0.5600 
 22 H       -2.7660    -0.4480    -0.9490 H     1 <1>   0.1500 
 23 H       -0.9480    -4.7310     0.6670 H     1 <1>   0.1500 
 24 H        2.5210    -3.6370     1.0720 H     1 <1>   0.0800 
 25 H        1.3830    -4.6530     0.1940 H     1 <1>   0.0800 
 26 H        1.0350    -4.1540     1.8600 H     1 <1>   0.0800 
 27 H       -3.3020    -4.5490     0.1250 H     1 <1>   0.1500 
 28 H       -4.4640    -0.9140    -2.1640 H     1 <1>   0.3700 
 29 H       -6.9410    -2.4490    -2.2020 H     1 <1>   0.0800 
 30 H       -6.4550    -1.1550    -3.2540 H     1 <1>   0.0800 
 31 H       -8.3200    -0.3320    -1.9370 H     1 <1>   0.0800 
 32 H       -6.8750     0.4800    -1.4560 H     1 <1>   0.0800 
 33 H       -7.8540     0.0360     0.5710 H     1 <1>   0.0800 
 34 H       -6.7090    -1.2700     0.4540 H     1 <1>   0.0800 
 35 H       -9.3510    -1.7440    -0.6640 H     1 <1>   0.4500 
 36 H      -10.0100    -0.5580     1.2940 H     1 <1>   0.0800 
 37 H       -8.9290    -1.5350     2.2510 H     1 <1>   0.0800 
 38 H       -7.5190    -3.3490     1.0110 H     1 <1>   0.0800 
 39 H       -7.7560    -3.5200    -0.6980 H     1 <1>   0.0800 
 40 H      -11.3950    -2.5480     0.7900 H     1 <1>   0.0800 
 41 H      -11.1730    -2.4150     2.5180 H     1 <1>   0.0800 
 42 H       -8.9920    -5.2280     0.6690 H     1 <1>   0.0800 
 43 H      -10.0660    -4.2970    -0.3460 H     1 <1>   0.0800 
@<TRIPOS>BOND
  1   1   2  1   
  2   2   3  ar  
  3   2   4  ar  
  4   3   5  1   
  5   3   6  ar  
  6   4   7  ar  
  7   4  22  1   
  8   5   8  1   
  9   6   9  ar  
 10   6  23  1   
 11   7   9  ar  
 12   7  10  1   
 13   8  24  1   
 14   8  25  1   
 15   8  26  1   
 16   9  27  1   
 17  10  11  2   
 18  10  12  am  
 19  12  13  1   
 20  12  28  1   
 21  13  14  1   
 22  13  29  1   
 23  13  30  1   
 24  14  15  1   
 25  14  31  1   
 26  14  32  1   
 27  15  16  1   
 28  15  33  1   
 29  15  34  1   
 30  16  17  1   
 31  16  18  1   
 32  16  35  1   
 33  17  19  1   
 34  17  36  1   
 35  17  37  1   
 36  18  20  1   
 37  18  38  1   
 38  18  39  1   
 39  19  21  1   
 40  19  40  1   
 41  19  41  1   
 42  20  21  1   
 43  20  42  1   
 44  20  43  1   
@<TRIPOS>SUBSTRUCTURE
  1 ****  10 GROUP 4 **** **** 0

# MOE 2024.06 (io_trps.svl 2023.06)
