@<TRIPOS>MOLECULE
NONAME
52 54 1 0 0 
SMALL
USER_CHARGES


@<TRIPOS>ATOM
  1 O       -1.0020     1.8460     0.2900 O.2   1 <1>  -0.5700 
  2 C       -0.5960     2.3010    -0.7580 C.2   1 <1>   0.5690 
  3 N        0.7330     2.2220    -1.1090 N.am  1 <1>  -0.6600 
  4 C       -1.6110     2.9840    -1.6860 C.3   1 <1>   0.2010 
  5 C        1.3250     2.7720    -2.3600 C.3   1 <1>   0.1400 
  6 C        1.7320     1.5780    -0.2110 C.3   1 <1>   0.1400 
  7 N       -3.0260     2.8260    -1.2470 N.am  1 <1>  -0.7300 
  8 C        2.3940     3.8090    -2.0040 C.3   1 <1>  -0.1600 
  9 C        2.8160     2.5930     0.1640 C.3   1 <1>  -0.1600 
 10 C       -4.1070     2.8330    -2.0640 C.2   1 <1>   0.5690 
 11 C        3.4740     3.2200    -1.0800 C.3   1 <1>  -0.0800 
 12 O       -3.9990     3.0650    -3.2440 O.2   1 <1>  -0.5700 
 13 C       -5.4860     2.5300    -1.5000 C.3   1 <1>   0.0440 
 14 C        4.5050     4.2990    -0.7000 C.3   1 <1>  -0.0170 
 15 C       -5.5320     2.5150     0.0250 C.ar  1 <1>  -0.1440 
 16 C        5.6500     3.7330     0.1300 C.ar  1 <1>  -0.1440 
 17 C       -5.1900     1.3660     0.7230 C.ar  1 <1>  -0.1500 
 18 C       -5.9000     3.6530     0.7270 C.ar  1 <1>  -0.1500 
 19 C        5.6880     3.9290     1.5020 C.ar  1 <1>  -0.1500 
 20 C        6.6660     3.0160    -0.4820 C.ar  1 <1>  -0.1500 
 21 C       -5.2140     1.3560     2.1070 C.ar  1 <1>  -0.1500 
 22 C       -5.9270     3.6420     2.1110 C.ar  1 <1>  -0.1500 
 23 C        6.7280     3.4110     2.2540 C.ar  1 <1>  -0.1500 
 24 C        7.7070     2.4970     0.2680 C.ar  1 <1>  -0.1500 
 25 C       -5.5830     2.4940     2.8020 C.ar  1 <1>  -0.1500 
 26 C        7.7380     2.6940     1.6380 C.ar  1 <1>  -0.1500 
 27 H       -1.5120     2.5720    -2.6740 H     1 <1>   0.0800 
 28 H       -1.3810     4.0330    -1.7290 H     1 <1>   0.0800 
 29 H        0.5790     3.2300    -2.9840 H     1 <1>   0.0800 
 30 H        1.7720     1.9660    -2.9170 H     1 <1>   0.0800 
 31 H        2.1760     0.7410    -0.7220 H     1 <1>   0.0800 
 32 H        1.2630     1.2080     0.6840 H     1 <1>   0.0800 
 33 H       -3.1350     2.5800    -0.2540 H     1 <1>   0.3700 
 34 H        1.9170     4.6460    -1.5250 H     1 <1>   0.0800 
 35 H        2.8490     4.1650    -2.9120 H     1 <1>   0.0800 
 36 H        3.5590     2.0910     0.7590 H     1 <1>   0.0800 
 37 H        2.3710     3.3590     0.7750 H     1 <1>   0.0800 
 38 H        3.9880     2.4400    -1.6160 H     1 <1>   0.0800 
 39 H       -5.7990     1.5750    -1.8800 H     1 <1>   0.0800 
 40 H       -6.1720     3.2660    -1.8770 H     1 <1>   0.0800 
 41 H        4.0190     5.0890    -0.1550 H     1 <1>   0.0800 
 42 H        4.9150     4.7340    -1.5950 H     1 <1>   0.0800 
 43 H       -4.8970     0.4750     0.1950 H     1 <1>   0.1500 
 44 H       -6.1650     4.5540     0.2010 H     1 <1>   0.1500 
 45 H        4.9080     4.4840     1.9920 H     1 <1>   0.1500 
 46 H        6.6510     2.8580    -1.5460 H     1 <1>   0.1500 
 47 H       -4.9440     0.4630     2.6420 H     1 <1>   0.1500 
 48 H       -6.2130     4.5280     2.6500 H     1 <1>   0.1500 
 49 H        6.7510     3.5650     3.3180 H     1 <1>   0.1500 
 50 H        8.4920     1.9410    -0.2130 H     1 <1>   0.1500 
 51 H       -5.6020     2.4860     3.8770 H     1 <1>   0.1500 
 52 H        8.5470     2.2910     2.2220 H     1 <1>   0.1500 
@<TRIPOS>BOND
  1   1   2  2   
  2   2   3  am  
  3   2   4  1   
  4   3   5  1   
  5   3   6  1   
  6   4   7  1   
  7   4  27  1   
  8   4  28  1   
  9   5   8  1   
 10   5  29  1   
 11   5  30  1   
 12   6   9  1   
 13   6  31  1   
 14   6  32  1   
 15   7  10  am  
 16   7  33  1   
 17   8  11  1   
 18   8  34  1   
 19   8  35  1   
 20   9  11  1   
 21   9  36  1   
 22   9  37  1   
 23  10  12  2   
 24  10  13  1   
 25  11  14  1   
 26  11  38  1   
 27  13  15  1   
 28  13  39  1   
 29  13  40  1   
 30  14  16  1   
 31  14  41  1   
 32  14  42  1   
 33  15  17  ar  
 34  15  18  ar  
 35  16  19  ar  
 36  16  20  ar  
 37  17  21  ar  
 38  17  43  1   
 39  18  22  ar  
 40  18  44  1   
 41  19  23  ar  
 42  19  45  1   
 43  20  24  ar  
 44  20  46  1   
 45  21  25  ar  
 46  21  47  1   
 47  22  25  ar  
 48  22  48  1   
 49  23  26  ar  
 50  23  49  1   
 51  24  26  ar  
 52  24  50  1   
 53  25  51  1   
 54  26  52  1   
@<TRIPOS>SUBSTRUCTURE
  1 ****   2 GROUP 4 **** **** 0

# MOE 2024.06 (io_trps.svl 2023.06)
