@<TRIPOS>MOLECULE
NONAME
36 36 1 0 0 
SMALL
USER_CHARGES


@<TRIPOS>ATOM
  1 O        1.2220     3.1300     1.6640 O.2   1 <1>  -0.5700 
  2 C        0.5100     2.6890     0.7810 C.2   1 <1>   0.5440 
  3 N        1.0670     1.9320    -0.2110 N.am  1 <1>  -0.7300 
  4 C       -0.9140     2.9850     0.7790 C.ar  1 <1>   0.0860 
  5 C        2.4450     1.4770    -0.4070 C.3   1 <1>   0.3000 
  6 C       -1.8840     2.1550     0.1940 C.ar  1 <1>   0.0830 
  7 C       -1.3660     4.1590     1.3890 C.ar  1 <1>  -0.1500 
  8 C        3.3710     2.6820    -0.5710 C.3   1 <1>  -0.2400 
  9 C        2.4450     0.6510    -1.6910 C.3   1 <1>  -0.2400 
 10 C        2.8690     0.5980     0.7700 C.3   1 <1>  -0.2400 
 11 O       -1.5110     0.9940    -0.3990 O.3   1 <1>  -0.3630 
 12 C       -3.2390     2.5050     0.2020 C.ar  1 <1>   0.0830 
 13 C       -2.7010     4.5070     1.4120 C.ar  1 <1>  -0.1500 
 14 C       -1.7120    -0.1870     0.3450 C.3   1 <1>   0.0400 
 15 O       -4.1260     1.6650    -0.4050 O.3   1 <1>  -0.3630 
 16 C       -3.6400     3.6840     0.8180 C.ar  1 <1>  -0.1500 
 17 C       -5.4770     2.0230    -0.5970 C.3   1 <1>   0.0400 
 18 H        0.3970     1.4940    -0.8490 H     1 <1>   0.3700 
 19 H       -0.6450     4.8100     1.8540 H     1 <1>   0.1500 
 20 H        3.0270     3.3130    -1.3690 H     1 <1>   0.0800 
 21 H        4.3690     2.3550    -0.7970 H     1 <1>   0.0800 
 22 H        3.4090     3.2570     0.3360 H     1 <1>   0.0800 
 23 H        2.1320     1.2520    -2.5250 H     1 <1>   0.0800 
 24 H        1.7880    -0.1950    -1.5970 H     1 <1>   0.0800 
 25 H        3.4360     0.2850    -1.8940 H     1 <1>   0.0800 
 26 H        2.8990     1.1720     1.6780 H     1 <1>   0.0800 
 27 H        3.8510     0.1980     0.5980 H     1 <1>   0.0800 
 28 H        2.1820    -0.2180     0.8960 H     1 <1>   0.0800 
 29 H       -3.0110     5.4190     1.8920 H     1 <1>   0.1500 
 30 H       -1.3600    -1.0180    -0.2380 H     1 <1>   0.0800 
 31 H       -2.7620    -0.3000     0.5500 H     1 <1>   0.0800 
 32 H       -1.1560    -0.1170     1.2640 H     1 <1>   0.0800 
 33 H       -4.6710     3.9820     0.8500 H     1 <1>   0.1500 
 34 H       -5.9530     1.2400    -1.1580 H     1 <1>   0.0800 
 35 H       -5.5180     2.9450    -1.1500 H     1 <1>   0.0800 
 36 H       -5.9520     2.1250     0.3620 H     1 <1>   0.0800 
@<TRIPOS>BOND
  1   1   2  2   
  2   2   3  am  
  3   2   4  1   
  4   3   5  1   
  5   3  18  1   
  6   4   6  ar  
  7   4   7  ar  
  8   5   8  1   
  9   5   9  1   
 10   5  10  1   
 11   6  11  1   
 12   6  12  ar  
 13   7  13  ar  
 14   7  19  1   
 15   8  20  1   
 16   8  21  1   
 17   8  22  1   
 18   9  23  1   
 19   9  24  1   
 20   9  25  1   
 21  10  26  1   
 22  10  27  1   
 23  10  28  1   
 24  11  14  1   
 25  12  15  1   
 26  12  16  ar  
 27  13  16  ar  
 28  13  29  1   
 29  14  30  1   
 30  14  31  1   
 31  14  32  1   
 32  15  17  1   
 33  16  33  1   
 34  17  34  1   
 35  17  35  1   
 36  17  36  1   
@<TRIPOS>SUBSTRUCTURE
  1 ****   4 GROUP 4 **** **** 0

# MOE 2024.06 (io_trps.svl 2023.06)
