@<TRIPOS>MOLECULE
NONAME
51 52 1 0 0 
SMALL
USER_CHARGES


@<TRIPOS>ATOM
  1 O       -0.4430    -0.5170    -0.4270 O.2   1 <1>  -0.5700 
  2 C       -0.2780    -1.6050     0.0940 C.2   1 <1>   0.5440 
  3 N       -1.3770    -2.2860     0.5850 N.am  1 <1>  -0.6600 
  4 C        1.0640    -2.1460     0.1730 C.ar  1 <1>   0.0860 
  5 C       -2.7030    -1.6220     0.7310 C.3   1 <1>   0.1400 
  6 C       -1.3770    -3.7460     0.8780 C.3   1 <1>   0.1400 
  7 C        1.6140    -2.5700     1.3840 C.ar  1 <1>  -0.1500 
  8 C        1.8610    -2.2520    -0.9670 C.ar  1 <1>  -0.1500 
  9 C       -3.7300    -2.3150    -0.1670 C.3   1 <1>  -0.1600 
 10 C       -2.4040    -4.4530    -0.0120 C.3   1 <1>  -0.1600 
 11 C        2.8910    -3.0940     1.4490 C.ar  1 <1>  -0.1500 
 12 C        3.1410    -2.7740    -0.9110 C.ar  1 <1>  -0.1500 
 13 C       -3.8070    -3.8280     0.1210 C.3   1 <1>  -0.0190 
 14 C        3.6640    -3.2050     0.3050 C.ar  1 <1>   0.0830 
 15 C       -4.8210    -4.5540    -0.7630 C.2   1 <1>   0.6590 
 16 O        4.8990    -3.7320     0.4510 O.3   1 <1>  -0.3630 
 17 O       -5.3160    -4.0520    -1.7400 O.2   1 <1>  -0.5700 
 18 O       -5.1260    -5.7870    -0.3790 O.3   1 <1>  -0.4300 
 19 C        5.7780    -3.8830    -0.6440 C.3   1 <1>   0.1200 
 20 C       -6.0440    -6.5740    -1.1010 C.3   1 <1>   0.1200 
 21 C        7.0890    -4.5240    -0.1620 C.3   1 <1>  -0.0800 
 22 C       -6.1580    -7.9270    -0.4050 C.3   1 <1>  -0.2400 
 23 C        8.0900    -4.6170    -1.3210 C.3   1 <1>  -0.2400 
 24 C        6.8550    -5.9200     0.4330 C.3   1 <1>  -0.2400 
 25 H       -2.6410    -0.5790     0.4680 H     1 <1>   0.0800 
 26 H       -3.0120    -1.6830     1.7590 H     1 <1>   0.0800 
 27 H       -1.6240    -3.8950     1.9150 H     1 <1>   0.0800 
 28 H       -0.4080    -4.1770     0.6980 H     1 <1>   0.0800 
 29 H        1.0270    -2.4790     2.2820 H     1 <1>   0.1500 
 30 H        1.4600    -1.9130    -1.9060 H     1 <1>   0.1500 
 31 H       -3.4560    -2.1490    -1.1950 H     1 <1>   0.0800 
 32 H       -4.6960    -1.8660    -0.0120 H     1 <1>   0.0800 
 33 H       -2.4430    -5.4940     0.2580 H     1 <1>   0.0800 
 34 H       -2.0770    -4.3930    -1.0350 H     1 <1>   0.0800 
 35 H        3.3030    -3.4180     2.3880 H     1 <1>   0.1500 
 36 H        3.7130    -2.8360    -1.8170 H     1 <1>   0.1500 
 37 H       -4.1370    -3.9550     1.1360 H     1 <1>   0.0800 
 38 H        5.9670    -2.9070    -1.0560 H     1 <1>   0.0800 
 39 H        5.3010    -4.5080    -1.3780 H     1 <1>   0.0800 
 40 H       -5.6790    -6.6860    -2.1080 H     1 <1>   0.0800 
 41 H       -6.9930    -6.0640    -1.1160 H     1 <1>   0.0800 
 42 H        7.5130    -3.8870     0.5970 H     1 <1>   0.0800 
 43 H       -5.2020    -8.4180    -0.3900 H     1 <1>   0.0800 
 44 H       -6.8540    -8.5490    -0.9370 H     1 <1>   0.0800 
 45 H       -6.5140    -7.7980     0.6010 H     1 <1>   0.0800 
 46 H        7.7060    -5.2450    -2.1060 H     1 <1>   0.0800 
 47 H        9.0210    -5.0310    -0.9750 H     1 <1>   0.0800 
 48 H        8.2870    -3.6390    -1.7250 H     1 <1>   0.0800 
 49 H        6.4190    -6.5770    -0.2990 H     1 <1>   0.0800 
 50 H        6.1900    -5.8610     1.2770 H     1 <1>   0.0800 
 51 H        7.7840    -6.3450     0.7680 H     1 <1>   0.0800 
@<TRIPOS>BOND
  1   1   2  2   
  2   2   3  am  
  3   2   4  1   
  4   3   5  1   
  5   3   6  1   
  6   4   7  ar  
  7   4   8  ar  
  8   5   9  1   
  9   5  25  1   
 10   5  26  1   
 11   6  10  1   
 12   6  27  1   
 13   6  28  1   
 14   7  11  ar  
 15   7  29  1   
 16   8  12  ar  
 17   8  30  1   
 18   9  13  1   
 19   9  31  1   
 20   9  32  1   
 21  10  13  1   
 22  10  33  1   
 23  10  34  1   
 24  11  14  ar  
 25  11  35  1   
 26  12  14  ar  
 27  12  36  1   
 28  13  15  1   
 29  13  37  1   
 30  14  16  1   
 31  15  17  2   
 32  15  18  1   
 33  16  19  1   
 34  18  20  1   
 35  19  21  1   
 36  19  38  1   
 37  19  39  1   
 38  20  22  1   
 39  20  40  1   
 40  20  41  1   
 41  21  23  1   
 42  21  24  1   
 43  21  42  1   
 44  22  43  1   
 45  22  44  1   
 46  22  45  1   
 47  23  46  1   
 48  23  47  1   
 49  23  48  1   
 50  24  49  1   
 51  24  50  1   
 52  24  51  1   
@<TRIPOS>SUBSTRUCTURE
  1 ****   4 GROUP 4 **** **** 0

# MOE 2024.06 (io_trps.svl 2023.06)
