@<TRIPOS>MOLECULE
NONAME
33 33 1 0 0 
SMALL
USER_CHARGES


@<TRIPOS>ATOM
  1 F        0.4410    -0.4820     0.8190 F     1 <1>  -0.3400 
  2 C        0.3920    -1.4500    -0.0900 C.3   1 <1>   1.0200 
  3 F        0.8880    -0.9070    -1.1960 F     1 <1>  -0.3400 
  4 F        1.2770    -2.3500     0.3150 F     1 <1>  -0.3400 
  5 C       -1.0540    -2.0010    -0.2690 C.3   1 <1>   0.2800 
  6 O       -1.9120    -0.9970    -0.8360 O.3   1 <1>  -0.6800 
  7 C       -0.9330    -3.2560    -1.1920 C.3   1 <1>   1.0200 
  8 C       -1.6640    -2.3320     1.1180 C.3   1 <1>  -0.0990 
  9 F       -0.2600    -3.0220    -2.3120 F     1 <1>  -0.3400 
 10 F       -2.1120    -3.7050    -1.6010 F     1 <1>  -0.3400 
 11 F       -0.3360    -4.2900    -0.6140 F     1 <1>  -0.3400 
 12 C       -3.0080    -3.0220     1.0590 C.2   1 <1>   0.5690 
 13 O       -3.0560    -4.1670     1.4270 O.2   1 <1>  -0.5700 
 14 N       -4.0750    -2.3120     0.5980 N.am  1 <1>  -0.5470 
 15 C       -5.4390    -2.6170     0.4330 C.ar  1 <1>   0.1170 
 16 C       -6.2400    -1.7010    -0.2600 C.ar  1 <1>   0.0820 
 17 C       -6.0240    -3.7760     0.9300 C.ar  1 <1>  -0.1500 
 18 O       -5.6310    -0.5700    -0.7290 O.3   1 <1>  -0.3620 
 19 C       -7.5950    -1.9600    -0.4460 C.ar  1 <1>  -0.1500 
 20 C       -7.3710    -4.0290     0.7430 C.ar  1 <1>  -0.1500 
 21 C       -6.3540     0.4080    -1.4460 C.3   1 <1>   0.0400 
 22 C       -8.1570    -3.1220     0.0550 C.ar  1 <1>  -0.1500 
 23 H       -1.6040    -0.7170    -1.7270 H     1 <1>   0.4000 
 24 H       -1.7730    -1.4340     1.6990 H     1 <1>   0.0800 
 25 H       -0.9930    -2.9750     1.6610 H     1 <1>   0.0800 
 26 H       -3.8430    -1.4020     0.1830 H     1 <1>   0.3700 
 27 H       -5.4340    -4.4930     1.4690 H     1 <1>   0.1500 
 28 H       -8.2310    -1.2770    -0.9740 H     1 <1>   0.1500 
 29 H       -7.8060    -4.9330     1.1330 H     1 <1>   0.1500 
 30 H       -5.6750     1.1970    -1.7120 H     1 <1>   0.0800 
 31 H       -7.1350     0.7960    -0.8160 H     1 <1>   0.0800 
 32 H       -6.7600    -0.0400    -2.3350 H     1 <1>   0.0800 
 33 H       -9.2050    -3.3210    -0.0900 H     1 <1>   0.1500 
@<TRIPOS>BOND
  1   1   2  1   
  2   2   3  1   
  3   2   4  1   
  4   2   5  1   
  5   5   6  1   
  6   5   7  1   
  7   5   8  1   
  8   6  23  1   
  9   7   9  1   
 10   7  10  1   
 11   7  11  1   
 12   8  12  1   
 13   8  24  1   
 14   8  25  1   
 15  12  13  2   
 16  12  14  am  
 17  14  15  1   
 18  14  26  1   
 19  15  16  ar  
 20  15  17  ar  
 21  16  18  1   
 22  16  19  ar  
 23  17  20  ar  
 24  17  27  1   
 25  18  21  1   
 26  19  22  ar  
 27  19  28  1   
 28  20  22  ar  
 29  20  29  1   
 30  21  30  1   
 31  21  31  1   
 32  21  32  1   
 33  22  33  1   
@<TRIPOS>SUBSTRUCTURE
  1 ****  14 GROUP 4 **** **** 0

# MOE 2024.06 (io_trps.svl 2023.06)
