@<TRIPOS>MOLECULE
NONAME
28 30 1 0 0 
SMALL
USER_CHARGES


@<TRIPOS>ATOM
  1 S       -0.1690    -0.1380     0.4770 S.3   1 <1>  -0.0950 
  2 C       -0.2570     1.5880     0.1420 C.2   1 <1>  -0.1540 
  3 C        1.3690    -0.2700    -0.3520 C.2   1 <1>  -0.1250 
  4 C        0.8300     1.9830    -0.5500 C.2   1 <1>  -0.1640 
  5 C       -1.4850     2.3030     0.6610 C.3   1 <1>   0.4170 
  6 C        1.7530     0.9260    -0.8310 C.2   1 <1>  -0.1640 
  7 N       -2.6440     1.6680     0.0330 N.pl3 1 <1>  -0.7220 
  8 C       -1.4830     3.8040     0.3360 C.3   1 <1>  -0.1740 
  9 C       -3.7610     2.3300    -0.2250 C.cat 1 <1>   1.0670 
 10 C       -2.8450     4.4830     0.6240 C.3   1 <1>   0.4230 
 11 N       -4.8750     1.8820    -0.7490 N.pl3 1 <1>  -0.7070 
 12 N       -3.9260     3.6120     0.0440 N.pl3 1 <1>  -0.4670 
 13 C       -2.8700     5.9700     0.1450 C.3   1 <1>   1.0160 
 14 C       -5.7310     2.9510    -0.7760 C.2   1 <1>   0.4930 
 15 N       -5.1900     4.0100    -0.2990 N.2   1 <1>  -0.2730 
 16 F       -2.8090     6.0750    -1.1780 F     1 <1>  -0.3520 
 17 F       -1.8400     6.6590     0.6180 F     1 <1>  -0.3520 
 18 F       -3.9600     6.6220     0.5280 F     1 <1>  -0.3520 
 19 H        1.8330    -1.2400    -0.3930 H     1 <1>   0.1360 
 20 H        1.0470     2.9810    -0.8900 H     1 <1>   0.1360 
 21 H       -1.5440     2.1600     1.7290 H     1 <1>   0.0650 
 22 H        2.6610     1.1160    -1.3770 H     1 <1>   0.1360 
 23 H       -2.4820     0.6980    -0.2490 H     1 <1>   0.4400 
 24 H       -1.2290     3.9420    -0.7010 H     1 <1>   0.0650 
 25 H       -0.7100     4.2800     0.9150 H     1 <1>   0.0650 
 26 H       -2.9900     4.5040     1.6890 H     1 <1>   0.0650 
 27 H       -5.0710     0.9350    -1.0660 H     1 <1>   0.4400 
 28 H       -6.7410     2.8860    -1.1570 H     1 <1>   0.1360 
@<TRIPOS>BOND
  1   1   2  1   
  2   1   3  1   
  3   2   4  2   
  4   2   5  1   
  5   3   6  2   
  6   3  19  1   
  7   4   6  1   
  8   4  20  1   
  9   5   7  1   
 10   5   8  1   
 11   5  21  1   
 12   6  22  1   
 13   7   9  ar  
 14   7  23  1   
 15   8  10  1   
 16   8  24  1   
 17   8  25  1   
 18   9  11  ar  
 19   9  12  ar  
 20  10  12  1   
 21  10  13  1   
 22  10  26  1   
 23  11  14  1   
 24  11  27  1   
 25  12  15  1   
 26  13  16  1   
 27  13  17  1   
 28  13  18  1   
 29  14  15  2   
 30  14  28  1   
@<TRIPOS>SUBSTRUCTURE
  1 ****   8 GROUP 4 **** **** 0

# MOE 2024.06 (io_trps.svl 2023.06)
