@<TRIPOS>MOLECULE
NONAME
48 50 1 0 0 
SMALL
USER_CHARGES


@<TRIPOS>ATOM
  1 S       -0.1430     1.2770     1.4090 S.o2  1 <1>   1.4470 
  2 O       -1.3100     2.1260     1.3000 O.2   1 <1>  -0.6500 
  3 O        0.0030     0.3930     2.5440 O.2   1 <1>  -0.6500 
  4 N       -0.1290     0.2950     0.0270 N.am  1 <1>  -0.8490 
  5 C        1.3760     2.2480     1.2090 C.ar  1 <1>  -0.0090 
  6 C       -0.9770    -0.8990     0.2260 C.3   1 <1>   0.1960 
  7 C       -0.4710     1.0250    -1.2160 C.3   1 <1>   0.1960 
  8 C        2.6070     1.6180     1.1050 C.ar  1 <1>  -0.1500 
  9 C        1.3510     3.6340     1.1430 C.ar  1 <1>  -0.1500 
 10 C       -1.3990    -1.5470    -1.1060 C.3   1 <1>   0.1200 
 11 C       -1.8960     0.7220    -1.7150 C.3   1 <1>   0.1200 
 12 C        3.8010     2.3140     0.9230 C.ar  1 <1>   0.0860 
 13 C        2.5170     4.3570     0.9730 C.ar  1 <1>  -0.1500 
 14 O       -2.0720    -0.6510    -1.9570 O.3   1 <1>  -0.5600 
 15 C        3.7370     3.7110     0.8600 C.ar  1 <1>  -0.1440 
 16 C        5.0400     1.5710     0.7940 C.2   1 <1>   0.5440 
 17 C        4.9980     4.5460     0.6680 C.3   1 <1>  -0.0960 
 18 O        5.9740     1.7840     1.5400 O.2   1 <1>  -0.5700 
 19 N        5.1190     0.6070    -0.1840 N.am  1 <1>  -0.5470 
 20 C        6.1340    -0.2910    -0.5540 C.ar  1 <1>   0.1170 
 21 C        5.7940    -1.4670    -1.2290 C.ar  1 <1>  -0.1440 
 22 C        7.4770    -0.0390    -0.2890 C.ar  1 <1>  -0.1500 
 23 C        6.7860    -2.3530    -1.6180 C.ar  1 <1>  -0.1500 
 24 C        4.3420    -1.8070    -1.5480 C.3   1 <1>  -0.0970 
 25 C        8.4610    -0.9280    -0.6780 C.ar  1 <1>  -0.1500 
 26 C        8.1160    -2.0880    -1.3450 C.ar  1 <1>  -0.1500 
 27 H       -1.8720    -0.6320     0.7650 H     1 <1>   0.0800 
 28 H       -0.4420    -1.6170     0.8250 H     1 <1>   0.0800 
 29 H        0.2190     0.7310    -1.9880 H     1 <1>   0.0800 
 30 H       -0.3590     2.0880    -1.0800 H     1 <1>   0.0800 
 31 H        2.6380     0.5430     1.1750 H     1 <1>   0.1500 
 32 H        0.4110     4.1550     1.2290 H     1 <1>   0.1500 
 33 H       -2.0560    -2.3790    -0.9250 H     1 <1>   0.0800 
 34 H       -0.5290    -1.9060    -1.6270 H     1 <1>   0.0800 
 35 H       -2.0930     1.2430    -2.6350 H     1 <1>   0.0800 
 36 H       -2.6220     1.0340    -0.9840 H     1 <1>   0.0800 
 37 H        2.4660     5.4320     0.9300 H     1 <1>   0.1500 
 38 H        5.5620     4.1850    -0.1730 H     1 <1>   0.0800 
 39 H        5.6150     4.4810     1.5470 H     1 <1>   0.0800 
 40 H        4.7600     5.5800     0.4960 H     1 <1>   0.0800 
 41 H        4.2640     0.4890    -0.7210 H     1 <1>   0.3700 
 42 H        7.7650     0.8610     0.2220 H     1 <1>   0.1500 
 43 H        6.5340    -3.2600    -2.1380 H     1 <1>   0.1500 
 44 H        3.7560    -1.8050    -0.6460 H     1 <1>   0.0800 
 45 H        4.2650    -2.7830    -1.9920 H     1 <1>   0.0800 
 46 H        3.9370    -1.0900    -2.2390 H     1 <1>   0.0800 
 47 H        9.4930    -0.7150    -0.4610 H     1 <1>   0.1500 
 48 H        8.8800    -2.7820    -1.6490 H     1 <1>   0.1500 
@<TRIPOS>BOND
  1   1   2  2   
  2   1   3  2   
  3   1   4  am  
  4   1   5  1   
  5   4   6  1   
  6   4   7  1   
  7   5   8  ar  
  8   5   9  ar  
  9   6  10  1   
 10   6  27  1   
 11   6  28  1   
 12   7  11  1   
 13   7  29  1   
 14   7  30  1   
 15   8  12  ar  
 16   8  31  1   
 17   9  13  ar  
 18   9  32  1   
 19  10  14  1   
 20  10  33  1   
 21  10  34  1   
 22  11  14  1   
 23  11  35  1   
 24  11  36  1   
 25  12  15  ar  
 26  12  16  1   
 27  13  15  ar  
 28  13  37  1   
 29  15  17  1   
 30  16  18  2   
 31  16  19  am  
 32  17  38  1   
 33  17  39  1   
 34  17  40  1   
 35  19  20  1   
 36  19  41  1   
 37  20  21  ar  
 38  20  22  ar  
 39  21  23  ar  
 40  21  24  1   
 41  22  25  ar  
 42  22  42  1   
 43  23  26  ar  
 44  23  43  1   
 45  24  44  1   
 46  24  45  1   
 47  24  46  1   
 48  25  26  ar  
 49  25  47  1   
 50  26  48  1   
@<TRIPOS>SUBSTRUCTURE
  1 ****   8 GROUP 4 **** **** 0

# MOE 2024.06 (io_trps.svl 2023.06)
