@<TRIPOS>MOLECULE
NONAME
47 49 1 0 0 
SMALL
USER_CHARGES


@<TRIPOS>ATOM
  1 CL      -1.8820     0.2650     0.5970 Cl    1 <1>  -0.1770 
  2 C       -2.7530    -1.0670    -0.1140 C.ar  1 <1>   0.1770 
  3 C       -2.6440    -2.3210     0.4570 C.ar  1 <1>  -0.1500 
  4 C       -3.5380    -0.8500    -1.2300 C.ar  1 <1>  -0.1500 
  5 C       -3.3420    -3.3870    -0.0950 C.ar  1 <1>  -0.1440 
  6 C       -4.2260    -1.9140    -1.7870 C.ar  1 <1>  -0.1500 
  7 C       -4.1270    -3.1750    -1.2230 C.ar  1 <1>  -0.1500 
  8 C       -3.2600    -4.7730     0.5170 C.3   1 <1>   0.4870 
  9 N       -4.0410    -4.7990     1.7930 N.4   1 <1>  -0.9590 
 10 C       -3.9180    -6.1360     2.4890 C.3   1 <1>   0.3430 
 11 C       -5.4800    -4.3650     1.5710 C.3   1 <1>   0.3430 
 12 C       -4.9190    -7.2280     2.0110 C.3   1 <1>   0.1960 
 13 C       -6.5190    -5.3640     2.1290 C.3   1 <1>   0.1960 
 14 N       -6.2650    -6.7310     1.6350 N.am  1 <1>  -0.8490 
 15 S       -6.6350    -6.9160    -0.0160 S.o2  1 <1>   1.4470 
 16 O       -7.8180    -6.1240    -0.2540 O.2   1 <1>  -0.6500 
 17 O       -5.4180    -6.5500    -0.7120 O.2   1 <1>  -0.6500 
 18 C       -6.9840    -8.6860    -0.1840 C.ar  1 <1>  -0.0090 
 19 C       -7.8750    -9.3230     0.6730 C.ar  1 <1>  -0.1500 
 20 C       -6.3720    -9.4520    -1.1710 C.ar  1 <1>  -0.1500 
 21 C       -8.1350   -10.6770     0.5580 C.ar  1 <1>  -0.1500 
 22 C       -6.6250   -10.8070    -1.2940 C.ar  1 <1>  -0.1500 
 23 C       -7.5120   -11.4300    -0.4220 C.ar  1 <1>   0.0830 
 24 O       -7.8160   -12.7490    -0.4660 O.3   1 <1>  -0.3620 
 25 C       -7.2700   -13.5990    -1.4500 C.3   1 <1>   0.0400 
 26 H       -2.0120    -2.4380     1.3190 H     1 <1>   0.1500 
 27 H       -3.6040     0.1360    -1.6560 H     1 <1>   0.1500 
 28 H       -4.8370    -1.7590    -2.6620 H     1 <1>   0.1500 
 29 H       -4.6690    -3.9910    -1.6770 H     1 <1>   0.1500 
 30 H       -2.2260    -5.0090     0.7120 H     1 <1>   0.0800 
 31 H       -3.6360    -5.4990    -0.1800 H     1 <1>   0.0800 
 32 H       -3.6060    -4.0830     2.3870 H     1 <1>   0.4500 
 33 H       -4.1010    -5.9860     3.5400 H     1 <1>   0.0800 
 34 H       -2.9120    -6.5130     2.4000 H     1 <1>   0.0800 
 35 H       -5.6680    -4.2550     0.5150 H     1 <1>   0.0800 
 36 H       -5.6410    -3.4000     2.0220 H     1 <1>   0.0800 
 37 H       -5.0370    -7.9390     2.8110 H     1 <1>   0.0800 
 38 H       -4.4750    -7.7740     1.1950 H     1 <1>   0.0800 
 39 H       -7.5120    -5.0430     1.8580 H     1 <1>   0.0800 
 40 H       -6.4800    -5.3590     3.2040 H     1 <1>   0.0800 
 41 H       -8.3750    -8.7540     1.4400 H     1 <1>   0.1500 
 42 H       -5.6860    -8.9840    -1.8570 H     1 <1>   0.1500 
 43 H       -8.8250   -11.1610     1.2260 H     1 <1>   0.1500 
 44 H       -6.1290   -11.3600    -2.0700 H     1 <1>   0.1500 
 45 H       -7.6670   -14.5860    -1.2950 H     1 <1>   0.0800 
 46 H       -6.2000   -13.6140    -1.3450 H     1 <1>   0.0800 
 47 H       -7.5580   -13.2380    -2.4220 H     1 <1>   0.0800 
@<TRIPOS>BOND
  1   1   2  1   
  2   2   3  ar  
  3   2   4  ar  
  4   3   5  ar  
  5   3  26  1   
  6   4   6  ar  
  7   4  27  1   
  8   5   7  ar  
  9   5   8  1   
 10   6   7  ar  
 11   6  28  1   
 12   7  29  1   
 13   8   9  1   
 14   8  30  1   
 15   8  31  1   
 16   9  10  1   
 17   9  11  1   
 18   9  32  1   
 19  10  12  1   
 20  10  33  1   
 21  10  34  1   
 22  11  13  1   
 23  11  35  1   
 24  11  36  1   
 25  12  14  1   
 26  12  37  1   
 27  12  38  1   
 28  13  14  1   
 29  13  39  1   
 30  13  40  1   
 31  14  15  am  
 32  15  16  2   
 33  15  17  2   
 34  15  18  1   
 35  18  19  ar  
 36  18  20  ar  
 37  19  21  ar  
 38  19  41  1   
 39  20  22  ar  
 40  20  42  1   
 41  21  23  ar  
 42  21  43  1   
 43  22  23  ar  
 44  22  44  1   
 45  23  24  1   
 46  24  25  1   
 47  25  45  1   
 48  25  46  1   
 49  25  47  1   
@<TRIPOS>SUBSTRUCTURE
  1 ****  17 GROUP 4 **** **** 0

# MOE 2024.06 (io_trps.svl 2023.06)
