@<TRIPOS>MOLECULE
NONAME
48 50 1 0 0 
SMALL
USER_CHARGES


@<TRIPOS>ATOM
  1 S        0.0140    -0.2350     1.5230 S.o2  1 <1>   1.4470 
  2 O        0.5650    -1.4910     1.9860 O.2   1 <1>  -0.6500 
  3 O       -0.5560     0.6830     2.4840 O.2   1 <1>  -0.6500 
  4 N        1.2700     0.5810     0.7270 N.am  1 <1>  -0.8490 
  5 C       -1.1940    -0.5320     0.2000 C.ar  1 <1>  -0.0090 
  6 C        2.0300    -0.3090    -0.1560 C.3   1 <1>   0.1960 
  7 C        2.1430     1.2740     1.6770 C.3   1 <1>   0.1960 
  8 C       -1.7660    -1.7900     0.0170 C.ar  1 <1>  -0.1500 
  9 C       -1.5770     0.5000    -0.6560 C.ar  1 <1>  -0.1500 
 10 C        3.0420     0.4960    -0.9720 C.3   1 <1>  -0.1600 
 11 C        3.1750     2.1240     0.9300 C.3   1 <1>  -0.1600 
 12 C       -2.6890    -2.0210    -0.9910 C.ar  1 <1>  -0.1500 
 13 C       -2.4980     0.2890    -1.6700 C.ar  1 <1>  -0.1500 
 14 C        3.9990     1.2760    -0.0530 C.3   1 <1>  -0.0190 
 15 C       -3.0370    -0.9730    -1.8190 C.ar  1 <1>   0.1900 
 16 C        4.9920     2.1420    -0.8280 C.2   1 <1>   0.5690 
 17 F       -3.9040    -1.1820    -2.7720 F     1 <1>  -0.1900 
 18 O        4.6200     2.7220    -1.8200 O.2   1 <1>  -0.5700 
 19 N        6.2630     2.2210    -0.3350 N.am  1 <1>  -0.5470 
 20 C        7.4240     2.9020    -0.7440 C.ar  1 <1>   0.1170 
 21 C        8.5600     2.7980     0.0690 C.ar  1 <1>   0.0820 
 22 C        7.4990     3.6640    -1.9050 C.ar  1 <1>  -0.1500 
 23 O        8.4470     2.0370     1.2020 O.3   1 <1>  -0.3620 
 24 C        9.7360     3.4510    -0.2880 C.ar  1 <1>  -0.1500 
 25 C        8.6710     4.3110    -2.2540 C.ar  1 <1>  -0.1500 
 26 C        9.5370     1.8760     2.0840 C.3   1 <1>   0.0400 
 27 C        9.7890     4.2050    -1.4470 C.ar  1 <1>  -0.1500 
 28 H        1.3590    -0.8120    -0.8340 H     1 <1>   0.0800 
 29 H        2.5420    -1.0590     0.4260 H     1 <1>   0.0800 
 30 H        2.6380     0.5550     2.3100 H     1 <1>   0.0800 
 31 H        1.5570     1.9250     2.3040 H     1 <1>   0.0800 
 32 H       -1.4860    -2.5980     0.6730 H     1 <1>   0.1500 
 33 H       -1.1460     1.4790    -0.5240 H     1 <1>   0.1500 
 34 H        2.5070     1.1770    -1.6120 H     1 <1>   0.0800 
 35 H        3.6070    -0.1680    -1.6020 H     1 <1>   0.0800 
 36 H        3.8280     2.5970     1.6410 H     1 <1>   0.0800 
 37 H        2.6590     2.9020     0.3920 H     1 <1>   0.0800 
 38 H       -3.1310    -2.9910    -1.1330 H     1 <1>   0.1500 
 39 H       -2.7930     1.0850    -2.3320 H     1 <1>   0.1500 
 40 H        4.5610     0.5560     0.5150 H     1 <1>   0.0800 
 41 H        6.4370     1.7040     0.5280 H     1 <1>   0.3700 
 42 H        6.6450     3.7600    -2.5480 H     1 <1>   0.1500 
 43 H       10.6200     3.3880     0.3160 H     1 <1>   0.1500 
 44 H        8.7090     4.8970    -3.1570 H     1 <1>   0.1500 
 45 H        9.2220     1.2460     2.8960 H     1 <1>   0.0800 
 46 H        9.8270     2.8410     2.4620 H     1 <1>   0.0800 
 47 H       10.3500     1.4090     1.5550 H     1 <1>   0.0800 
 48 H       10.6990     4.7100    -1.7220 H     1 <1>   0.1500 
@<TRIPOS>BOND
  1   1   2  2   
  2   1   3  2   
  3   1   4  am  
  4   1   5  1   
  5   4   6  1   
  6   4   7  1   
  7   5   8  ar  
  8   5   9  ar  
  9   6  10  1   
 10   6  28  1   
 11   6  29  1   
 12   7  11  1   
 13   7  30  1   
 14   7  31  1   
 15   8  12  ar  
 16   8  32  1   
 17   9  13  ar  
 18   9  33  1   
 19  10  14  1   
 20  10  34  1   
 21  10  35  1   
 22  11  14  1   
 23  11  36  1   
 24  11  37  1   
 25  12  15  ar  
 26  12  38  1   
 27  13  15  ar  
 28  13  39  1   
 29  14  16  1   
 30  14  40  1   
 31  15  17  1   
 32  16  18  2   
 33  16  19  am  
 34  19  20  1   
 35  19  41  1   
 36  20  21  ar  
 37  20  22  ar  
 38  21  23  1   
 39  21  24  ar  
 40  22  25  ar  
 41  22  42  1   
 42  23  26  1   
 43  24  27  ar  
 44  24  43  1   
 45  25  27  ar  
 46  25  44  1   
 47  26  45  1   
 48  26  46  1   
 49  26  47  1   
 50  27  48  1   
@<TRIPOS>SUBSTRUCTURE
  1 ****  14 GROUP 4 **** **** 0

# MOE 2024.06 (io_trps.svl 2023.06)
