@<TRIPOS>MOLECULE
NONAME
56 59 1 0 0 
SMALL
USER_CHARGES


@<TRIPOS>ATOM
  1 O        1.7780     1.4060    -2.3970 O.3   1 <1>  -0.3630 
  2 C        2.2020     1.4940    -1.1040 C.ar  1 <1>   0.0830 
  3 C        0.4150     1.4990    -2.7480 C.3   1 <1>   0.0400 
  4 C        1.5350     2.1370    -0.0460 C.ar  1 <1>   0.0830 
  5 C        3.4190     0.8790    -0.8660 C.ar  1 <1>  -0.1500 
  6 O        0.3520     2.7800    -0.2720 O.3   1 <1>  -0.3630 
  7 C        2.1140     2.1160     1.2210 C.ar  1 <1>  -0.1500 
  8 C        3.9950     0.8770     0.3930 C.ar  1 <1>  -0.1430 
  9 C       -0.3270     3.4940     0.7390 C.3   1 <1>   0.0400 
 10 C        3.3310     1.4930     1.4380 C.ar  1 <1>  -0.1500 
 11 C        5.3440     0.2180     0.6020 C.3   1 <1>  -0.0170 
 12 C        6.4210     1.1500     0.0390 C.3   1 <1>   0.3430 
 13 N        7.8070     0.6250     0.2490 N.4   1 <1>  -0.9590 
 14 C        8.7790     1.7590     0.0560 C.3   1 <1>   0.4230 
 15 C        8.0410    -0.6020    -0.5760 C.3   1 <1>   0.2630 
 16 C        9.1640     2.1200    -1.4020 C.3   1 <1>  -0.0800 
 17 C       10.0560     1.6270     0.9150 C.3   1 <1>  -0.0800 
 18 C       10.2300     1.1780    -2.0170 C.3   1 <1>  -0.1600 
 19 C        9.7890     3.5330    -1.3390 C.3   1 <1>  -0.1600 
 20 C       11.0960     0.6650     0.2980 C.3   1 <1>  -0.1600 
 21 C       10.6860     3.0360     0.9790 C.3   1 <1>  -0.1600 
 22 C       11.4800     1.1310    -1.1200 C.3   1 <1>  -0.0800 
 23 C       11.0470     3.5200    -0.4410 C.3   1 <1>  -0.0800 
 24 C       12.0790     2.5470    -1.0400 C.3   1 <1>  -0.1600 
 25 H        0.2990     1.1200    -3.7470 H     1 <1>   0.0800 
 26 H        0.1170     2.5310    -2.7150 H     1 <1>   0.0800 
 27 H       -0.1660     0.9100    -2.0600 H     1 <1>   0.0800 
 28 H        3.9040     0.3970    -1.6960 H     1 <1>   0.1500 
 29 H        1.6340     2.5820     2.0600 H     1 <1>   0.1500 
 30 H       -1.2110     3.9250     0.3050 H     1 <1>   0.0800 
 31 H        0.3150     4.2750     1.1070 H     1 <1>   0.0800 
 32 H       -0.6010     2.8130     1.5240 H     1 <1>   0.0800 
 33 H        3.7480     1.4980     2.4310 H     1 <1>   0.1500 
 34 H        5.3460    -0.7280     0.0920 H     1 <1>   0.0800 
 35 H        5.5080     0.0500     1.6510 H     1 <1>   0.0800 
 36 H        6.3190     2.1060     0.5270 H     1 <1>   0.0800 
 37 H        6.2430     1.3030    -1.0140 H     1 <1>   0.0800 
 38 H        7.8920     0.3600     1.2380 H     1 <1>   0.4500 
 39 H        8.2820     2.6340     0.4430 H     1 <1>   0.0800 
 40 H        7.8930    -0.3810    -1.6210 H     1 <1>   0.0800 
 41 H        7.3560    -1.3840    -0.2920 H     1 <1>   0.0800 
 42 H        9.0420    -0.9690    -0.4410 H     1 <1>   0.0800 
 43 H        8.2880     2.1570    -2.0250 H     1 <1>   0.0800 
 44 H        9.8050     1.3170     1.9140 H     1 <1>   0.0800 
 45 H        9.8600     0.1860    -2.1740 H     1 <1>   0.0800 
 46 H       10.5110     1.5480    -2.9890 H     1 <1>   0.0800 
 47 H        9.0760     4.2410    -0.9530 H     1 <1>   0.0800 
 48 H       10.0570     3.8610    -2.3300 H     1 <1>   0.0800 
 49 H       10.7310    -0.3430     0.2750 H     1 <1>   0.0800 
 50 H       11.9800     0.6560     0.9140 H     1 <1>   0.0800 
 51 H       10.0040     3.7320     1.4370 H     1 <1>   0.0800 
 52 H       11.5740     3.0130     1.5890 H     1 <1>   0.0800 
 53 H       12.2090     0.4590    -1.5420 H     1 <1>   0.0800 
 54 H       11.4720     4.5090    -0.3930 H     1 <1>   0.0800 
 55 H       12.3670     2.8800    -2.0230 H     1 <1>   0.0800 
 56 H       12.9670     2.5360    -0.4320 H     1 <1>   0.0800 
@<TRIPOS>BOND
  1   1   2  1   
  2   1   3  1   
  3   2   4  ar  
  4   2   5  ar  
  5   3  25  1   
  6   3  26  1   
  7   3  27  1   
  8   4   6  1   
  9   4   7  ar  
 10   5   8  ar  
 11   5  28  1   
 12   6   9  1   
 13   7  10  ar  
 14   7  29  1   
 15   8  10  ar  
 16   8  11  1   
 17   9  30  1   
 18   9  31  1   
 19   9  32  1   
 20  10  33  1   
 21  11  12  1   
 22  11  34  1   
 23  11  35  1   
 24  12  13  1   
 25  12  36  1   
 26  12  37  1   
 27  13  14  1   
 28  13  15  1   
 29  13  38  1   
 30  14  16  1   
 31  14  17  1   
 32  14  39  1   
 33  15  40  1   
 34  15  41  1   
 35  15  42  1   
 36  16  18  1   
 37  16  19  1   
 38  16  43  1   
 39  17  20  1   
 40  17  21  1   
 41  17  44  1   
 42  18  22  1   
 43  18  45  1   
 44  18  46  1   
 45  19  23  1   
 46  19  47  1   
 47  19  48  1   
 48  20  22  1   
 49  20  49  1   
 50  20  50  1   
 51  21  23  1   
 52  21  51  1   
 53  21  52  1   
 54  22  24  1   
 55  22  53  1   
 56  23  24  1   
 57  23  54  1   
 58  24  55  1   
 59  24  56  1   
@<TRIPOS>SUBSTRUCTURE
  1 ****  12 GROUP 4 **** **** 0

# MOE 2024.06 (io_trps.svl 2023.06)
