@<TRIPOS>MOLECULE
NONAME
29 29 1 0 0 
SMALL
USER_CHARGES


@<TRIPOS>ATOM
  1 CL      -2.2830    -2.0500     2.1950 Cl    1 <1>  -0.1770 
  2 C       -2.0740    -1.8860     0.4640 C.ar  1 <1>   0.1770 
  3 C       -0.9620    -2.4640    -0.1570 C.ar  1 <1>   0.1990 
  4 C       -3.0320    -1.1840    -0.2460 C.ar  1 <1>  -0.1500 
  5 N        0.0000    -3.1640     0.5730 N.am  1 <1>  -0.6930 
  6 C       -0.8410    -2.3180    -1.5350 C.ar  1 <1>  -0.1500 
  7 C       -2.8930    -1.0470    -1.6180 C.ar  1 <1>  -0.1500 
  8 S        0.1320    -4.8840     0.4520 S.o2  1 <1>   1.3330 
  9 C        1.2700    -2.4460     0.9110 C.3   1 <1>   0.2570 
 10 C       -1.7980    -1.6180    -2.2430 C.ar  1 <1>   0.1770 
 11 O        1.1640    -5.2880     1.3740 O.2   1 <1>  -0.6500 
 12 O        0.2100    -5.2020    -0.9520 O.2   1 <1>  -0.6500 
 13 C       -1.4310    -5.4270     1.1070 C.3   1 <1>  -0.1350 
 14 C        2.2880    -2.4190    -0.2300 C.2   1 <1>   0.6590 
 15 CL      -1.6290    -1.4480    -3.9710 Cl    1 <1>  -0.1770 
 16 O        2.3620    -1.4800    -0.9830 O.2   1 <1>  -0.5700 
 17 O        3.0750    -3.4810    -0.3520 O.3   1 <1>  -0.4300 
 18 C        3.9930    -3.6160    -1.4140 C.3   1 <1>   0.0400 
 19 H       -3.8730    -0.7520     0.2670 H     1 <1>   0.1500 
 20 H       -0.0040    -2.7490    -2.0560 H     1 <1>   0.1500 
 21 H       -3.6210    -0.5070    -2.1990 H     1 <1>   0.1500 
 22 H        1.7270    -2.9010     1.7710 H     1 <1>   0.0800 
 23 H        1.0350    -1.4300     1.1690 H     1 <1>   0.0800 
 24 H       -1.5550    -5.0690     2.1110 H     1 <1>   0.0800 
 25 H       -1.4730    -6.4980     1.1160 H     1 <1>   0.0800 
 26 H       -2.2370    -5.0570     0.5050 H     1 <1>   0.0800 
 27 H        4.5080    -4.5530    -1.3000 H     1 <1>   0.0800 
 28 H        4.6920    -2.7990    -1.3790 H     1 <1>   0.0800 
 29 H        3.4510    -3.6040    -2.3440 H     1 <1>   0.0800 
@<TRIPOS>BOND
  1   1   2  1   
  2   2   3  ar  
  3   2   4  ar  
  4   3   5  1   
  5   3   6  ar  
  6   4   7  ar  
  7   4  19  1   
  8   5   8  am  
  9   5   9  1   
 10   6  10  ar  
 11   6  20  1   
 12   7  10  ar  
 13   7  21  1   
 14   8  11  2   
 15   8  12  2   
 16   8  13  1   
 17   9  14  1   
 18   9  22  1   
 19   9  23  1   
 20  10  15  1   
 21  13  24  1   
 22  13  25  1   
 23  13  26  1   
 24  14  16  2   
 25  14  17  1   
 26  17  18  1   
 27  18  27  1   
 28  18  28  1   
 29  18  29  1   
@<TRIPOS>SUBSTRUCTURE
  1 ****   3 GROUP 4 **** **** 0

# MOE 2024.06 (io_trps.svl 2023.06)
