@<TRIPOS>MOLECULE
NONAME
39 40 1 0 0 
SMALL
USER_CHARGES


@<TRIPOS>ATOM
  1 CL      -0.8860    -1.7110    -1.1610 Cl    1 <1>  -0.1770 
  2 C        0.7830    -2.1060    -0.8420 C.ar  1 <1>   0.1770 
  3 C        1.1030    -2.8620     0.2680 C.ar  1 <1>  -0.1500 
  4 C        1.7640    -1.6580    -1.7040 C.ar  1 <1>  -0.1500 
  5 C        2.4310    -3.1710     0.5150 C.ar  1 <1>  -0.1500 
  6 C        3.0870    -1.9770    -1.4430 C.ar  1 <1>  -0.1500 
  7 C        3.4490    -2.7360    -0.3320 C.ar  1 <1>  -0.0090 
  8 S        5.1960    -3.1540    -0.0210 S.o2  1 <1>   1.4970 
  9 O        5.5830    -3.9590    -1.1670 O.2   1 <1>  -0.6500 
 10 O        5.2280    -3.6990     1.3260 O.2   1 <1>  -0.6500 
 11 N        5.8440    -1.6370    -0.0860 N.2   1 <1>  -0.6380 
 12 C        7.1260    -1.5730     0.0320 C.2   1 <1>   0.8720 
 13 N        7.6250    -0.3320    -0.0750 N.2   1 <1>  -0.6610 
 14 N        7.8960    -2.6580     0.2420 N.2   1 <1>  -0.6610 
 15 C        8.9160    -0.2320     0.0030 C.2   1 <1>   0.4050 
 16 C        9.1510    -2.4060     0.3230 C.2   1 <1>   0.4050 
 17 N        9.7250    -1.2500     0.1980 N.2   1 <1>  -0.8100 
 18 N        9.4710     1.0290    -0.0970 N.pl3 1 <1>  -0.7880 
 19 N        9.9840    -3.4310     0.4890 N.pl3 1 <1>  -0.8500 
 20 C        8.9980     2.0040     0.9130 C.3   1 <1>   0.2090 
 21 C       10.8990     1.1250    -0.4900 C.3   1 <1>   0.2090 
 22 C        8.0630     3.0090     0.2470 C.3   1 <1>  -0.2400 
 23 C       11.1650     2.4200    -1.2530 C.3   1 <1>  -0.2400 
 24 H        0.3240    -3.2010     0.9270 H     1 <1>   0.1500 
 25 H        1.4980    -1.0690    -2.5630 H     1 <1>   0.1500 
 26 H        2.6840    -3.7600     1.3820 H     1 <1>   0.1500 
 27 H        3.8610    -1.6300    -2.1100 H     1 <1>   0.1500 
 28 H        9.6150    -4.2680     0.0540 H     1 <1>   0.4000 
 29 H       10.9050    -3.1470     0.1720 H     1 <1>   0.4000 
 30 H        9.8360     2.5070     1.3610 H     1 <1>   0.0800 
 31 H        8.4690     1.4810     1.6930 H     1 <1>   0.0800 
 32 H       11.1420     0.2950    -1.1320 H     1 <1>   0.0800 
 33 H       11.5160     1.0580     0.3890 H     1 <1>   0.0800 
 34 H        8.5760     3.5420    -0.5310 H     1 <1>   0.0800 
 35 H        7.7020     3.7090     0.9760 H     1 <1>   0.0800 
 36 H        7.2250     2.4860    -0.1770 H     1 <1>   0.0800 
 37 H       10.4910     2.4870    -2.0880 H     1 <1>   0.0800 
 38 H       12.1730     2.4180    -1.6210 H     1 <1>   0.0800 
 39 H       11.0360     3.2720    -0.6130 H     1 <1>   0.0800 
@<TRIPOS>BOND
  1   1   2  1   
  2   2   3  ar  
  3   2   4  ar  
  4   3   5  ar  
  5   3  24  1   
  6   4   6  ar  
  7   4  25  1   
  8   5   7  ar  
  9   5  26  1   
 10   6   7  ar  
 11   6  27  1   
 12   7   8  1   
 13   8   9  2   
 14   8  10  2   
 15   8  11  1   
 16  11  12  2   
 17  12  13  1   
 18  12  14  1   
 19  13  15  2   
 20  14  16  2   
 21  15  17  1   
 22  15  18  1   
 23  16  17  1   
 24  16  19  1   
 25  18  20  1   
 26  18  21  1   
 27  19  28  1   
 28  19  29  1   
 29  20  22  1   
 30  20  30  1   
 31  20  31  1   
 32  21  23  1   
 33  21  32  1   
 34  21  33  1   
 35  22  34  1   
 36  22  35  1   
 37  22  36  1   
 38  23  37  1   
 39  23  38  1   
 40  23  39  1   
@<TRIPOS>SUBSTRUCTURE
  1 ****  11 GROUP 4 **** **** 0

# MOE 2024.06 (io_trps.svl 2023.06)
