@<TRIPOS>MOLECULE
NONAME
41 42 1 0 0 
SMALL
USER_CHARGES


@<TRIPOS>ATOM
  1 BR       1.9320    -0.4110     3.1630 Br    1 <1>  -0.1110 
  2 C        2.7300     0.7710     1.8740 C.ar  1 <1>   0.1110 
  3 C        3.1300     2.0290     2.2780 C.ar  1 <1>  -0.1500 
  4 C        2.8850     0.3340     0.5730 C.ar  1 <1>  -0.1500 
  5 C        3.7040     2.8710     1.3410 C.ar  1 <1>  -0.1500 
  6 C        3.4620     1.1930    -0.3480 C.ar  1 <1>  -0.1500 
  7 C        3.8840     2.4700     0.0180 C.ar  1 <1>  -0.0090 
  8 S        4.6400     3.5900    -1.1940 S.o2  1 <1>   1.4470 
  9 O        3.7710     4.7290    -1.3900 O.2   1 <1>  -0.6500 
 10 O        5.0980     2.8430    -2.3470 O.2   1 <1>  -0.6500 
 11 N        6.0310     4.1440    -0.3950 N.am  1 <1>  -0.8490 
 12 C        6.5600     5.3580    -1.0230 C.3   1 <1>   0.1960 
 13 C        7.0560     3.1010    -0.2900 C.3   1 <1>   0.1960 
 14 C        7.7210     5.9220    -0.1990 C.3   1 <1>  -0.1600 
 15 C        8.2220     3.5900     0.5710 C.3   1 <1>  -0.1600 
 16 C        8.8340     4.8800    -0.0010 C.3   1 <1>  -0.0190 
 17 C        9.9560     5.4180     0.8850 C.2   1 <1>   0.5690 
 18 O        9.7370     5.6590     2.0470 O.2   1 <1>  -0.5700 
 19 N       11.1810     5.6190     0.3390 N.am  1 <1>  -0.7300 
 20 C       12.3510     6.1110     1.0760 C.3   1 <1>   0.2780 
 21 C       13.5700     5.4460     0.4770 C.2   1 <1>  -0.2880 
 22 C       14.5590     6.0730    -0.1700 C.2   1 <1>  -0.3000 
 23 H        2.9930     2.3410     3.2980 H     1 <1>   0.1500 
 24 H        2.5610    -0.6520     0.2900 H     1 <1>   0.1500 
 25 H        4.0220     3.8590     1.6360 H     1 <1>   0.1500 
 26 H        3.5890     0.8670    -1.3680 H     1 <1>   0.1500 
 27 H        5.7870     6.1070    -1.0790 H     1 <1>   0.0800 
 28 H        6.8860     5.1370    -2.0270 H     1 <1>   0.0800 
 29 H        7.4130     2.8340    -1.2720 H     1 <1>   0.0800 
 30 H        6.6340     2.2200     0.1650 H     1 <1>   0.0800 
 31 H        7.3430     6.2350     0.7600 H     1 <1>   0.0800 
 32 H        8.1190     6.7900    -0.6910 H     1 <1>   0.0800 
 33 H        8.9760     2.8240     0.6230 H     1 <1>   0.0800 
 34 H        7.8650     3.7660     1.5720 H     1 <1>   0.0800 
 35 H        9.2490     4.6490    -0.9660 H     1 <1>   0.0800 
 36 H       11.3590     5.4280    -0.6470 H     1 <1>   0.3700 
 37 H       12.2660     5.8690     2.1230 H     1 <1>   0.0800 
 38 H       12.4140     7.1810     0.9730 H     1 <1>   0.0800 
 39 H       13.5640     4.3800     0.6320 H     1 <1>   0.1500 
 40 H       15.4170     5.5720    -0.5840 H     1 <1>   0.1500 
 41 H       14.5970     7.1350    -0.3390 H     1 <1>   0.1500 
@<TRIPOS>BOND
  1   1   2  1   
  2   2   3  ar  
  3   2   4  ar  
  4   3   5  ar  
  5   3  23  1   
  6   4   6  ar  
  7   4  24  1   
  8   5   7  ar  
  9   5  25  1   
 10   6   7  ar  
 11   6  26  1   
 12   7   8  1   
 13   8   9  2   
 14   8  10  2   
 15   8  11  am  
 16  11  12  1   
 17  11  13  1   
 18  12  14  1   
 19  12  27  1   
 20  12  28  1   
 21  13  15  1   
 22  13  29  1   
 23  13  30  1   
 24  14  16  1   
 25  14  31  1   
 26  14  32  1   
 27  15  16  1   
 28  15  33  1   
 29  15  34  1   
 30  16  17  1   
 31  16  35  1   
 32  17  18  2   
 33  17  19  am  
 34  19  20  1   
 35  19  36  1   
 36  20  21  1   
 37  20  37  1   
 38  20  38  1   
 39  21  22  2   
 40  21  39  1   
 41  22  40  1   
 42  22  41  1   
@<TRIPOS>SUBSTRUCTURE
  1 ****  13 GROUP 4 **** **** 0

# MOE 2024.06 (io_trps.svl 2023.06)
