@<TRIPOS>MOLECULE
NONAME
28 28 1 0 0 
SMALL
USER_CHARGES


@<TRIPOS>ATOM
  1 CL      -0.1080    -0.0920    -0.2370 Cl    1 <1>  -0.1770 
  2 C       -1.7740     0.4010    -0.1070 C.ar  1 <1>   0.1770 
  3 C       -2.0820     1.7420     0.0090 C.ar  1 <1>  -0.1500 
  4 C       -2.7700    -0.5570    -0.1190 C.ar  1 <1>  -0.1500 
  5 C       -3.4080     2.1250     0.1090 C.ar  1 <1>  -0.1500 
  6 C       -4.0920    -0.1620    -0.0170 C.ar  1 <1>  -0.1500 
  7 C       -4.4450     1.1880     0.0920 C.ar  1 <1>   0.0860 
  8 C       -5.8310     1.6140     0.1880 C.2   1 <1>   0.5440 
  9 O       -6.1240     2.6380     0.7710 O.2   1 <1>  -0.5700 
 10 N       -6.8280     0.8800    -0.3930 N.am  1 <1>  -0.7300 
 11 C       -8.2700     1.2010    -0.3330 C.3   1 <1>   0.1400 
 12 C       -9.0590    -0.0870    -0.1030 C.3   1 <1>  -0.1600 
 13 C      -10.5650     0.1930    -0.0300 C.3   1 <1>  -0.1600 
 14 C      -11.3550    -1.0980     0.2020 C.3   1 <1>  -0.2400 
 15 H       -1.2930     2.4730     0.0210 H     1 <1>   0.1500 
 16 H       -2.5050    -1.5970    -0.2030 H     1 <1>   0.1500 
 17 H       -3.6550     3.1700     0.2030 H     1 <1>   0.1500 
 18 H       -4.8620    -0.9140    -0.0120 H     1 <1>   0.1500 
 19 H       -6.5810     0.0990    -1.0000 H     1 <1>   0.3700 
 20 H       -8.5680     1.6630    -1.2590 H     1 <1>   0.0800 
 21 H       -8.4580     1.8960     0.4700 H     1 <1>   0.0800 
 22 H       -8.7360    -0.5350     0.8210 H     1 <1>   0.0800 
 23 H       -8.8650    -0.7740    -0.9080 H     1 <1>   0.0800 
 24 H      -10.8960     0.6500    -0.9470 H     1 <1>   0.0800 
 25 H      -10.7660     0.8790     0.7760 H     1 <1>   0.0800 
 26 H      -11.1880    -1.7920    -0.6030 H     1 <1>   0.0800 
 27 H      -12.4080    -0.8810     0.2520 H     1 <1>   0.0800 
 28 H      -11.0580    -1.5610     1.1260 H     1 <1>   0.0800 
@<TRIPOS>BOND
  1   1   2  1   
  2   2   3  ar  
  3   2   4  ar  
  4   3   5  ar  
  5   3  15  1   
  6   4   6  ar  
  7   4  16  1   
  8   5   7  ar  
  9   5  17  1   
 10   6   7  ar  
 11   6  18  1   
 12   7   8  1   
 13   8   9  2   
 14   8  10  am  
 15  10  11  1   
 16  10  19  1   
 17  11  12  1   
 18  11  20  1   
 19  11  21  1   
 20  12  13  1   
 21  12  22  1   
 22  12  23  1   
 23  13  14  1   
 24  13  24  1   
 25  13  25  1   
 26  14  26  1   
 27  14  27  1   
 28  14  28  1   
@<TRIPOS>SUBSTRUCTURE
  1 ****   8 GROUP 4 **** **** 0

# MOE 2024.06 (io_trps.svl 2023.06)
