@<TRIPOS>MOLECULE
NONAME
31 31 1 0 0 
SMALL
USER_CHARGES


@<TRIPOS>ATOM
  1 F        7.7780    -3.2790    -0.7380 F     1 <1>  -0.3400 
  2 C        6.7710    -2.7180    -0.0770 C.3   1 <1>   1.1640 
  3 F        7.2270    -2.4520     1.1400 F     1 <1>  -0.3400 
  4 F        6.5570    -1.5450    -0.6610 F     1 <1>  -0.3400 
  5 C        5.5180    -3.6070    -0.0390 C.ar  1 <1>  -0.1440 
  6 C        4.2450    -3.0480    -0.0380 C.ar  1 <1>  -0.1500 
  7 C        5.6320    -4.9940     0.0060 C.ar  1 <1>  -0.1500 
  8 C        3.1110    -3.8440     0.0000 C.ar  1 <1>   0.0830 
  9 C        4.5050    -5.7960     0.0450 C.ar  1 <1>  -0.1500 
 10 O        1.9190    -3.1990    -0.0060 O.3   1 <1>  -0.3630 
 11 C        3.2450    -5.2280     0.0410 C.ar  1 <1>  -0.1500 
 12 C        0.7020    -3.9010     0.0220 C.3   1 <1>   0.1200 
 13 C       -0.4150    -2.8560    -0.0010 C.3   1 <1>   0.3430 
 14 N       -1.7710    -3.4830     0.0230 N.4   1 <1>  -0.9060 
 15 C       -2.8470    -2.4690     0.0010 C.3   1 <1>   0.3430 
 16 C       -4.1830    -3.1950     0.0270 C.3   1 <1>  -0.2400 
 17 H        4.1180    -1.9790    -0.0670 H     1 <1>   0.1500 
 18 H        6.6050    -5.4600     0.0120 H     1 <1>   0.1500 
 19 H        4.6140    -6.8670     0.0780 H     1 <1>   0.1500 
 20 H        2.3940    -5.8810     0.0720 H     1 <1>   0.1500 
 21 H        0.6730    -4.4820     0.9270 H     1 <1>   0.0800 
 22 H        0.6620    -4.5330    -0.8490 H     1 <1>   0.0800 
 23 H       -0.3090    -2.2590    -0.8930 H     1 <1>   0.0800 
 24 H       -0.3000    -2.2110     0.8560 H     1 <1>   0.0800 
 25 H       -1.8830    -4.0610     0.8660 H     1 <1>   0.4500 
 26 H       -1.8920    -4.1050    -0.7870 H     1 <1>   0.4500 
 27 H       -2.7760    -1.8670    -0.8920 H     1 <1>   0.0800 
 28 H       -2.7670    -1.8200     0.8600 H     1 <1>   0.0800 
 29 H       -4.2970    -3.8280    -0.8350 H     1 <1>   0.0800 
 30 H       -4.9790    -2.4710     0.0120 H     1 <1>   0.0800 
 31 H       -4.2880    -3.7800     0.9240 H     1 <1>   0.0800 
@<TRIPOS>BOND
  1   1   2  1   
  2   2   3  1   
  3   2   4  1   
  4   2   5  1   
  5   5   6  ar  
  6   5   7  ar  
  7   6   8  ar  
  8   6  17  1   
  9   7   9  ar  
 10   7  18  1   
 11   8  10  1   
 12   8  11  ar  
 13   9  11  ar  
 14   9  19  1   
 15  10  12  1   
 16  11  20  1   
 17  12  13  1   
 18  12  21  1   
 19  12  22  1   
 20  13  14  1   
 21  13  23  1   
 22  13  24  1   
 23  14  15  1   
 24  14  25  1   
 25  14  26  1   
 26  15  16  1   
 27  15  27  1   
 28  15  28  1   
 29  16  29  1   
 30  16  30  1   
 31  16  31  1   
@<TRIPOS>SUBSTRUCTURE
  1 ****   8 GROUP 4 **** **** 0

# MOE 2024.06 (io_trps.svl 2023.06)
