@<TRIPOS>MOLECULE
NONAME
48 50 1 0 0 
SMALL
USER_CHARGES


@<TRIPOS>ATOM
  1 O       -0.5320     1.8960    -2.2540 O.2   1 <1>  -0.5700 
  2 C       -0.8270     2.1990    -1.1200 C.2   1 <1>   0.5690 
  3 N        0.1160     2.6730    -0.2610 N.am  1 <1>  -0.7300 
  4 C       -2.3030     2.0730    -0.6580 C.3   1 <1>   0.0610 
  5 C        1.5580     2.7650    -0.5360 C.3   1 <1>   0.2200 
  6 C       -2.9240     0.7480    -1.1670 C.3   1 <1>  -0.1600 
  7 C       -2.4750     2.1140     0.8860 C.3   1 <1>  -0.1600 
  8 C       -3.0980     3.2480    -1.2600 C.3   1 <1>  -0.2400 
  9 C        2.3010     1.7190     0.3220 C.3   1 <1>  -0.0800 
 10 C        1.9920     4.1950    -0.2200 C.3   1 <1>  -0.2400 
 11 C       -2.3010    -0.4850    -0.4930 C.3   1 <1>  -0.1600 
 12 C       -1.8790     0.8850     1.5960 C.3   1 <1>  -0.1600 
 13 C        3.8440     1.7070     0.2210 C.3   1 <1>  -0.0800 
 14 C        1.9340     0.2570    -0.0200 C.3   1 <1>  -0.1600 
 15 C       -2.4600    -0.4170     1.0310 C.3   1 <1>  -0.1600 
 16 C        4.1570     0.3350     0.7980 C.3   1 <1>  -0.1600 
 17 C        4.3010     1.5140    -1.2370 C.3   1 <1>  -0.1600 
 18 C        3.3020    -0.4200    -0.2050 C.3   1 <1>  -0.0800 
 19 C        3.8950     0.0610    -1.5390 C.3   1 <1>  -0.1600 
 20 H       -0.1590     2.8860     0.6950 H     1 <1>   0.3700 
 21 H        1.7280     2.5660    -1.5810 H     1 <1>   0.0800 
 22 H       -2.7960     0.6700    -2.2330 H     1 <1>   0.0800 
 23 H       -3.9820     0.7480    -0.9710 H     1 <1>   0.0800 
 24 H       -3.5260     2.1470     1.1150 H     1 <1>   0.0800 
 25 H       -2.0430     3.0140     1.2880 H     1 <1>   0.0800 
 26 H       -4.1360     3.1950    -0.9850 H     1 <1>   0.0800 
 27 H       -3.0280     3.2280    -2.3330 H     1 <1>   0.0800 
 28 H       -2.6960     4.1850    -0.9150 H     1 <1>   0.0800 
 29 H        2.0510     1.9000     1.3540 H     1 <1>   0.0800 
 30 H        1.8590     4.4120     0.8250 H     1 <1>   0.0800 
 31 H        1.4150     4.8880    -0.8060 H     1 <1>   0.0800 
 32 H        3.0270     4.3300    -0.4710 H     1 <1>   0.0800 
 33 H       -1.2560    -0.5460    -0.7460 H     1 <1>   0.0800 
 34 H       -2.7790    -1.3750    -0.8640 H     1 <1>   0.0800 
 35 H       -2.0920     0.9410     2.6500 H     1 <1>   0.0800 
 36 H       -0.8100     0.8680     1.4820 H     1 <1>   0.0800 
 37 H        4.3260     2.5250     0.7280 H     1 <1>   0.0800 
 38 H        1.3360     0.1780    -0.9130 H     1 <1>   0.0800 
 39 H        1.3980    -0.1920     0.7970 H     1 <1>   0.0800 
 40 H       -1.9650    -1.2590     1.4820 H     1 <1>   0.0800 
 41 H       -3.5050    -0.4770     1.2800 H     1 <1>   0.0800 
 42 H        3.8130     0.2160     1.8120 H     1 <1>   0.0800 
 43 H        5.2010     0.0800     0.7290 H     1 <1>   0.0800 
 44 H        5.3710     1.6130    -1.3000 H     1 <1>   0.0800 
 45 H        3.8540     2.2120    -1.9200 H     1 <1>   0.0800 
 46 H        3.2830    -1.4900    -0.0900 H     1 <1>   0.0800 
 47 H        4.7620    -0.5220    -1.7970 H     1 <1>   0.0800 
 48 H        3.1780     0.0030    -2.3410 H     1 <1>   0.0800 
@<TRIPOS>BOND
  1   1   2  2   
  2   2   3  am  
  3   2   4  1   
  4   3   5  1   
  5   3  20  1   
  6   4   6  1   
  7   4   7  1   
  8   4   8  1   
  9   5   9  1   
 10   5  10  1   
 11   5  21  1   
 12   6  11  1   
 13   6  22  1   
 14   6  23  1   
 15   7  12  1   
 16   7  24  1   
 17   7  25  1   
 18   8  26  1   
 19   8  27  1   
 20   8  28  1   
 21   9  13  1   
 22   9  14  1   
 23   9  29  1   
 24  10  30  1   
 25  10  31  1   
 26  10  32  1   
 27  11  15  1   
 28  11  33  1   
 29  11  34  1   
 30  12  15  1   
 31  12  35  1   
 32  12  36  1   
 33  13  16  1   
 34  13  17  1   
 35  13  37  1   
 36  14  18  1   
 37  14  38  1   
 38  14  39  1   
 39  15  40  1   
 40  15  41  1   
 41  16  18  1   
 42  16  42  1   
 43  16  43  1   
 44  17  19  1   
 45  17  44  1   
 46  17  45  1   
 47  18  19  1   
 48  18  46  1   
 49  19  47  1   
 50  19  48  1   
@<TRIPOS>SUBSTRUCTURE
  1 ****   3 GROUP 4 **** **** 0

# MOE 2024.06 (io_trps.svl 2023.06)
