@<TRIPOS>MOLECULE
NONAME
41 43 1 0 0 
SMALL
USER_CHARGES


@<TRIPOS>ATOM
  1 O       -0.7910    -0.2300    -0.0940 O.2   1 <1>  -0.5700 
  2 C       -1.9610     0.0290     0.1040 C.2   1 <1>   0.7200 
  3 N       -2.9790    -0.8470    -0.0510 N.2   1 <1>  -0.6610 
  4 C       -2.4640     1.3920     0.5760 C.3   1 <1>   0.3500 
  5 C       -4.0480    -0.2010     0.2640 C.2   1 <1>   0.5500 
  6 N       -3.8660     1.0420     0.7210 N.pl3 1 <1>  -0.8190 
  7 C       -2.3280     2.5190    -0.4360 C.3   1 <1>  -0.2660 
  8 N       -5.2650    -0.7570     0.1200 N.pl3 1 <1>  -0.5500 
  9 C       -2.9120     3.7460     0.1800 C.2   1 <1>   0.9060 
 10 C       -6.5250    -0.2350     0.1180 C.ar  1 <1>   0.7200 
 11 O       -4.1200     3.9560     0.0420 O.co2 1 <1>  -0.9000 
 12 O       -2.1690     4.4720     0.8410 O.co2 1 <1>  -0.9000 
 13 N       -7.5010    -1.0880     0.0560 N.ar  1 <1>  -0.6200 
 14 N       -6.6560     1.1050     0.1510 N.ar  1 <1>  -0.6200 
 15 C       -8.7500    -0.5820     0.0410 C.ar  1 <1>   0.3100 
 16 C       -7.8350     1.6100     0.1310 C.ar  1 <1>   0.1670 
 17 C       -8.9870     0.8000     0.0770 C.ar  1 <1>   0.0000 
 18 C       -9.8450    -1.4570    -0.0140 C.ar  1 <1>  -0.1500 
 19 C       -7.9300     3.1250     0.1660 C.3   1 <1>  -0.0970 
 20 C      -10.3180     1.2600     0.0570 C.ar  1 <1>  -0.1500 
 21 C      -11.1350    -0.9940    -0.0330 C.ar  1 <1>  -0.1500 
 22 C      -11.3770     0.3900     0.0030 C.ar  1 <1>   0.0820 
 23 O      -12.6220     0.9270    -0.0120 O.3   1 <1>  -0.3620 
 24 C      -13.7760     0.1210    -0.0630 C.3   1 <1>   0.1200 
 25 C      -14.9930     1.0410    -0.0650 C.3   1 <1>  -0.2400 
 26 H       -2.0340     1.6500     1.5280 H     1 <1>   0.0800 
 27 H       -4.5710     1.7920     0.5920 H     1 <1>   0.4000 
 28 H       -2.8410     2.2890    -1.3490 H     1 <1>   0.0800 
 29 H       -1.2920     2.7010    -0.6460 H     1 <1>   0.0800 
 30 H       -5.2480    -1.7420    -0.0980 H     1 <1>   0.4000 
 31 H       -9.6370    -2.5110    -0.0410 H     1 <1>   0.1500 
 32 H       -6.9440     3.5600     0.1860 H     1 <1>   0.0800 
 33 H       -8.4560     3.4420     1.0470 H     1 <1>   0.0800 
 34 H       -8.4370     3.4840    -0.7090 H     1 <1>   0.0800 
 35 H      -10.5170     2.3150     0.0850 H     1 <1>   0.1500 
 36 H      -11.9460    -1.6950    -0.0750 H     1 <1>   0.1500 
 37 H      -13.7850    -0.5190     0.8020 H     1 <1>   0.0800 
 38 H      -13.7430    -0.4670    -0.9650 H     1 <1>   0.0800 
 39 H      -15.0090     1.6350     0.8310 H     1 <1>   0.0800 
 40 H      -15.8930     0.4540    -0.1040 H     1 <1>   0.0800 
 41 H      -14.9670     1.6870    -0.9240 H     1 <1>   0.0800 
@<TRIPOS>BOND
  1   1   2  2   
  2   2   3  1   
  3   2   4  1   
  4   3   5  2   
  5   4   6  1   
  6   4   7  1   
  7   4  26  1   
  8   5   6  1   
  9   5   8  1   
 10   6  27  1   
 11   7   9  1   
 12   7  28  1   
 13   7  29  1   
 14   8  10  1   
 15   8  30  1   
 16   9  11  ar  
 17   9  12  ar  
 18  10  13  ar  
 19  10  14  ar  
 20  13  15  ar  
 21  14  16  ar  
 22  15  17  ar  
 23  15  18  ar  
 24  16  17  ar  
 25  16  19  1   
 26  17  20  ar  
 27  18  21  ar  
 28  18  31  1   
 29  19  32  1   
 30  19  33  1   
 31  19  34  1   
 32  20  22  ar  
 33  20  35  1   
 34  21  22  ar  
 35  21  36  1   
 36  22  23  1   
 37  23  24  1   
 38  24  25  1   
 39  24  37  1   
 40  24  38  1   
 41  25  39  1   
 42  25  40  1   
 43  25  41  1   
@<TRIPOS>SUBSTRUCTURE
  1 ****  14 GROUP 4 **** **** 0

# MOE 2024.06 (io_trps.svl 2023.06)
