@<TRIPOS>MOLECULE
NONAME
40 41 1 0 0 
SMALL
USER_CHARGES


@<TRIPOS>ATOM
  1 O        0.1520     0.6860     1.1770 O.2   1 <1>  -0.5700 
  2 C        0.2460     1.2900     0.1210 C.2   1 <1>   0.6300 
  3 N        1.4690     1.2740    -0.5090 N.am  1 <1>  -0.7300 
  4 C       -0.8780     2.0300    -0.4690 C.2   1 <1>   0.6560 
  5 C        2.7010     0.6160    -0.0380 C.3   1 <1>   0.2200 
  6 O       -0.6530     2.8220    -1.3760 O.2   1 <1>  -0.5700 
  7 C       -2.2370     1.8550    -0.0170 C.2   1 <1>  -0.0860 
  8 C        3.7500     1.7090     0.2410 C.3   1 <1>  -0.1600 
  9 C        3.1150    -0.3950    -1.1200 C.3   1 <1>  -0.1600 
 10 C       -2.8580     0.5990     0.2530 C.ar  1 <1>   0.0000 
 11 C       -3.2030     2.8060     0.2100 C.2   1 <1>  -0.3320 
 12 C        4.6410     1.3860     1.4490 C.3   1 <1>  -0.2400 
 13 C        4.3500    -1.2330    -0.7640 C.3   1 <1>  -0.2400 
 14 C       -4.1690     0.8650     0.6340 C.ar  1 <1>  -0.1520 
 15 C       -2.4350    -0.7350     0.1930 C.ar  1 <1>  -0.1500 
 16 N       -4.3580     2.2190     0.6030 N.pl3 1 <1>   0.0330 
 17 C       -3.1010     4.3170     0.0740 C.3   1 <1>  -0.0600 
 18 C       -5.0590    -0.1600     0.9620 C.ar  1 <1>  -0.1500 
 19 C       -3.3090    -1.7490     0.5150 C.ar  1 <1>  -0.1500 
 20 C       -4.6220    -1.4620     0.9010 C.ar  1 <1>  -0.1500 
 21 H        1.5640     1.8350    -1.3600 H     1 <1>   0.3700 
 22 H        2.4870     0.0860     0.8770 H     1 <1>   0.0800 
 23 H        3.2490     2.6370     0.4590 H     1 <1>   0.0800 
 24 H        4.3630     1.8650    -0.6300 H     1 <1>   0.0800 
 25 H        3.3010     0.1210    -2.0450 H     1 <1>   0.0800 
 26 H        2.2920    -1.0710    -1.2770 H     1 <1>   0.0800 
 27 H        4.0390     1.2760     2.3350 H     1 <1>   0.0800 
 28 H        5.3400     2.1880     1.6130 H     1 <1>   0.0800 
 29 H        5.1970     0.4790     1.2990 H     1 <1>   0.0800 
 30 H        5.2330    -0.6210    -0.7370 H     1 <1>   0.0800 
 31 H        4.4980    -1.9990    -1.5050 H     1 <1>   0.0800 
 32 H        4.2200    -1.7080     0.1930 H     1 <1>   0.0800 
 33 H       -1.4280    -0.9660    -0.1010 H     1 <1>   0.1500 
 34 H       -5.2390     2.6880     0.8370 H     1 <1>   0.2700 
 35 H       -2.1010     4.6160    -0.1810 H     1 <1>   0.0800 
 36 H       -3.3690     4.7930     1.0000 H     1 <1>   0.0800 
 37 H       -3.7630     4.6620    -0.7000 H     1 <1>   0.0800 
 38 H       -6.0660     0.0730     1.2560 H     1 <1>   0.1500 
 39 H       -2.9860    -2.7740     0.4740 H     1 <1>   0.1500 
 40 H       -5.2850    -2.2720     1.1490 H     1 <1>   0.1500 
@<TRIPOS>BOND
  1   1   2  2   
  2   2   3  am  
  3   2   4  1   
  4   3   5  1   
  5   3  21  1   
  6   4   6  2   
  7   4   7  1   
  8   5   8  1   
  9   5   9  1   
 10   5  22  1   
 11   7  10  1   
 12   7  11  2   
 13   8  12  1   
 14   8  23  1   
 15   8  24  1   
 16   9  13  1   
 17   9  25  1   
 18   9  26  1   
 19  10  14  ar  
 20  10  15  ar  
 21  11  16  1   
 22  11  17  1   
 23  12  27  1   
 24  12  28  1   
 25  12  29  1   
 26  13  30  1   
 27  13  31  1   
 28  13  32  1   
 29  14  16  1   
 30  14  18  ar  
 31  15  19  ar  
 32  15  33  1   
 33  16  34  1   
 34  17  35  1   
 35  17  36  1   
 36  17  37  1   
 37  18  20  ar  
 38  18  38  1   
 39  19  20  ar  
 40  19  39  1   
 41  20  40  1   
@<TRIPOS>SUBSTRUCTURE
  1 ****   2 GROUP 4 **** **** 0

# MOE 2024.06 (io_trps.svl 2023.06)
