@<TRIPOS>MOLECULE
NONAME
46 47 1 0 0 
SMALL
USER_CHARGES


@<TRIPOS>ATOM
  1 S       -5.5080    -2.5520     1.1320 S.o2  1 <1>   1.4470 
  2 O       -5.8860    -1.9600     2.3970 O.2   1 <1>  -0.6500 
  3 O       -6.0520    -3.8400     0.7570 O.2   1 <1>  -0.6500 
  4 N       -5.9530    -1.4480    -0.0730 N.am  1 <1>  -0.8490 
  5 C       -3.6960    -2.5730     1.0070 C.ar  1 <1>  -0.0090 
  6 C       -7.3300    -1.0060     0.0490 C.3   1 <1>   0.1960 
  7 C       -5.8260    -1.9460    -1.4330 C.3   1 <1>   0.1960 
  8 C       -2.9580    -1.4060     1.1530 C.ar  1 <1>  -0.1500 
  9 C       -2.9970    -3.7470     0.7580 C.ar  1 <1>  -0.1500 
 10 C       -7.6490    -0.3650    -1.2970 C.3   1 <1>  -0.1600 
 11 C       -6.6240    -0.9530    -2.2680 C.3   1 <1>  -0.1600 
 12 C       -1.5780    -1.4070     1.0530 C.ar  1 <1>  -0.1500 
 13 C       -1.6170    -3.7520     0.6580 C.ar  1 <1>  -0.1500 
 14 C       -0.8700    -2.5840     0.8060 C.ar  1 <1>   0.0860 
 15 C        0.5790    -2.6080     0.6950 C.2   1 <1>   0.5440 
 16 O        1.1390    -3.4370     0.0050 O.2   1 <1>  -0.5700 
 17 N        1.3620    -1.6910     1.3410 N.am  1 <1>  -0.7300 
 18 C        2.8450    -1.7730     1.5220 C.3   1 <1>   0.1400 
 19 C        3.6250    -1.2640     0.2910 C.3   1 <1>   0.3430 
 20 N        3.3550    -2.1030    -0.9170 N.4   1 <1>  -0.9590 
 21 C        4.2110    -3.3250    -0.9710 C.3   1 <1>   0.2630 
 22 C        3.4180    -1.3250    -2.1860 C.3   1 <1>   0.2630 
 23 H       -7.4400    -0.3100     0.8650 H     1 <1>   0.0800 
 24 H       -7.9750    -1.8550     0.2130 H     1 <1>   0.0800 
 25 H       -6.2720    -2.9240    -1.5200 H     1 <1>   0.0800 
 26 H       -4.7940    -1.9910    -1.7380 H     1 <1>   0.0800 
 27 H       -3.4830    -0.4830     1.3450 H     1 <1>   0.1500 
 28 H       -3.5410    -4.6710     0.6400 H     1 <1>   0.1500 
 29 H       -7.5330     0.7020    -1.2300 H     1 <1>   0.0800 
 30 H       -8.6590    -0.5900    -1.5910 H     1 <1>   0.0800 
 31 H       -7.0890    -1.4410    -3.1060 H     1 <1>   0.0800 
 32 H       -5.9690    -0.1790    -2.6290 H     1 <1>   0.0800 
 33 H       -1.0540    -0.4750     1.1630 H     1 <1>   0.1500 
 34 H       -1.1060    -4.6800     0.4620 H     1 <1>   0.1500 
 35 H        0.8870    -1.0740     2.0090 H     1 <1>   0.3700 
 36 H        3.1250    -2.7920     1.7330 H     1 <1>   0.0800 
 37 H        3.1210    -1.1790     2.3770 H     1 <1>   0.0800 
 38 H        4.6810    -1.2630     0.5030 H     1 <1>   0.0800 
 39 H        3.3240    -0.2470     0.1020 H     1 <1>   0.0800 
 40 H        2.3780    -2.4570    -0.7870 H     1 <1>   0.4500 
 41 H        5.2500    -3.0560    -1.0580 H     1 <1>   0.0800 
 42 H        3.9350    -3.9320    -1.8180 H     1 <1>   0.0800 
 43 H        4.0740    -3.9140    -0.0780 H     1 <1>   0.0800 
 44 H        4.4150    -0.9500    -2.3480 H     1 <1>   0.0800 
 45 H        2.7350    -0.4920    -2.1460 H     1 <1>   0.0800 
 46 H        3.1430    -1.9520    -3.0190 H     1 <1>   0.0800 
@<TRIPOS>BOND
  1   1   2  2   
  2   1   3  2   
  3   1   4  am  
  4   1   5  1   
  5   4   6  1   
  6   4   7  1   
  7   5   8  ar  
  8   5   9  ar  
  9   6  10  1   
 10   6  23  1   
 11   6  24  1   
 12   7  11  1   
 13   7  25  1   
 14   7  26  1   
 15   8  12  ar  
 16   8  27  1   
 17   9  13  ar  
 18   9  28  1   
 19  10  11  1   
 20  10  29  1   
 21  10  30  1   
 22  11  31  1   
 23  11  32  1   
 24  12  14  ar  
 25  12  33  1   
 26  13  14  ar  
 27  13  34  1   
 28  14  15  1   
 29  15  16  2   
 30  15  17  am  
 31  17  18  1   
 32  17  35  1   
 33  18  19  1   
 34  18  36  1   
 35  18  37  1   
 36  19  20  1   
 37  19  38  1   
 38  19  39  1   
 39  20  21  1   
 40  20  22  1   
 41  20  40  1   
 42  21  41  1   
 43  21  42  1   
 44  21  43  1   
 45  22  44  1   
 46  22  45  1   
 47  22  46  1   
@<TRIPOS>SUBSTRUCTURE
  1 ****  12 GROUP 4 **** **** 0

# MOE 2024.06 (io_trps.svl 2023.06)
