@<TRIPOS>MOLECULE
NONAME
34 34 1 0 0 
SMALL
USER_CHARGES


@<TRIPOS>ATOM
  1 BR      -0.3550    -0.0360     2.3470 Br    1 <1>  -0.1110 
  2 C       -1.8430    -0.6950     1.3230 C.ar  1 <1>   0.1110 
  3 C       -2.6380    -1.6860     1.8650 C.ar  1 <1>  -0.1500 
  4 C       -2.0790    -0.1620     0.0710 C.ar  1 <1>  -0.1500 
  5 C       -3.7110    -2.1550     1.1260 C.ar  1 <1>  -0.1500 
  6 C       -3.1540    -0.6370    -0.6610 C.ar  1 <1>  -0.1500 
  7 C       -3.9770    -1.6280    -0.1350 C.ar  1 <1>  -0.1430 
  8 C       -5.1650    -2.1320    -0.9340 C.3   1 <1>   0.4870 
  9 N       -6.4120    -1.5780    -0.3360 N.4   1 <1>  -0.9590 
 10 C       -7.6130    -2.2860    -0.8920 C.3   1 <1>   0.3430 
 11 C       -6.4700    -0.0950    -0.5220 C.3   1 <1>   0.3430 
 12 C       -8.5710    -2.7630     0.2080 C.3   1 <1>   0.1200 
 13 C       -7.5840     0.5260     0.3220 C.3   1 <1>  -0.1600 
 14 O       -9.6030    -3.4450    -0.4080 O.3   1 <1>  -0.6800 
 15 C       -7.5130     2.0560     0.2730 C.3   1 <1>  -0.2400 
 16 H       -2.4140    -2.0790     2.8420 H     1 <1>   0.1500 
 17 H       -1.4310     0.6040    -0.3170 H     1 <1>   0.1500 
 18 H       -4.3240    -2.9350     1.5460 H     1 <1>   0.1500 
 19 H       -3.3340    -0.2260    -1.6400 H     1 <1>   0.1500 
 20 H       -5.1810    -3.2090    -0.8950 H     1 <1>   0.0800 
 21 H       -5.0750    -1.8300    -1.9650 H     1 <1>   0.0800 
 22 H       -6.3400    -1.7540     0.6730 H     1 <1>   0.4500 
 23 H       -7.2990    -3.1540    -1.4490 H     1 <1>   0.0800 
 24 H       -8.1470    -1.6340    -1.5640 H     1 <1>   0.0800 
 25 H       -6.6240     0.1450    -1.5620 H     1 <1>   0.0800 
 26 H       -5.5330     0.3420    -0.2140 H     1 <1>   0.0800 
 27 H       -8.9960    -1.9370     0.7500 H     1 <1>   0.0800 
 28 H       -8.0810    -3.4440     0.8820 H     1 <1>   0.0800 
 29 H       -7.4860     0.2140     1.3470 H     1 <1>   0.0800 
 30 H       -8.5470     0.2240    -0.0490 H     1 <1>   0.0800 
 31 H      -10.2660    -3.7700     0.2390 H     1 <1>   0.4000 
 32 H       -6.5720     2.4100     0.6610 H     1 <1>   0.0800 
 33 H       -8.3010     2.4810     0.8720 H     1 <1>   0.0800 
 34 H       -7.6290     2.4150    -0.7360 H     1 <1>   0.0800 
@<TRIPOS>BOND
  1   1   2  1   
  2   2   3  ar  
  3   2   4  ar  
  4   3   5  ar  
  5   3  16  1   
  6   4   6  ar  
  7   4  17  1   
  8   5   7  ar  
  9   5  18  1   
 10   6   7  ar  
 11   6  19  1   
 12   7   8  1   
 13   8   9  1   
 14   8  20  1   
 15   8  21  1   
 16   9  10  1   
 17   9  11  1   
 18   9  22  1   
 19  10  12  1   
 20  10  23  1   
 21  10  24  1   
 22  11  13  1   
 23  11  25  1   
 24  11  26  1   
 25  12  14  1   
 26  12  27  1   
 27  12  28  1   
 28  13  15  1   
 29  13  29  1   
 30  13  30  1   
 31  14  31  1   
 32  15  32  1   
 33  15  33  1   
 34  15  34  1   
@<TRIPOS>SUBSTRUCTURE
  1 ****   7 GROUP 4 **** **** 0

# MOE 2024.06 (io_trps.svl 2023.06)
