@<TRIPOS>MOLECULE
NONAME
46 48 1 0 0 
SMALL
USER_CHARGES


@<TRIPOS>ATOM
  1 CL       0.7030    -1.3510    -1.1450 Cl    1 <1>  -0.1770 
  2 C       -0.5110    -2.2850    -0.3030 C.ar  1 <1>   0.1770 
  3 C       -0.1430    -3.2850     0.5890 C.ar  1 <1>  -0.1440 
  4 C       -1.8390    -1.9920    -0.5510 C.ar  1 <1>  -0.1500 
  5 C       -1.1450    -4.0000     1.2300 C.ar  1 <1>  -0.1500 
  6 C        1.3190    -3.6220     0.8640 C.3   1 <1>   0.0890 
  7 C       -2.8280    -2.7090     0.0990 C.ar  1 <1>  -0.1500 
  8 C       -2.4790    -3.7120     0.9880 C.ar  1 <1>  -0.1500 
  9 S        1.8930    -5.0880    -0.0040 S.o2  1 <1>   1.3330 
 10 O        1.8580    -4.8380    -1.4280 O.2   1 <1>  -0.6500 
 11 O        1.2370    -6.2630     0.5320 O.2   1 <1>  -0.6500 
 12 N        3.5240    -5.1850     0.4530 N.am  1 <1>  -0.8490 
 13 C        3.7350    -5.8150     1.7790 C.3   1 <1>   0.1960 
 14 C        4.3330    -5.8310    -0.6150 C.3   1 <1>   0.1960 
 15 C        4.0310    -7.3250     1.7100 C.3   1 <1>   0.2090 
 16 C        5.5870    -6.5900    -0.1260 C.3   1 <1>   0.2090 
 17 N        5.2850    -7.6000     0.9460 N.pl3 1 <1>  -0.8380 
 18 C        5.4820    -8.9490     0.6120 C.ar  1 <1>   0.1000 
 19 C        4.8440    -9.6080    -0.4530 C.ar  1 <1>   0.0830 
 20 C        6.3550    -9.6840     1.4030 C.ar  1 <1>  -0.1500 
 21 O        3.9860    -8.9390    -1.2670 O.3   1 <1>  -0.3630 
 22 C        5.0930   -10.9480    -0.7040 C.ar  1 <1>  -0.1500 
 23 C        6.5980   -11.0240     1.1560 C.ar  1 <1>  -0.1500 
 24 C        2.6290    -9.3200    -1.2070 C.3   1 <1>   0.0400 
 25 C        5.9670   -11.6590     0.1010 C.ar  1 <1>  -0.1500 
 26 H       -2.0920    -1.2130    -1.2460 H     1 <1>   0.1500 
 27 H       -0.8960    -4.7920     1.9170 H     1 <1>   0.1500 
 28 H        1.4370    -3.7720     1.9180 H     1 <1>   0.0800 
 29 H        1.9450    -2.7940     0.5960 H     1 <1>   0.0800 
 30 H       -3.8660    -2.4900    -0.0870 H     1 <1>   0.1500 
 31 H       -3.2480    -4.2740     1.4900 H     1 <1>   0.1500 
 32 H        2.8820    -5.6500     2.4140 H     1 <1>   0.0800 
 33 H        4.5780    -5.3410     2.2520 H     1 <1>   0.0800 
 34 H        4.6280    -5.0800    -1.3270 H     1 <1>   0.0800 
 35 H        3.7230    -6.5380    -1.1480 H     1 <1>   0.0800 
 36 H        3.2020    -7.8350     1.2530 H     1 <1>   0.0800 
 37 H        4.1470    -7.7100     2.7080 H     1 <1>   0.0800 
 38 H        6.2980    -5.8800     0.2580 H     1 <1>   0.0800 
 39 H        6.0450    -7.0840    -0.9660 H     1 <1>   0.0800 
 40 H        6.8460    -9.1880     2.2190 H     1 <1>   0.1500 
 41 H        4.6110   -11.4340    -1.5320 H     1 <1>   0.1500 
 42 H        7.2790   -11.5700     1.7850 H     1 <1>   0.1500 
 43 H        2.0530    -8.5970    -1.7560 H     1 <1>   0.0800 
 44 H        2.3130    -9.3320    -0.1790 H     1 <1>   0.0800 
 45 H        2.5170   -10.2940    -1.6470 H     1 <1>   0.0800 
 46 H        6.1580   -12.6990    -0.0950 H     1 <1>   0.1500 
@<TRIPOS>BOND
  1   1   2  1   
  2   2   3  ar  
  3   2   4  ar  
  4   3   5  ar  
  5   3   6  1   
  6   4   7  ar  
  7   4  26  1   
  8   5   8  ar  
  9   5  27  1   
 10   6   9  1   
 11   6  28  1   
 12   6  29  1   
 13   7   8  ar  
 14   7  30  1   
 15   8  31  1   
 16   9  10  2   
 17   9  11  2   
 18   9  12  am  
 19  12  13  1   
 20  12  14  1   
 21  13  15  1   
 22  13  32  1   
 23  13  33  1   
 24  14  16  1   
 25  14  34  1   
 26  14  35  1   
 27  15  17  1   
 28  15  36  1   
 29  15  37  1   
 30  16  17  1   
 31  16  38  1   
 32  16  39  1   
 33  17  18  1   
 34  18  19  ar  
 35  18  20  ar  
 36  19  21  1   
 37  19  22  ar  
 38  20  23  ar  
 39  20  40  1   
 40  21  24  1   
 41  22  25  ar  
 42  22  41  1   
 43  23  25  ar  
 44  23  42  1   
 45  24  43  1   
 46  24  44  1   
 47  24  45  1   
 48  25  46  1   
@<TRIPOS>SUBSTRUCTURE
  1 ****  11 GROUP 4 **** **** 0

# MOE 2024.06 (io_trps.svl 2023.06)
