@<TRIPOS>MOLECULE
NONAME
46 48 1 0 0 
SMALL
USER_CHARGES


@<TRIPOS>ATOM
  1 O        1.0090    -1.1930     0.9630 O.co2 1 <1>  -0.9000 
  2 C        1.8730    -1.2380     0.0840 C.2   1 <1>   0.9060 
  3 O        1.8080    -2.0080    -0.8790 O.co2 1 <1>  -0.9000 
  4 C        3.0790    -0.3390     0.2020 C.3   1 <1>  -0.2660 
  5 C        4.3850    -1.1580     0.1550 C.3   1 <1>  -0.0990 
  6 C        5.6840    -0.3660     0.2510 C.2   1 <1>   0.5690 
  7 O        5.6420     0.8370     0.3760 O.2   1 <1>  -0.5700 
  8 N        6.8860    -1.0280     0.1850 N.am  1 <1>  -0.6600 
  9 C        8.1880    -0.2980     0.2300 C.3   1 <1>   0.1400 
 10 C        7.0640    -2.4940    -0.0570 C.3   1 <1>   0.1400 
 11 C        8.9800    -0.5180    -1.0700 C.3   1 <1>   0.2090 
 12 C        7.8750    -2.7450    -1.3440 C.3   1 <1>   0.2090 
 13 N        9.1630    -1.9730    -1.3750 N.pl3 1 <1>  -0.8380 
 14 C       10.3060    -2.5760    -0.8560 C.ar  1 <1>   0.4100 
 15 N       10.1840    -3.3950     0.1940 N.ar  1 <1>  -0.3100 
 16 C       11.5340    -2.3060    -1.4310 C.ar  1 <1>  -0.1500 
 17 N       11.2470    -3.9650     0.7200 N.ar  1 <1>  -0.3100 
 18 C       12.6430    -2.8990    -0.8840 C.ar  1 <1>  -0.1500 
 19 C       12.4540    -3.7240     0.2110 C.ar  1 <1>   0.4100 
 20 N       13.5100    -4.3740     0.8350 N.pl3 1 <1>  -0.6000 
 21 C       14.8730    -4.0770     0.8340 C.ar  1 <1>   0.1000 
 22 C       15.3350    -2.7660     0.8900 C.ar  1 <1>  -0.1500 
 23 C       15.8010    -5.1100     0.7960 C.ar  1 <1>  -0.1500 
 24 C       16.6910    -2.4950     0.8950 C.ar  1 <1>  -0.1500 
 25 C       17.1580    -4.8430     0.8020 C.ar  1 <1>  -0.1500 
 26 C       17.6050    -3.5330     0.8500 C.ar  1 <1>  -0.1500 
 27 H        3.0150     0.2040     1.1260 H     1 <1>   0.0800 
 28 H        3.0510     0.3610    -0.6100 H     1 <1>   0.0800 
 29 H        4.3940    -1.7010    -0.7730 H     1 <1>   0.0800 
 30 H        4.3610    -1.8700     0.9590 H     1 <1>   0.0800 
 31 H        8.7650    -0.6610     1.0630 H     1 <1>   0.0800 
 32 H        8.0280     0.7560     0.3750 H     1 <1>   0.0800 
 33 H        6.1200    -2.9990    -0.1360 H     1 <1>   0.0800 
 34 H        7.5890    -2.9230     0.7790 H     1 <1>   0.0800 
 35 H        9.9390    -0.0390    -0.9830 H     1 <1>   0.0800 
 36 H        8.4510    -0.0510    -1.8840 H     1 <1>   0.0800 
 37 H        7.2780    -2.4610    -2.1920 H     1 <1>   0.0800 
 38 H        8.0820    -3.7980    -1.4320 H     1 <1>   0.0800 
 39 H       11.5970    -1.6560    -2.2820 H     1 <1>   0.1500 
 40 H       13.6250    -2.7420    -1.2900 H     1 <1>   0.1500 
 41 H       13.2030    -5.1280     1.4510 H     1 <1>   0.4000 
 42 H       14.6290    -1.9580     0.9400 H     1 <1>   0.1500 
 43 H       15.4580    -6.1280     0.7560 H     1 <1>   0.1500 
 44 H       17.0370    -1.4760     0.9370 H     1 <1>   0.1500 
 45 H       17.8680    -5.6510     0.7700 H     1 <1>   0.1500 
 46 H       18.6610    -3.3230     0.8540 H     1 <1>   0.1500 
@<TRIPOS>BOND
  1   1   2  ar  
  2   2   3  ar  
  3   2   4  1   
  4   4   5  1   
  5   4  27  1   
  6   4  28  1   
  7   5   6  1   
  8   5  29  1   
  9   5  30  1   
 10   6   7  2   
 11   6   8  am  
 12   8   9  1   
 13   8  10  1   
 14   9  11  1   
 15   9  31  1   
 16   9  32  1   
 17  10  12  1   
 18  10  33  1   
 19  10  34  1   
 20  11  13  1   
 21  11  35  1   
 22  11  36  1   
 23  12  13  1   
 24  12  37  1   
 25  12  38  1   
 26  13  14  1   
 27  14  15  ar  
 28  14  16  ar  
 29  15  17  ar  
 30  16  18  ar  
 31  16  39  1   
 32  17  19  ar  
 33  18  19  ar  
 34  18  40  1   
 35  19  20  1   
 36  20  21  1   
 37  20  41  1   
 38  21  22  ar  
 39  21  23  ar  
 40  22  24  ar  
 41  22  42  1   
 42  23  25  ar  
 43  23  43  1   
 44  24  26  ar  
 45  24  44  1   
 46  25  26  ar  
 47  25  45  1   
 48  26  46  1   
@<TRIPOS>SUBSTRUCTURE
  1 ****  14 GROUP 4 **** **** 0

# MOE 2024.06 (io_trps.svl 2023.06)
