@<TRIPOS>MOLECULE
NONAME
41 43 1 0 0 
SMALL
USER_CHARGES


@<TRIPOS>ATOM
  1 N       -0.0920     0.5980     1.0430 N.3   1 <1>  -0.8100 
  2 C       -0.8350    -0.3600     0.2030 C.3   1 <1>   0.1100 
  3 C       -0.4180     2.0010     0.7340 C.3   1 <1>   0.1100 
  4 C        1.3480     0.2960     1.1970 C.3   1 <1>   0.1100 
  5 C       -2.3550    -0.1230     0.3100 C.3   1 <1>   0.3430 
  6 C       -1.9350     2.2510     0.8480 C.3   1 <1>   0.3430 
  7 C        2.2040     0.4790    -0.0780 C.3   1 <1>  -0.0800 
  8 N       -2.7280     1.3030    -0.0120 N.4   1 <1>  -0.9590 
  9 C        3.6170    -0.3640     0.0550 C.3   1 <1>   0.0580 
 10 C        2.6300     2.0850    -0.4110 C.3   1 <1>  -0.1600 
 11 C       -4.1840     1.5550     0.1310 C.3   1 <1>   0.3430 
 12 C        5.2210    -0.1160     0.0620 C.2   1 <1>  -0.2880 
 13 C        3.9080     0.8950    -0.2510 C.3   1 <1>  -0.1600 
 14 C        4.2730     2.1460    -0.5110 C.3   1 <1>   0.0580 
 15 C       -4.9400     0.8660    -1.0000 C.3   1 <1>  -0.2400 
 16 C        5.5650     1.2050    -0.2340 C.2   1 <1>  -0.2880 
 17 H       -0.6160    -1.3620     0.5300 H     1 <1>   0.0800 
 18 H       -0.5310    -0.2710    -0.8250 H     1 <1>   0.0800 
 19 H       -0.0880     2.2480    -0.2590 H     1 <1>   0.0800 
 20 H        0.0940     2.6450     1.4300 H     1 <1>   0.0800 
 21 H        1.4400    -0.7270     1.5240 H     1 <1>   0.0800 
 22 H        1.7540     0.9070     1.9860 H     1 <1>   0.0800 
 23 H       -2.6620    -0.3580     1.3160 H     1 <1>   0.0800 
 24 H       -2.8620    -0.7980    -0.3580 H     1 <1>   0.0800 
 25 H       -2.1470     3.2690     0.5660 H     1 <1>   0.0800 
 26 H       -2.2190     2.1260     1.8800 H     1 <1>   0.0800 
 27 H        1.6590     0.0750    -0.9160 H     1 <1>   0.0800 
 28 H       -2.4600     1.4780    -0.9880 H     1 <1>   0.4500 
 29 H        3.5170    -1.1180    -0.7140 H     1 <1>   0.0800 
 30 H        2.3000     2.7450     0.3750 H     1 <1>   0.0800 
 31 H        2.1800     2.4150    -1.3340 H     1 <1>   0.0800 
 32 H       -4.3750     2.6150     0.0810 H     1 <1>   0.0800 
 33 H       -4.5330     1.1950     1.0860 H     1 <1>   0.0800 
 34 H        5.8710    -0.9470     0.2840 H     1 <1>   0.1500 
 35 H        3.8700     0.6480    -1.3960 H     1 <1>   0.0800 
 36 H        3.8810     1.1620     0.9340 H     1 <1>   0.0800 
 37 H        4.4440     2.4740    -1.5270 H     1 <1>   0.0800 
 38 H       -4.5870     1.2030    -1.9580 H     1 <1>   0.0800 
 39 H       -5.9840     1.1160    -0.9260 H     1 <1>   0.0800 
 40 H       -4.8570    -0.2040    -0.9360 H     1 <1>   0.0800 
 41 H        6.5460     1.6470    -0.2970 H     1 <1>   0.1500 
@<TRIPOS>BOND
  1   1   2  1   
  2   1   3  1   
  3   1   4  1   
  4   2   5  1   
  5   2  17  1   
  6   2  18  1   
  7   3   6  1   
  8   3  19  1   
  9   3  20  1   
 10   4   7  1   
 11   4  21  1   
 12   4  22  1   
 13   5   8  1   
 14   5  23  1   
 15   5  24  1   
 16   6   8  1   
 17   6  25  1   
 18   6  26  1   
 19   7   9  1   
 20   7  10  1   
 21   7  27  1   
 22   8  11  1   
 23   8  28  1   
 24   9  12  1   
 25   9  13  1   
 26   9  29  1   
 27  10  14  1   
 28  10  30  1   
 29  10  31  1   
 30  11  15  1   
 31  11  32  1   
 32  11  33  1   
 33  12  16  2   
 34  12  34  1   
 35  13  14  1   
 36  13  35  1   
 37  13  36  1   
 38  14  16  1   
 39  14  37  1   
 40  15  38  1   
 41  15  39  1   
 42  15  40  1   
 43  16  41  1   
@<TRIPOS>SUBSTRUCTURE
  1 ****   1 GROUP 4 **** **** 0

# MOE 2024.06 (io_trps.svl 2023.06)
