@<TRIPOS>MOLECULE
NONAME
43 46 1 0 0 
SMALL
USER_CHARGES


@<TRIPOS>ATOM
  1 S        0.4460     0.2330    -1.5110 S.2   1 <1>  -0.3800 
  2 C        1.8340     1.0450    -1.3940 C.2   1 <1>   0.5000 
  3 N        2.8650     0.5340    -0.6850 N.am  1 <1>  -0.5390 
  4 N        1.9850     2.2370    -2.0030 N.am  1 <1>  -0.4900 
  5 C        4.0590     1.2070    -0.5620 C.2   1 <1>   0.2090 
  6 C        3.1490     2.9560    -1.9310 C.2   1 <1>   0.6160 
  7 N        5.0760     0.6160     0.1430 N.pl3 1 <1>  -0.6000 
  8 C        4.2050     2.4230    -1.1550 C.2   1 <1>  -0.1240 
  9 O        3.2130     3.9970    -2.5600 O.2   1 <1>  -0.5700 
 10 C        6.3400     1.1630     0.1700 C.2   1 <1>  -0.0380 
 11 C        5.4880     3.2280    -0.9790 C.3   1 <1>   0.3400 
 12 C        6.6100     2.3820    -0.3670 C.2   1 <1>  -0.1240 
 13 C        7.4290     0.3240     0.8290 C.3   1 <1>  -0.0220 
 14 C        5.2020     4.4150    -0.0600 C.ar  1 <1>  -0.1430 
 15 C        7.9130     2.9550    -0.3900 C.2   1 <1>   0.4950 
 16 C        8.8470     0.7030     0.3410 C.3   1 <1>   0.0000 
 17 C        5.4190     5.7150    -0.4980 C.ar  1 <1>   0.1600 
 18 C        4.7250     4.2220     1.2230 C.ar  1 <1>  -0.1500 
 19 O        8.1950     3.9720    -0.9780 O.2   1 <1>  -0.5700 
 20 C        9.0210     2.2370     0.3590 C.3   1 <1>  -0.0990 
 21 C        9.8980     0.0590     1.2600 C.3   1 <1>  -0.2400 
 22 C        9.0700     0.1700    -1.0880 C.3   1 <1>  -0.2400 
 23 N        5.1990     6.8060     0.2210 N.ar  1 <1>  -0.6200 
 24 C        4.4910     5.3470     1.9850 C.ar  1 <1>  -0.1500 
 25 C        4.7400     6.5950     1.4430 C.ar  1 <1>   0.1600 
 26 H        2.7270    -0.3760    -0.2460 H     1 <1>   0.3700 
 27 H        1.2310     2.6420    -2.5510 H     1 <1>   0.3700 
 28 H        4.9120    -0.2990     0.5740 H     1 <1>   0.4000 
 29 H        5.8050     3.5740    -1.9480 H     1 <1>   0.0800 
 30 H        7.2560    -0.7190     0.6310 H     1 <1>   0.0800 
 31 H        7.3590     0.4690     1.8930 H     1 <1>   0.0800 
 32 H        5.7970     5.8700    -1.4950 H     1 <1>   0.1500 
 33 H        4.5420     3.2370     1.6180 H     1 <1>   0.1500 
 34 H        9.0130     2.5960     1.3720 H     1 <1>   0.0800 
 35 H        9.9680     2.5060    -0.0750 H     1 <1>   0.0800 
 36 H        9.7880     0.4090     2.2710 H     1 <1>   0.0800 
 37 H       10.8920     0.3050     0.9270 H     1 <1>   0.0800 
 38 H        9.7980    -1.0120     1.2600 H     1 <1>   0.0800 
 39 H        8.3450     0.5690    -1.7750 H     1 <1>   0.0800 
 40 H        8.9910    -0.9030    -1.1090 H     1 <1>   0.0800 
 41 H       10.0490     0.4390    -1.4430 H     1 <1>   0.0800 
 42 H        4.1190     5.2600     2.9890 H     1 <1>   0.1500 
 43 H        4.5540     7.4670     2.0460 H     1 <1>   0.1500 
@<TRIPOS>BOND
  1   1   2  2   
  2   2   3  am  
  3   2   4  am  
  4   3   5  1   
  5   3  26  1   
  6   4   6  am  
  7   4  27  1   
  8   5   7  1   
  9   5   8  2   
 10   6   8  1   
 11   6   9  2   
 12   7  10  1   
 13   7  28  1   
 14   8  11  1   
 15  10  12  2   
 16  10  13  1   
 17  11  12  1   
 18  11  14  1   
 19  11  29  1   
 20  12  15  1   
 21  13  16  1   
 22  13  30  1   
 23  13  31  1   
 24  14  17  ar  
 25  14  18  ar  
 26  15  19  2   
 27  15  20  1   
 28  16  20  1   
 29  16  21  1   
 30  16  22  1   
 31  17  23  ar  
 32  17  32  1   
 33  18  24  ar  
 34  18  33  1   
 35  20  34  1   
 36  20  35  1   
 37  21  36  1   
 38  21  37  1   
 39  21  38  1   
 40  22  39  1   
 41  22  40  1   
 42  22  41  1   
 43  23  25  ar  
 44  24  25  ar  
 45  24  42  1   
 46  25  43  1   
@<TRIPOS>SUBSTRUCTURE
  1 ****  11 GROUP 4 **** **** 0

# MOE 2024.06 (io_trps.svl 2023.06)
