@<TRIPOS>MOLECULE
NONAME
35 35 1 0 0 
SMALL
USER_CHARGES


@<TRIPOS>ATOM
  1 O        0.7110    -2.1010    -2.2520 O.2   1 <1>  -0.5700 
  2 C       -0.0660    -2.5170    -1.4190 C.2   1 <1>   0.6160 
  3 N        0.3630    -3.2890    -0.3820 N.am  1 <1>  -0.7300 
  4 C       -1.4670    -2.1960    -1.5320 C.2   1 <1>  -0.1360 
  5 C        1.7170    -3.7970    -0.0840 C.3   1 <1>   0.3000 
  6 C       -2.4910    -2.5400    -0.7270 C.2   1 <1>  -0.3000 
  7 C        1.6130    -4.6110     1.2250 C.3   1 <1>  -0.1600 
  8 C        2.1810    -4.7360    -1.2180 C.3   1 <1>  -0.1600 
  9 C        2.7170    -2.6270     0.0780 C.3   1 <1>  -0.1600 
 10 C        0.7530    -5.8820     1.0990 C.3   1 <1>  -0.1600 
 11 C        1.3090    -5.9950    -1.3660 C.3   1 <1>  -0.1600 
 12 C        2.3260    -1.5440     1.1020 C.3   1 <1>  -0.1600 
 13 C        1.2420    -6.7740    -0.0470 C.3   1 <1>  -0.1600 
 14 C        3.3710    -0.4250     1.1380 C.3   1 <1>  -0.2400 
 15 H       -0.3450    -3.6720     0.2360 H     1 <1>   0.3700 
 16 H       -1.6600    -1.5940    -2.4010 H     1 <1>   0.1500 
 17 H       -2.3970    -3.1350     0.1630 H     1 <1>   0.1500 
 18 H       -3.5100    -2.2430    -0.9070 H     1 <1>   0.1500 
 19 H        1.2160    -3.9960     2.0110 H     1 <1>   0.0800 
 20 H        2.6040    -4.9050     1.5230 H     1 <1>   0.0800 
 21 H        3.1900    -5.0470    -1.0150 H     1 <1>   0.0800 
 22 H        2.2010    -4.2010    -2.1510 H     1 <1>   0.0800 
 23 H        2.8550    -2.1600    -0.8810 H     1 <1>   0.0800 
 24 H        3.6720    -3.0330     0.3580 H     1 <1>   0.0800 
 25 H       -0.2750    -5.6160     0.9260 H     1 <1>   0.0800 
 26 H        0.7930    -6.4340     2.0220 H     1 <1>   0.0800 
 27 H        1.7190    -6.6250    -2.1360 H     1 <1>   0.0800 
 28 H        0.3160    -5.7120    -1.6710 H     1 <1>   0.0800 
 29 H        2.2410    -1.9690     2.0850 H     1 <1>   0.0800 
 30 H        1.3730    -1.1180     0.8360 H     1 <1>   0.0800 
 31 H        0.5810    -7.6160    -0.1590 H     1 <1>   0.0800 
 32 H        2.2210    -7.1550     0.1900 H     1 <1>   0.0800 
 33 H        4.3330    -0.8160     1.4190 H     1 <1>   0.0800 
 34 H        3.0820     0.3250     1.8530 H     1 <1>   0.0800 
 35 H        3.4530     0.0400     0.1710 H     1 <1>   0.0800 
@<TRIPOS>BOND
  1   1   2  2   
  2   2   3  am  
  3   2   4  1   
  4   3   5  1   
  5   3  15  1   
  6   4   6  2   
  7   4  16  1   
  8   5   7  1   
  9   5   8  1   
 10   5   9  1   
 11   6  17  1   
 12   6  18  1   
 13   7  10  1   
 14   7  19  1   
 15   7  20  1   
 16   8  11  1   
 17   8  21  1   
 18   8  22  1   
 19   9  12  1   
 20   9  23  1   
 21   9  24  1   
 22  10  13  1   
 23  10  25  1   
 24  10  26  1   
 25  11  13  1   
 26  11  27  1   
 27  11  28  1   
 28  12  14  1   
 29  12  29  1   
 30  12  30  1   
 31  13  31  1   
 32  13  32  1   
 33  14  33  1   
 34  14  34  1   
 35  14  35  1   
@<TRIPOS>SUBSTRUCTURE
  1 ****   3 GROUP 4 **** **** 0

# MOE 2024.06 (io_trps.svl 2023.06)
