@<TRIPOS>MOLECULE
NONAME
37 38 1 0 0 
SMALL
USER_CHARGES


@<TRIPOS>ATOM
  1 CL       0.8340     0.0140    -1.1750 Cl    1 <1>  -0.1770 
  2 C        0.3390    -1.5100    -0.4560 C.ar  1 <1>   0.1770 
  3 C       -1.0020    -1.7670    -0.2340 C.ar  1 <1>   0.1770 
  4 C        1.3180    -2.4450    -0.1220 C.ar  1 <1>   0.1170 
  5 CL      -2.2210    -0.5850    -0.6540 Cl    1 <1>  -0.1770 
  6 C       -1.4070    -2.9660     0.3240 C.ar  1 <1>  -0.1500 
  7 N        2.6720    -2.1440    -0.3670 N.am  1 <1>  -0.5470 
  8 C        0.8930    -3.6530     0.4320 C.ar  1 <1>  -0.1500 
  9 C       -0.4500    -3.9110     0.6550 C.ar  1 <1>  -0.1500 
 10 C        3.8190    -2.6550     0.1590 C.2   1 <1>   0.6900 
 11 O        3.8170    -3.4890     1.0410 O.2   1 <1>  -0.5700 
 12 N        4.9990    -2.2000    -0.3310 N.am  1 <1>  -0.7300 
 13 C        6.3020    -2.6300     0.1930 C.3   1 <1>   0.2200 
 14 C        7.3240    -1.5080     0.0310 C.3   1 <1>  -0.1600 
 15 C        6.7550    -3.8880    -0.5450 C.3   1 <1>  -0.1600 
 16 C        8.6960    -1.9740     0.5150 C.3   1 <1>   0.3430 
 17 C        8.1290    -4.3240    -0.0490 C.3   1 <1>   0.3430 
 18 N        9.1080    -3.2070    -0.2220 N.4   1 <1>  -0.9590 
 19 C       10.4770    -3.6400     0.1950 C.3   1 <1>   0.2630 
 20 H       -2.4530    -3.1550     0.4930 H     1 <1>   0.1500 
 21 H        2.8100    -1.2990    -0.9180 H     1 <1>   0.3700 
 22 H        1.6130    -4.4070     0.6940 H     1 <1>   0.1500 
 23 H       -0.7490    -4.8510     1.0880 H     1 <1>   0.1500 
 24 H        4.9970    -1.6280    -1.1730 H     1 <1>   0.3700 
 25 H        6.1970    -2.8570     1.2440 H     1 <1>   0.0800 
 26 H        7.0170    -0.6610     0.6190 H     1 <1>   0.0800 
 27 H        7.3920    -1.2000    -0.9980 H     1 <1>   0.0800 
 28 H        6.7870    -3.7170    -1.6060 H     1 <1>   0.0800 
 29 H        6.0520    -4.6800    -0.3530 H     1 <1>   0.0800 
 30 H        8.6510    -2.1800     1.5730 H     1 <1>   0.0800 
 31 H        9.4190    -1.1890     0.3550 H     1 <1>   0.0800 
 32 H        8.4520    -5.1910    -0.6030 H     1 <1>   0.0800 
 33 H        8.0640    -4.5950     0.9930 H     1 <1>   0.0800 
 34 H        9.1360    -2.9760    -1.2260 H     1 <1>   0.4500 
 35 H       10.4880    -3.8940     1.2430 H     1 <1>   0.0800 
 36 H       11.1890    -2.8480     0.0250 H     1 <1>   0.0800 
 37 H       10.7860    -4.5040    -0.3720 H     1 <1>   0.0800 
@<TRIPOS>BOND
  1   1   2  1   
  2   2   3  ar  
  3   2   4  ar  
  4   3   5  1   
  5   3   6  ar  
  6   4   7  1   
  7   4   8  ar  
  8   6   9  ar  
  9   6  20  1   
 10   7  10  am  
 11   7  21  1   
 12   8   9  ar  
 13   8  22  1   
 14   9  23  1   
 15  10  11  2   
 16  10  12  am  
 17  12  13  1   
 18  12  24  1   
 19  13  14  1   
 20  13  15  1   
 21  13  25  1   
 22  14  16  1   
 23  14  26  1   
 24  14  27  1   
 25  15  17  1   
 26  15  28  1   
 27  15  29  1   
 28  16  18  1   
 29  16  30  1   
 30  16  31  1   
 31  17  18  1   
 32  17  32  1   
 33  17  33  1   
 34  18  19  1   
 35  18  34  1   
 36  19  35  1   
 37  19  36  1   
 38  19  37  1   
@<TRIPOS>SUBSTRUCTURE
  1 ****  10 GROUP 4 **** **** 0

# MOE 2024.06 (io_trps.svl 2023.06)
