@<TRIPOS>MOLECULE
NONAME
40 40 1 0 0 
SMALL
USER_CHARGES


@<TRIPOS>ATOM
  1 S        0.1100    -0.0610    -0.4810 S.o2  1 <1>   1.3330 
  2 O       -0.4520     1.1210    -1.0910 O.2   1 <1>  -0.6500 
  3 O        1.3960    -0.5670    -0.9000 O.2   1 <1>  -0.6500 
  4 N       -1.0240    -1.3650    -0.6720 N.am  1 <1>  -0.6930 
  5 C        0.1320     0.1390     1.3060 C.3   1 <1>  -0.0550 
  6 C       -2.3760    -1.2300    -0.3950 C.ar  1 <1>   0.1990 
  7 C       -0.4740    -2.6880    -1.0570 C.3   1 <1>   0.1160 
  8 C        1.0920     1.2300     1.8130 C.3   1 <1>  -0.2400 
  9 C       -2.9900    -2.0410     0.5530 C.ar  1 <1>  -0.1500 
 10 C       -3.1600    -0.2860    -1.0480 C.ar  1 <1>  -0.1500 
 11 C       -4.3350    -1.9070     0.8390 C.ar  1 <1>  -0.1500 
 12 C       -4.5030    -0.1510    -0.7580 C.ar  1 <1>  -0.1500 
 13 C       -5.1330    -0.9610     0.1910 C.ar  1 <1>   0.0860 
 14 C       -6.5440    -0.8360     0.5010 C.2   1 <1>   0.5440 
 15 O       -6.9800    -1.2080     1.5730 O.2   1 <1>  -0.5700 
 16 N       -7.4180    -0.2990    -0.4030 N.am  1 <1>  -0.7300 
 17 C       -8.8810    -0.1490    -0.1870 C.3   1 <1>   0.1400 
 18 C       -9.1630     0.9970     0.7850 C.3   1 <1>   0.1200 
 19 O      -10.5310     1.2610     0.7720 O.3   1 <1>  -0.5600 
 20 C      -10.9220     2.2260     1.6940 C.3   1 <1>   0.0400 
 21 H        0.4080    -0.7950     1.7550 H     1 <1>   0.0800 
 22 H       -0.8600     0.3770     1.6380 H     1 <1>   0.0800 
 23 H        0.0760    -2.5940    -1.9780 H     1 <1>   0.0800 
 24 H       -1.2690    -3.3990    -1.2030 H     1 <1>   0.0800 
 25 H        0.1900    -3.0470    -0.2900 H     1 <1>   0.0800 
 26 H        2.1010     1.0030     1.5150 H     1 <1>   0.0800 
 27 H        1.0520     1.2930     2.8860 H     1 <1>   0.0800 
 28 H        0.8180     2.1850     1.3980 H     1 <1>   0.0800 
 29 H       -2.4050    -2.7780     1.0730 H     1 <1>   0.1500 
 30 H       -2.7080     0.3470    -1.7910 H     1 <1>   0.1500 
 31 H       -4.7890    -2.5430     1.5800 H     1 <1>   0.1500 
 32 H       -5.0680     0.6040    -1.2750 H     1 <1>   0.1500 
 33 H       -7.0900    -0.0820    -1.3450 H     1 <1>   0.3700 
 34 H       -9.2780    -1.0640     0.2190 H     1 <1>   0.0800 
 35 H       -9.3580     0.0540    -1.1290 H     1 <1>   0.0800 
 36 H       -8.6420     1.8870     0.4790 H     1 <1>   0.0800 
 37 H       -8.8690     0.7140     1.7820 H     1 <1>   0.0800 
 38 H      -11.9860     2.3630     1.6040 H     1 <1>   0.0800 
 39 H      -10.4170     3.1510     1.4770 H     1 <1>   0.0800 
 40 H      -10.6830     1.8860     2.6870 H     1 <1>   0.0800 
@<TRIPOS>BOND
  1   1   2  2   
  2   1   3  2   
  3   1   4  am  
  4   1   5  1   
  5   4   6  1   
  6   4   7  1   
  7   5   8  1   
  8   5  21  1   
  9   5  22  1   
 10   6   9  ar  
 11   6  10  ar  
 12   7  23  1   
 13   7  24  1   
 14   7  25  1   
 15   8  26  1   
 16   8  27  1   
 17   8  28  1   
 18   9  11  ar  
 19   9  29  1   
 20  10  12  ar  
 21  10  30  1   
 22  11  13  ar  
 23  11  31  1   
 24  12  13  ar  
 25  12  32  1   
 26  13  14  1   
 27  14  15  2   
 28  14  16  am  
 29  16  17  1   
 30  16  33  1   
 31  17  18  1   
 32  17  34  1   
 33  17  35  1   
 34  18  19  1   
 35  18  36  1   
 36  18  37  1   
 37  19  20  1   
 38  20  38  1   
 39  20  39  1   
 40  20  40  1   
@<TRIPOS>SUBSTRUCTURE
  1 ****  12 GROUP 4 **** **** 0

# MOE 2024.06 (io_trps.svl 2023.06)
