@<TRIPOS>MOLECULE
NONAME
46 48 1 0 0 
SMALL
USER_CHARGES


@<TRIPOS>ATOM
  1 S       -0.1210     0.2000    -1.6320 S.o2  1 <1>   1.4470 
  2 O       -0.9500     1.2350    -2.2090 O.2   1 <1>  -0.6500 
  3 O        0.4580    -0.8070    -2.4970 O.2   1 <1>  -0.6500 
  4 N        1.1750     0.9630    -0.8460 N.am  1 <1>  -0.8490 
  5 C       -1.0250    -0.5910    -0.2700 C.ar  1 <1>  -0.0090 
  6 C        1.7820     1.9930    -1.6940 C.3   1 <1>   0.1960 
  7 C        2.1730     0.0000    -0.3710 C.3   1 <1>   0.1960 
  8 C       -1.3540     0.1300     0.8770 C.ar  1 <1>  -0.1500 
  9 C       -1.4140    -1.9280    -0.3450 C.ar  1 <1>  -0.1500 
 10 C        2.8440     2.7690    -0.9100 C.3   1 <1>  -0.1600 
 11 C        3.2380     0.7100     0.4670 C.3   1 <1>  -0.1600 
 12 C       -2.0440    -0.4580     1.9240 C.ar  1 <1>  -0.1500 
 13 C       -2.1040    -2.5350     0.6920 C.ar  1 <1>  -0.1500 
 14 C        3.9190     1.8310    -0.3360 C.3   1 <1>  -0.0190 
 15 C       -2.4070    -1.7850     1.8110 C.ar  1 <1>   0.1900 
 16 C        4.9380     2.5920     0.5100 C.2   1 <1>   0.5690 
 17 F       -3.0550    -2.3490     2.7930 F     1 <1>  -0.1900 
 18 O        4.5850     3.1420     1.5250 O.2   1 <1>  -0.5700 
 19 N        6.2290     2.6320     0.0990 N.am  1 <1>  -0.7300 
 20 C        7.3220     3.2710     0.8520 C.3   1 <1>   0.2840 
 21 C        8.5770     2.4500     0.6380 C.ar  1 <1>  -0.1430 
 22 C        8.7900     1.3020     1.3860 C.ar  1 <1>   0.1600 
 23 C        9.5200     2.8200    -0.3000 C.ar  1 <1>  -0.1500 
 24 N        9.8450     0.5100     1.2740 N.ar  1 <1>  -0.6200 
 25 C       10.6260     2.0070    -0.4280 C.ar  1 <1>  -0.1500 
 26 C       10.7380     0.8820     0.3710 C.ar  1 <1>   0.1600 
 27 H        1.0260     2.6880    -2.0210 H     1 <1>   0.0800 
 28 H        2.2190     1.5370    -2.5670 H     1 <1>   0.0800 
 29 H        2.6380    -0.4950    -1.2100 H     1 <1>   0.0800 
 30 H        1.6950    -0.7500     0.2380 H     1 <1>   0.0800 
 31 H       -1.0640     1.1660     0.9460 H     1 <1>   0.1500 
 32 H       -1.1720    -2.5000    -1.2260 H     1 <1>   0.1500 
 33 H        2.3610     3.3020    -0.1080 H     1 <1>   0.0800 
 34 H        3.3030     3.4960    -1.5550 H     1 <1>   0.0800 
 35 H        3.9740    -0.0030     0.7900 H     1 <1>   0.0800 
 36 H        2.7710     1.1210     1.3460 H     1 <1>   0.0800 
 37 H       -2.2970     0.0980     2.8100 H     1 <1>   0.1500 
 38 H       -2.4040    -3.5660     0.6360 H     1 <1>   0.1500 
 39 H        4.4390     1.3780    -1.1610 H     1 <1>   0.0800 
 40 H        6.5260     2.1390    -0.7440 H     1 <1>   0.3700 
 41 H        7.0760     3.3140     1.9010 H     1 <1>   0.0800 
 42 H        7.4620     4.2760     0.4950 H     1 <1>   0.0800 
 43 H        8.0500     1.0160     2.1150 H     1 <1>   0.1500 
 44 H        9.4040     3.7010    -0.9080 H     1 <1>   0.1500 
 45 H       11.3980     2.2400    -1.1390 H     1 <1>   0.1500 
 46 H       11.6070     0.2550     0.2630 H     1 <1>   0.1500 
@<TRIPOS>BOND
  1   1   2  2   
  2   1   3  2   
  3   1   4  am  
  4   1   5  1   
  5   4   6  1   
  6   4   7  1   
  7   5   8  ar  
  8   5   9  ar  
  9   6  10  1   
 10   6  27  1   
 11   6  28  1   
 12   7  11  1   
 13   7  29  1   
 14   7  30  1   
 15   8  12  ar  
 16   8  31  1   
 17   9  13  ar  
 18   9  32  1   
 19  10  14  1   
 20  10  33  1   
 21  10  34  1   
 22  11  14  1   
 23  11  35  1   
 24  11  36  1   
 25  12  15  ar  
 26  12  37  1   
 27  13  15  ar  
 28  13  38  1   
 29  14  16  1   
 30  14  39  1   
 31  15  17  1   
 32  16  18  2   
 33  16  19  am  
 34  19  20  1   
 35  19  40  1   
 36  20  21  1   
 37  20  41  1   
 38  20  42  1   
 39  21  22  ar  
 40  21  23  ar  
 41  22  24  ar  
 42  22  43  1   
 43  23  25  ar  
 44  23  44  1   
 45  24  26  ar  
 46  25  26  ar  
 47  25  45  1   
 48  26  46  1   
@<TRIPOS>SUBSTRUCTURE
  1 ****  11 GROUP 4 **** **** 0

# MOE 2024.06 (io_trps.svl 2023.06)
