@<TRIPOS>MOLECULE
NONAME
48 49 1 0 0 
SMALL
USER_CHARGES


@<TRIPOS>ATOM
  1 S       -1.0040    -0.6020     0.2610 S.3   1 <1>  -0.0800 
  2 C        0.4960    -1.4850     0.3950 C.2   1 <1>   0.1040 
  3 C       -1.9420    -1.8960     1.0030 C.2   1 <1>  -0.0450 
  4 N        1.6710    -0.9240    -0.0720 N.am  1 <1>  -0.4940 
  5 C        0.2950    -2.7000     1.0000 C.2   1 <1>  -0.0860 
  6 C       -1.0960    -2.9120     1.3320 C.2   1 <1>  -0.1810 
  7 C       -3.3590    -1.6780     1.1680 C.2   1 <1>   0.7150 
  8 C        1.9490     0.2020    -0.8060 C.2   1 <1>   0.5690 
  9 C        1.3950    -3.6060     1.2480 C.2   1 <1>   0.8060 
 10 C       -1.6030    -4.1820     2.0110 C.3   1 <1>  -0.0590 
 11 O       -3.8730    -1.9020     2.2520 O.2   1 <1>  -0.5700 
 12 N       -4.1690    -1.2440     0.1360 N.am  1 <1>  -0.6600 
 13 O        1.1040     0.9230    -1.2760 O.2   1 <1>  -0.5700 
 14 C        3.4290     0.5210    -1.0540 C.3   1 <1>  -0.0190 
 15 O        2.5570    -3.3090     1.0200 O.2   1 <1>  -0.5700 
 16 O        1.1570    -4.8280     1.7390 O.3   1 <1>  -0.4300 
 17 C       -3.8260    -1.3860    -1.3060 C.3   1 <1>   0.1400 
 18 C       -5.5110    -0.6520     0.3900 C.3   1 <1>   0.1400 
 19 C        3.7600     1.9930    -0.7560 C.3   1 <1>  -0.2400 
 20 C        3.8370     0.1700    -2.4940 C.3   1 <1>  -0.2400 
 21 C        2.1940    -5.7550     2.0000 C.3   1 <1>   0.0400 
 22 C       -3.8920    -0.0160    -1.9890 C.3   1 <1>  -0.1600 
 23 C       -5.5960     0.7240    -0.2810 C.3   1 <1>  -0.1600 
 24 C       -5.2580     0.6520    -1.7770 C.3   1 <1>  -0.1600 
 25 H        2.4990    -1.4840     0.1570 H     1 <1>   0.3700 
 26 H       -2.6640    -4.1490     2.1720 H     1 <1>   0.0800 
 27 H       -1.1280    -4.3040     2.9680 H     1 <1>   0.0800 
 28 H       -1.3930    -5.0400     1.3980 H     1 <1>   0.0800 
 29 H        4.0190    -0.0830    -0.3870 H     1 <1>   0.0800 
 30 H       -4.5370    -2.0510    -1.7650 H     1 <1>   0.0800 
 31 H       -2.8480    -1.8150    -1.4320 H     1 <1>   0.0800 
 32 H       -5.6860    -0.5450     1.4480 H     1 <1>   0.0800 
 33 H       -6.2650    -1.3070    -0.0100 H     1 <1>   0.0800 
 34 H        3.2110     2.6400    -1.4190 H     1 <1>   0.0800 
 35 H        4.8110     2.1780    -0.8830 H     1 <1>   0.0800 
 36 H        3.4860     2.2350     0.2560 H     1 <1>   0.0800 
 37 H        3.2720     0.7620    -3.1930 H     1 <1>   0.0800 
 38 H        3.6420    -0.8690    -2.6930 H     1 <1>   0.0800 
 39 H        4.8840     0.3590    -2.6470 H     1 <1>   0.0800 
 40 H        1.7550    -6.6570     2.3870 H     1 <1>   0.0800 
 41 H        2.8680    -5.3310     2.7250 H     1 <1>   0.0800 
 42 H        2.7170    -5.9630     1.0820 H     1 <1>   0.0800 
 43 H       -3.7050    -0.1340    -3.0410 H     1 <1>   0.0800 
 44 H       -3.1140     0.6120    -1.5890 H     1 <1>   0.0800 
 45 H       -4.9110     1.3900     0.2140 H     1 <1>   0.0800 
 46 H       -6.5880     1.1200    -0.1520 H     1 <1>   0.0800 
 47 H       -6.0160     0.0850    -2.2880 H     1 <1>   0.0800 
 48 H       -5.2450     1.6440    -2.1950 H     1 <1>   0.0800 
@<TRIPOS>BOND
  1   1   2  1   
  2   1   3  1   
  3   2   4  1   
  4   2   5  2   
  5   3   6  2   
  6   3   7  1   
  7   4   8  am  
  8   4  25  1   
  9   5   6  1   
 10   5   9  1   
 11   6  10  1   
 12   7  11  2   
 13   7  12  am  
 14   8  13  2   
 15   8  14  1   
 16   9  15  2   
 17   9  16  1   
 18  10  26  1   
 19  10  27  1   
 20  10  28  1   
 21  12  17  1   
 22  12  18  1   
 23  14  19  1   
 24  14  20  1   
 25  14  29  1   
 26  16  21  1   
 27  17  22  1   
 28  17  30  1   
 29  17  31  1   
 30  18  23  1   
 31  18  32  1   
 32  18  33  1   
 33  19  34  1   
 34  19  35  1   
 35  19  36  1   
 36  20  37  1   
 37  20  38  1   
 38  20  39  1   
 39  21  40  1   
 40  21  41  1   
 41  21  42  1   
 42  22  24  1   
 43  22  43  1   
 44  22  44  1   
 45  23  24  1   
 46  23  45  1   
 47  23  46  1   
 48  24  47  1   
 49  24  48  1   
@<TRIPOS>SUBSTRUCTURE
  1 ****   1 GROUP 4 **** **** 0

# MOE 2024.06 (io_trps.svl 2023.06)
