@<TRIPOS>MOLECULE
NONAME
39 40 1 0 0 
SMALL
USER_CHARGES


@<TRIPOS>ATOM
  1 S        0.8390    -2.4370     1.9840 S.3   1 <1>  -0.4600 
  2 C       -0.8520    -1.7840     1.8260 C.3   1 <1>   0.2140 
  3 C        1.7920    -1.0430     2.6960 C.3   1 <1>   0.1310 
  4 C       -1.0190    -1.1700     0.4420 C.ar  1 <1>  -0.1440 
  5 C        1.4810     0.2950     2.0300 C.2   1 <1>   0.5690 
  6 C       -0.7910    -1.9340    -0.6960 C.ar  1 <1>  -0.1500 
  7 C       -1.4050     0.1600     0.3160 C.ar  1 <1>  -0.1500 
  8 O        0.8050     1.0710     2.6690 O.2   1 <1>  -0.5700 
  9 N        1.9560     0.6090     0.7790 N.am  1 <1>  -0.6600 
 10 C       -0.9400    -1.3780    -1.9560 C.ar  1 <1>  -0.1500 
 11 C       -1.5620     0.7270    -0.9370 C.ar  1 <1>  -0.1500 
 12 C        2.5850    -0.3670    -0.1570 C.3   1 <1>   0.1400 
 13 C        1.7030     1.9430     0.1690 C.3   1 <1>   0.1400 
 14 C       -1.3230    -0.0540    -2.0510 C.ar  1 <1>   0.1900 
 15 C        3.9130     0.1900    -0.6950 C.3   1 <1>  -0.0800 
 16 C        3.0170     2.5290    -0.3560 C.3   1 <1>  -0.1600 
 17 F       -1.4600     0.4790    -3.2350 F     1 <1>  -0.1900 
 18 C        3.7090     1.5720    -1.3370 C.3   1 <1>  -0.1600 
 19 C        4.5360    -0.7810    -1.7060 C.3   1 <1>  -0.2400 
 20 H       -1.0020    -1.0650     2.6120 H     1 <1>   0.0800 
 21 H       -1.5240    -2.6130     1.9570 H     1 <1>   0.0800 
 22 H        2.8330    -1.2820     2.5960 H     1 <1>   0.0800 
 23 H        1.5370    -0.9970     3.7380 H     1 <1>   0.0800 
 24 H       -0.4920    -2.9650    -0.6010 H     1 <1>   0.1500 
 25 H       -1.5750     0.7600     1.1940 H     1 <1>   0.1500 
 26 H       -0.7650    -1.9550    -2.8450 H     1 <1>   0.1500 
 27 H       -1.8600     1.7540    -1.0490 H     1 <1>   0.1500 
 28 H        1.9060    -0.5420    -0.9750 H     1 <1>   0.0800 
 29 H        2.7660    -1.3090     0.3240 H     1 <1>   0.0800 
 30 H        1.2710     2.6170     0.8900 H     1 <1>   0.0800 
 31 H        1.0050     1.8290    -0.6420 H     1 <1>   0.0800 
 32 H        4.5910     0.2900     0.1370 H     1 <1>   0.0800 
 33 H        3.6650     2.7290     0.4800 H     1 <1>   0.0800 
 34 H        2.8160     3.4650    -0.8450 H     1 <1>   0.0800 
 35 H        3.1010     1.4730    -2.2200 H     1 <1>   0.0800 
 36 H        4.6590     1.9840    -1.6300 H     1 <1>   0.0800 
 37 H        3.8860    -0.9160    -2.5530 H     1 <1>   0.0800 
 38 H        4.7070    -1.7390    -1.2480 H     1 <1>   0.0800 
 39 H        5.4800    -0.4000    -2.0550 H     1 <1>   0.0800 
@<TRIPOS>BOND
  1   1   2  1   
  2   1   3  1   
  3   2   4  1   
  4   2  20  1   
  5   2  21  1   
  6   3   5  1   
  7   3  22  1   
  8   3  23  1   
  9   4   6  ar  
 10   4   7  ar  
 11   5   8  2   
 12   5   9  am  
 13   6  10  ar  
 14   6  24  1   
 15   7  11  ar  
 16   7  25  1   
 17   9  12  1   
 18   9  13  1   
 19  10  14  ar  
 20  10  26  1   
 21  11  14  ar  
 22  11  27  1   
 23  12  15  1   
 24  12  28  1   
 25  12  29  1   
 26  13  16  1   
 27  13  30  1   
 28  13  31  1   
 29  14  17  1   
 30  15  18  1   
 31  15  19  1   
 32  15  32  1   
 33  16  18  1   
 34  16  33  1   
 35  16  34  1   
 36  18  35  1   
 37  18  36  1   
 38  19  37  1   
 39  19  38  1   
 40  19  39  1   
@<TRIPOS>SUBSTRUCTURE
  1 ****   9 GROUP 4 **** **** 0

# MOE 2024.06 (io_trps.svl 2023.06)
