@<TRIPOS>MOLECULE
NONAME
30 30 1 0 0 
SMALL
USER_CHARGES


@<TRIPOS>ATOM
  1 O        0.9730    -0.7880    -0.8880 O.co2 1 <1>  -0.9000 
  2 C        2.0070    -0.8540    -0.2070 C.2   1 <1>   0.9060 
  3 O        2.5290     0.1500     0.2930 O.co2 1 <1>  -0.9000 
  4 C        2.7030    -2.1960    -0.0390 C.3   1 <1>   0.0140 
  5 O        1.9760    -3.0950     0.7990 O.3   1 <1>  -0.3630 
  6 C        2.0450    -4.4160     0.5320 C.ar  1 <1>   0.0820 
  7 C        0.8970    -5.1950     0.3250 C.ar  1 <1>   0.0820 
  8 C        3.2910    -5.0230     0.4900 C.ar  1 <1>  -0.1500 
  9 O       -0.3860    -4.7310     0.3090 O.3   1 <1>  -0.3630 
 10 C        1.0330    -6.5530     0.1010 C.ar  1 <1>  -0.1500 
 11 C        3.4020    -6.3800     0.2550 C.ar  1 <1>  -0.1500 
 12 C       -0.6730    -3.4010    -0.0820 C.3   1 <1>   0.0400 
 13 C        2.2790    -7.1880     0.0590 C.ar  1 <1>   0.0860 
 14 C        2.4370    -8.6080    -0.1770 C.2   1 <1>   0.4230 
 15 O        3.5140    -9.1100    -0.3870 O.2   1 <1>  -0.5700 
 16 C        1.2080    -9.5210    -0.1640 C.3   1 <1>  -0.0990 
 17 C        1.5230   -11.0270    -0.1420 C.3   1 <1>  -0.2400 
 18 H        2.8060    -2.6370    -1.0110 H     1 <1>   0.0800 
 19 H        3.6690    -2.0360     0.3970 H     1 <1>   0.0800 
 20 H        4.1740    -4.4310     0.6530 H     1 <1>   0.1500 
 21 H        0.1300    -7.1110    -0.0520 H     1 <1>   0.1500 
 22 H        4.3800    -6.8290     0.2250 H     1 <1>   0.1500 
 23 H       -0.0930    -3.1510    -0.9530 H     1 <1>   0.0800 
 24 H       -1.7200    -3.3300    -0.3090 H     1 <1>   0.0800 
 25 H       -0.4340    -2.7320     0.7260 H     1 <1>   0.0800 
 26 H        0.6190    -9.3060    -1.0380 H     1 <1>   0.0800 
 27 H        0.6190    -9.2900     0.7050 H     1 <1>   0.0800 
 28 H        2.0810   -11.3020    -1.0210 H     1 <1>   0.0800 
 29 H        0.6130   -11.5990    -0.1170 H     1 <1>   0.0800 
 30 H        2.1110   -11.2700     0.7250 H     1 <1>   0.0800 
@<TRIPOS>BOND
  1   1   2  ar  
  2   2   3  ar  
  3   2   4  1   
  4   4   5  1   
  5   4  18  1   
  6   4  19  1   
  7   5   6  1   
  8   6   7  ar  
  9   6   8  ar  
 10   7   9  1   
 11   7  10  ar  
 12   8  11  ar  
 13   8  20  1   
 14   9  12  1   
 15  10  13  ar  
 16  10  21  1   
 17  11  13  ar  
 18  11  22  1   
 19  12  23  1   
 20  12  24  1   
 21  12  25  1   
 22  13  14  1   
 23  14  15  2   
 24  14  16  1   
 25  16  17  1   
 26  16  26  1   
 27  16  27  1   
 28  17  28  1   
 29  17  29  1   
 30  17  30  1   
@<TRIPOS>SUBSTRUCTURE
  1 ****   6 GROUP 4 **** **** 0

# MOE 2024.06 (io_trps.svl 2023.06)
