@<TRIPOS>MOLECULE
NONAME
28 28 1 0 0 
SMALL
USER_CHARGES


@<TRIPOS>ATOM
  1 I        0.2450    -0.2530     0.7160 I     1 <1>  -0.0810 
  2 C        0.1580     1.8480     0.3160 C.ar  1 <1>   0.0810 
  3 C        1.3210     2.6090     0.3090 C.ar  1 <1>   0.0820 
  4 C       -1.0910     2.3800     0.0640 C.ar  1 <1>  -0.1500 
  5 O        2.5080     1.9830     0.5600 O.3   1 <1>  -0.3630 
  6 C        1.1960     3.9820     0.0520 C.ar  1 <1>   0.0820 
  7 C       -1.2310     3.7400    -0.2120 C.ar  1 <1>  -0.1790 
  8 C        3.6420     2.2850    -0.2190 C.3   1 <1>   0.1200 
  9 O        2.3090     4.7740     0.0810 O.3   1 <1>  -0.3630 
 10 C       -0.0670     4.5130    -0.2100 C.ar  1 <1>  -0.1500 
 11 C       -2.5340     4.3310    -0.4880 C.2   1 <1>   0.9790 
 12 C        4.5590     1.0660    -0.2090 C.3   1 <1>  -0.2400 
 13 C        2.2150     6.1780     0.0050 C.3   1 <1>   0.1200 
 14 O       -2.6390     5.5490    -0.7220 O.co2 1 <1>  -0.9000 
 15 O       -3.5610     3.6290    -0.4950 O.co2 1 <1>  -0.9000 
 16 C        3.6180     6.7530     0.1710 C.3   1 <1>  -0.2400 
 17 H       -1.9690     1.7560     0.0750 H     1 <1>   0.1500 
 18 H        4.1350     3.1360     0.2170 H     1 <1>   0.0800 
 19 H        3.3210     2.5170    -1.2200 H     1 <1>   0.0800 
 20 H       -0.1980     5.5580    -0.4230 H     1 <1>   0.1500 
 21 H        4.8590     0.8400     0.7990 H     1 <1>   0.0800 
 22 H        5.4380     1.2650    -0.7950 H     1 <1>   0.0800 
 23 H        4.0470     0.2190    -0.6300 H     1 <1>   0.0800 
 24 H        1.5650     6.5190     0.7940 H     1 <1>   0.0800 
 25 H        1.8050     6.4410    -0.9550 H     1 <1>   0.0800 
 26 H        4.0210     6.4680     1.1260 H     1 <1>   0.0800 
 27 H        3.5780     7.8260     0.1200 H     1 <1>   0.0800 
 28 H        4.2580     6.3940    -0.6140 H     1 <1>   0.0800 
@<TRIPOS>BOND
  1   1   2  1   
  2   2   3  ar  
  3   2   4  ar  
  4   3   5  1   
  5   3   6  ar  
  6   4   7  ar  
  7   4  17  1   
  8   5   8  1   
  9   6   9  1   
 10   6  10  ar  
 11   7  10  ar  
 12   7  11  1   
 13   8  12  1   
 14   8  18  1   
 15   8  19  1   
 16   9  13  1   
 17  10  20  1   
 18  11  14  ar  
 19  11  15  ar  
 20  12  21  1   
 21  12  22  1   
 22  12  23  1   
 23  13  16  1   
 24  13  24  1   
 25  13  25  1   
 26  16  26  1   
 27  16  27  1   
 28  16  28  1   
@<TRIPOS>SUBSTRUCTURE
  1 ****   6 GROUP 4 **** **** 0

# MOE 2024.06 (io_trps.svl 2023.06)
