@<TRIPOS>MOLECULE
NONAME
53 55 1 0 0 
SMALL
USER_CHARGES


@<TRIPOS>ATOM
  1 O        0.4900    -0.7310     2.2020 O.2   1 <1>  -0.5700 
  2 C        0.4580    -1.2480     1.1040 C.2   1 <1>   0.6900 
  3 N        1.5870    -1.8680     0.6180 N.am  1 <1>  -0.6600 
  4 N       -0.6710    -1.2030     0.3370 N.am  1 <1>  -0.5470 
  5 C        1.5600    -2.9270    -0.4380 C.3   1 <1>   0.1400 
  6 C        2.8540    -1.8070     1.4180 C.3   1 <1>   0.1400 
  7 C       -1.9850    -0.8300     0.6590 C.ar  1 <1>   0.1170 
  8 C        2.8300    -2.8900    -1.3130 C.3   1 <1>   0.3430 
  9 C        4.0980    -1.7800     0.5150 C.3   1 <1>   0.3430 
 10 C       -2.8290    -0.3200    -0.3330 C.ar  1 <1>  -0.1440 
 11 C       -2.4850    -0.9870     1.9480 C.ar  1 <1>  -0.1500 
 12 N        4.0880    -2.8990    -0.4930 N.4   1 <1>  -0.9590 
 13 C       -4.1380     0.0110    -0.0170 C.ar  1 <1>  -0.1500 
 14 C       -2.3570    -0.1020    -1.7680 C.3   1 <1>  -0.0170 
 15 C       -3.7900    -0.6500     2.2550 C.ar  1 <1>  -0.1500 
 16 C        5.3130    -2.8850    -1.3390 C.3   1 <1>   0.4860 
 17 C       -4.6200    -0.1510     1.2690 C.ar  1 <1>  -0.1500 
 18 C       -2.4520    -1.3980    -2.5790 C.3   1 <1>  -0.2400 
 19 C        6.5080    -3.1500    -0.4450 C.ar  1 <1>  -0.1430 
 20 C        6.8070    -4.4280     0.0250 C.ar  1 <1>  -0.1430 
 21 C        7.3150    -2.0780    -0.0840 C.ar  1 <1>  -0.1500 
 22 C        7.8940    -4.6010     0.8670 C.ar  1 <1>  -0.1500 
 23 C        5.9950    -5.6610    -0.3550 C.3   1 <1>  -0.0970 
 24 C        8.3980    -2.2650     0.7530 C.ar  1 <1>  -0.1500 
 25 C        8.6850    -3.5280     1.2330 C.ar  1 <1>  -0.1500 
 26 H       -0.5100    -1.3060    -0.6550 H     1 <1>   0.3700 
 27 H        0.6990    -2.8110    -1.0710 H     1 <1>   0.0800 
 28 H        1.4810    -3.8900     0.0390 H     1 <1>   0.0800 
 29 H        2.8970    -2.6560     2.0780 H     1 <1>   0.0800 
 30 H        2.8640    -0.9210     2.0320 H     1 <1>   0.0800 
 31 H        2.8010    -1.9960    -1.9150 H     1 <1>   0.0800 
 32 H        2.8210    -3.7370    -1.9800 H     1 <1>   0.0800 
 33 H        4.9770    -1.8510     1.1360 H     1 <1>   0.0800 
 34 H        4.1300    -0.8310     0.0070 H     1 <1>   0.0800 
 35 H       -1.8530    -1.3780     2.7240 H     1 <1>   0.1500 
 36 H        4.1360    -3.7720     0.0470 H     1 <1>   0.4500 
 37 H       -4.7970     0.4020    -0.7730 H     1 <1>   0.1500 
 38 H       -1.3490     0.2730    -1.7760 H     1 <1>   0.0800 
 39 H       -2.9700     0.6490    -2.2380 H     1 <1>   0.0800 
 40 H       -4.1570    -0.7760     3.2580 H     1 <1>   0.1500 
 41 H        5.4210    -1.9300    -1.8280 H     1 <1>   0.0800 
 42 H        5.2570    -3.6510    -2.0950 H     1 <1>   0.0800 
 43 H       -5.6370     0.1110     1.5030 H     1 <1>   0.1500 
 44 H       -1.8570    -2.1740    -2.1350 H     1 <1>   0.0800 
 45 H       -2.1170    -1.2310    -3.5870 H     1 <1>   0.0800 
 46 H       -3.4740    -1.7330    -2.6100 H     1 <1>   0.0800 
 47 H        7.1160    -1.0850    -0.4500 H     1 <1>   0.1500 
 48 H        8.1430    -5.5780     1.2470 H     1 <1>   0.1500 
 49 H        5.0860    -5.7060     0.2160 H     1 <1>   0.0800 
 50 H        6.5570    -6.5560    -0.1510 H     1 <1>   0.0800 
 51 H        5.7640    -5.6640    -1.4050 H     1 <1>   0.0800 
 52 H        9.0220    -1.4320     1.0320 H     1 <1>   0.1500 
 53 H        9.5280    -3.6770     1.8870 H     1 <1>   0.1500 
@<TRIPOS>BOND
  1   1   2  2   
  2   2   3  am  
  3   2   4  am  
  4   3   5  1   
  5   3   6  1   
  6   4   7  1   
  7   4  26  1   
  8   5   8  1   
  9   5  27  1   
 10   5  28  1   
 11   6   9  1   
 12   6  29  1   
 13   6  30  1   
 14   7  10  ar  
 15   7  11  ar  
 16   8  12  1   
 17   8  31  1   
 18   8  32  1   
 19   9  12  1   
 20   9  33  1   
 21   9  34  1   
 22  10  13  ar  
 23  10  14  1   
 24  11  15  ar  
 25  11  35  1   
 26  12  16  1   
 27  12  36  1   
 28  13  17  ar  
 29  13  37  1   
 30  14  18  1   
 31  14  38  1   
 32  14  39  1   
 33  15  17  ar  
 34  15  40  1   
 35  16  19  1   
 36  16  41  1   
 37  16  42  1   
 38  17  43  1   
 39  18  44  1   
 40  18  45  1   
 41  18  46  1   
 42  19  20  ar  
 43  19  21  ar  
 44  20  22  ar  
 45  20  23  1   
 46  21  24  ar  
 47  21  47  1   
 48  22  25  ar  
 49  22  48  1   
 50  23  49  1   
 51  23  50  1   
 52  23  51  1   
 53  24  25  ar  
 54  24  52  1   
 55  25  53  1   
@<TRIPOS>SUBSTRUCTURE
  1 ****   3 GROUP 4 **** **** 0

# MOE 2024.06 (io_trps.svl 2023.06)
