@<TRIPOS>MOLECULE
NONAME
34 36 1 0 0 
SMALL
USER_CHARGES


@<TRIPOS>ATOM
  1 O       -1.8040     0.0180    -0.8810 O.2   1 <1>  -0.5700 
  2 C       -1.9660     0.9170    -0.0960 C.2   1 <1>   0.7200 
  3 O       -3.1400     1.2150     0.4590 O.3   1 <1>  -0.2330 
  4 C       -0.8120     1.8150     0.3360 C.3   1 <1>  -0.1000 
  5 C       -4.3210     0.5650     0.2960 C.ar  1 <1>   0.0820 
  6 C       -0.6360     3.2080    -0.1910 C.3   1 <1>  -0.1900 
  7 C        0.3270     2.1460    -0.6030 C.3   1 <1>  -0.2000 
  8 C       -5.4710     1.3070     0.2590 C.ar  1 <1>  -0.1500 
  9 C       -4.3910    -0.8350     0.1890 C.ar  1 <1>  -0.1500 
 10 C       -1.5970     3.7610    -1.2500 C.3   1 <1>  -0.1450 
 11 C       -0.1520     4.2970     0.7720 C.3   1 <1>  -0.1450 
 12 C       -6.7330     0.7000     0.1040 C.ar  1 <1>   0.0000 
 13 C       -5.6030    -1.4480     0.0370 C.ar  1 <1>  -0.1500 
 14 C       -6.8010    -0.7060    -0.0110 C.ar  1 <1>   0.0000 
 15 C       -7.9310     1.4410     0.0590 C.ar  1 <1>  -0.1500 
 16 C       -8.0630    -1.3120    -0.1680 C.ar  1 <1>  -0.1500 
 17 C       -9.1430     0.8260    -0.0930 C.ar  1 <1>  -0.1500 
 18 C       -9.2100    -0.5670    -0.2090 C.ar  1 <1>  -0.1500 
 19 H       -0.5530     1.6320     1.3620 H     1 <1>   0.1000 
 20 H        0.2890     1.7550    -1.6070 H     1 <1>   0.1000 
 21 H        1.3290     2.1560    -0.2090 H     1 <1>   0.1000 
 22 H       -5.4220     2.3750     0.3490 H     1 <1>   0.1500 
 23 H       -3.4890    -1.4190     0.2290 H     1 <1>   0.1500 
 24 H       -1.8840     2.9980    -1.9530 H     1 <1>   0.0800 
 25 H       -1.1250     4.5580    -1.7980 H     1 <1>   0.0800 
 26 H       -2.4870     4.1440    -0.7820 H     1 <1>   0.0800 
 27 H        0.5390     3.8960     1.4920 H     1 <1>   0.0800 
 28 H       -0.9860     4.7230     1.3010 H     1 <1>   0.0800 
 29 H        0.3460     5.0790     0.2260 H     1 <1>   0.0800 
 30 H       -5.6610    -2.5180    -0.0490 H     1 <1>   0.1500 
 31 H       -7.8750     2.5110     0.1480 H     1 <1>   0.1500 
 32 H       -8.1090    -2.3830    -0.2560 H     1 <1>   0.1500 
 33 H      -10.0540     1.3970    -0.1270 H     1 <1>   0.1500 
 34 H      -10.1700    -1.0370    -0.3290 H     1 <1>   0.1500 
@<TRIPOS>BOND
  1   1   2  2   
  2   2   3  1   
  3   2   4  1   
  4   3   5  1   
  5   4   6  1   
  6   4   7  1   
  7   4  19  1   
  8   5   8  ar  
  9   5   9  ar  
 10   6   7  1   
 11   6  10  1   
 12   6  11  1   
 13   7  20  1   
 14   7  21  1   
 15   8  12  ar  
 16   8  22  1   
 17   9  13  ar  
 18   9  23  1   
 19  10  24  1   
 20  10  25  1   
 21  10  26  1   
 22  11  27  1   
 23  11  28  1   
 24  11  29  1   
 25  12  14  ar  
 26  12  15  ar  
 27  13  14  ar  
 28  13  30  1   
 29  14  16  ar  
 30  15  17  ar  
 31  15  31  1   
 32  16  18  ar  
 33  16  32  1   
 34  17  18  ar  
 35  17  33  1   
 36  18  34  1   
@<TRIPOS>SUBSTRUCTURE
  1 ****   5 GROUP 4 **** **** 0

# MOE 2024.06 (io_trps.svl 2023.06)
