@<TRIPOS>MOLECULE
NONAME
48 50 1 0 0 
SMALL
USER_CHARGES


@<TRIPOS>ATOM
  1 CL      -0.2350     0.8300     1.1130 Cl    1 <1>  -0.1770 
  2 C        1.2970     1.3760     0.4790 C.ar  1 <1>   0.1770 
  3 C        1.3470     2.3960    -0.4660 C.ar  1 <1>   0.0860 
  4 C        2.4440     0.7710     0.9520 C.ar  1 <1>  -0.1500 
  5 C        0.1640     3.0680    -0.9500 C.2   1 <1>   0.5440 
  6 C        2.6050     2.7680    -0.9380 C.ar  1 <1>  -0.1500 
  7 C        3.6780     1.1810     0.4780 C.ar  1 <1>  -0.1500 
  8 O       -0.1460     2.9350    -2.1170 O.2   1 <1>  -0.5700 
  9 N       -0.5790     3.9040    -0.1470 N.am  1 <1>  -0.6600 
 10 C        3.7800     2.1860    -0.4790 C.ar  1 <1>  -0.0090 
 11 C       -1.7520     4.6730    -0.6570 C.3   1 <1>   0.1400 
 12 C       -0.2160     4.3070     1.2440 C.3   1 <1>   0.1400 
 13 S        5.4010     2.7490    -1.0770 S.o2  1 <1>   1.4470 
 14 C       -1.5090     6.1890    -0.5040 C.3   1 <1>   0.2000 
 15 C       -0.0310     5.8360     1.3470 C.3   1 <1>   0.2000 
 16 O        6.3960     1.7490    -0.7570 O.2   1 <1>  -0.6500 
 17 O        5.2880     3.2370    -2.4340 O.2   1 <1>  -0.6500 
 18 N        5.7110     4.0880    -0.0860 N.am  1 <1>  -0.8490 
 19 O       -1.1360     6.5120     0.8090 O.3   1 <1>  -0.5600 
 20 C       -2.7640     6.9990    -0.8170 C.3   1 <1>  -0.2400 
 21 C        1.2570     6.3370     0.6810 C.3   1 <1>  -0.2400 
 22 C        5.0600     5.3250    -0.4900 C.3   1 <1>   0.1960 
 23 C        7.1240     4.4130     0.0070 C.3   1 <1>   0.1960 
 24 C        5.7720     6.4000     0.3190 C.3   1 <1>  -0.1600 
 25 C        7.1590     5.8190     0.5980 C.3   1 <1>  -0.1600 
 26 H        2.3720    -0.0140     1.6860 H     1 <1>   0.1500 
 27 H        2.6580     3.5380    -1.6900 H     1 <1>   0.1500 
 28 H        4.5760     0.7140     0.8530 H     1 <1>   0.1500 
 29 H       -2.6270     4.3920    -0.0990 H     1 <1>   0.0800 
 30 H       -1.9370     4.4460    -1.6920 H     1 <1>   0.0800 
 31 H        0.6840     3.8200     1.5690 H     1 <1>   0.0800 
 32 H       -1.0060     4.0080     1.9090 H     1 <1>   0.0800 
 33 H       -0.7200     6.4940    -1.1690 H     1 <1>   0.0800 
 34 H        0.0070     6.1030     2.3890 H     1 <1>   0.0800 
 35 H       -3.5590     6.7320    -0.1440 H     1 <1>   0.0800 
 36 H       -3.0840     6.8090    -1.8250 H     1 <1>   0.0800 
 37 H       -2.5530     8.0490    -0.7180 H     1 <1>   0.0800 
 38 H        1.3160     6.0170    -0.3430 H     1 <1>   0.0800 
 39 H        2.1080     5.9440     1.2060 H     1 <1>   0.0800 
 40 H        1.2960     7.4110     0.7270 H     1 <1>   0.0800 
 41 H        4.0040     5.2990    -0.2840 H     1 <1>   0.0800 
 42 H        5.2190     5.5090    -1.5410 H     1 <1>   0.0800 
 43 H        7.5640     4.4170    -0.9780 H     1 <1>   0.0800 
 44 H        7.6430     3.7010     0.6280 H     1 <1>   0.0800 
 45 H        5.2450     6.5620     1.2430 H     1 <1>   0.0800 
 46 H        5.8210     7.3260    -0.2270 H     1 <1>   0.0800 
 47 H        7.9400     6.4000     0.1410 H     1 <1>   0.0800 
 48 H        7.3360     5.7640     1.6580 H     1 <1>   0.0800 
@<TRIPOS>BOND
  1   1   2  1   
  2   2   3  ar  
  3   2   4  ar  
  4   3   5  1   
  5   3   6  ar  
  6   4   7  ar  
  7   4  26  1   
  8   5   8  2   
  9   5   9  am  
 10   6  10  ar  
 11   6  27  1   
 12   7  10  ar  
 13   7  28  1   
 14   9  11  1   
 15   9  12  1   
 16  10  13  1   
 17  11  14  1   
 18  11  29  1   
 19  11  30  1   
 20  12  15  1   
 21  12  31  1   
 22  12  32  1   
 23  13  16  2   
 24  13  17  2   
 25  13  18  am  
 26  14  19  1   
 27  14  20  1   
 28  14  33  1   
 29  15  19  1   
 30  15  21  1   
 31  15  34  1   
 32  18  22  1   
 33  18  23  1   
 34  20  35  1   
 35  20  36  1   
 36  20  37  1   
 37  21  38  1   
 38  21  39  1   
 39  21  40  1   
 40  22  24  1   
 41  22  41  1   
 42  22  42  1   
 43  23  25  1   
 44  23  43  1   
 45  23  44  1   
 46  24  25  1   
 47  24  45  1   
 48  24  46  1   
 49  25  47  1   
 50  25  48  1   
@<TRIPOS>SUBSTRUCTURE
  1 ****   6 GROUP 4 **** **** 0

# MOE 2024.06 (io_trps.svl 2023.06)
