@<TRIPOS>MOLECULE
NONAME
38 39 1 0 0 
SMALL
USER_CHARGES


@<TRIPOS>ATOM
  1 CL       0.8070     0.6250    -0.9720 Cl    1 <1>  -0.1770 
  2 C        0.6070    -1.0600    -0.5360 C.ar  1 <1>   0.1770 
  3 C        1.7210    -1.8580    -0.2980 C.ar  1 <1>   0.0820 
  4 C       -0.6750    -1.5650    -0.4380 C.ar  1 <1>  -0.1500 
  5 O        2.9510    -1.2900    -0.4160 O.3   1 <1>  -0.3630 
  6 C        1.5220    -3.1930     0.0470 C.ar  1 <1>  -0.1500 
  7 C       -0.8580    -2.8940    -0.0940 C.ar  1 <1>  -0.1500 
  8 C        4.1330    -2.0050    -0.1650 C.3   1 <1>   0.1200 
  9 C        0.2380    -3.7090     0.1500 C.ar  1 <1>  -0.1440 
 10 C        5.2910    -1.0320    -0.3810 C.3   1 <1>  -0.1600 
 11 C        0.0250    -5.1650     0.5250 C.3   1 <1>  -0.0970 
 12 C        6.6340    -1.7030    -0.1070 C.3   1 <1>   0.3430 
 13 N        7.7470    -0.7590    -0.4050 N.4   1 <1>  -0.9590 
 14 C        9.0810    -1.4040    -0.3670 C.3   1 <1>   0.3430 
 15 C        7.8320     0.3990     0.5230 C.3   1 <1>   0.3430 
 16 C       10.0580    -0.2440    -0.2360 C.3   1 <1>  -0.1600 
 17 C        9.2530     0.9180     0.3520 C.3   1 <1>  -0.1600 
 18 H       -1.5170    -0.9250    -0.6280 H     1 <1>   0.1500 
 19 H        2.3520    -3.8460     0.2360 H     1 <1>   0.1500 
 20 H       -1.8560    -3.2900    -0.0180 H     1 <1>   0.1500 
 21 H        4.1790    -2.8310    -0.8550 H     1 <1>   0.0800 
 22 H        4.1010    -2.3610     0.8510 H     1 <1>   0.0800 
 23 H        5.1520    -0.1970     0.2830 H     1 <1>   0.0800 
 24 H        5.2580    -0.6880    -1.4000 H     1 <1>   0.0800 
 25 H        0.8380    -5.5240     1.1300 H     1 <1>   0.0800 
 26 H       -0.0360    -5.7650    -0.3650 H     1 <1>   0.0800 
 27 H       -0.8870    -5.2800     1.0830 H     1 <1>   0.0800 
 28 H        6.7260    -2.5750    -0.7350 H     1 <1>   0.0800 
 29 H        6.6840    -2.0200     0.9220 H     1 <1>   0.0800 
 30 H        7.6170    -0.3800    -1.3530 H     1 <1>   0.4500 
 31 H        9.2710    -1.9880    -1.2540 H     1 <1>   0.0800 
 32 H        9.1580    -2.0370     0.5030 H     1 <1>   0.0800 
 33 H        7.6900     0.0650     1.5380 H     1 <1>   0.0800 
 34 H        7.0990     1.1550     0.2880 H     1 <1>   0.0800 
 35 H       10.4440     0.0190    -1.2060 H     1 <1>   0.0800 
 36 H       10.8860    -0.5180     0.3960 H     1 <1>   0.0800 
 37 H        9.6500     1.2410     1.2990 H     1 <1>   0.0800 
 38 H        9.2570     1.7580    -0.3220 H     1 <1>   0.0800 
@<TRIPOS>BOND
  1   1   2  1   
  2   2   3  ar  
  3   2   4  ar  
  4   3   5  1   
  5   3   6  ar  
  6   4   7  ar  
  7   4  18  1   
  8   5   8  1   
  9   6   9  ar  
 10   6  19  1   
 11   7   9  ar  
 12   7  20  1   
 13   8  10  1   
 14   8  21  1   
 15   8  22  1   
 16   9  11  1   
 17  10  12  1   
 18  10  23  1   
 19  10  24  1   
 20  11  25  1   
 21  11  26  1   
 22  11  27  1   
 23  12  13  1   
 24  12  28  1   
 25  12  29  1   
 26  13  14  1   
 27  13  15  1   
 28  13  30  1   
 29  14  16  1   
 30  14  31  1   
 31  14  32  1   
 32  15  17  1   
 33  15  33  1   
 34  15  34  1   
 35  16  17  1   
 36  16  35  1   
 37  16  36  1   
 38  17  37  1   
 39  17  38  1   
@<TRIPOS>SUBSTRUCTURE
  1 ****   8 GROUP 4 **** **** 0

# MOE 2024.06 (io_trps.svl 2023.06)
