@<TRIPOS>MOLECULE
NONAME
38 38 1 0 0 
SMALL
USER_CHARGES


@<TRIPOS>ATOM
  1 O        0.6850    -5.1460     1.4690 O.2   1 <1>  -0.5700 
  2 C        0.0030    -5.2900     0.4680 C.2   1 <1>   0.7800 
  3 O        0.2180    -4.4990    -0.5900 O.3   1 <1>  -0.2330 
  4 N       -0.9560    -6.2670     0.3640 N.am  1 <1>  -0.6600 
  5 C        0.9750    -3.3710    -0.5530 C.ar  1 <1>   0.0820 
  6 C       -1.8120    -6.4570    -0.8430 C.3   1 <1>   0.0600 
  7 C       -1.3260    -7.1380     1.5160 C.3   1 <1>   0.0600 
  8 C        2.3670    -3.4290    -0.6190 C.ar  1 <1>  -0.1440 
  9 C        0.3200    -2.1450    -0.4970 C.ar  1 <1>  -0.1440 
 10 C        3.0920    -2.2470    -0.6560 C.ar  1 <1>  -0.1500 
 11 C        3.0980    -4.7570    -0.6600 C.3   1 <1>   0.4860 
 12 C        1.0640    -0.9770    -0.5170 C.ar  1 <1>  -0.1500 
 13 C       -1.1990    -2.0670    -0.4170 C.3   1 <1>  -0.0960 
 14 C        2.4430    -1.0270    -0.6010 C.ar  1 <1>  -0.1500 
 15 N        3.3530    -5.2280     0.7320 N.4   1 <1>  -0.9590 
 16 C        4.2680    -4.3340     1.5010 C.3   1 <1>   0.2630 
 17 C        3.7970    -6.6490     0.7710 C.3   1 <1>   0.2630 
 18 H       -1.4830    -5.8410    -1.6620 H     1 <1>   0.0800 
 19 H       -2.8300    -6.2000    -0.6090 H     1 <1>   0.0800 
 20 H       -1.7760    -7.4870    -1.1560 H     1 <1>   0.0800 
 21 H       -0.7090    -6.9300     2.3730 H     1 <1>   0.0800 
 22 H       -1.2040    -8.1720     1.2460 H     1 <1>   0.0800 
 23 H       -2.3530    -6.9640     1.7870 H     1 <1>   0.0800 
 24 H        4.1660    -2.2560    -0.7290 H     1 <1>   0.1500 
 25 H        4.0280    -4.6480    -1.1930 H     1 <1>   0.0800 
 26 H        2.4880    -5.4750    -1.1840 H     1 <1>   0.0800 
 27 H        0.5740    -0.0190    -0.4730 H     1 <1>   0.1500 
 28 H       -1.6380    -2.5600    -1.2660 H     1 <1>   0.0800 
 29 H       -1.5350    -1.0460    -0.4070 H     1 <1>   0.0800 
 30 H       -1.5440    -2.5460     0.4820 H     1 <1>   0.0800 
 31 H        3.0090    -0.1100    -0.6260 H     1 <1>   0.1500 
 32 H        2.4220    -5.1690     1.2020 H     1 <1>   0.4500 
 33 H        5.2370    -4.2910     1.0330 H     1 <1>   0.0800 
 34 H        4.3830    -4.7000     2.5090 H     1 <1>   0.0800 
 35 H        3.8580    -3.3370     1.5500 H     1 <1>   0.0800 
 36 H        4.7500    -6.7600     0.2810 H     1 <1>   0.0800 
 37 H        3.0750    -7.2790     0.2760 H     1 <1>   0.0800 
 38 H        3.8910    -6.9790     1.7930 H     1 <1>   0.0800 
@<TRIPOS>BOND
  1   1   2  2   
  2   2   3  1   
  3   2   4  am  
  4   3   5  1   
  5   4   6  1   
  6   4   7  1   
  7   5   8  ar  
  8   5   9  ar  
  9   6  18  1   
 10   6  19  1   
 11   6  20  1   
 12   7  21  1   
 13   7  22  1   
 14   7  23  1   
 15   8  10  ar  
 16   8  11  1   
 17   9  12  ar  
 18   9  13  1   
 19  10  14  ar  
 20  10  24  1   
 21  11  15  1   
 22  11  25  1   
 23  11  26  1   
 24  12  14  ar  
 25  12  27  1   
 26  13  28  1   
 27  13  29  1   
 28  13  30  1   
 29  14  31  1   
 30  15  16  1   
 31  15  17  1   
 32  15  32  1   
 33  16  33  1   
 34  16  34  1   
 35  16  35  1   
 36  17  36  1   
 37  17  37  1   
 38  17  38  1   
@<TRIPOS>SUBSTRUCTURE
  1 ****   5 GROUP 4 **** **** 0

# MOE 2024.06 (io_trps.svl 2023.06)
