@<TRIPOS>MOLECULE
NONAME
47 49 1 0 0 
SMALL
USER_CHARGES


@<TRIPOS>ATOM
  1 S        0.2890    -0.8500     0.6890 S.o2  1 <1>   1.4470 
  2 O        0.0580    -0.9900     2.1070 O.2   1 <1>  -0.6500 
  3 O        1.4670    -1.3970     0.0610 O.2   1 <1>  -0.6500 
  4 N       -0.9980    -1.6530    -0.1190 N.am  1 <1>  -0.7570 
  5 C        0.0410     0.8680     0.1580 C.ar  1 <1>  -0.0090 
  6 C       -2.3300    -1.3030    -0.0270 C.ar  1 <1>   0.1990 
  7 C       -0.8530     1.7000     0.8240 C.ar  1 <1>  -0.1500 
  8 C        0.7080     1.3860    -0.9470 C.ar  1 <1>  -0.1500 
  9 C       -3.0690    -1.0840    -1.1830 C.ar  1 <1>  -0.1500 
 10 C       -2.9650    -1.1480     1.2000 C.ar  1 <1>  -0.1500 
 11 C       -1.0750     3.0000     0.4060 C.ar  1 <1>  -0.1500 
 12 C        0.4940     2.6860    -1.3720 C.ar  1 <1>  -0.1500 
 13 C       -4.3880    -0.6810    -1.1130 C.ar  1 <1>  -0.1500 
 14 C       -4.2850    -0.7450     1.2670 C.ar  1 <1>  -0.1500 
 15 C       -0.4000     3.4950    -0.6950 C.ar  1 <1>  -0.1500 
 16 C       -5.0240    -0.4820     0.1140 C.ar  1 <1>   0.0860 
 17 C       -6.3930    -0.0180     0.1970 C.2   1 <1>   0.5440 
 18 O       -7.2130    -0.7100     0.7740 O.2   1 <1>  -0.5700 
 19 N       -6.7890     1.1890    -0.3520 N.am  1 <1>  -0.6600 
 20 C       -5.8110     2.1860    -0.8800 C.3   1 <1>   0.1400 
 21 C       -8.2330     1.5530    -0.3930 C.3   1 <1>   0.1400 
 22 C       -6.1790     3.6480    -0.5920 C.3   1 <1>  -0.1600 
 23 C       -8.6390     2.2640     0.9030 C.3   1 <1>  -0.1600 
 24 C       -6.6520     3.9160     0.8460 C.3   1 <1>  -0.1600 
 25 C       -8.1670     3.7220     1.0130 C.3   1 <1>  -0.1600 
 26 H       -0.6530    -2.0140    -1.0010 H     1 <1>   0.4200 
 27 H       -1.3820     1.3250     1.6840 H     1 <1>   0.1500 
 28 H        1.4090     0.7670    -1.4830 H     1 <1>   0.1500 
 29 H       -2.6050    -1.2220    -2.1430 H     1 <1>   0.1500 
 30 H       -2.4250    -1.3500     2.1080 H     1 <1>   0.1500 
 31 H       -1.7690     3.6270     0.9390 H     1 <1>   0.1500 
 32 H        1.0240     3.0690    -2.2280 H     1 <1>   0.1500 
 33 H       -4.9490    -0.5150    -2.0170 H     1 <1>   0.1500 
 34 H       -4.7660    -0.6290     2.2230 H     1 <1>   0.1500 
 35 H       -0.5680     4.5070    -1.0230 H     1 <1>   0.1500 
 36 H       -5.7150     2.0490    -1.9430 H     1 <1>   0.0800 
 37 H       -4.8480     2.0030    -0.4370 H     1 <1>   0.0800 
 38 H       -8.8170     0.6540    -0.4950 H     1 <1>   0.0800 
 39 H       -8.4400     2.1710    -1.2500 H     1 <1>   0.0800 
 40 H       -6.9190     3.9830    -1.2970 H     1 <1>   0.0800 
 41 H       -5.2980     4.2380    -0.7750 H     1 <1>   0.0800 
 42 H       -8.2750     1.6950     1.7410 H     1 <1>   0.0800 
 43 H       -9.7130     2.2570     0.9630 H     1 <1>   0.0800 
 44 H       -6.4250     4.9390     1.0910 H     1 <1>   0.0800 
 45 H       -6.1170     3.2910     1.5420 H     1 <1>   0.0800 
 46 H       -8.4520     4.0920     1.9830 H     1 <1>   0.0800 
 47 H       -8.6840     4.3190     0.2820 H     1 <1>   0.0800 
@<TRIPOS>BOND
  1   1   2  2   
  2   1   3  2   
  3   1   4  am  
  4   1   5  1   
  5   4   6  1   
  6   4  26  1   
  7   5   7  ar  
  8   5   8  ar  
  9   6   9  ar  
 10   6  10  ar  
 11   7  11  ar  
 12   7  27  1   
 13   8  12  ar  
 14   8  28  1   
 15   9  13  ar  
 16   9  29  1   
 17  10  14  ar  
 18  10  30  1   
 19  11  15  ar  
 20  11  31  1   
 21  12  15  ar  
 22  12  32  1   
 23  13  16  ar  
 24  13  33  1   
 25  14  16  ar  
 26  14  34  1   
 27  15  35  1   
 28  16  17  1   
 29  17  18  2   
 30  17  19  am  
 31  19  20  1   
 32  19  21  1   
 33  20  22  1   
 34  20  36  1   
 35  20  37  1   
 36  21  23  1   
 37  21  38  1   
 38  21  39  1   
 39  22  24  1   
 40  22  40  1   
 41  22  41  1   
 42  23  25  1   
 43  23  42  1   
 44  23  43  1   
 45  24  25  1   
 46  24  44  1   
 47  24  45  1   
 48  25  46  1   
 49  25  47  1   
@<TRIPOS>SUBSTRUCTURE
  1 ****  16 GROUP 4 **** **** 0

# MOE 2024.06 (io_trps.svl 2023.06)
