@<TRIPOS>MOLECULE
NONAME
32 32 1 0 0 
SMALL
USER_CHARGES


@<TRIPOS>ATOM
  1 S       -0.1090    -0.0640     0.9360 S.o2  1 <1>   1.3330 
  2 O       -1.0270    -0.4320     1.9840 O.2   1 <1>  -0.6500 
  3 O        1.0310    -0.8900     0.6300 O.2   1 <1>  -0.6500 
  4 N        0.4990     1.4580     1.4350 N.am  1 <1>  -0.7570 
  5 C       -1.0260     0.3380    -0.5560 C.3   1 <1>  -0.0550 
  6 C        1.5210     2.1300     0.7820 C.ar  1 <1>   0.1990 
  7 C       -1.7200    -0.8640    -1.2200 C.3   1 <1>  -0.2400 
  8 C        1.2660     3.2930     0.0540 C.ar  1 <1>  -0.1440 
  9 C        2.8210     1.6520     0.8600 C.ar  1 <1>  -0.1500 
 10 C        2.3100     3.9330    -0.5890 C.ar  1 <1>  -0.1500 
 11 C       -0.1360     3.8840    -0.0440 C.3   1 <1>  -0.0970 
 12 C        3.8900     2.2850     0.2280 C.ar  1 <1>   0.0860 
 13 C        3.5980     3.4370    -0.5050 C.ar  1 <1>  -0.1500 
 14 C        5.2410     1.7640     0.3370 C.2   1 <1>   0.6340 
 15 O        5.5470     0.8560     1.0810 O.2   1 <1>  -0.5700 
 16 O        6.1930     2.3230    -0.4200 O.3   1 <1>  -0.4300 
 17 C        7.5340     1.8770    -0.3790 C.3   1 <1>   0.0400 
 18 H        0.5730     1.4300     2.4480 H     1 <1>   0.4200 
 19 H       -0.3530     0.7780    -1.2670 H     1 <1>   0.0800 
 20 H       -1.7710     1.0720    -0.3160 H     1 <1>   0.0800 
 21 H       -0.9900    -1.6060    -1.4960 H     1 <1>   0.0800 
 22 H       -2.2460    -0.5500    -2.1040 H     1 <1>   0.0800 
 23 H       -2.4230    -1.3100    -0.5370 H     1 <1>   0.0800 
 24 H        3.0100     0.7540     1.4230 H     1 <1>   0.1500 
 25 H        2.1290     4.8270    -1.1610 H     1 <1>   0.1500 
 26 H       -0.7220     3.3270    -0.7520 H     1 <1>   0.0800 
 27 H       -0.0980     4.9090    -0.3660 H     1 <1>   0.0800 
 28 H       -0.6250     3.8550     0.9130 H     1 <1>   0.0800 
 29 H        4.3910     3.9570    -1.0140 H     1 <1>   0.1500 
 30 H        8.1110     2.4650    -1.0700 H     1 <1>   0.0800 
 31 H        7.5640     0.8380    -0.6600 H     1 <1>   0.0800 
 32 H        7.9120     2.0020     0.6210 H     1 <1>   0.0800 
@<TRIPOS>BOND
  1   1   2  2   
  2   1   3  2   
  3   1   4  am  
  4   1   5  1   
  5   4   6  1   
  6   4  18  1   
  7   5   7  1   
  8   5  19  1   
  9   5  20  1   
 10   6   8  ar  
 11   6   9  ar  
 12   7  21  1   
 13   7  22  1   
 14   7  23  1   
 15   8  10  ar  
 16   8  11  1   
 17   9  12  ar  
 18   9  24  1   
 19  10  13  ar  
 20  10  25  1   
 21  11  26  1   
 22  11  27  1   
 23  11  28  1   
 24  12  13  ar  
 25  12  14  1   
 26  13  29  1   
 27  14  15  2   
 28  14  16  1   
 29  16  17  1   
 30  17  30  1   
 31  17  31  1   
 32  17  32  1   
@<TRIPOS>SUBSTRUCTURE
  1 ****   9 GROUP 4 **** **** 0

# MOE 2024.06 (io_trps.svl 2023.06)
