@<TRIPOS>MOLECULE
NONAME
48 50 1 0 0 
SMALL
USER_CHARGES


@<TRIPOS>ATOM
  1 S        0.2840    -0.3760    -0.9690 S.o2  1 <1>   1.4470 
  2 O       -0.9210    -0.6590    -1.7190 O.2   1 <1>  -0.6500 
  3 O        1.4400     0.0760    -1.7160 O.2   1 <1>  -0.6500 
  4 N       -0.0730     0.8670     0.1260 N.am  1 <1>  -0.8490 
  5 C        0.8170    -1.7630     0.0770 C.ar  1 <1>  -0.0090 
  6 C       -1.3130     0.6870     0.8640 C.3   1 <1>   0.1960 
  7 C       -0.1950     2.1590    -0.5230 C.3   1 <1>   0.1960 
  8 C       -0.0910    -2.6280     0.6880 C.ar  1 <1>   0.0820 
  9 C        2.1720    -1.9750     0.2980 C.ar  1 <1>  -0.1500 
 10 C       -1.6300     2.0690     1.4230 C.3   1 <1>  -0.1600 
 11 C       -0.8880     3.0430     0.5080 C.3   1 <1>  -0.1600 
 12 O       -1.4110    -2.4080     0.5000 O.3   1 <1>  -0.3620 
 13 C        0.3720    -3.6800     1.4740 C.ar  1 <1>  -0.1500 
 14 C        2.6640    -3.0310     1.0630 C.ar  1 <1>   0.0860 
 15 C       -2.4070    -3.3250     0.8970 C.3   1 <1>   0.0400 
 16 C        1.7270    -3.8740     1.6540 C.ar  1 <1>  -0.1500 
 17 C        4.0850    -3.2530     1.2550 C.2   1 <1>   0.5440 
 18 O        4.4920    -3.4590     2.3820 O.2   1 <1>  -0.5700 
 19 N        4.9770    -3.2510     0.1870 N.am  1 <1>  -0.4770 
 20 C        6.3750    -3.1920     0.3350 C.ar  1 <1>   0.1170 
 21 C        4.4990    -3.4370    -1.2120 C.3   1 <1>   0.0600 
 22 C        7.0670    -4.1500     1.0670 C.ar  1 <1>  -0.1500 
 23 C        7.1020    -2.1750    -0.2770 C.ar  1 <1>  -0.1500 
 24 C        8.4450    -4.1010     1.1810 C.ar  1 <1>  -0.1500 
 25 C        8.4810    -2.1220    -0.1670 C.ar  1 <1>  -0.1500 
 26 C        9.1550    -3.0860     0.5620 C.ar  1 <1>  -0.1500 
 27 H       -1.1950    -0.0420     1.6480 H     1 <1>   0.0800 
 28 H       -2.1040     0.3770     0.2000 H     1 <1>   0.0800 
 29 H       -0.8130     2.0710    -1.4030 H     1 <1>   0.0800 
 30 H        0.7720     2.5440    -0.8020 H     1 <1>   0.0800 
 31 H        2.8810    -1.2910    -0.1380 H     1 <1>   0.1500 
 32 H       -1.2570     2.1450     2.4290 H     1 <1>   0.0800 
 33 H       -2.6910     2.2440     1.4260 H     1 <1>   0.0800 
 34 H       -1.5540     3.7380     0.0280 H     1 <1>   0.0800 
 35 H       -0.1490     3.5900     1.0670 H     1 <1>   0.0800 
 36 H       -0.3070    -4.3560     1.9600 H     1 <1>   0.1500 
 37 H       -3.3560    -2.9560     0.5500 H     1 <1>   0.0800 
 38 H       -2.4130    -3.3950     1.9700 H     1 <1>   0.0800 
 39 H       -2.2030    -4.2800     0.4470 H     1 <1>   0.0800 
 40 H        2.0780    -4.6860     2.2680 H     1 <1>   0.1500 
 41 H        4.3040    -2.4790    -1.6620 H     1 <1>   0.0800 
 42 H        3.6020    -4.0310    -1.2280 H     1 <1>   0.0800 
 43 H        5.2520    -3.9460    -1.7880 H     1 <1>   0.0800 
 44 H        6.5160    -4.9350     1.5530 H     1 <1>   0.1500 
 45 H        6.5830    -1.4210    -0.8370 H     1 <1>   0.1500 
 46 H        8.9630    -4.8500     1.7540 H     1 <1>   0.1500 
 47 H        9.0300    -1.3290    -0.6440 H     1 <1>   0.1500 
 48 H       10.2260    -3.0470     0.6510 H     1 <1>   0.1500 
@<TRIPOS>BOND
  1   1   2  2   
  2   1   3  2   
  3   1   4  am  
  4   1   5  1   
  5   4   6  1   
  6   4   7  1   
  7   5   8  ar  
  8   5   9  ar  
  9   6  10  1   
 10   6  27  1   
 11   6  28  1   
 12   7  11  1   
 13   7  29  1   
 14   7  30  1   
 15   8  12  1   
 16   8  13  ar  
 17   9  14  ar  
 18   9  31  1   
 19  10  11  1   
 20  10  32  1   
 21  10  33  1   
 22  11  34  1   
 23  11  35  1   
 24  12  15  1   
 25  13  16  ar  
 26  13  36  1   
 27  14  16  ar  
 28  14  17  1   
 29  15  37  1   
 30  15  38  1   
 31  15  39  1   
 32  16  40  1   
 33  17  18  2   
 34  17  19  am  
 35  19  20  1   
 36  19  21  1   
 37  20  22  ar  
 38  20  23  ar  
 39  21  41  1   
 40  21  42  1   
 41  21  43  1   
 42  22  24  ar  
 43  22  44  1   
 44  23  25  ar  
 45  23  45  1   
 46  24  26  ar  
 47  24  46  1   
 48  25  26  ar  
 49  25  47  1   
 50  26  48  1   
@<TRIPOS>SUBSTRUCTURE
  1 ****   9 GROUP 4 **** **** 0

# MOE 2024.06 (io_trps.svl 2023.06)
