@<TRIPOS>MOLECULE
NONAME
47 48 1 0 0 
SMALL
USER_CHARGES


@<TRIPOS>ATOM
  1 O        0.7480     0.2910    -0.3180 O.2   1 <1>  -0.5700 
  2 C        0.5080     1.4610    -0.1740 C.2   1 <1>   0.6590 
  3 O       -0.6990     1.9120     0.1280 O.3   1 <1>  -0.4300 
  4 C        1.5880     2.5170    -0.3360 C.3   1 <1>  -0.0190 
  5 C       -1.7910     1.0400     0.3110 C.3   1 <1>   0.1200 
  6 C        2.8100     1.8940    -1.0390 C.3   1 <1>   0.3430 
  7 C        1.9730     3.1650     1.0090 C.3   1 <1>  -0.1600 
  8 C       -3.0150     1.8810     0.6540 C.3   1 <1>  -0.2400 
  9 N        4.1080     2.5300    -0.6320 N.4   1 <1>  -0.9590 
 10 C        3.0660     4.2360     0.8170 C.3   1 <1>  -0.1600 
 11 C        3.9870     3.9950    -0.3870 C.3   1 <1>   0.3430 
 12 C        5.2060     2.1960    -1.5800 C.3   1 <1>   0.4860 
 13 C        6.5190     2.6330    -0.9630 C.ar  1 <1>  -0.1430 
 14 C        7.0540     1.9320     0.1080 C.ar  1 <1>  -0.1500 
 15 C        7.1900     3.7420    -1.4560 C.ar  1 <1>  -0.1500 
 16 C        8.2390     2.3380     0.6980 C.ar  1 <1>  -0.1430 
 17 C        8.3750     4.1540    -0.8740 C.ar  1 <1>  -0.1500 
 18 C        8.9050     3.4580     0.2090 C.ar  1 <1>   0.0830 
 19 C        8.8100     1.5570     1.8730 C.3   1 <1>  -0.0970 
 20 O       10.0610     3.8200     0.8230 O.3   1 <1>  -0.3630 
 21 C       10.8500     4.8940     0.3600 C.3   1 <1>   0.0400 
 22 H        1.1840     3.2770    -0.9800 H     1 <1>   0.0800 
 23 H       -1.5550     0.3580     1.1120 H     1 <1>   0.0800 
 24 H       -1.9450     0.4860    -0.6000 H     1 <1>   0.0800 
 25 H        2.6710     1.9820    -2.1050 H     1 <1>   0.0800 
 26 H        2.8600     0.8420    -0.8060 H     1 <1>   0.0800 
 27 H        2.3330     2.3990     1.6760 H     1 <1>   0.0800 
 28 H        1.1060     3.6100     1.4710 H     1 <1>   0.0800 
 29 H       -2.8460     2.4340     1.5610 H     1 <1>   0.0800 
 30 H       -3.8650     1.2400     0.8000 H     1 <1>   0.0800 
 31 H       -3.2360     2.5620    -0.1480 H     1 <1>   0.0800 
 32 H        4.3890     2.1270     0.2720 H     1 <1>   0.4500 
 33 H        3.6620     4.2980     1.7120 H     1 <1>   0.0800 
 34 H        2.6040     5.2000     0.6890 H     1 <1>   0.0800 
 35 H        3.5730     4.4720    -1.2610 H     1 <1>   0.0800 
 36 H        4.9540     4.4320    -0.1890 H     1 <1>   0.0800 
 37 H        5.0540     2.6960    -2.5220 H     1 <1>   0.0800 
 38 H        5.2350     1.1330    -1.7560 H     1 <1>   0.0800 
 39 H        6.5560     1.0580     0.4910 H     1 <1>   0.1500 
 40 H        6.8040     4.2970    -2.2940 H     1 <1>   0.1500 
 41 H        8.8730     5.0160    -1.2750 H     1 <1>   0.1500 
 42 H        8.1870     0.7210     2.1340 H     1 <1>   0.0800 
 43 H        8.8990     2.2000     2.7300 H     1 <1>   0.0800 
 44 H        9.7890     1.1890     1.6220 H     1 <1>   0.0800 
 45 H       11.7190     4.9640     0.9880 H     1 <1>   0.0800 
 46 H       10.2780     5.8030     0.4280 H     1 <1>   0.0800 
 47 H       11.1480     4.6980    -0.6550 H     1 <1>   0.0800 
@<TRIPOS>BOND
  1   1   2  2   
  2   2   3  1   
  3   2   4  1   
  4   3   5  1   
  5   4   6  1   
  6   4   7  1   
  7   4  22  1   
  8   5   8  1   
  9   5  23  1   
 10   5  24  1   
 11   6   9  1   
 12   6  25  1   
 13   6  26  1   
 14   7  10  1   
 15   7  27  1   
 16   7  28  1   
 17   8  29  1   
 18   8  30  1   
 19   8  31  1   
 20   9  11  1   
 21   9  12  1   
 22   9  32  1   
 23  10  11  1   
 24  10  33  1   
 25  10  34  1   
 26  11  35  1   
 27  11  36  1   
 28  12  13  1   
 29  12  37  1   
 30  12  38  1   
 31  13  14  ar  
 32  13  15  ar  
 33  14  16  ar  
 34  14  39  1   
 35  15  17  ar  
 36  15  40  1   
 37  16  18  ar  
 38  16  19  1   
 39  17  18  ar  
 40  17  41  1   
 41  18  20  1   
 42  19  42  1   
 43  19  43  1   
 44  19  44  1   
 45  20  21  1   
 46  21  45  1   
 47  21  46  1   
 48  21  47  1   
@<TRIPOS>SUBSTRUCTURE
  1 ****   9 GROUP 4 **** **** 0

# MOE 2024.06 (io_trps.svl 2023.06)
