@<TRIPOS>MOLECULE
NONAME
50 52 1 0 0 
SMALL
USER_CHARGES


@<TRIPOS>ATOM
  1 O       -0.5800     2.2120    -1.9760 O.2   1 <1>  -0.5700 
  2 C       -0.9320     1.8170    -0.8810 C.2   1 <1>   0.5440 
  3 N        0.0090     1.7140     0.1050 N.am  1 <1>  -0.7300 
  4 C       -2.3210     1.4920    -0.6160 C.ar  1 <1>   0.0860 
  5 C        1.4520     2.0480    -0.0620 C.3   1 <1>   0.1400 
  6 C       -2.6920     0.5350     0.3310 C.ar  1 <1>  -0.1500 
  7 C       -3.3530     2.1320    -1.3040 C.ar  1 <1>  -0.1500 
  8 C        1.6810     3.5640    -0.1520 C.3   1 <1>   0.2000 
  9 C       -4.0190     0.2490     0.5870 C.ar  1 <1>  -0.1500 
 10 C       -4.6800     1.8480    -1.0500 C.ar  1 <1>  -0.1500 
 11 O        3.0410     3.8290    -0.0550 O.3   1 <1>  -0.5600 
 12 C        1.0700     4.3830     0.9800 C.3   1 <1>  -0.1600 
 13 C       -5.0400     0.9030    -0.0930 C.ar  1 <1>   0.1170 
 14 C        3.2370     5.1630     0.2880 C.3   1 <1>   0.1200 
 15 C        2.0000     5.5830     1.0780 C.3   1 <1>  -0.1600 
 16 N       -6.3680     0.5720     0.1980 N.am  1 <1>  -0.5470 
 17 C       -7.5290     1.2680    -0.0020 C.2   1 <1>   0.5690 
 18 O       -7.5790     2.3790    -0.4660 O.2   1 <1>  -0.5700 
 19 C       -8.8290     0.5970     0.3860 C.3   1 <1>  -0.0990 
 20 C       -9.5460     0.0290    -0.8430 C.3   1 <1>  -0.0170 
 21 C      -10.8170    -0.6910    -0.4260 C.ar  1 <1>  -0.1430 
 22 C      -10.8260    -2.0680    -0.2620 C.ar  1 <1>  -0.1500 
 23 C      -11.9800     0.0280    -0.2000 C.ar  1 <1>  -0.1500 
 24 C      -11.9850    -2.7180     0.1250 C.ar  1 <1>  -0.1500 
 25 C      -13.1400    -0.6210     0.1880 C.ar  1 <1>  -0.1500 
 26 C      -13.1430    -1.9950     0.3500 C.ar  1 <1>  -0.1500 
 27 H       -0.2960     1.5530     1.0650 H     1 <1>   0.3700 
 28 H        1.8160     1.5890    -0.9650 H     1 <1>   0.0800 
 29 H        2.0030     1.6520     0.7730 H     1 <1>   0.0800 
 30 H       -1.9280     0.0030     0.8690 H     1 <1>   0.1500 
 31 H       -3.1010     2.8660    -2.0510 H     1 <1>   0.1500 
 32 H        1.3460     3.9300    -1.1080 H     1 <1>   0.0800 
 33 H       -4.2660    -0.4910     1.3270 H     1 <1>   0.1500 
 34 H       -5.4400     2.3650    -1.6070 H     1 <1>   0.1500 
 35 H        1.0960     3.8180     1.8940 H     1 <1>   0.0800 
 36 H        0.0550     4.6610     0.7590 H     1 <1>   0.0800 
 37 H        3.3300     5.7310    -0.6220 H     1 <1>   0.0800 
 38 H        4.1400     5.2400     0.8670 H     1 <1>   0.0800 
 39 H        2.2510     5.8030     2.1010 H     1 <1>   0.0800 
 40 H        1.5600     6.4560     0.6280 H     1 <1>   0.0800 
 41 H       -6.4880    -0.3220     0.6680 H     1 <1>   0.3700 
 42 H       -9.4600     1.3250     0.8630 H     1 <1>   0.0800 
 43 H       -8.6420    -0.1890     1.0940 H     1 <1>   0.0800 
 44 H       -8.8960    -0.6510    -1.3660 H     1 <1>   0.0800 
 45 H       -9.7900     0.8310    -1.5210 H     1 <1>   0.0800 
 46 H       -9.9330    -2.6420    -0.4360 H     1 <1>   0.1500 
 47 H      -11.9880     1.0970    -0.3240 H     1 <1>   0.1500 
 48 H      -11.9870    -3.7870     0.2490 H     1 <1>   0.1500 
 49 H      -14.0390    -0.0560     0.3610 H     1 <1>   0.1500 
 50 H      -14.0440    -2.5000     0.6510 H     1 <1>   0.1500 
@<TRIPOS>BOND
  1   1   2  2   
  2   2   3  am  
  3   2   4  1   
  4   3   5  1   
  5   3  27  1   
  6   4   6  ar  
  7   4   7  ar  
  8   5   8  1   
  9   5  28  1   
 10   5  29  1   
 11   6   9  ar  
 12   6  30  1   
 13   7  10  ar  
 14   7  31  1   
 15   8  11  1   
 16   8  12  1   
 17   8  32  1   
 18   9  13  ar  
 19   9  33  1   
 20  10  13  ar  
 21  10  34  1   
 22  11  14  1   
 23  12  15  1   
 24  12  35  1   
 25  12  36  1   
 26  13  16  1   
 27  14  15  1   
 28  14  37  1   
 29  14  38  1   
 30  15  39  1   
 31  15  40  1   
 32  16  17  am  
 33  16  41  1   
 34  17  18  2   
 35  17  19  1   
 36  19  20  1   
 37  19  42  1   
 38  19  43  1   
 39  20  21  1   
 40  20  44  1   
 41  20  45  1   
 42  21  22  ar  
 43  21  23  ar  
 44  22  24  ar  
 45  22  46  1   
 46  23  25  ar  
 47  23  47  1   
 48  24  26  ar  
 49  24  48  1   
 50  25  26  ar  
 51  25  49  1   
 52  26  50  1   
@<TRIPOS>SUBSTRUCTURE
  1 ****  13 GROUP 4 **** **** 0

# MOE 2024.06 (io_trps.svl 2023.06)
