@<TRIPOS>MOLECULE
NONAME
40 41 1 0 0 
SMALL
USER_CHARGES


@<TRIPOS>ATOM
  1 CL      -0.0780    -0.0670    -1.5780 Cl    1 <1>  -0.1770 
  2 C        1.5760    -0.0190    -1.0100 C.ar  1 <1>   0.1770 
  3 C        1.9010     0.5080     0.2320 C.ar  1 <1>  -0.1440 
  4 C        2.5460    -0.5310    -1.8510 C.ar  1 <1>  -0.1500 
  5 C        3.2440     0.5080     0.6090 C.ar  1 <1>  -0.1500 
  6 C        0.8040     1.0650     1.1420 C.3   1 <1>   1.1640 
  7 C        3.8710    -0.5210    -1.4570 C.ar  1 <1>  -0.1500 
  8 C        4.2390     0.0020    -0.2220 C.ar  1 <1>   0.1170 
  9 F        1.2850     1.5280     2.2910 F     1 <1>  -0.3400 
 10 F        0.1470     2.0780     0.5930 F     1 <1>  -0.3400 
 11 F       -0.1000     0.1520     1.4730 F     1 <1>  -0.3400 
 12 N        5.5690     0.0240     0.2280 N.am  1 <1>  -0.5470 
 13 C        6.7470     0.0100    -0.4720 C.2   1 <1>   0.5690 
 14 O        6.7990     0.0260    -1.6770 O.2   1 <1>  -0.5700 
 15 C        8.0420    -0.0160     0.3330 C.3   1 <1>  -0.0190 
 16 C        9.2560     0.3410    -0.5410 C.3   1 <1>   0.1960 
 17 C        8.2620    -1.3850     1.0040 C.3   1 <1>  -0.1600 
 18 N       10.4850     0.3750     0.2710 N.am  1 <1>  -0.8490 
 19 C        9.6070    -1.3980     1.7420 C.3   1 <1>  -0.1600 
 20 S       11.8180     0.9460    -0.6040 S.o2  1 <1>   1.3330 
 21 C       10.7590    -0.9520     0.8350 C.3   1 <1>   0.1960 
 22 O       11.7170     0.4320    -1.9500 O.2   1 <1>  -0.6500 
 23 O       13.0080     0.6930     0.1750 O.2   1 <1>  -0.6500 
 24 C       11.5600     2.7070    -0.6270 C.3   1 <1>  -0.1350 
 25 H        2.2660    -0.9330    -2.8080 H     1 <1>   0.1500 
 26 H        3.5340     0.9120     1.5630 H     1 <1>   0.1500 
 27 H        4.6150    -0.9280    -2.1180 H     1 <1>   0.1500 
 28 H        5.6750     0.0800     1.2390 H     1 <1>   0.3700 
 29 H        7.9640     0.7400     1.0930 H     1 <1>   0.0800 
 30 H        9.0890     1.3040    -0.9930 H     1 <1>   0.0800 
 31 H        9.3600    -0.3810    -1.3370 H     1 <1>   0.0800 
 32 H        8.2640    -2.1530     0.2480 H     1 <1>   0.0800 
 33 H        7.4670    -1.6000     1.6960 H     1 <1>   0.0800 
 34 H        9.8090    -2.3890     2.1070 H     1 <1>   0.0800 
 35 H        9.5660    -0.7390     2.5920 H     1 <1>   0.0800 
 36 H       11.6630    -0.9200     1.4220 H     1 <1>   0.0800 
 37 H       10.9050    -1.6640     0.0380 H     1 <1>   0.0800 
 38 H       12.3800     3.1890    -1.1230 H     1 <1>   0.0800 
 39 H       10.6550     2.9490    -1.1470 H     1 <1>   0.0800 
 40 H       11.4980     3.0810     0.3760 H     1 <1>   0.0800 
@<TRIPOS>BOND
  1   1   2  1   
  2   2   3  ar  
  3   2   4  ar  
  4   3   5  ar  
  5   3   6  1   
  6   4   7  ar  
  7   4  25  1   
  8   5   8  ar  
  9   5  26  1   
 10   6   9  1   
 11   6  10  1   
 12   6  11  1   
 13   7   8  ar  
 14   7  27  1   
 15   8  12  1   
 16  12  13  am  
 17  12  28  1   
 18  13  14  2   
 19  13  15  1   
 20  15  16  1   
 21  15  17  1   
 22  15  29  1   
 23  16  18  1   
 24  16  30  1   
 25  16  31  1   
 26  17  19  1   
 27  17  32  1   
 28  17  33  1   
 29  18  20  am  
 30  18  21  1   
 31  19  21  1   
 32  19  34  1   
 33  19  35  1   
 34  20  22  2   
 35  20  23  2   
 36  20  24  1   
 37  21  36  1   
 38  21  37  1   
 39  24  38  1   
 40  24  39  1   
 41  24  40  1   
@<TRIPOS>SUBSTRUCTURE
  1 ****  12 GROUP 4 **** **** 0

# MOE 2024.06 (io_trps.svl 2023.06)
