@<TRIPOS>MOLECULE
NONAME
35 35 1 0 0 
SMALL
USER_CHARGES


@<TRIPOS>ATOM
  1 F       -1.0560    -1.0680     1.3900 F     1 <1>  -0.1900 
  2 C       -1.8370    -0.0600     1.1080 C.ar  1 <1>   0.1900 
  3 C       -3.1260    -0.3170     0.6880 C.ar  1 <1>  -0.1500 
  4 C       -1.3390     1.2220     1.2410 C.ar  1 <1>  -0.1500 
  5 C       -3.9690     0.7460     0.3850 C.ar  1 <1>   0.1170 
  6 C       -2.1740     2.2840     0.9380 C.ar  1 <1>  -0.1500 
  7 N       -5.2710     0.4690    -0.0540 N.am  1 <1>  -0.5470 
  8 C       -3.4720     2.0430     0.5130 C.ar  1 <1>  -0.1500 
  9 C       -6.4100     1.2160     0.0050 C.2   1 <1>   0.6900 
 10 O       -6.4510     2.2770     0.5920 O.2   1 <1>  -0.5700 
 11 N       -7.5050     0.7150    -0.6110 N.am  1 <1>  -0.7300 
 12 C       -8.8420     1.3070    -0.7030 C.3   1 <1>   0.5000 
 13 C       -9.5770     0.3500    -1.5870 C.1   1 <1>  -0.2000 
 14 C       -8.7380     2.7130    -1.3540 C.3   1 <1>  -0.1600 
 15 C       -9.4690     1.3020     0.7120 C.3   1 <1>  -0.1600 
 16 C      -10.1570    -0.4190    -2.2870 C.1   1 <1>  -0.1770 
 17 C       -9.9530     3.2160    -2.1620 C.3   1 <1>  -0.2400 
 18 C      -10.9210     1.8010     0.8270 C.3   1 <1>  -0.2400 
 19 H       -3.4630    -1.3320     0.6040 H     1 <1>   0.1500 
 20 H       -0.3290     1.3810     1.5730 H     1 <1>   0.1500 
 21 H       -1.8190     3.2960     1.0310 H     1 <1>   0.1500 
 22 H       -5.4240    -0.4790    -0.3790 H     1 <1>   0.3700 
 23 H       -4.1040     2.8800     0.2770 H     1 <1>   0.1500 
 24 H       -7.4210    -0.1020    -1.2070 H     1 <1>   0.3700 
 25 H       -7.8980     2.7150    -2.0260 H     1 <1>   0.0800 
 26 H       -8.5240     3.4290    -0.5800 H     1 <1>   0.0800 
 27 H       -8.8660     1.9060     1.3650 H     1 <1>   0.0800 
 28 H       -9.4370     0.2940     1.0870 H     1 <1>   0.0800 
 29 H      -10.6880    -1.1100    -2.9190 H     1 <1>   0.1770 
 30 H      -10.1050     2.6100    -3.0380 H     1 <1>   0.0800 
 31 H       -9.7760     4.2270    -2.4850 H     1 <1>   0.0800 
 32 H      -10.8530     3.2040    -1.5770 H     1 <1>   0.0800 
 33 H      -10.9730     2.8580     0.6410 H     1 <1>   0.0800 
 34 H      -11.2860     1.6240     1.8230 H     1 <1>   0.0800 
 35 H      -11.5650     1.2860     0.1350 H     1 <1>   0.0800 
@<TRIPOS>BOND
  1   1   2  1   
  2   2   3  ar  
  3   2   4  ar  
  4   3   5  ar  
  5   3  19  1   
  6   4   6  ar  
  7   4  20  1   
  8   5   7  1   
  9   5   8  ar  
 10   6   8  ar  
 11   6  21  1   
 12   7   9  am  
 13   7  22  1   
 14   8  23  1   
 15   9  10  2   
 16   9  11  am  
 17  11  12  1   
 18  11  24  1   
 19  12  13  1   
 20  12  14  1   
 21  12  15  1   
 22  13  16  3   
 23  14  17  1   
 24  14  25  1   
 25  14  26  1   
 26  15  18  1   
 27  15  27  1   
 28  15  28  1   
 29  16  29  1   
 30  17  30  1   
 31  17  31  1   
 32  17  32  1   
 33  18  33  1   
 34  18  34  1   
 35  18  35  1   
@<TRIPOS>SUBSTRUCTURE
  1 ****   9 GROUP 4 **** **** 0

# MOE 2024.06 (io_trps.svl 2023.06)
