@<TRIPOS>MOLECULE
NONAME
32 32 1 0 0 
SMALL
USER_CHARGES


@<TRIPOS>ATOM
  1 F        0.5870     0.3880     2.2370 F     1 <1>  -0.3400 
  2 C        1.3330     0.5200     1.1480 C.3   1 <1>   1.0200 
  3 F        2.5970     0.5040     1.5610 F     1 <1>  -0.3400 
  4 F        1.1910    -0.6220     0.4890 F     1 <1>  -0.3400 
  5 C        0.9720     1.7630     0.2700 C.3   1 <1>   0.3000 
  6 N        1.8050     1.8320    -1.0180 N.am  1 <1>  -0.7300 
  7 C        1.1390     3.0030     1.2180 C.3   1 <1>   1.0200 
  8 C       -0.5160     1.7220    -0.2250 C.3   1 <1>  -0.1600 
  9 C        3.0100     2.4120    -1.1930 C.2   1 <1>   0.6900 
 10 F        0.2320     3.0520     2.1860 F     1 <1>  -0.3400 
 11 F        0.9910     4.1450     0.5550 F     1 <1>  -0.3400 
 12 F        2.3140     3.1020     1.8240 F     1 <1>  -0.3400 
 13 C       -0.9000     0.6600    -1.2780 C.3   1 <1>  -0.2400 
 14 O        3.1280     3.1410    -2.1490 O.2   1 <1>  -0.5700 
 15 N        4.0340     2.1490    -0.3340 N.am  1 <1>  -0.5470 
 16 C        5.3020     2.7480    -0.2200 C.ar  1 <1>   0.1170 
 17 C        6.3550     2.0580     0.3830 C.ar  1 <1>   0.1600 
 18 C        5.5630     4.0330    -0.6700 C.ar  1 <1>  -0.1500 
 19 N        7.5840     2.5150     0.5620 N.ar  1 <1>  -0.6200 
 20 C        6.8370     4.5290    -0.4970 C.ar  1 <1>  -0.1500 
 21 C        7.7970     3.7420     0.1150 C.ar  1 <1>   0.1600 
 22 H        1.2210     1.9820    -1.8440 H     1 <1>   0.3700 
 23 H       -0.7640     2.6850    -0.6410 H     1 <1>   0.0800 
 24 H       -1.1700     1.5870     0.6210 H     1 <1>   0.0800 
 25 H       -0.2930     0.7290    -2.1640 H     1 <1>   0.0800 
 26 H       -1.9240     0.8070    -1.5750 H     1 <1>   0.0800 
 27 H       -0.8230    -0.3370    -0.8840 H     1 <1>   0.0800 
 28 H        3.8850     1.3370     0.2640 H     1 <1>   0.3700 
 29 H        6.1630     1.0610     0.7380 H     1 <1>   0.1500 
 30 H        4.8020     4.6310    -1.1380 H     1 <1>   0.1500 
 31 H        7.0860     5.5190    -0.8330 H     1 <1>   0.1500 
 32 H        8.7890     4.1420     0.2440 H     1 <1>   0.1500 
@<TRIPOS>BOND
  1   1   2  1   
  2   2   3  1   
  3   2   4  1   
  4   2   5  1   
  5   5   6  1   
  6   5   7  1   
  7   5   8  1   
  8   6   9  am  
  9   6  22  1   
 10   7  10  1   
 11   7  11  1   
 12   7  12  1   
 13   8  13  1   
 14   8  23  1   
 15   8  24  1   
 16   9  14  2   
 17   9  15  am  
 18  13  25  1   
 19  13  26  1   
 20  13  27  1   
 21  15  16  1   
 22  15  28  1   
 23  16  17  ar  
 24  16  18  ar  
 25  17  19  ar  
 26  17  29  1   
 27  18  20  ar  
 28  18  30  1   
 29  19  21  ar  
 30  20  21  ar  
 31  20  31  1   
 32  21  32  1   
@<TRIPOS>SUBSTRUCTURE
  1 ****  15 GROUP 4 **** **** 0

# MOE 2024.06 (io_trps.svl 2023.06)
