@<TRIPOS>MOLECULE
NONAME
37 37 1 0 0 
SMALL
USER_CHARGES


@<TRIPOS>ATOM
  1 F        0.3210     1.2730     1.2510 F     1 <1>  -0.3400 
  2 C        1.0150     1.3660     0.1230 C.3   1 <1>   1.0200 
  3 F        1.1260     2.6710    -0.1100 F     1 <1>  -0.3400 
  4 F        0.2210     0.9130    -0.8390 F     1 <1>  -0.3400 
  5 C        2.4060     0.6670     0.1570 C.3   1 <1>   0.2800 
  6 O        3.1910     1.1170     1.2700 O.3   1 <1>  -0.6800 
  7 C        2.1190    -0.8660     0.2420 C.3   1 <1>   1.0200 
  8 C        3.2180     1.0670    -1.1060 C.3   1 <1>  -0.0990 
  9 F        3.2150    -1.5440     0.5680 F     1 <1>  -0.3400 
 10 F        1.2290    -1.2120     1.1620 F     1 <1>  -0.3400 
 11 F        1.6910    -1.3930    -0.8970 F     1 <1>  -0.3400 
 12 C        4.5510     0.3680    -1.2040 C.2   1 <1>   0.5690 
 13 O        4.6080    -0.6260    -1.8800 O.2   1 <1>  -0.5700 
 14 N        5.6070     0.8880    -0.5150 N.am  1 <1>  -0.5470 
 15 C        6.9280     0.4360    -0.3380 C.ar  1 <1>   0.1170 
 16 C        7.8770     1.3370     0.1530 C.ar  1 <1>   0.0820 
 17 C        7.3170    -0.8670    -0.6130 C.ar  1 <1>  -0.1500 
 18 O        7.4520     2.6000     0.4390 O.3   1 <1>  -0.3620 
 19 C        9.1910     0.9190     0.3340 C.ar  1 <1>  -0.1500 
 20 C        8.6290    -1.3080    -0.4490 C.ar  1 <1>   0.0860 
 21 C        8.3370     3.5860     0.9270 C.3   1 <1>   0.0400 
 22 C        9.5530    -0.3810     0.0340 C.ar  1 <1>  -0.1500 
 23 C        9.0240    -2.6720    -0.7610 C.2   1 <1>   0.5440 
 24 O       10.0930    -3.1240    -0.4090 O.2   1 <1>  -0.5700 
 25 N        8.2290    -3.5100    -1.4670 N.am  1 <1>  -0.8000 
 26 H        3.9080     0.4780     1.4850 H     1 <1>   0.4000 
 27 H        3.3840     2.1300    -1.1220 H     1 <1>   0.0800 
 28 H        2.6560     0.8270    -1.9920 H     1 <1>   0.0800 
 29 H        5.4710     1.8160    -0.1020 H     1 <1>   0.3700 
 30 H        6.5820    -1.5670    -0.9580 H     1 <1>   0.1500 
 31 H        9.9460     1.5860     0.7050 H     1 <1>   0.1500 
 32 H        7.7800     4.4950     1.0700 H     1 <1>   0.0800 
 33 H        9.1170     3.7470     0.2030 H     1 <1>   0.0800 
 34 H        8.7450     3.2570     1.8660 H     1 <1>   0.0800 
 35 H       10.5750    -0.6940     0.1760 H     1 <1>   0.1500 
 36 H        8.5650    -4.4520    -1.6680 H     1 <1>   0.3700 
 37 H        7.3430    -3.2380    -1.8910 H     1 <1>   0.3700 
@<TRIPOS>BOND
  1   1   2  1   
  2   2   3  1   
  3   2   4  1   
  4   2   5  1   
  5   5   6  1   
  6   5   7  1   
  7   5   8  1   
  8   6  26  1   
  9   7   9  1   
 10   7  10  1   
 11   7  11  1   
 12   8  12  1   
 13   8  27  1   
 14   8  28  1   
 15  12  13  2   
 16  12  14  am  
 17  14  15  1   
 18  14  29  1   
 19  15  16  ar  
 20  15  17  ar  
 21  16  18  1   
 22  16  19  ar  
 23  17  20  ar  
 24  17  30  1   
 25  18  21  1   
 26  19  22  ar  
 27  19  31  1   
 28  20  22  ar  
 29  20  23  1   
 30  21  32  1   
 31  21  33  1   
 32  21  34  1   
 33  22  35  1   
 34  23  24  2   
 35  23  25  am  
 36  25  36  1   
 37  25  37  1   
@<TRIPOS>SUBSTRUCTURE
  1 ****  14 GROUP 4 **** **** 0

# MOE 2024.06 (io_trps.svl 2023.06)
