@<TRIPOS>MOLECULE
NONAME
50 51 1 0 0 
SMALL
USER_CHARGES


@<TRIPOS>ATOM
  1 S        0.1430    -0.9060     0.2930 S.o2  1 <1>   1.4470 
  2 O        0.0030    -2.1910    -0.3510 O.2   1 <1>  -0.6500 
  3 O        0.0540    -0.7970     1.7320 O.2   1 <1>  -0.6500 
  4 N       -1.1140    -0.0030    -0.3500 N.am  1 <1>  -0.9140 
  5 C        1.6240    -0.0500    -0.3050 C.ar  1 <1>  -0.0090 
  6 C       -2.3720    -0.2250     0.3430 C.3   1 <1>   0.1960 
  7 C        1.7900     1.3140    -0.0980 C.ar  1 <1>  -0.1500 
  8 C        2.6320    -0.7330    -0.9750 C.ar  1 <1>  -0.1500 
  9 C       -3.5230     0.4530    -0.4170 C.3   1 <1>  -0.0800 
 10 C        2.9220     1.9740    -0.5420 C.ar  1 <1>  -0.1500 
 11 C        3.7670    -0.0790    -1.4210 C.ar  1 <1>  -0.1500 
 12 C       -4.8350     0.2850     0.3620 C.3   1 <1>  -0.2400 
 13 C       -3.6960    -0.1070    -1.8390 C.3   1 <1>  -0.2400 
 14 C        3.9190     1.2800    -1.2050 C.ar  1 <1>  -0.1430 
 15 C        5.1710     1.9990    -1.6770 C.3   1 <1>  -0.0170 
 16 C        6.2270     2.0000    -0.5630 C.3   1 <1>  -0.0990 
 17 C        7.5170     2.7130    -0.9380 C.2   1 <1>   0.5690 
 18 O        7.6500     3.1000    -2.0750 O.2   1 <1>  -0.5700 
 19 N        8.4960     2.9040     0.0030 N.am  1 <1>  -0.6600 
 20 C        8.4620     2.4140     1.4160 C.3   1 <1>   0.1400 
 21 C        9.7580     3.6350    -0.3240 C.3   1 <1>   0.1400 
 22 C        9.7670     1.6770     1.7660 C.3   1 <1>   0.1200 
 23 C       10.9870     2.8300     0.1270 C.3   1 <1>   0.1200 
 24 O       10.8790     2.4760     1.4780 O.3   1 <1>  -0.5600 
 25 H       -1.2320    -0.3950    -1.2810 H     1 <1>   0.4200 
 26 H       -2.3060     0.1830     1.3390 H     1 <1>   0.0800 
 27 H       -2.5650    -1.2840     0.4240 H     1 <1>   0.0800 
 28 H        1.0210     1.8640     0.4190 H     1 <1>   0.1500 
 29 H        2.5290    -1.7910    -1.1500 H     1 <1>   0.1500 
 30 H       -3.3080     1.5070    -0.4800 H     1 <1>   0.0800 
 31 H        3.0230     3.0320    -0.3670 H     1 <1>   0.1500 
 32 H        4.5320    -0.6340    -1.9370 H     1 <1>   0.1500 
 33 H       -5.0950    -0.7560     0.4500 H     1 <1>   0.0800 
 34 H       -5.6360     0.7970    -0.1410 H     1 <1>   0.0800 
 35 H       -4.7400     0.7000     1.3500 H     1 <1>   0.0800 
 36 H       -3.8540    -1.1710    -1.8120 H     1 <1>   0.0800 
 37 H       -2.8300     0.1010    -2.4410 H     1 <1>   0.0800 
 38 H       -4.5440     0.3520    -2.3170 H     1 <1>   0.0800 
 39 H        4.9290     3.0120    -1.9510 H     1 <1>   0.0800 
 40 H        5.5640     1.5110    -2.5530 H     1 <1>   0.0800 
 41 H        6.4630     0.9830    -0.3090 H     1 <1>   0.0800 
 42 H        5.8110     2.4810     0.3020 H     1 <1>   0.0800 
 43 H        7.6350     1.7500     1.5800 H     1 <1>   0.0800 
 44 H        8.3490     3.2560     2.0770 H     1 <1>   0.0800 
 45 H        9.7550     4.5870     0.1770 H     1 <1>   0.0800 
 46 H        9.8280     3.8200    -1.3820 H     1 <1>   0.0800 
 47 H        9.8460     0.7610     1.2070 H     1 <1>   0.0800 
 48 H        9.7930     1.4460     2.8160 H     1 <1>   0.0800 
 49 H       11.8790     3.4200     0.0120 H     1 <1>   0.0800 
 50 H       11.0870     1.9330    -0.4600 H     1 <1>   0.0800 
@<TRIPOS>BOND
  1   1   2  2   
  2   1   3  2   
  3   1   4  am  
  4   1   5  1   
  5   4   6  1   
  6   4  25  1   
  7   5   7  ar  
  8   5   8  ar  
  9   6   9  1   
 10   6  26  1   
 11   6  27  1   
 12   7  10  ar  
 13   7  28  1   
 14   8  11  ar  
 15   8  29  1   
 16   9  12  1   
 17   9  13  1   
 18   9  30  1   
 19  10  14  ar  
 20  10  31  1   
 21  11  14  ar  
 22  11  32  1   
 23  12  33  1   
 24  12  34  1   
 25  12  35  1   
 26  13  36  1   
 27  13  37  1   
 28  13  38  1   
 29  14  15  1   
 30  15  16  1   
 31  15  39  1   
 32  15  40  1   
 33  16  17  1   
 34  16  41  1   
 35  16  42  1   
 36  17  18  2   
 37  17  19  am  
 38  19  20  1   
 39  19  21  1   
 40  20  22  1   
 41  20  43  1   
 42  20  44  1   
 43  21  23  1   
 44  21  45  1   
 45  21  46  1   
 46  22  24  1   
 47  22  47  1   
 48  22  48  1   
 49  23  24  1   
 50  23  49  1   
 51  23  50  1   
@<TRIPOS>SUBSTRUCTURE
  1 ****  14 GROUP 4 **** **** 0

# MOE 2024.06 (io_trps.svl 2023.06)
