@<TRIPOS>MOLECULE
NONAME
51 53 1 0 0 
SMALL
USER_CHARGES


@<TRIPOS>ATOM
  1 S       -0.2080    -0.1990    -0.5300 S.o2  1 <1>   1.4470 
  2 O       -0.2090    -0.5190    -1.9370 O.2   1 <1>  -0.6500 
  3 O        0.0540    -1.2160     0.4620 O.2   1 <1>  -0.6500 
  4 N       -1.7720     0.4370    -0.2030 N.am  1 <1>  -0.7570 
  5 C        0.8250     1.2570    -0.2300 C.ar  1 <1>  -0.0090 
  6 C       -2.9700    -0.2460    -0.3650 C.ar  1 <1>   0.1990 
  7 C        1.5870     1.3810     0.9260 C.ar  1 <1>  -0.1500 
  8 C        0.8580     2.3040    -1.1440 C.ar  1 <1>  -0.1500 
  9 C       -4.1020     0.4400    -0.8390 C.ar  1 <1>   0.0860 
 10 C       -3.0720    -1.6050    -0.0720 C.ar  1 <1>  -0.1500 
 11 C        2.3640     2.5020     1.1700 C.ar  1 <1>  -0.1430 
 12 C        1.6270     3.4310    -0.9170 C.ar  1 <1>  -0.1500 
 13 C       -4.0560     1.8650    -1.1040 C.2   1 <1>   0.5440 
 14 C       -5.2780    -0.2840    -1.0540 C.ar  1 <1>  -0.1500 
 15 C       -4.2510    -2.2940    -0.2740 C.ar  1 <1>  -0.1500 
 16 C        2.3880     3.5380     0.2430 C.ar  1 <1>   0.0830 
 17 C        3.1840     2.5890     2.4500 C.3   1 <1>  -0.0960 
 18 O       -3.1030     2.3320    -1.7100 O.2   1 <1>  -0.5700 
 19 N       -5.0430     2.7260    -0.6670 N.am  1 <1>  -0.6600 
 20 C       -5.3580    -1.6330    -0.7750 C.ar  1 <1>  -0.1500 
 21 O        3.1630     4.6190     0.5200 O.3   1 <1>  -0.3620 
 22 C       -5.9020     2.4540     0.5210 C.3   1 <1>   0.1400 
 23 C       -5.1520     4.1180    -1.1890 C.3   1 <1>   0.1400 
 24 C        3.2450     5.7200    -0.3560 C.3   1 <1>   0.0400 
 25 C       -5.5620     3.4430     1.6420 C.3   1 <1>  -0.1600 
 26 C       -4.7970     5.1160    -0.0820 C.3   1 <1>  -0.1600 
 27 C       -5.6600     4.9000     1.1690 C.3   1 <1>  -0.1600 
 28 H       -1.8260     1.3550    -0.6580 H     1 <1>   0.4200 
 29 H        1.5670     0.5800     1.6460 H     1 <1>   0.1500 
 30 H        0.2750     2.2360    -2.0480 H     1 <1>   0.1500 
 31 H       -2.2240    -2.1360     0.3180 H     1 <1>   0.1500 
 32 H        1.6190     4.2110    -1.6540 H     1 <1>   0.1500 
 33 H       -6.1390     0.2270    -1.4480 H     1 <1>   0.1500 
 34 H       -4.3070    -3.3460    -0.0470 H     1 <1>   0.1500 
 35 H        3.0600     1.7100     3.0550 H     1 <1>   0.0800 
 36 H        2.8740     3.4460     3.0210 H     1 <1>   0.0800 
 37 H        4.2260     2.6960     2.2080 H     1 <1>   0.0800 
 38 H       -6.2740    -2.1730    -0.9450 H     1 <1>   0.1500 
 39 H       -5.7550     1.4530     0.8850 H     1 <1>   0.0800 
 40 H       -6.9350     2.5620     0.2380 H     1 <1>   0.0800 
 41 H       -6.1610     4.2870    -1.5230 H     1 <1>   0.0800 
 42 H       -4.4970     4.2610    -2.0320 H     1 <1>   0.0800 
 43 H        3.9100     6.4440     0.0800 H     1 <1>   0.0800 
 44 H        2.2650     6.1480    -0.4720 H     1 <1>   0.0800 
 45 H        3.6370     5.3870    -1.3010 H     1 <1>   0.0800 
 46 H       -4.5630     3.2420     1.9880 H     1 <1>   0.0800 
 47 H       -6.2320     3.2860     2.4690 H     1 <1>   0.0800 
 48 H       -4.9340     6.1170    -0.4490 H     1 <1>   0.0800 
 49 H       -3.7560     4.9970     0.1670 H     1 <1>   0.0800 
 50 H       -5.3340     5.5600     1.9540 H     1 <1>   0.0800 
 51 H       -6.6860     5.1340     0.9400 H     1 <1>   0.0800 
@<TRIPOS>BOND
  1   1   2  2   
  2   1   3  2   
  3   1   4  am  
  4   1   5  1   
  5   4   6  1   
  6   4  28  1   
  7   5   7  ar  
  8   5   8  ar  
  9   6   9  ar  
 10   6  10  ar  
 11   7  11  ar  
 12   7  29  1   
 13   8  12  ar  
 14   8  30  1   
 15   9  13  1   
 16   9  14  ar  
 17  10  15  ar  
 18  10  31  1   
 19  11  16  ar  
 20  11  17  1   
 21  12  16  ar  
 22  12  32  1   
 23  13  18  2   
 24  13  19  am  
 25  14  20  ar  
 26  14  33  1   
 27  15  20  ar  
 28  15  34  1   
 29  16  21  1   
 30  17  35  1   
 31  17  36  1   
 32  17  37  1   
 33  19  22  1   
 34  19  23  1   
 35  20  38  1   
 36  21  24  1   
 37  22  25  1   
 38  22  39  1   
 39  22  40  1   
 40  23  26  1   
 41  23  41  1   
 42  23  42  1   
 43  24  43  1   
 44  24  44  1   
 45  24  45  1   
 46  25  27  1   
 47  25  46  1   
 48  25  47  1   
 49  26  27  1   
 50  26  48  1   
 51  26  49  1   
 52  27  50  1   
 53  27  51  1   
@<TRIPOS>SUBSTRUCTURE
  1 ****   4 GROUP 4 **** **** 0

# MOE 2024.06 (io_trps.svl 2023.06)
