@<TRIPOS>MOLECULE
NONAME
31 33 1 0 0 
SMALL
USER_CHARGES


@<TRIPOS>ATOM
  1 O        0.6090    -0.5490    -1.5650 O.2   1 <1>  -0.5700 
  2 C        1.3480    -1.4150    -1.1280 C.2   1 <1>   0.6900 
  3 N        1.0020    -2.5730    -0.4920 N.am  1 <1>  -0.1680 
  4 N        2.6770    -1.2860    -1.1600 N.am  1 <1>  -0.7300 
  5 N        2.2230    -3.2750    -0.0310 N.3   1 <1>  -0.6390 
  6 C       -0.2750    -3.0280    -0.1090 C.ar  1 <1>   0.1170 
  7 C        3.2910    -2.2900    -0.3140 C.3   1 <1>   0.5700 
  8 C       -1.4120    -2.7250    -0.8580 C.ar  1 <1>  -0.1500 
  9 C       -0.4420    -3.8090     1.0340 C.ar  1 <1>  -0.1500 
 10 C        4.4990    -2.9040    -1.0030 C.3   1 <1>  -0.1600 
 11 C        3.8590    -1.6590     0.9480 C.3   1 <1>  -0.1600 
 12 C       -2.6620    -3.1820    -0.4820 C.ar  1 <1>  -0.1500 
 13 C       -1.6890    -4.2700     1.4140 C.ar  1 <1>  -0.1500 
 14 C        5.6610    -1.9490    -0.7000 C.3   1 <1>  -0.1600 
 15 C        5.2670    -1.1790     0.5700 C.3   1 <1>  -0.1600 
 16 C       -2.8030    -3.9560     0.6560 C.ar  1 <1>  -0.1500 
 17 H        3.0650    -0.3480    -1.1570 H     1 <1>   0.3700 
 18 H        2.3820    -3.9800    -0.7560 H     1 <1>   0.3600 
 19 H       -1.3200    -2.1260    -1.7460 H     1 <1>   0.1500 
 20 H        0.4150    -4.0550     1.6340 H     1 <1>   0.1500 
 21 H        4.3430    -3.0330    -2.0590 H     1 <1>   0.0800 
 22 H        4.7130    -3.8560    -0.5500 H     1 <1>   0.0800 
 23 H        3.9460    -2.4210     1.7020 H     1 <1>   0.0800 
 24 H        3.2370    -0.8650     1.3210 H     1 <1>   0.0800 
 25 H       -3.5250    -2.9330    -1.0750 H     1 <1>   0.1500 
 26 H       -1.7940    -4.8710     2.3010 H     1 <1>   0.1500 
 27 H        5.7840    -1.2570    -1.5160 H     1 <1>   0.0800 
 28 H        6.5820    -2.4910    -0.5640 H     1 <1>   0.0800 
 29 H        5.9610    -1.3670     1.3720 H     1 <1>   0.0800 
 30 H        5.2560    -0.1220     0.3640 H     1 <1>   0.0800 
 31 H       -3.7760    -4.3120     0.9500 H     1 <1>   0.1500 
@<TRIPOS>BOND
  1   1   2  2   
  2   2   3  am  
  3   2   4  am  
  4   3   5  1   
  5   3   6  1   
  6   4   7  1   
  7   4  17  1   
  8   5   7  1   
  9   5  18  1   
 10   6   8  ar  
 11   6   9  ar  
 12   7  10  1   
 13   7  11  1   
 14   8  12  ar  
 15   8  19  1   
 16   9  13  ar  
 17   9  20  1   
 18  10  14  1   
 19  10  21  1   
 20  10  22  1   
 21  11  15  1   
 22  11  23  1   
 23  11  24  1   
 24  12  16  ar  
 25  12  25  1   
 26  13  16  ar  
 27  13  26  1   
 28  14  15  1   
 29  14  27  1   
 30  14  28  1   
 31  15  29  1   
 32  15  30  1   
 33  16  31  1   
@<TRIPOS>SUBSTRUCTURE
  1 ****   3 GROUP 4 **** **** 0

# MOE 2024.06 (io_trps.svl 2023.06)
