@<TRIPOS>MOLECULE
NONAME
34 35 1 0 0 
SMALL
USER_CHARGES


@<TRIPOS>ATOM
  1 O       -0.0240    -0.4610    -0.9520 O.2   1 <1>  -0.5700 
  2 C        0.0100    -1.5380    -0.4050 C.2   1 <1>   0.4950 
  3 C        1.2280    -2.1520     0.0360 C.2   1 <1>   0.0290 
  4 C       -1.3380    -2.2070    -0.1950 C.3   1 <1>  -0.0990 
  5 C        1.1480    -3.4330     0.6840 C.2   1 <1>   0.4950 
  6 C        2.4260    -1.5040    -0.1730 C.2   1 <1>  -0.0500 
  7 C       -1.2470    -3.7380    -0.1410 C.3   1 <1>   0.0000 
  8 O        2.1090    -4.0370     1.1050 O.2   1 <1>  -0.5700 
  9 C       -0.1900    -4.1200     0.9040 C.3   1 <1>  -0.0990 
 10 N        3.6620    -1.9610     0.1820 N.pl3 1 <1>  -0.6000 
 11 C       -2.6090    -4.3190     0.2690 C.3   1 <1>  -0.2400 
 12 C       -0.8740    -4.3080    -1.5220 C.3   1 <1>  -0.2400 
 13 C        4.9310    -1.3760     0.0120 C.ar  1 <1>   0.1000 
 14 C        6.0510    -1.9200     0.6440 C.ar  1 <1>   0.1600 
 15 C        5.1290    -0.2560    -0.7800 C.ar  1 <1>  -0.1500 
 16 N        7.2910    -1.4610     0.5600 N.ar  1 <1>  -0.6200 
 17 C        6.4110     0.2400    -0.8810 C.ar  1 <1>  -0.1500 
 18 C        7.4410    -0.3890    -0.2020 C.ar  1 <1>   0.1600 
 19 H       -1.7510    -1.8270     0.7220 H     1 <1>   0.0800 
 20 H       -2.0000    -1.9120    -0.9910 H     1 <1>   0.0800 
 21 H        2.4030    -0.5410    -0.6580 H     1 <1>   0.1500 
 22 H       -0.0400    -5.1850     0.8930 H     1 <1>   0.0800 
 23 H       -0.5320    -3.8560     1.8890 H     1 <1>   0.0800 
 24 H        3.6610    -2.8800     0.6630 H     1 <1>   0.4000 
 25 H       -2.9130    -3.9480     1.2320 H     1 <1>   0.0800 
 26 H       -2.5620    -5.3930     0.3230 H     1 <1>   0.0800 
 27 H       -3.3660    -4.0520    -0.4480 H     1 <1>   0.0800 
 28 H       -1.6200    -4.0440    -2.2520 H     1 <1>   0.0800 
 29 H       -0.8170    -5.3830    -1.4830 H     1 <1>   0.0800 
 30 H        0.0740    -3.9400    -1.8700 H     1 <1>   0.0800 
 31 H        5.9040    -2.7890     1.2590 H     1 <1>   0.1500 
 32 H        4.3190     0.2140    -1.3030 H     1 <1>   0.1500 
 33 H        6.6140     1.1070    -1.4820 H     1 <1>   0.1500 
 34 H        8.4380     0.0090    -0.2900 H     1 <1>   0.1500 
@<TRIPOS>BOND
  1   1   2  2   
  2   2   3  1   
  3   2   4  1   
  4   3   5  1   
  5   3   6  2   
  6   4   7  1   
  7   4  19  1   
  8   4  20  1   
  9   5   8  2   
 10   5   9  1   
 11   6  10  1   
 12   6  21  1   
 13   7   9  1   
 14   7  11  1   
 15   7  12  1   
 16   9  22  1   
 17   9  23  1   
 18  10  13  1   
 19  10  24  1   
 20  11  25  1   
 21  11  26  1   
 22  11  27  1   
 23  12  28  1   
 24  12  29  1   
 25  12  30  1   
 26  13  14  ar  
 27  13  15  ar  
 28  14  16  ar  
 29  14  31  1   
 30  15  17  ar  
 31  15  32  1   
 32  16  18  ar  
 33  17  18  ar  
 34  17  33  1   
 35  18  34  1   
@<TRIPOS>SUBSTRUCTURE
  1 ****   6 GROUP 4 **** **** 0

# MOE 2024.06 (io_trps.svl 2023.06)
