@<TRIPOS>MOLECULE
NONAME
43 43 1 0 0 
SMALL
USER_CHARGES


@<TRIPOS>ATOM
  1 O        0.5730    -0.4890     0.4020 O.3   1 <1>  -0.3630 
  2 C       -0.6820    -0.9550     0.1800 C.ar  1 <1>   0.0830 
  3 C        1.7010    -1.1790    -0.0690 C.3   1 <1>   0.1200 
  4 C       -1.7260    -0.2010     0.6870 C.ar  1 <1>  -0.1500 
  5 C       -0.9630    -2.1260    -0.5150 C.ar  1 <1>  -0.1500 
  6 C        2.9280    -0.3750     0.3590 C.3   1 <1>  -0.1600 
  7 C       -3.0440    -0.5930     0.5120 C.ar  1 <1>  -0.1440 
  8 C       -2.2760    -2.5220    -0.6910 C.ar  1 <1>  -0.1500 
  9 C        4.2100    -1.0500    -0.1100 C.3   1 <1>   0.3430 
 10 C       -3.3220    -1.7660    -0.1830 C.ar  1 <1>  -0.1440 
 11 C       -4.1550     0.2720     1.0890 C.3   1 <1>  -0.0960 
 12 N        5.3690    -0.2310     0.3310 N.4   1 <1>  -0.9060 
 13 C       -4.7510    -2.2400    -0.4020 C.3   1 <1>  -0.0970 
 14 C        6.7030    -0.7190    -0.0260 C.3   1 <1>   0.5030 
 15 C        6.9400    -2.0880     0.6080 C.3   1 <1>  -0.2400 
 16 C        7.6930     0.2940     0.5390 C.3   1 <1>  -0.2400 
 17 C        6.8380    -0.7860    -1.5470 C.3   1 <1>  -0.2400 
 18 H        1.6290    -1.2460    -1.1410 H     1 <1>   0.0800 
 19 H        1.7010    -2.1620     0.3720 H     1 <1>   0.0800 
 20 H       -1.4930     0.7010     1.2210 H     1 <1>   0.1500 
 21 H       -0.1870    -2.7420    -0.9240 H     1 <1>   0.1500 
 22 H        2.9260    -0.3000     1.4330 H     1 <1>   0.0800 
 23 H        2.8550     0.6090    -0.0710 H     1 <1>   0.0800 
 24 H       -2.4820    -3.4300    -1.2300 H     1 <1>   0.1500 
 25 H        4.2010    -1.1350    -1.1850 H     1 <1>   0.0800 
 26 H        4.2720    -2.0410     0.3130 H     1 <1>   0.0800 
 27 H       -3.7520     1.1340     1.5910 H     1 <1>   0.0800 
 28 H       -4.7300    -0.2920     1.8000 H     1 <1>   0.0800 
 29 H       -4.8020     0.6130     0.3020 H     1 <1>   0.0800 
 30 H        5.3410    -0.1330     1.3510 H     1 <1>   0.4500 
 31 H        5.2750     0.7150    -0.0520 H     1 <1>   0.4500 
 32 H       -5.3040    -1.5000    -0.9530 H     1 <1>   0.0800 
 33 H       -5.2320    -2.4050     0.5450 H     1 <1>   0.0800 
 34 H       -4.7730    -3.1600    -0.9570 H     1 <1>   0.0800 
 35 H        6.2970    -2.8390     0.1870 H     1 <1>   0.0800 
 36 H        6.7970    -2.0530     1.6740 H     1 <1>   0.0800 
 37 H        7.9540    -2.4000     0.4260 H     1 <1>   0.0800 
 38 H        7.6140     0.3620     1.6090 H     1 <1>   0.0800 
 39 H        7.5430     1.2680     0.1090 H     1 <1>   0.0800 
 40 H        8.7000    -0.0110     0.3070 H     1 <1>   0.0800 
 41 H        6.1950    -1.5350    -1.9710 H     1 <1>   0.0800 
 42 H        7.8490    -1.0510    -1.8080 H     1 <1>   0.0800 
 43 H        6.6240     0.1670    -1.9990 H     1 <1>   0.0800 
@<TRIPOS>BOND
  1   1   2  1   
  2   1   3  1   
  3   2   4  ar  
  4   2   5  ar  
  5   3   6  1   
  6   3  18  1   
  7   3  19  1   
  8   4   7  ar  
  9   4  20  1   
 10   5   8  ar  
 11   5  21  1   
 12   6   9  1   
 13   6  22  1   
 14   6  23  1   
 15   7  10  ar  
 16   7  11  1   
 17   8  10  ar  
 18   8  24  1   
 19   9  12  1   
 20   9  25  1   
 21   9  26  1   
 22  10  13  1   
 23  11  27  1   
 24  11  28  1   
 25  11  29  1   
 26  12  14  1   
 27  12  30  1   
 28  12  31  1   
 29  13  32  1   
 30  13  33  1   
 31  13  34  1   
 32  14  15  1   
 33  14  16  1   
 34  14  17  1   
 35  15  35  1   
 36  15  36  1   
 37  15  37  1   
 38  16  38  1   
 39  16  39  1   
 40  16  40  1   
 41  17  41  1   
 42  17  42  1   
 43  17  43  1   
@<TRIPOS>SUBSTRUCTURE
  1 ****   3 GROUP 4 **** **** 0

# MOE 2024.06 (io_trps.svl 2023.06)
