@<TRIPOS>MOLECULE
NONAME
25 25 1 0 0 
SMALL
USER_CHARGES


@<TRIPOS>ATOM
  1 I        0.0600     0.8550    -0.9180 I     1 <1>  -0.0270 
  2 C        1.8680    -0.1830    -0.3860 C.2   1 <1>   0.0270 
  3 C        2.8060     0.2890     0.5160 C.2   1 <1>   0.1080 
  4 C        2.2950    -1.3750    -0.8430 C.2   1 <1>  -0.3320 
  5 N        3.7810    -0.5540     0.6340 N.2   1 <1>  -0.7070 
  6 C        2.7600     1.5870     1.2890 C.3   1 <1>  -0.0590 
  7 N        3.4920    -1.5900    -0.2160 N.pl3 1 <1>   0.3140 
  8 C        1.6380    -2.3210    -1.8400 C.3   1 <1>  -0.0600 
  9 C        4.3800    -2.7880    -0.2550 C.3   1 <1>   0.0700 
 10 C        4.6800    -3.1590    -1.7080 C.2   1 <1>   0.9060 
 11 C        3.7830    -3.9060     0.6450 C.3   1 <1>  -0.2660 
 12 O        5.5060    -2.4930    -2.3510 O.co2 1 <1>  -0.9000 
 13 O        4.0570    -4.0760    -2.2720 O.co2 1 <1>  -0.9000 
 14 C        4.7910    -4.9030     1.1550 C.2   1 <1>   0.9060 
 15 O        4.3900    -6.0360     1.4490 O.co2 1 <1>  -0.9000 
 16 O        5.9520    -4.5480     1.3840 O.co2 1 <1>  -0.9000 
 17 H        1.8850     1.6100     1.9100 H     1 <1>   0.0800 
 18 H        2.7420     2.4140     0.6050 H     1 <1>   0.0800 
 19 H        3.6330     1.6650     1.9100 H     1 <1>   0.0800 
 20 H        0.6320    -2.0210    -2.0600 H     1 <1>   0.0800 
 21 H        1.6160    -3.3210    -1.4470 H     1 <1>   0.0800 
 22 H        2.1990    -2.3290    -2.7580 H     1 <1>   0.0800 
 23 H        5.3170    -2.4830     0.1690 H     1 <1>   0.0800 
 24 H        3.0280    -4.4470     0.1080 H     1 <1>   0.0800 
 25 H        3.3390    -3.4640     1.5140 H     1 <1>   0.0800 
@<TRIPOS>BOND
  1   1   2  1   
  2   2   3  1   
  3   2   4  2   
  4   3   5  2   
  5   3   6  1   
  6   4   7  1   
  7   4   8  1   
  8   5   7  1   
  9   6  17  1   
 10   6  18  1   
 11   6  19  1   
 12   7   9  1   
 13   8  20  1   
 14   8  21  1   
 15   8  22  1   
 16   9  10  1   
 17   9  11  1   
 18   9  23  1   
 19  10  12  ar  
 20  10  13  ar  
 21  11  14  1   
 22  11  24  1   
 23  11  25  1   
 24  14  15  ar  
 25  14  16  ar  
@<TRIPOS>SUBSTRUCTURE
  1 ****   7 GROUP 4 **** **** 0

# MOE 2024.06 (io_trps.svl 2023.06)
