@<TRIPOS>MOLECULE
NONAME
34 34 1 0 0 
SMALL
USER_CHARGES


@<TRIPOS>ATOM
  1 CL       3.5490     1.7660     3.9740 Cl    1 <1>  -0.1770 
  2 C        3.6600     1.8060     2.2320 C.ar  1 <1>   0.1770 
  3 C        4.6900     1.1340     1.6050 C.ar  1 <1>  -0.1500 
  4 C        2.7140     2.5080     1.5120 C.ar  1 <1>  -0.1500 
  5 C        4.7920     1.1580     0.2210 C.ar  1 <1>   0.1990 
  6 C        2.8000     2.5370     0.1290 C.ar  1 <1>  -0.1500 
  7 N        5.8410     0.4830    -0.4090 N.am  1 <1>  -0.6930 
  8 C        3.8320     1.8650    -0.5210 C.ar  1 <1>   0.0830 
  9 S        5.7610    -1.2060    -0.7450 S.o2  1 <1>   1.3330 
 10 C        7.1980     1.1150    -0.4290 C.3   1 <1>   0.2570 
 11 O        3.9540     1.8580    -1.8830 O.3   1 <1>  -0.3630 
 12 O        5.6550    -1.8480     0.5440 O.2   1 <1>  -0.6500 
 13 O        6.8750    -1.5100    -1.6080 O.2   1 <1>  -0.6500 
 14 C        4.2510    -1.3770    -1.6710 C.3   1 <1>  -0.1350 
 15 C        8.0750     0.8460     0.8030 C.2   1 <1>   0.5690 
 16 C        3.2070     2.7430    -2.6900 C.3   1 <1>   0.0400 
 17 O        8.9330     1.6560     1.0660 O.2   1 <1>  -0.5700 
 18 N        7.8890    -0.2630     1.5770 N.am  1 <1>  -0.7300 
 19 C        8.6860    -0.6290     2.7730 C.3   1 <1>   0.0600 
 20 H        5.4040     0.5940     2.1970 H     1 <1>   0.1500 
 21 H        1.9230     3.0220     2.0290 H     1 <1>   0.1500 
 22 H        2.0520     3.0830    -0.4150 H     1 <1>   0.1500 
 23 H        7.0750     2.1790    -0.5160 H     1 <1>   0.0800 
 24 H        7.7340     0.7880    -1.3010 H     1 <1>   0.0800 
 25 H        4.2960    -0.7800    -2.5600 H     1 <1>   0.0800 
 26 H        3.4140    -1.0580    -1.0820 H     1 <1>   0.0800 
 27 H        4.1050    -2.4020    -1.9510 H     1 <1>   0.0800 
 28 H        3.5450     2.6360    -3.7050 H     1 <1>   0.0800 
 29 H        3.3770     3.7510    -2.3550 H     1 <1>   0.0800 
 30 H        2.1650     2.4840    -2.6240 H     1 <1>   0.0800 
 31 H        7.1390    -0.9280     1.3310 H     1 <1>   0.3700 
 32 H        9.1600    -1.5810     2.6130 H     1 <1>   0.0800 
 33 H        8.0410    -0.6920     3.6320 H     1 <1>   0.0800 
 34 H        9.4450     0.1120     2.9600 H     1 <1>   0.0800 
@<TRIPOS>BOND
  1   1   2  1   
  2   2   3  ar  
  3   2   4  ar  
  4   3   5  ar  
  5   3  20  1   
  6   4   6  ar  
  7   4  21  1   
  8   5   7  1   
  9   5   8  ar  
 10   6   8  ar  
 11   6  22  1   
 12   7   9  am  
 13   7  10  1   
 14   8  11  1   
 15   9  12  2   
 16   9  13  2   
 17   9  14  1   
 18  10  15  1   
 19  10  23  1   
 20  10  24  1   
 21  11  16  1   
 22  14  25  1   
 23  14  26  1   
 24  14  27  1   
 25  15  17  2   
 26  15  18  am  
 27  16  28  1   
 28  16  29  1   
 29  16  30  1   
 30  18  19  1   
 31  18  31  1   
 32  19  32  1   
 33  19  33  1   
 34  19  34  1   
@<TRIPOS>SUBSTRUCTURE
  1 ****   5 GROUP 4 **** **** 0

# MOE 2024.06 (io_trps.svl 2023.06)
