@<TRIPOS>MOLECULE
NONAME
46 46 1 0 0 
SMALL
USER_CHARGES


@<TRIPOS>ATOM
  1 O       -1.4730     6.8020    -0.1580 O.3   1 <1>  -0.3630 
  2 C       -0.2210     6.2890    -0.0620 C.ar  1 <1>   0.0830 
  3 C       -2.6090     5.9850    -0.0380 C.3   1 <1>   0.1200 
  4 C        0.8300     7.1830    -0.1940 C.ar  1 <1>  -0.1500 
  5 C        0.0510     4.9410     0.1570 C.ar  1 <1>  -0.1500 
  6 C       -3.8300     6.8910    -0.1970 C.3   1 <1>  -0.1600 
  7 C        2.1480     6.7580    -0.1110 C.ar  1 <1>  -0.1440 
  8 C        1.3620     4.5090     0.2410 C.ar  1 <1>  -0.1500 
  9 C       -5.1210     6.0910    -0.0810 C.3   1 <1>   0.3430 
 10 C        2.4030     5.4110     0.1080 C.ar  1 <1>  -0.1500 
 11 C        3.2840     7.7670    -0.2610 C.3   1 <1>   0.0640 
 12 N       -6.2720     7.0180    -0.2410 N.4   1 <1>  -0.9060 
 13 C        4.1570     7.4330    -1.4750 C.3   1 <1>  -0.2400 
 14 C        4.1300     7.8330     1.0150 C.3   1 <1>  -0.2400 
 15 C       -7.6130     6.4350    -0.1600 C.3   1 <1>   0.5030 
 16 C       -8.5920     7.5870    -0.3560 C.3   1 <1>  -0.2400 
 17 C       -7.7950     5.4020    -1.2720 C.3   1 <1>  -0.2400 
 18 C       -7.8200     5.8040     1.2160 C.3   1 <1>  -0.2400 
 19 H       -2.5870     5.5200     0.9330 H     1 <1>   0.0800 
 20 H       -2.5690     5.2390    -0.8140 H     1 <1>   0.0800 
 21 H        0.6030     8.2190    -0.3630 H     1 <1>   0.1500 
 22 H       -0.7320     4.2170     0.2650 H     1 <1>   0.1500 
 23 H       -3.7780     7.3620    -1.1630 H     1 <1>   0.0800 
 24 H       -3.7950     7.6420     0.5730 H     1 <1>   0.0800 
 25 H        1.5770     3.4680     0.4100 H     1 <1>   0.1500 
 26 H       -5.1630     5.6100     0.8840 H     1 <1>   0.0800 
 27 H       -5.1460     5.3310    -0.8460 H     1 <1>   0.0800 
 28 H        3.4160     5.0570     0.1760 H     1 <1>   0.1500 
 29 H        2.8600     8.7440    -0.4220 H     1 <1>   0.0800 
 30 H       -6.1970     7.4900    -1.1480 H     1 <1>   0.4500 
 31 H       -6.2130     7.7520     0.4720 H     1 <1>   0.4500 
 32 H        4.6470     6.4850    -1.3460 H     1 <1>   0.0800 
 33 H        4.9050     8.1920    -1.6160 H     1 <1>   0.0800 
 34 H        3.5460     7.3860    -2.3600 H     1 <1>   0.0800 
 35 H        4.6190     6.8940     1.1990 H     1 <1>   0.0800 
 36 H        3.5000     8.0620     1.8570 H     1 <1>   0.0800 
 37 H        4.8780     8.6000     0.9280 H     1 <1>   0.0800 
 38 H       -8.4800     8.3300     0.4140 H     1 <1>   0.0800 
 39 H       -9.6030     7.2200    -0.3060 H     1 <1>   0.0800 
 40 H       -8.4630     8.0500    -1.3180 H     1 <1>   0.0800 
 41 H       -7.6020     5.8330    -2.2380 H     1 <1>   0.0800 
 42 H       -8.8110     5.0460    -1.2710 H     1 <1>   0.0800 
 43 H       -7.1610     4.5470    -1.1290 H     1 <1>   0.0800 
 44 H       -7.6430     6.5180     2.0010 H     1 <1>   0.0800 
 45 H       -7.1850     4.9490     1.3620 H     1 <1>   0.0800 
 46 H       -8.8360     5.4630     1.3080 H     1 <1>   0.0800 
@<TRIPOS>BOND
  1   1   2  1   
  2   1   3  1   
  3   2   4  ar  
  4   2   5  ar  
  5   3   6  1   
  6   3  19  1   
  7   3  20  1   
  8   4   7  ar  
  9   4  21  1   
 10   5   8  ar  
 11   5  22  1   
 12   6   9  1   
 13   6  23  1   
 14   6  24  1   
 15   7  10  ar  
 16   7  11  1   
 17   8  10  ar  
 18   8  25  1   
 19   9  12  1   
 20   9  26  1   
 21   9  27  1   
 22  10  28  1   
 23  11  13  1   
 24  11  14  1   
 25  11  29  1   
 26  12  15  1   
 27  12  30  1   
 28  12  31  1   
 29  13  32  1   
 30  13  33  1   
 31  13  34  1   
 32  14  35  1   
 33  14  36  1   
 34  14  37  1   
 35  15  16  1   
 36  15  17  1   
 37  15  18  1   
 38  16  38  1   
 39  16  39  1   
 40  16  40  1   
 41  17  41  1   
 42  17  42  1   
 43  17  43  1   
 44  18  44  1   
 45  18  45  1   
 46  18  46  1   
@<TRIPOS>SUBSTRUCTURE
  1 ****   1 GROUP 4 **** **** 0

# MOE 2024.06 (io_trps.svl 2023.06)
