@<TRIPOS>MOLECULE
NONAME
37 37 1 0 0 
SMALL
USER_CHARGES


@<TRIPOS>ATOM
  1 O        9.3250     0.1380     0.6480 O.3   1 <1>  -0.3630 
  2 C        8.1870     0.7260     0.1780 C.ar  1 <1>   0.0820 
  3 C       10.2690     0.8200     1.4450 C.3   1 <1>   0.0400 
  4 C        7.2450    -0.0460    -0.5230 C.ar  1 <1>   0.0820 
  5 C        7.9240     2.0760     0.3980 C.ar  1 <1>  -0.1500 
  6 O        7.3560    -1.3710    -0.8250 O.3   1 <1>  -0.3630 
  7 C        6.0720     0.5410    -0.9640 C.ar  1 <1>  -0.1500 
  8 C        6.7430     2.6550    -0.0550 C.ar  1 <1>   0.0820 
  9 C        8.6130    -1.9710    -1.0540 C.3   1 <1>   0.0400 
 10 C        5.8120     1.8810    -0.7360 C.ar  1 <1>  -0.1440 
 11 O        6.4290     3.9660     0.1490 O.3   1 <1>  -0.3630 
 12 C        4.5200     2.4920    -1.2250 C.3   1 <1>   0.4860 
 13 C        7.4250     4.8950     0.5360 C.3   1 <1>   0.0400 
 14 N        3.7770     2.9130    -0.0230 N.4   1 <1>  -0.9060 
 15 C        2.5110     3.6300    -0.3310 C.3   1 <1>   0.3430 
 16 C        1.8080     4.1050     0.9460 C.3   1 <1>   0.1200 
 17 O        0.6450     4.7460     0.5650 O.3   1 <1>  -0.6800 
 18 H       11.0450     0.1240     1.7110 H     1 <1>   0.0800 
 19 H        9.7840     1.1790     2.3350 H     1 <1>   0.0800 
 20 H       10.6890     1.6310     0.8760 H     1 <1>   0.0800 
 21 H        8.6350     2.6740     0.9290 H     1 <1>   0.1500 
 22 H        5.3710    -0.0820    -1.4930 H     1 <1>   0.1500 
 23 H        8.4550    -2.8830    -1.6010 H     1 <1>   0.0800 
 24 H        9.0710    -2.1920    -0.1070 H     1 <1>   0.0800 
 25 H        9.2270    -1.2990    -1.6280 H     1 <1>   0.0800 
 26 H        3.9530     1.7720    -1.7920 H     1 <1>   0.0800 
 27 H        4.7390     3.3430    -1.8500 H     1 <1>   0.0800 
 28 H        6.9990     5.8820     0.5040 H     1 <1>   0.0800 
 29 H        8.2500     4.8350    -0.1520 H     1 <1>   0.0800 
 30 H        7.7460     4.6730     1.5390 H     1 <1>   0.0800 
 31 H        4.4400     3.5200     0.4860 H     1 <1>   0.4500 
 32 H        3.6240     2.0860     0.5640 H     1 <1>   0.4500 
 33 H        1.8430     2.9760    -0.8690 H     1 <1>   0.0800 
 34 H        2.7200     4.4900    -0.9470 H     1 <1>   0.0800 
 35 H        2.4160     4.8090     1.4870 H     1 <1>   0.0800 
 36 H        1.5390     3.2740     1.5760 H     1 <1>   0.0800 
 37 H        0.1420     5.0840     1.3380 H     1 <1>   0.4000 
@<TRIPOS>BOND
  1   1   2  1   
  2   1   3  1   
  3   2   4  ar  
  4   2   5  ar  
  5   3  18  1   
  6   3  19  1   
  7   3  20  1   
  8   4   6  1   
  9   4   7  ar  
 10   5   8  ar  
 11   5  21  1   
 12   6   9  1   
 13   7  10  ar  
 14   7  22  1   
 15   8  10  ar  
 16   8  11  1   
 17   9  23  1   
 18   9  24  1   
 19   9  25  1   
 20  10  12  1   
 21  11  13  1   
 22  12  14  1   
 23  12  26  1   
 24  12  27  1   
 25  13  28  1   
 26  13  29  1   
 27  13  30  1   
 28  14  15  1   
 29  14  31  1   
 30  14  32  1   
 31  15  16  1   
 32  15  33  1   
 33  15  34  1   
 34  16  17  1   
 35  16  35  1   
 36  16  36  1   
 37  17  37  1   
@<TRIPOS>SUBSTRUCTURE
  1 ****  10 GROUP 4 **** **** 0

# MOE 2024.06 (io_trps.svl 2023.06)
