@<TRIPOS>MOLECULE
NONAME
41 42 1 0 0 
SMALL
USER_CHARGES


@<TRIPOS>ATOM
  1 O        0.6910    -0.5210     0.5050 O.3   1 <1>  -0.3630 
  2 C       -0.5850    -0.9200     0.2520 C.ar  1 <1>   0.0830 
  3 C        1.1360     0.7900     0.2290 C.3   1 <1>   0.1200 
  4 C       -0.9020    -2.2650     0.4480 C.ar  1 <1>  -0.1440 
  5 C       -1.5590    -0.0330    -0.2010 C.ar  1 <1>  -0.1500 
  6 C        2.6640     0.8640     0.3830 C.3   1 <1>   0.3430 
  7 C       -2.1870    -2.7130     0.1500 C.ar  1 <1>  -0.1440 
  8 C        0.1450    -3.2420     0.9840 C.3   1 <1>  -0.0970 
  9 C       -2.8350    -0.4800    -0.4850 C.ar  1 <1>  -0.1440 
 10 N        3.4020    -0.0560    -0.5490 N.4   1 <1>  -0.9590 
 11 C       -3.1380    -1.8170    -0.3110 C.ar  1 <1>  -0.1500 
 12 C       -2.5980    -4.1710     0.3120 C.3   1 <1>  -0.0970 
 13 C       -3.9040     0.4790    -0.9800 C.3   1 <1>  -0.0970 
 14 C        3.2760    -1.4950    -0.1980 C.3   1 <1>   0.3430 
 15 C        4.8570     0.2170    -0.6110 C.3   1 <1>   0.3430 
 16 C        4.4550    -2.1670    -0.8890 C.3   1 <1>  -0.1600 
 17 C        5.4510    -1.0490    -1.2080 C.3   1 <1>  -0.1600 
 18 H        0.6550     1.4560     0.9230 H     1 <1>   0.0800 
 19 H        0.8540     1.0480    -0.7770 H     1 <1>   0.0800 
 20 H       -1.3510     1.0090    -0.3370 H     1 <1>   0.1500 
 21 H        2.9230     0.6370     1.4040 H     1 <1>   0.0800 
 22 H        2.9680     1.8790     0.1890 H     1 <1>   0.0800 
 23 H        0.5950    -3.7760     0.1680 H     1 <1>   0.0800 
 24 H       -0.3040    -3.9500     1.6560 H     1 <1>   0.0800 
 25 H        0.9120    -2.7350     1.5390 H     1 <1>   0.0800 
 26 H        3.0190     0.0450    -1.4980 H     1 <1>   0.4500 
 27 H       -4.1330    -2.1610    -0.5350 H     1 <1>   0.1500 
 28 H       -2.6630    -4.4190     1.3560 H     1 <1>   0.0800 
 29 H       -1.8810    -4.8170    -0.1610 H     1 <1>   0.0800 
 30 H       -3.5560    -4.3550    -0.1390 H     1 <1>   0.0800 
 31 H       -3.4620     1.3670    -1.3940 H     1 <1>   0.0800 
 32 H       -4.5460     0.7580    -0.1650 H     1 <1>   0.0800 
 33 H       -4.4980     0.0100    -1.7440 H     1 <1>   0.0800 
 34 H        2.3330    -1.9030    -0.5270 H     1 <1>   0.0800 
 35 H        3.3610    -1.6190     0.8700 H     1 <1>   0.0800 
 36 H        5.2440     0.3600     0.3860 H     1 <1>   0.0800 
 37 H        5.0790     1.0860    -1.2110 H     1 <1>   0.0800 
 38 H        4.1240    -2.6500    -1.7920 H     1 <1>   0.0800 
 39 H        4.8860    -2.9130    -0.2430 H     1 <1>   0.0800 
 40 H        6.4240    -1.2460    -0.7920 H     1 <1>   0.0800 
 41 H        5.5530    -0.9330    -2.2740 H     1 <1>   0.0800 
@<TRIPOS>BOND
  1   1   2  1   
  2   1   3  1   
  3   2   4  ar  
  4   2   5  ar  
  5   3   6  1   
  6   3  18  1   
  7   3  19  1   
  8   4   7  ar  
  9   4   8  1   
 10   5   9  ar  
 11   5  20  1   
 12   6  10  1   
 13   6  21  1   
 14   6  22  1   
 15   7  11  ar  
 16   7  12  1   
 17   8  23  1   
 18   8  24  1   
 19   8  25  1   
 20   9  11  ar  
 21   9  13  1   
 22  10  14  1   
 23  10  15  1   
 24  10  26  1   
 25  11  27  1   
 26  12  28  1   
 27  12  29  1   
 28  12  30  1   
 29  13  31  1   
 30  13  32  1   
 31  13  33  1   
 32  14  16  1   
 33  14  34  1   
 34  14  35  1   
 35  15  17  1   
 36  15  36  1   
 37  15  37  1   
 38  16  17  1   
 39  16  38  1   
 40  16  39  1   
 41  17  40  1   
 42  17  41  1   
@<TRIPOS>SUBSTRUCTURE
  1 ****   1 GROUP 4 **** **** 0

# MOE 2024.06 (io_trps.svl 2023.06)
