@<TRIPOS>MOLECULE
NONAME
49 52 1 0 0 
SMALL
USER_CHARGES


@<TRIPOS>ATOM
  1 O        0.0800     1.0420    -0.7540 O.3   1 <1>  -0.5600 
  2 C        1.2470     1.7220    -0.4010 C.3   1 <1>   0.2800 
  3 C       -0.7600     0.6230     0.2810 C.3   1 <1>   0.1200 
  4 C        0.8930     2.9450     0.4750 C.3   1 <1>  -0.1600 
  5 C        2.2120     0.7580     0.3000 C.3   1 <1>  -0.2400 
  6 C        1.8660     2.1550    -1.7320 C.3   1 <1>  -0.2400 
  7 C       -1.1750     1.8220     1.1450 C.3   1 <1>  -0.1600 
  8 C       -0.6280     3.1580     0.6020 C.3   1 <1>   0.7730 
  9 N       -1.2340     3.4960    -0.6990 N.4   1 <1>  -0.9590 
 10 N       -0.9590     4.2830     1.5000 N.3   1 <1>  -0.8100 
 11 C       -0.6740     4.7600    -1.2790 C.3   1 <1>   0.3430 
 12 C       -2.7230     3.6310    -0.6210 C.3   1 <1>   0.3430 
 13 C       -0.3950     5.5800     1.0550 C.3   1 <1>   0.1100 
 14 C       -2.4160     4.4700     1.7040 C.3   1 <1>   0.1100 
 15 C       -0.9600     5.9400    -0.3330 C.3   1 <1>   0.0000 
 16 C       -3.0950     4.7670     0.3520 C.3   1 <1>   0.0000 
 17 C       -2.4950     6.0810    -0.2040 C.3   1 <1>   0.2000 
 18 C       -0.3010     7.2340    -0.8490 C.3   1 <1>  -0.2400 
 19 C       -4.6220     4.8590     0.5370 C.3   1 <1>  -0.2400 
 20 O       -3.0400     6.3470    -1.4570 O.3   1 <1>  -0.6800 
 21 H       -0.2590    -0.1330     0.8620 H     1 <1>   0.0800 
 22 H       -1.6240     0.1720    -0.1760 H     1 <1>   0.0800 
 23 H        1.4120     3.8050     0.1070 H     1 <1>   0.0800 
 24 H        1.2780     2.7830     1.4650 H     1 <1>   0.0800 
 25 H        1.8500     0.4650     1.2680 H     1 <1>   0.0800 
 26 H        3.1670     1.2320     0.4410 H     1 <1>   0.0800 
 27 H        2.3610    -0.1220    -0.3010 H     1 <1>   0.0800 
 28 H        1.1980     2.7810    -2.2890 H     1 <1>   0.0800 
 29 H        2.0970     1.2880    -2.3280 H     1 <1>   0.0800 
 30 H        2.7820     2.6930    -1.5640 H     1 <1>   0.0800 
 31 H       -0.7700     1.6700     2.1290 H     1 <1>   0.0800 
 32 H       -2.2390     1.8020     1.2550 H     1 <1>   0.0800 
 33 H       -0.9750     2.6860    -1.2840 H     1 <1>   0.4500 
 34 H        0.3870     4.6670    -1.4300 H     1 <1>   0.0800 
 35 H       -1.1320     4.9570    -2.2350 H     1 <1>   0.0800 
 36 H       -3.1670     2.7070    -0.2920 H     1 <1>   0.0800 
 37 H       -3.1180     3.8590    -1.5980 H     1 <1>   0.0800 
 38 H        0.6790     5.5430     1.0360 H     1 <1>   0.0800 
 39 H       -0.6580     6.3470     1.7660 H     1 <1>   0.0800 
 40 H       -2.8490     3.6040     2.1710 H     1 <1>   0.0800 
 41 H       -2.5780     5.2920     2.3820 H     1 <1>   0.0800 
 42 H       -2.7320     6.9100     0.4430 H     1 <1>   0.0800 
 43 H        0.7680     7.1230    -0.9070 H     1 <1>   0.0800 
 44 H       -0.5210     8.0570    -0.1920 H     1 <1>   0.0800 
 45 H       -0.6660     7.4830    -1.8310 H     1 <1>   0.0800 
 46 H       -5.0080     3.9510     0.9680 H     1 <1>   0.0800 
 47 H       -5.1180     5.0170    -0.4050 H     1 <1>   0.0800 
 48 H       -4.8750     5.6740     1.1940 H     1 <1>   0.0800 
 49 H       -3.9100     6.7880    -1.3690 H     1 <1>   0.4000 
@<TRIPOS>BOND
  1   1   2  1   
  2   1   3  1   
  3   2   4  1   
  4   2   5  1   
  5   2   6  1   
  6   3   7  1   
  7   3  21  1   
  8   3  22  1   
  9   4   8  1   
 10   4  23  1   
 11   4  24  1   
 12   5  25  1   
 13   5  26  1   
 14   5  27  1   
 15   6  28  1   
 16   6  29  1   
 17   6  30  1   
 18   7   8  1   
 19   7  31  1   
 20   7  32  1   
 21   8   9  1   
 22   8  10  1   
 23   9  11  1   
 24   9  12  1   
 25   9  33  1   
 26  10  13  1   
 27  10  14  1   
 28  11  15  1   
 29  11  34  1   
 30  11  35  1   
 31  12  16  1   
 32  12  36  1   
 33  12  37  1   
 34  13  15  1   
 35  13  38  1   
 36  13  39  1   
 37  14  16  1   
 38  14  40  1   
 39  14  41  1   
 40  15  17  1   
 41  15  18  1   
 42  16  17  1   
 43  16  19  1   
 44  17  20  1   
 45  17  42  1   
 46  18  43  1   
 47  18  44  1   
 48  18  45  1   
 49  19  46  1   
 50  19  47  1   
 51  19  48  1   
 52  20  49  1   
@<TRIPOS>SUBSTRUCTURE
  1 ****   9 GROUP 4 **** **** 0

# MOE 2024.06 (io_trps.svl 2023.06)
