@<TRIPOS>MOLECULE
NONAME
35 35 1 0 0 
SMALL
USER_CHARGES


@<TRIPOS>ATOM
  1 O       -0.1610     0.0360    -0.4830 O.2   1 <1>  -0.5700 
  2 C       -1.1870    -0.5760    -0.2410 C.2   1 <1>   0.6340 
  3 O       -1.1030    -1.9060    -0.1050 O.3   1 <1>  -0.4300 
  4 C       -2.4970     0.0300    -0.1020 C.ar  1 <1>   0.0860 
  5 C        0.1260    -2.5890    -0.2200 C.3   1 <1>   0.1200 
  6 C       -2.6710     1.4090     0.1370 C.ar  1 <1>   0.1000 
  7 C       -3.6530    -0.7540    -0.2110 C.ar  1 <1>  -0.1500 
  8 C       -0.1330    -4.0810    -0.0130 C.3   1 <1>  -0.1600 
  9 N       -1.6040     2.2760     0.2770 N.pl3 1 <1>  -0.9000 
 10 C       -3.9530     1.9390     0.2490 C.ar  1 <1>  -0.1500 
 11 C       -4.9190    -0.2160    -0.0980 C.ar  1 <1>  -0.1500 
 12 C        1.1670    -4.8890    -0.1250 C.3   1 <1>  -0.1600 
 13 C       -5.0700     1.1400     0.1320 C.ar  1 <1>  -0.1500 
 14 C        0.9070    -6.3860     0.0820 C.3   1 <1>  -0.1600 
 15 C        2.2060    -7.1930    -0.0290 C.3   1 <1>  -0.1600 
 16 C        1.9450    -8.6870     0.1780 C.3   1 <1>  -0.2400 
 17 H        0.7990    -2.2050     0.5280 H     1 <1>   0.0800 
 18 H        0.5300    -2.3980    -1.2010 H     1 <1>   0.0800 
 19 H       -3.5590    -1.8110    -0.3920 H     1 <1>   0.1500 
 20 H       -0.8310    -4.4220    -0.7580 H     1 <1>   0.0800 
 21 H       -0.5640    -4.2300     0.9610 H     1 <1>   0.0800 
 22 H       -1.7200     3.2660     0.0440 H     1 <1>   0.4000 
 23 H       -0.6770     1.9010     0.0120 H     1 <1>   0.4000 
 24 H       -4.0690     2.9910     0.4350 H     1 <1>   0.1500 
 25 H       -5.7880    -0.8450    -0.1880 H     1 <1>   0.1500 
 26 H        1.8680    -4.5420     0.6150 H     1 <1>   0.0800 
 27 H        1.6030    -4.7330    -1.0980 H     1 <1>   0.0800 
 28 H       -6.0550     1.5650     0.2220 H     1 <1>   0.1500 
 29 H        0.2060    -6.7340    -0.6580 H     1 <1>   0.0800 
 30 H        0.4720    -6.5430     1.0550 H     1 <1>   0.0800 
 31 H        2.9090    -6.8510     0.7110 H     1 <1>   0.0800 
 32 H        2.6440    -7.0410    -1.0010 H     1 <1>   0.0800 
 33 H        1.5270    -8.8650     1.1530 H     1 <1>   0.0800 
 34 H        2.8670    -9.2360     0.0970 H     1 <1>   0.0800 
 35 H        1.2610    -9.0560    -0.5660 H     1 <1>   0.0800 
@<TRIPOS>BOND
  1   1   2  2   
  2   2   3  1   
  3   2   4  1   
  4   3   5  1   
  5   4   6  ar  
  6   4   7  ar  
  7   5   8  1   
  8   5  17  1   
  9   5  18  1   
 10   6   9  1   
 11   6  10  ar  
 12   7  11  ar  
 13   7  19  1   
 14   8  12  1   
 15   8  20  1   
 16   8  21  1   
 17   9  22  1   
 18   9  23  1   
 19  10  13  ar  
 20  10  24  1   
 21  11  13  ar  
 22  11  25  1   
 23  12  14  1   
 24  12  26  1   
 25  12  27  1   
 26  13  28  1   
 27  14  15  1   
 28  14  29  1   
 29  14  30  1   
 30  15  16  1   
 31  15  31  1   
 32  15  32  1   
 33  16  33  1   
 34  16  34  1   
 35  16  35  1   
@<TRIPOS>SUBSTRUCTURE
  1 ****   3 GROUP 4 **** **** 0

# MOE 2024.06 (io_trps.svl 2023.06)
