@<TRIPOS>MOLECULE
NONAME
25 26 1 0 0 
SMALL
USER_CHARGES


@<TRIPOS>ATOM
  1 S       -0.3490    -0.3500    -0.4850 S.3   1 <1>  -0.4340 
  2 C       -0.8070     1.3930    -0.3880 C.3   1 <1>   0.2170 
  3 C       -2.0830    -0.5040    -0.0090 C.3   1 <1>   0.2170 
  4 C       -1.9820     0.9560     0.5660 C.3   1 <1>   0.2580 
  5 O       -3.1750     1.6790     0.3170 O.3   1 <1>  -0.4080 
  6 C       -3.3030     2.9610     0.6740 C.2   1 <1>   0.6340 
  7 O       -2.3560     3.4940     1.2240 O.2   1 <1>  -0.5700 
  8 C       -4.5640     3.6150     0.3850 C.ar  1 <1>   0.0860 
  9 C       -4.6870     5.0180     0.3160 C.ar  1 <1>   0.1000 
 10 C       -5.7190     2.8550     0.1630 C.ar  1 <1>  -0.1500 
 11 N       -3.6120     5.8650     0.5060 N.pl3 1 <1>  -0.9000 
 12 C       -5.9240     5.5940     0.0410 C.ar  1 <1>  -0.1500 
 13 C       -6.9400     3.4400    -0.1090 C.ar  1 <1>  -0.1500 
 14 C       -7.0430     4.8180    -0.1690 C.ar  1 <1>  -0.1500 
 15 H       -1.1070     1.7280    -1.3650 H     1 <1>   0.0000 
 16 H       -0.0130     1.9490     0.0770 H     1 <1>   0.0000 
 17 H       -2.1880    -1.2850     0.7220 H     1 <1>   0.0000 
 18 H       -2.6770    -0.6080    -0.8990 H     1 <1>   0.0000 
 19 H       -1.7290     0.9790     1.6120 H     1 <1>   0.0000 
 20 H       -5.6640     1.7810     0.2060 H     1 <1>   0.1500 
 21 H       -3.7720     6.8260     0.8190 H     1 <1>   0.4000 
 22 H       -2.7590     5.4420     0.9100 H     1 <1>   0.4000 
 23 H       -6.0020     6.6640    -0.0120 H     1 <1>   0.1500 
 24 H       -7.8120     2.8300    -0.2740 H     1 <1>   0.1500 
 25 H       -7.9930     5.2790    -0.3810 H     1 <1>   0.1500 
@<TRIPOS>BOND
  1   1   2  1   
  2   1   3  1   
  3   2   4  1   
  4   2  15  1   
  5   2  16  1   
  6   3   4  1   
  7   3  17  1   
  8   3  18  1   
  9   4   5  1   
 10   4  19  1   
 11   5   6  1   
 12   6   7  2   
 13   6   8  1   
 14   8   9  ar  
 15   8  10  ar  
 16   9  11  1   
 17   9  12  ar  
 18  10  13  ar  
 19  10  20  1   
 20  11  21  1   
 21  11  22  1   
 22  12  14  ar  
 23  12  23  1   
 24  13  14  ar  
 25  13  24  1   
 26  14  25  1   
@<TRIPOS>SUBSTRUCTURE
  1 ****   6 GROUP 4 **** **** 0

# MOE 2024.06 (io_trps.svl 2023.06)
