@<TRIPOS>MOLECULE
NONAME
44 47 1 0 0 
SMALL
USER_CHARGES


@<TRIPOS>ATOM
  1 S        0.8020     1.2850     2.3050 S.3   1 <1>  -0.0800 
  2 C       -0.4940     1.2930     1.1210 C.2   1 <1>   0.1040 
  3 C        1.9660     1.7880     1.1010 C.2   1 <1>  -0.1400 
  4 N       -1.7240     0.8700     1.5940 N.am  1 <1>  -0.4940 
  5 C       -0.0450     1.7210    -0.1020 C.2   1 <1>  -0.0860 
  6 C        1.3770     1.9800    -0.0870 C.2   1 <1>  -0.1810 
  7 C        3.4250     1.9520     1.4680 C.3   1 <1>   0.0200 
  8 C       -2.6250    -0.0320     1.1020 C.2   1 <1>   0.5690 
  9 C       -0.8700     1.9440    -1.2600 C.2   1 <1>   0.7160 
 10 C        2.1900     2.4370    -1.2930 C.3   1 <1>   0.0210 
 11 C        4.2570     2.0680     0.1780 C.3   1 <1>  -0.1600 
 12 O       -3.6920    -0.1220     1.6530 O.2   1 <1>  -0.5700 
 13 C       -2.2880    -0.9290    -0.1000 C.3   1 <1>  -0.0190 
 14 O       -0.4950     1.7240    -2.3930 O.2   1 <1>  -0.5700 
 15 N       -2.1300     2.4150    -1.1340 N.am  1 <1>  -0.8000 
 16 C        3.5730     2.9710    -0.8680 C.3   1 <1>  -0.1600 
 17 C       -3.3130    -2.0600    -0.3620 C.3   1 <1>  -0.0800 
 18 C       -0.9700    -1.7240     0.0830 C.3   1 <1>  -0.1600 
 19 C       -2.7720    -3.1910     0.4980 C.3   1 <1>  -0.1600 
 20 C       -3.0680    -2.6190    -1.7740 C.3   1 <1>  -0.1600 
 21 C       -1.3930    -3.1840    -0.1380 C.3   1 <1>  -0.0800 
 22 C       -1.7350    -3.3720    -1.6240 C.3   1 <1>  -0.1600 
 23 H       -1.9580     1.1430     2.5490 H     1 <1>   0.3700 
 24 H        3.7590     1.1090     2.0450 H     1 <1>   0.0800 
 25 H        3.5360     2.8420     2.0620 H     1 <1>   0.0800 
 26 H        1.6640     3.2130    -1.8220 H     1 <1>   0.0800 
 27 H        2.3110     1.6020    -1.9610 H     1 <1>   0.0800 
 28 H        4.3800     1.0850    -0.2440 H     1 <1>   0.0800 
 29 H        5.2340     2.4510     0.4150 H     1 <1>   0.0800 
 30 H       -2.2320    -0.3120    -0.9740 H     1 <1>   0.0800 
 31 H       -2.6900     2.5780    -1.9700 H     1 <1>   0.3700 
 32 H       -2.5550     2.6110    -0.2280 H     1 <1>   0.3700 
 33 H        3.4500     3.9550    -0.4480 H     1 <1>   0.0800 
 34 H        4.2000     3.0620    -1.7380 H     1 <1>   0.0800 
 35 H       -4.3400    -1.7920    -0.1790 H     1 <1>   0.0800 
 36 H       -0.5860    -1.6140     1.0820 H     1 <1>   0.0800 
 37 H       -0.2140    -1.4120    -0.6170 H     1 <1>   0.0800 
 38 H       -3.2980    -4.1190     0.3450 H     1 <1>   0.0800 
 39 H       -2.7540    -2.9450     1.5470 H     1 <1>   0.0800 
 40 H       -3.0120    -1.8420    -2.5170 H     1 <1>   0.0800 
 41 H       -3.8520    -3.3060    -2.0430 H     1 <1>   0.0800 
 42 H       -0.6990    -3.9090     0.2520 H     1 <1>   0.0800 
 43 H       -0.9690    -2.9690    -2.2660 H     1 <1>   0.0800 
 44 H       -1.8700    -4.4160    -1.8480 H     1 <1>   0.0800 
@<TRIPOS>BOND
  1   1   2  1   
  2   1   3  1   
  3   2   4  1   
  4   2   5  2   
  5   3   6  2   
  6   3   7  1   
  7   4   8  am  
  8   4  23  1   
  9   5   6  1   
 10   5   9  1   
 11   6  10  1   
 12   7  11  1   
 13   7  24  1   
 14   7  25  1   
 15   8  12  2   
 16   8  13  1   
 17   9  14  2   
 18   9  15  am  
 19  10  16  1   
 20  10  26  1   
 21  10  27  1   
 22  11  16  1   
 23  11  28  1   
 24  11  29  1   
 25  13  17  1   
 26  13  18  1   
 27  13  30  1   
 28  15  31  1   
 29  15  32  1   
 30  16  33  1   
 31  16  34  1   
 32  17  19  1   
 33  17  20  1   
 34  17  35  1   
 35  18  21  1   
 36  18  36  1   
 37  18  37  1   
 38  19  21  1   
 39  19  38  1   
 40  19  39  1   
 41  20  22  1   
 42  20  40  1   
 43  20  41  1   
 44  21  22  1   
 45  21  42  1   
 46  22  43  1   
 47  22  44  1   
@<TRIPOS>SUBSTRUCTURE
  1 ****   5 GROUP 4 **** **** 0

# MOE 2024.06 (io_trps.svl 2023.06)
