@<TRIPOS>MOLECULE
NONAME
38 38 1 0 0 
SMALL
USER_CHARGES


@<TRIPOS>ATOM
  1 S        0.6800     1.3570     0.6770 S.3   1 <1>  -0.3320 
  2 C       -1.1120     1.5640     0.6250 C.ar  1 <1>   0.1020 
  3 C        1.2510     0.8570    -1.0260 C.3   1 <1>   0.2110 
  4 C       -1.8750     1.2530    -0.4900 C.ar  1 <1>  -0.1500 
  5 C       -1.7100     2.0540     1.7710 C.ar  1 <1>  -0.1500 
  6 C        2.6410     0.2130    -0.9590 C.2   1 <1>   0.5690 
  7 C        1.2330     2.1190    -1.9000 C.3   1 <1>  -0.2400 
  8 C       -3.2470     1.4420    -0.4490 C.ar  1 <1>  -0.1500 
  9 C       -3.0810     2.2400     1.8050 C.ar  1 <1>  -0.1500 
 10 O        2.9620    -0.5340    -1.8530 O.2   1 <1>  -0.5700 
 11 N        3.4630     0.5120     0.0870 N.am  1 <1>  -0.7300 
 12 C       -3.8550     1.9380     0.6950 C.ar  1 <1>  -0.1430 
 13 C        4.8170     0.0370     0.3760 C.3   1 <1>   0.3000 
 14 C       -5.3590     2.1420     0.7360 C.3   1 <1>  -0.0970 
 15 C        5.2430     0.7090     1.6790 C.3   1 <1>  -0.2400 
 16 C        4.8020    -1.4800     0.5580 C.3   1 <1>  -0.2400 
 17 C        5.7610     0.4560    -0.7520 C.3   1 <1>  -0.2400 
 18 H        0.5610     0.1200    -1.3880 H     1 <1>   0.0800 
 19 H       -1.4350     0.8670    -1.3860 H     1 <1>   0.1500 
 20 H       -1.1070     2.2870     2.6300 H     1 <1>   0.1500 
 21 H        1.9270     2.8440    -1.5140 H     1 <1>   0.0800 
 22 H        0.2510     2.5550    -1.9240 H     1 <1>   0.0800 
 23 H        1.5250     1.8670    -2.9040 H     1 <1>   0.0800 
 24 H       -3.8420     1.2010    -1.3120 H     1 <1>   0.1500 
 25 H       -3.5430     2.6210     2.7000 H     1 <1>   0.1500 
 26 H        3.0670     1.0960     0.8260 H     1 <1>   0.3700 
 27 H       -5.8370     1.2540     1.1070 H     1 <1>   0.0800 
 28 H       -5.7370     2.3550    -0.2480 H     1 <1>   0.0800 
 29 H       -5.6090     2.9660     1.3800 H     1 <1>   0.0800 
 30 H        4.5810     0.4330     2.4810 H     1 <1>   0.0800 
 31 H        5.2440     1.7780     1.5710 H     1 <1>   0.0800 
 32 H        6.2380     0.3980     1.9450 H     1 <1>   0.0800 
 33 H        5.7770    -1.8290     0.8430 H     1 <1>   0.0800 
 34 H        4.5300    -1.9690    -0.3600 H     1 <1>   0.0800 
 35 H        4.1010    -1.7600     1.3230 H     1 <1>   0.0800 
 36 H        6.7700     0.1770    -0.5120 H     1 <1>   0.0800 
 37 H        5.7240     1.5200    -0.8980 H     1 <1>   0.0800 
 38 H        5.4930    -0.0330    -1.6710 H     1 <1>   0.0800 
@<TRIPOS>BOND
  1   1   2  1   
  2   1   3  1   
  3   2   4  ar  
  4   2   5  ar  
  5   3   6  1   
  6   3   7  1   
  7   3  18  1   
  8   4   8  ar  
  9   4  19  1   
 10   5   9  ar  
 11   5  20  1   
 12   6  10  2   
 13   6  11  am  
 14   7  21  1   
 15   7  22  1   
 16   7  23  1   
 17   8  12  ar  
 18   8  24  1   
 19   9  12  ar  
 20   9  25  1   
 21  11  13  1   
 22  11  26  1   
 23  12  14  1   
 24  13  15  1   
 25  13  16  1   
 26  13  17  1   
 27  14  27  1   
 28  14  28  1   
 29  14  29  1   
 30  15  30  1   
 31  15  31  1   
 32  15  32  1   
 33  16  33  1   
 34  16  34  1   
 35  16  35  1   
 36  17  36  1   
 37  17  37  1   
 38  17  38  1   
@<TRIPOS>SUBSTRUCTURE
  1 ****   1 GROUP 4 **** **** 0

# MOE 2024.06 (io_trps.svl 2023.06)
