@<TRIPOS>MOLECULE
NONAME
51 54 1 0 0 
SMALL
USER_CHARGES


@<TRIPOS>ATOM
  1 O        0.1440    -0.4800     1.5880 O.2   1 <1>  -0.5700 
  2 C        0.2060    -1.5880     1.1170 C.2   1 <1>   0.4950 
  3 C        1.2360    -2.0720     0.2570 C.2   1 <1>  -0.1240 
  4 C       -0.8940    -2.5390     1.5560 C.3   1 <1>  -0.0990 
  5 C        1.3240    -3.3830    -0.1150 C.2   1 <1>  -0.0380 
  6 C        2.3180    -1.1300    -0.2680 C.3   1 <1>   0.5380 
  7 C       -1.1200    -3.6980     0.5700 C.3   1 <1>   0.0000 
  8 N        2.3560    -3.9740    -0.8220 N.pl3 1 <1>  -0.6000 
  9 C        0.2330    -4.3750     0.2760 C.3   1 <1>  -0.0220 
 10 N        3.6110    -1.5460     0.3310 N.am  1 <1>  -0.4770 
 11 C        2.1480     0.3910    -0.4090 C.2   1 <1>  -0.0400 
 12 C       -2.0850    -4.7190     1.1920 C.3   1 <1>  -0.2400 
 13 C       -1.7510    -3.1720    -0.7340 C.3   1 <1>  -0.2400 
 14 C        3.6960    -3.5810    -1.0600 C.ar  1 <1>   0.1000 
 15 C        4.3190    -2.4470    -0.4950 C.ar  1 <1>   0.1170 
 16 C        4.0250    -1.1990     1.6000 C.2   1 <1>   0.5690 
 17 O        3.2400     1.1360    -0.4770 O.3   1 <1>  -0.2800 
 18 C        1.0560     1.1800    -0.5410 C.2   1 <1>  -0.1500 
 19 C        4.4410    -4.3960    -1.9040 C.ar  1 <1>  -0.1500 
 20 C        5.6510    -2.1880    -0.7940 C.ar  1 <1>  -0.1500 
 21 O        5.0860    -1.5670     2.0480 O.2   1 <1>  -0.5700 
 22 C        3.1740    -0.3750     2.5430 C.3   1 <1>  -0.1790 
 23 C        2.8760     2.3910    -0.6270 C.2   1 <1>  -0.0400 
 24 C        1.5330     2.4890    -0.6740 C.2   1 <1>  -0.1500 
 25 C        5.7660    -4.1230    -2.1910 C.ar  1 <1>  -0.1500 
 26 C        6.3740    -3.0160    -1.6330 C.ar  1 <1>  -0.1500 
 27 C        3.9540     3.4480    -0.7140 C.3   1 <1>  -0.0600 
 28 H       -1.8060    -1.9840     1.6820 H     1 <1>   0.0800 
 29 H       -0.6160    -2.9280     2.5190 H     1 <1>   0.0800 
 30 H        2.3870    -1.3950    -1.3090 H     1 <1>   0.0800 
 31 H        2.1870    -4.9420    -1.1110 H     1 <1>   0.4000 
 32 H        0.5710    -4.9100     1.1460 H     1 <1>   0.0800 
 33 H        0.0940    -5.0940    -0.5130 H     1 <1>   0.0800 
 34 H       -1.6870    -5.1130     2.1100 H     1 <1>   0.0800 
 35 H       -2.2540    -5.5400     0.5180 H     1 <1>   0.0800 
 36 H       -3.0340    -4.2590     1.4070 H     1 <1>   0.0800 
 37 H       -1.1120    -2.4600    -1.2260 H     1 <1>   0.0800 
 38 H       -2.6910    -2.6900    -0.5310 H     1 <1>   0.0800 
 39 H       -1.9320    -3.9820    -1.4190 H     1 <1>   0.0800 
 40 H        0.0160     0.9060    -0.5480 H     1 <1>   0.1500 
 41 H        3.9840    -5.2620    -2.3470 H     1 <1>   0.1500 
 42 H        6.1250    -1.3250    -0.3610 H     1 <1>   0.1500 
 43 H        2.3460    -0.9610     2.8890 H     1 <1>   0.0800 
 44 H        2.8200     0.5240     2.0810 H     1 <1>   0.0800 
 45 H        3.7600    -0.0940     3.3980 H     1 <1>   0.0800 
 46 H        0.9220     3.3660    -0.7870 H     1 <1>   0.1500 
 47 H        6.3230    -4.7700    -2.8460 H     1 <1>   0.1500 
 48 H        7.4060    -2.7950    -1.8470 H     1 <1>   0.1500 
 49 H        4.5910     3.2460    -1.5540 H     1 <1>   0.0800 
 50 H        4.5440     3.4360     0.1840 H     1 <1>   0.0800 
 51 H        3.5120     4.4210    -0.8310 H     1 <1>   0.0800 
@<TRIPOS>BOND
  1   1   2  2   
  2   2   3  1   
  3   2   4  1   
  4   3   5  2   
  5   3   6  1   
  6   4   7  1   
  7   4  28  1   
  8   4  29  1   
  9   5   8  1   
 10   5   9  1   
 11   6  10  1   
 12   6  11  1   
 13   6  30  1   
 14   7   9  1   
 15   7  12  1   
 16   7  13  1   
 17   8  14  1   
 18   8  31  1   
 19   9  32  1   
 20   9  33  1   
 21  10  15  1   
 22  10  16  am  
 23  11  17  1   
 24  11  18  2   
 25  12  34  1   
 26  12  35  1   
 27  12  36  1   
 28  13  37  1   
 29  13  38  1   
 30  13  39  1   
 31  14  15  ar  
 32  14  19  ar  
 33  15  20  ar  
 34  16  21  2   
 35  16  22  1   
 36  17  23  1   
 37  18  24  1   
 38  18  40  1   
 39  19  25  ar  
 40  19  41  1   
 41  20  26  ar  
 42  20  42  1   
 43  22  43  1   
 44  22  44  1   
 45  22  45  1   
 46  23  24  2   
 47  23  27  1   
 48  24  46  1   
 49  25  26  ar  
 50  25  47  1   
 51  26  48  1   
 52  27  49  1   
 53  27  50  1   
 54  27  51  1   
@<TRIPOS>SUBSTRUCTURE
  1 ****   6 GROUP 4 **** **** 0

# MOE 2024.06 (io_trps.svl 2023.06)
