@<TRIPOS>MOLECULE
NONAME
39 41 1 0 0 
SMALL
USER_CHARGES


@<TRIPOS>ATOM
  1 O       -0.9810    -1.7510     1.2340 O.co2 1 <1>  -0.9000 
  2 C       -2.1020    -1.9130     1.7180 C.2   1 <1>   0.9060 
  3 O       -2.3400    -2.8120     2.5330 O.co2 1 <1>  -0.9000 
  4 C       -3.2710    -1.0460     1.2990 C.3   1 <1>  -0.1860 
  5 C       -4.2690    -1.6730     0.2540 C.3   1 <1>  -0.0190 
  6 C       -2.8430     0.2780     0.6340 C.3   1 <1>   0.0580 
  7 C       -3.9620    -3.0670    -0.3250 C.2   1 <1>   0.5690 
  8 C       -4.3130    -0.5790    -0.8430 C.3   1 <1>   0.0580 
  9 C       -4.0760     1.1630     0.6450 C.2   1 <1>  -0.2880 
 10 C       -2.8600    -0.1160    -0.8390 C.3   1 <1>  -0.1600 
 11 O       -4.0720    -3.2430    -1.5180 O.2   1 <1>  -0.5700 
 12 N       -3.6570    -4.0940     0.5220 N.am  1 <1>  -0.5470 
 13 C       -4.9460     0.6550    -0.2230 C.2   1 <1>  -0.2880 
 14 C       -3.2260    -5.3810     0.1840 C.ar  1 <1>   0.1170 
 15 C       -4.0680    -6.3690    -0.3360 C.ar  1 <1>  -0.1440 
 16 C       -1.8890    -5.6790     0.4110 C.ar  1 <1>  -0.1500 
 17 C       -3.5460    -7.6210    -0.6290 C.ar  1 <1>  -0.1500 
 18 C       -5.5540    -6.1230    -0.5760 C.3   1 <1>  -0.0170 
 19 C       -1.3780    -6.9290     0.1160 C.ar  1 <1>  -0.1500 
 20 C       -2.2090    -7.9030    -0.4070 C.ar  1 <1>  -0.1500 
 21 C       -6.3490    -6.3150     0.7180 C.3   1 <1>  -0.2400 
 22 H       -3.8030    -0.8190     2.2030 H     1 <1>   0.0800 
 23 H       -5.2420    -1.7440     0.7040 H     1 <1>   0.0800 
 24 H       -1.9290     0.7290     0.9820 H     1 <1>   0.0800 
 25 H       -4.7020    -0.8500    -1.8090 H     1 <1>   0.0800 
 26 H       -4.1330     2.0130     1.3020 H     1 <1>   0.1500 
 27 H       -2.1610    -0.9040    -1.0700 H     1 <1>   0.0800 
 28 H       -2.6960     0.7270    -1.4870 H     1 <1>   0.0800 
 29 H       -3.2910    -3.7730     1.4400 H     1 <1>   0.3700 
 30 H       -5.9400     0.9620    -0.4980 H     1 <1>   0.1500 
 31 H       -1.2510    -4.9120     0.8210 H     1 <1>   0.1500 
 32 H       -4.1830    -8.3880    -1.0300 H     1 <1>   0.1500 
 33 H       -5.9180    -6.8040    -1.3240 H     1 <1>   0.0800 
 34 H       -5.7120    -5.1300    -0.9530 H     1 <1>   0.0800 
 35 H       -0.3380    -7.1350     0.2960 H     1 <1>   0.1500 
 36 H       -1.8160    -8.8760    -0.6400 H     1 <1>   0.1500 
 37 H       -6.2110    -7.3130     1.0920 H     1 <1>   0.0800 
 38 H       -7.3960    -6.1480     0.5380 H     1 <1>   0.0800 
 39 H       -6.0090    -5.6180     1.4630 H     1 <1>   0.0800 
@<TRIPOS>BOND
  1   1   2  ar  
  2   2   3  ar  
  3   2   4  1   
  4   4   5  1   
  5   4   6  1   
  6   4  22  1   
  7   5   7  1   
  8   5   8  1   
  9   5  23  1   
 10   6   9  1   
 11   6  10  1   
 12   6  24  1   
 13   7  11  2   
 14   7  12  am  
 15   8  10  1   
 16   8  13  1   
 17   8  25  1   
 18   9  13  2   
 19   9  26  1   
 20  10  27  1   
 21  10  28  1   
 22  12  14  1   
 23  12  29  1   
 24  13  30  1   
 25  14  15  ar  
 26  14  16  ar  
 27  15  17  ar  
 28  15  18  1   
 29  16  19  ar  
 30  16  31  1   
 31  17  20  ar  
 32  17  32  1   
 33  18  21  1   
 34  18  33  1   
 35  18  34  1   
 36  19  20  ar  
 37  19  35  1   
 38  20  36  1   
 39  21  37  1   
 40  21  38  1   
 41  21  39  1   
@<TRIPOS>SUBSTRUCTURE
  1 ****   7 GROUP 4 **** **** 0

# MOE 2024.06 (io_trps.svl 2023.06)
