@<TRIPOS>MOLECULE
NONAME
42 45 1 0 0 
SMALL
USER_CHARGES


@<TRIPOS>ATOM
  1 O       -0.4050     0.3520    -0.1540 O.2   1 <1>  -0.5700 
  2 C       -0.0700     1.5020    -0.0290 C.2   1 <1>   0.5690 
  3 N       -0.8800     2.6090     0.0490 N.am  1 <1>  -0.1840 
  4 C        1.3920     1.8710     0.1130 C.3   1 <1>  -0.0190 
  5 C       -2.2810     2.6400    -0.1460 C.2   1 <1>   0.2500 
  6 C       -0.1230     3.7150     0.3310 C.2   1 <1>   0.5690 
  7 C        1.3550     3.3930     0.3850 C.3   1 <1>  -0.0190 
  8 C        2.2230     1.4090    -1.0990 C.3   1 <1>  -0.0220 
  9 N       -3.0400     3.7010     0.1480 N.pl3 1 <1>   0.0330 
 10 N       -3.0120     1.6910    -0.6370 N.2   1 <1>  -0.3380 
 11 O       -0.5490     4.8260     0.5390 O.2   1 <1>  -0.5700 
 12 C        2.1820     4.2860    -0.5620 C.3   1 <1>  -0.0220 
 13 C        3.4610     2.2680    -1.2630 C.2   1 <1>  -0.2880 
 14 C       -4.2750     3.3300    -0.1940 C.2   1 <1>   0.0060 
 15 N       -4.2760     2.1320    -0.6640 N.2   1 <1>  -0.3380 
 16 C        3.4420     3.5780    -1.0170 C.2   1 <1>  -0.2880 
 17 C       -5.4840     4.2390    -0.0330 C.3   1 <1>   0.0200 
 18 C       -6.7910     3.5780    -0.4890 C.3   1 <1>  -0.0170 
 19 C       -7.9600     4.5320    -0.2980 C.ar  1 <1>  -0.1430 
 20 C       -8.6680     4.5410     0.8940 C.ar  1 <1>  -0.1500 
 21 C       -8.3240     5.4050    -1.3110 C.ar  1 <1>  -0.1500 
 22 C       -9.7270     5.4150     1.0720 C.ar  1 <1>  -0.1500 
 23 C       -9.3830     6.2790    -1.1350 C.ar  1 <1>  -0.1500 
 24 C      -10.0850     6.2850     0.0580 C.ar  1 <1>  -0.1500 
 25 H        1.7780     1.3790     0.9890 H     1 <1>   0.0800 
 26 H        1.6980     3.5640     1.3900 H     1 <1>   0.0800 
 27 H        1.6420     1.4710    -2.0040 H     1 <1>   0.0800 
 28 H        2.5030     0.3790    -0.9600 H     1 <1>   0.0800 
 29 H       -2.6980     4.5930     0.5180 H     1 <1>   0.2700 
 30 H        2.4360     5.1990    -0.0510 H     1 <1>   0.0800 
 31 H        1.6080     4.5480    -1.4350 H     1 <1>   0.0800 
 32 H        4.3300     1.7340    -1.6120 H     1 <1>   0.1500 
 33 H        4.2950     4.2250    -1.1440 H     1 <1>   0.1500 
 34 H       -5.3280     5.1350    -0.6080 H     1 <1>   0.0800 
 35 H       -5.5780     4.5180     1.0010 H     1 <1>   0.0800 
 36 H       -6.9590     2.6780     0.0770 H     1 <1>   0.0800 
 37 H       -6.7140     3.2990    -1.5250 H     1 <1>   0.0800 
 38 H       -8.3990     3.8680     1.6890 H     1 <1>   0.1500 
 39 H       -7.7860     5.4070    -2.2430 H     1 <1>   0.1500 
 40 H      -10.2730     5.4170     1.9990 H     1 <1>   0.1500 
 41 H       -9.6610     6.9540    -1.9260 H     1 <1>   0.1500 
 42 H      -10.9080     6.9640     0.1950 H     1 <1>   0.1500 
@<TRIPOS>BOND
  1   1   2  2   
  2   2   3  am  
  3   2   4  1   
  4   3   5  1   
  5   3   6  am  
  6   4   7  1   
  7   4   8  1   
  8   4  25  1   
  9   5   9  1   
 10   5  10  2   
 11   6   7  1   
 12   6  11  2   
 13   7  12  1   
 14   7  26  1   
 15   8  13  1   
 16   8  27  1   
 17   8  28  1   
 18   9  14  1   
 19   9  29  1   
 20  10  15  1   
 21  12  16  1   
 22  12  30  1   
 23  12  31  1   
 24  13  16  2   
 25  13  32  1   
 26  14  15  2   
 27  14  17  1   
 28  16  33  1   
 29  17  18  1   
 30  17  34  1   
 31  17  35  1   
 32  18  19  1   
 33  18  36  1   
 34  18  37  1   
 35  19  20  ar  
 36  19  21  ar  
 37  20  22  ar  
 38  20  38  1   
 39  21  23  ar  
 40  21  39  1   
 41  22  24  ar  
 42  22  40  1   
 43  23  24  ar  
 44  23  41  1   
 45  24  42  1   
@<TRIPOS>SUBSTRUCTURE
  1 ****   9 GROUP 4 **** **** 0

# MOE 2024.06 (io_trps.svl 2023.06)
