@<TRIPOS>MOLECULE
NONAME
24 24 1 0 0 
SMALL
USER_CHARGES


@<TRIPOS>ATOM
  1 S        0.0930    -0.2340     0.0920 S.3   1 <1>  -0.0800 
  2 C       -1.4260     0.6420    -0.0280 C.2   1 <1>  -0.1400 
  3 C        1.0210     1.2550     0.0180 C.2   1 <1>  -0.1400 
  4 C       -1.1930     1.9660    -0.1150 C.2   1 <1>  -0.1500 
  5 C       -2.6920    -0.1980    -0.0130 C.3   1 <1>   0.3530 
  6 C        0.1950     2.3130    -0.0890 C.2   1 <1>  -0.1500 
  7 C        2.5340     1.1200     0.0830 C.3   1 <1>   0.0200 
  8 N       -3.8760     0.6340    -0.1720 N.2   1 <1>  -0.1710 
  9 C        3.2480     2.4750     0.0120 C.3   1 <1>  -0.1600 
 10 O       -4.6830     0.5850     0.6740 O.2   1 <1>  -0.1620 
 11 C        4.7770     2.3140     0.0790 C.3   1 <1>  -0.2660 
 12 C        5.4960     3.6420     0.0100 C.2   1 <1>   0.9060 
 13 O        5.7360     4.2370     1.0640 O.co2 1 <1>  -0.9000 
 14 O        5.8150     4.0810    -1.0990 O.co2 1 <1>  -0.9000 
 15 H       -1.9470     2.7310    -0.1960 H     1 <1>   0.1500 
 16 H       -2.7530    -0.7400     0.9140 H     1 <1>   0.0800 
 17 H       -2.6620    -0.9040    -0.8220 H     1 <1>   0.0800 
 18 H        0.5060     3.3420    -0.1520 H     1 <1>   0.1500 
 19 H        2.8640     0.5030    -0.7340 H     1 <1>   0.0800 
 20 H        2.8000     0.6290     1.0030 H     1 <1>   0.0800 
 21 H        2.9290     3.0990     0.8290 H     1 <1>   0.0800 
 22 H        2.9930     2.9730    -0.9080 H     1 <1>   0.0800 
 23 H        5.1250     1.7140    -0.7390 H     1 <1>   0.0800 
 24 H        5.0620     1.8390     0.9990 H     1 <1>   0.0800 
@<TRIPOS>BOND
  1   1   2  1   
  2   1   3  1   
  3   2   4  2   
  4   2   5  1   
  5   3   6  2   
  6   3   7  1   
  7   4   6  1   
  8   4  15  1   
  9   5   8  1   
 10   5  16  1   
 11   5  17  1   
 12   6  18  1   
 13   7   9  1   
 14   7  19  1   
 15   7  20  1   
 16   8  10  2   
 17   9  11  1   
 18   9  21  1   
 19   9  22  1   
 20  11  12  1   
 21  11  23  1   
 22  11  24  1   
 23  12  13  ar  
 24  12  14  ar  
@<TRIPOS>SUBSTRUCTURE
  1 ****   3 GROUP 4 **** **** 0

# MOE 2024.06 (io_trps.svl 2023.06)
