@<TRIPOS>MOLECULE
NONAME
31 33 1 0 0 
SMALL
USER_CHARGES


@<TRIPOS>ATOM
  1 N        0.0840     1.7900    -0.0740 N.pl3 1 <1>  -0.7200 
  2 C       -1.2370     1.6890    -0.0400 C.cat 1 <1>   1.0680 
  3 C        0.7880     3.0920    -0.1530 C.3   1 <1>   0.1560 
  4 N       -2.0310     2.7510    -0.0700 N.pl3 1 <1>  -0.7690 
  5 N       -1.9430     0.5710     0.0180 N.pl3 1 <1>  -0.7060 
  6 C       -0.1160     4.2040     0.4020 C.3   1 <1>  -0.1720 
  7 C       -3.3420     2.2980    -0.0350 C.ar  1 <1>   0.2990 
  8 C       -1.5440     4.1400    -0.1560 C.3   1 <1>   0.3440 
  9 C       -3.2840     0.9190     0.0230 C.ar  1 <1>   0.2990 
 10 C       -4.5650     2.9530    -0.0490 C.ar  1 <1>  -0.1210 
 11 C       -4.4430     0.1590     0.0700 C.ar  1 <1>  -0.1210 
 12 C       -5.7290     2.2050    -0.0030 C.ar  1 <1>  -0.1550 
 13 C       -5.6670     0.8030     0.0570 C.ar  1 <1>  -0.1550 
 14 C       -7.0690     2.9280    -0.0170 C.3   1 <1>  -0.1090 
 15 C       -6.9390    -0.0330     0.1100 C.3   1 <1>  -0.1090 
 16 H        0.6670     0.9540    -0.0810 H     1 <1>   0.4420 
 17 H        1.0370     3.2970    -1.1810 H     1 <1>   0.0680 
 18 H        1.7020     3.0490     0.4170 H     1 <1>   0.0680 
 19 H       -1.5850    -0.3780     0.0550 H     1 <1>   0.4420 
 20 H        0.3140     5.1630     0.1730 H     1 <1>   0.0680 
 21 H       -0.1560     4.1240     1.4740 H     1 <1>   0.0680 
 22 H       -2.1890     4.7920     0.4080 H     1 <1>   0.0680 
 23 H       -1.5540     4.4520    -1.1880 H     1 <1>   0.0680 
 24 H       -4.5950     4.0260    -0.0950 H     1 <1>   0.1380 
 25 H       -4.3780    -0.9140     0.1150 H     1 <1>   0.1380 
 26 H       -6.9360     3.9940    -0.0660 H     1 <1>   0.0680 
 27 H       -7.6240     2.7000     0.8750 H     1 <1>   0.0680 
 28 H       -7.6460     2.6240    -0.8730 H     1 <1>   0.0680 
 29 H       -6.7140    -1.0840     0.1530 H     1 <1>   0.0680 
 30 H       -7.5370     0.1450    -0.7670 H     1 <1>   0.0680 
 31 H       -7.5150     0.2210     0.9810 H     1 <1>   0.0680 
@<TRIPOS>BOND
  1   1   2  ar  
  2   1   3  1   
  3   1  16  1   
  4   2   4  ar  
  5   2   5  ar  
  6   3   6  1   
  7   3  17  1   
  8   3  18  1   
  9   4   7  1   
 10   4   8  1   
 11   5   9  1   
 12   5  19  1   
 13   6   8  1   
 14   6  20  1   
 15   6  21  1   
 16   7   9  ar  
 17   7  10  ar  
 18   8  22  1   
 19   8  23  1   
 20   9  11  ar  
 21  10  12  ar  
 22  10  24  1   
 23  11  13  ar  
 24  11  25  1   
 25  12  13  ar  
 26  12  14  1   
 27  13  15  1   
 28  14  26  1   
 29  14  27  1   
 30  14  28  1   
 31  15  29  1   
 32  15  30  1   
 33  15  31  1   
@<TRIPOS>SUBSTRUCTURE
  1 ****   7 GROUP 4 **** **** 0

# MOE 2024.06 (io_trps.svl 2023.06)
