@<TRIPOS>MOLECULE
NONAME
50 52 1 0 0 
SMALL
USER_CHARGES


@<TRIPOS>ATOM
  1 O       -0.9920     0.5840    -0.8750 O.2   1 <1>  -0.5700 
  2 C       -0.8180    -0.5160    -0.4210 C.2   1 <1>   0.6590 
  3 O       -1.6280    -1.5100    -0.7770 O.3   1 <1>  -0.4300 
  4 C        0.3170    -0.7620     0.5910 C.3   1 <1>   0.1710 
  5 C       -1.4040    -2.8710    -0.4610 C.3   1 <1>   0.1200 
  6 N        1.3520    -1.7580     0.1890 N.3   1 <1>  -0.8100 
  7 C       -2.6040    -3.7290    -0.8930 C.3   1 <1>   0.0580 
  8 C        2.0690    -1.3180    -1.0200 C.3   1 <1>   0.1100 
  9 C        2.2840    -2.0160     1.2970 C.3   1 <1>   0.1100 
 10 C       -3.8340    -3.5690     0.0440 C.2   1 <1>  -0.2760 
 11 C       -2.1330    -5.2090    -1.0420 C.3   1 <1>  -0.0650 
 12 C        3.0350    -2.4140    -1.4820 C.3   1 <1>  -0.1600 
 13 C        3.2530    -3.1380     0.9120 C.3   1 <1>  -0.1600 
 14 C       -4.3420    -4.5970     0.7390 C.2   1 <1>  -0.1900 
 15 C       -4.4590    -2.1820     0.0930 C.3   1 <1>  -0.1020 
 16 C       -3.3260    -6.1350    -0.8130 C.3   1 <1>  -0.1950 
 17 C        4.0200    -2.7950    -0.3710 C.3   1 <1>  -0.1600 
 18 C       -3.6780    -5.9460     0.6470 C.3   1 <1>  -0.0600 
 19 C       -3.8260    -7.2760     0.0120 C.3   1 <1>  -0.1900 
 20 C       -2.8370    -8.3940     0.3520 C.3   1 <1>  -0.1450 
 21 C       -5.2450    -7.8050    -0.2190 C.3   1 <1>  -0.1450 
 22 H       -0.1410    -1.0840     1.5080 H     1 <1>   0.0800 
 23 H        0.7950     0.1820     0.7840 H     1 <1>   0.0800 
 24 H       -1.2470    -2.9700     0.5990 H     1 <1>   0.0800 
 25 H       -0.5170    -3.1810    -0.9860 H     1 <1>   0.0800 
 26 H       -2.9040    -3.4080    -1.8760 H     1 <1>   0.0800 
 27 H        2.6140    -0.4110    -0.8160 H     1 <1>   0.0800 
 28 H        1.3670    -1.1190    -1.8130 H     1 <1>   0.0800 
 29 H        1.7320    -2.3160     2.1720 H     1 <1>   0.0800 
 30 H        2.8350    -1.1200     1.5300 H     1 <1>   0.0800 
 31 H       -1.3630    -5.4380    -0.3250 H     1 <1>   0.0800 
 32 H       -1.7270    -5.3670    -2.0250 H     1 <1>   0.0800 
 33 H        3.5770    -2.0710    -2.3450 H     1 <1>   0.0800 
 34 H        2.4630    -3.2770    -1.7740 H     1 <1>   0.0800 
 35 H        2.6920    -4.0450     0.7690 H     1 <1>   0.0800 
 36 H        3.9470    -3.3030     1.7160 H     1 <1>   0.0800 
 37 H       -5.1990    -4.5580     1.3890 H     1 <1>   0.1500 
 38 H       -4.6570    -1.8280    -0.9030 H     1 <1>   0.0800 
 39 H       -3.8040    -1.4870     0.5840 H     1 <1>   0.0800 
 40 H       -5.3870    -2.2060     0.6350 H     1 <1>   0.0800 
 41 H       -4.0500    -5.8990    -1.5760 H     1 <1>   0.1000 
 42 H        4.6810    -1.9670    -0.1810 H     1 <1>   0.0800 
 43 H        4.6160    -3.6370    -0.6800 H     1 <1>   0.0800 
 44 H       -2.9270    -5.9820     1.4180 H     1 <1>   0.1000 
 45 H       -1.8470    -7.9970     0.4930 H     1 <1>   0.0800 
 46 H       -2.8030    -9.1120    -0.4470 H     1 <1>   0.0800 
 47 H       -3.1380    -8.8930     1.2560 H     1 <1>   0.0800 
 48 H       -5.9180    -6.9970    -0.4470 H     1 <1>   0.0800 
 49 H       -5.6020    -8.3050     0.6630 H     1 <1>   0.0800 
 50 H       -5.2530    -8.4990    -1.0410 H     1 <1>   0.0800 
@<TRIPOS>BOND
  1   1   2  2   
  2   2   3  1   
  3   2   4  1   
  4   3   5  1   
  5   4   6  1   
  6   4  22  1   
  7   4  23  1   
  8   5   7  1   
  9   5  24  1   
 10   5  25  1   
 11   6   8  1   
 12   6   9  1   
 13   7  10  1   
 14   7  11  1   
 15   7  26  1   
 16   8  12  1   
 17   8  27  1   
 18   8  28  1   
 19   9  13  1   
 20   9  29  1   
 21   9  30  1   
 22  10  14  2   
 23  10  15  1   
 24  11  16  1   
 25  11  31  1   
 26  11  32  1   
 27  12  17  1   
 28  12  33  1   
 29  12  34  1   
 30  13  17  1   
 31  13  35  1   
 32  13  36  1   
 33  14  18  1   
 34  14  37  1   
 35  15  38  1   
 36  15  39  1   
 37  15  40  1   
 38  16  18  1   
 39  16  19  1   
 40  16  41  1   
 41  17  42  1   
 42  17  43  1   
 43  18  19  1   
 44  18  44  1   
 45  19  20  1   
 46  19  21  1   
 47  20  45  1   
 48  20  46  1   
 49  20  47  1   
 50  21  48  1   
 51  21  49  1   
 52  21  50  1   
@<TRIPOS>SUBSTRUCTURE
  1 ****   5 GROUP 4 **** **** 0

# MOE 2024.06 (io_trps.svl 2023.06)
