@<TRIPOS>MOLECULE
NONAME
46 47 1 0 0 
SMALL
USER_CHARGES


@<TRIPOS>ATOM
  1 O        0.0430    -1.9080    -1.5830 O.2   1 <1>  -0.5700 
  2 C        0.0450    -2.4010    -0.4700 C.2   1 <1>   0.6900 
  3 N        1.1960    -2.4660     0.2670 N.am  1 <1>  -0.6600 
  4 N       -1.1070    -2.8780     0.0630 N.am  1 <1>  -0.7300 
  5 C        2.4350    -1.7410    -0.1660 C.3   1 <1>   0.1400 
  6 C        1.4500    -3.4770     1.3430 C.3   1 <1>   0.1400 
  7 C       -2.4350    -2.8320    -0.5810 C.3   1 <1>   0.1400 
  8 C        3.5660    -2.7200    -0.5220 C.3   1 <1>   0.2090 
  9 C        2.6050    -4.4240     0.9680 C.3   1 <1>   0.2090 
 10 C       -3.3820    -2.0040     0.2870 C.3   1 <1>  -0.1600 
 11 N        3.8330    -3.6560     0.6110 N.pl3 1 <1>  -0.8380 
 12 C       -4.7800    -1.9240    -0.3380 C.3   1 <1>  -0.1600 
 13 C        5.0070    -4.4150     0.5010 C.ar  1 <1>   0.1000 
 14 C       -5.7270    -1.0940     0.5330 C.3   1 <1>  -0.2400 
 15 C        5.2250    -5.4050    -0.4750 C.ar  1 <1>   0.0820 
 16 C        6.0120    -4.1580     1.4230 C.ar  1 <1>  -0.1500 
 17 O        4.2330    -5.6550    -1.3850 O.3   1 <1>  -0.3630 
 18 C        6.4310    -6.1020    -0.4920 C.ar  1 <1>  -0.1500 
 19 C        7.2070    -4.8520     1.3990 C.ar  1 <1>  -0.1500 
 20 C        4.4400    -6.5070    -2.4880 C.3   1 <1>   0.0400 
 21 C        7.4170    -5.8260     0.4410 C.ar  1 <1>  -0.1500 
 22 H       -1.0970    -3.0850     1.0570 H     1 <1>   0.3700 
 23 H        2.7650    -1.1060     0.6360 H     1 <1>   0.0800 
 24 H        2.2300    -1.1140    -1.0160 H     1 <1>   0.0800 
 25 H        0.5720    -4.0680     1.5270 H     1 <1>   0.0800 
 26 H        1.7050    -2.9630     2.2530 H     1 <1>   0.0800 
 27 H       -2.8080    -3.8350    -0.6900 H     1 <1>   0.0800 
 28 H       -2.3550    -2.3910    -1.5620 H     1 <1>   0.0800 
 29 H        4.4620    -2.1690    -0.7470 H     1 <1>   0.0800 
 30 H        3.2850    -3.2760    -1.3990 H     1 <1>   0.0800 
 31 H        2.3030    -5.0340     0.1350 H     1 <1>   0.0800 
 32 H        2.8230    -5.0740     1.7970 H     1 <1>   0.0800 
 33 H       -2.9820    -1.0100     0.3890 H     1 <1>   0.0800 
 34 H       -3.4540    -2.4510     1.2630 H     1 <1>   0.0800 
 35 H       -5.1850    -2.9160    -0.4550 H     1 <1>   0.0800 
 36 H       -4.7130    -1.4740    -1.3150 H     1 <1>   0.0800 
 37 H       -5.8280    -1.5370     1.5080 H     1 <1>   0.0800 
 38 H       -6.7000    -1.0460     0.0760 H     1 <1>   0.0800 
 39 H       -5.3530    -0.0910     0.6440 H     1 <1>   0.0800 
 40 H        5.8420    -3.4000     2.1650 H     1 <1>   0.1500 
 41 H        6.6260    -6.8650    -1.2190 H     1 <1>   0.1500 
 42 H        7.9710    -4.6340     2.1250 H     1 <1>   0.1500 
 43 H        3.5520    -6.4870    -3.0940 H     1 <1>   0.0800 
 44 H        4.6150    -7.5050    -2.1300 H     1 <1>   0.0800 
 45 H        5.2780    -6.1450    -3.0560 H     1 <1>   0.0800 
 46 H        8.3460    -6.3690     0.4200 H     1 <1>   0.1500 
@<TRIPOS>BOND
  1   1   2  2   
  2   2   3  am  
  3   2   4  am  
  4   3   5  1   
  5   3   6  1   
  6   4   7  1   
  7   4  22  1   
  8   5   8  1   
  9   5  23  1   
 10   5  24  1   
 11   6   9  1   
 12   6  25  1   
 13   6  26  1   
 14   7  10  1   
 15   7  27  1   
 16   7  28  1   
 17   8  11  1   
 18   8  29  1   
 19   8  30  1   
 20   9  11  1   
 21   9  31  1   
 22   9  32  1   
 23  10  12  1   
 24  10  33  1   
 25  10  34  1   
 26  11  13  1   
 27  12  14  1   
 28  12  35  1   
 29  12  36  1   
 30  13  15  ar  
 31  13  16  ar  
 32  14  37  1   
 33  14  38  1   
 34  14  39  1   
 35  15  17  1   
 36  15  18  ar  
 37  16  19  ar  
 38  16  40  1   
 39  17  20  1   
 40  18  21  ar  
 41  18  41  1   
 42  19  21  ar  
 43  19  42  1   
 44  20  43  1   
 45  20  44  1   
 46  20  45  1   
 47  21  46  1   
@<TRIPOS>SUBSTRUCTURE
  1 ****   9 GROUP 4 **** **** 0

# MOE 2024.06 (io_trps.svl 2023.06)
