@<TRIPOS>MOLECULE
NONAME
54 56 1 0 0 
SMALL
USER_CHARGES


@<TRIPOS>ATOM
  1 O       -0.3040     0.3330    -0.6290 O.2   1 <1>  -0.5700 
  2 C       -1.5020     0.4900    -0.4860 C.2   1 <1>   0.5440 
  3 N       -2.2740    -0.6190    -0.2890 N.am  1 <1>  -0.7300 
  4 C       -2.0910     1.8170    -0.5060 C.ar  1 <1>   0.0860 
  5 C       -1.7530    -2.0110    -0.2640 C.3   1 <1>   0.1400 
  6 C       -1.3390     2.9400    -0.1550 C.ar  1 <1>  -0.1500 
  7 C       -3.4220     2.0320    -0.8740 C.ar  1 <1>  -0.1500 
  8 C       -2.8640    -3.0950    -0.2040 C.3   1 <1>   0.1440 
  9 C       -1.8820     4.2110    -0.1540 C.ar  1 <1>  -0.1500 
 10 C       -3.9730     3.3000    -0.8740 C.ar  1 <1>  -0.1500 
 11 C       -2.2770    -4.5300    -0.2180 C.ar  1 <1>  -0.1430 
 12 C       -3.7330    -2.8890     1.0640 C.3   1 <1>  -0.1600 
 13 C       -3.8370    -2.9120    -1.3950 C.3   1 <1>  -0.1600 
 14 C       -3.2130     4.4000    -0.5130 C.ar  1 <1>   0.0830 
 15 C       -0.9150    -4.7990    -0.3430 C.ar  1 <1>  -0.1500 
 16 C       -3.1370    -5.6160    -0.0980 C.ar  1 <1>  -0.1500 
 17 C       -5.1850    -2.7440     0.6030 C.3   1 <1>  -0.1600 
 18 C       -5.1030    -2.2590    -0.8380 C.3   1 <1>  -0.1600 
 19 O       -3.8250     5.6050    -0.5380 O.3   1 <1>  -0.3620 
 20 C       -0.4250    -6.1030    -0.3490 C.ar  1 <1>   0.0830 
 21 C       -2.6690    -6.9180    -0.1010 C.ar  1 <1>  -0.1500 
 22 C       -3.1390     6.7920    -0.2070 C.3   1 <1>   0.0400 
 23 O        0.9050    -6.3870    -0.4720 O.3   1 <1>  -0.3630 
 24 C       -1.3100    -7.1750    -0.2260 C.ar  1 <1>   0.0830 
 25 C        1.8790    -5.3800    -0.6320 C.3   1 <1>   0.0400 
 26 O       -0.8000    -8.4410    -0.2340 O.3   1 <1>  -0.3630 
 27 C       -1.6260    -9.5760    -0.1140 C.3   1 <1>   0.0400 
 28 H       -3.2620    -0.5190    -0.0520 H     1 <1>   0.3700 
 29 H       -1.1060    -2.1150     0.5900 H     1 <1>   0.0800 
 30 H       -1.1600    -2.1560    -1.1510 H     1 <1>   0.0800 
 31 H       -0.3070     2.8030     0.1220 H     1 <1>   0.1500 
 32 H       -4.0340     1.2010    -1.1720 H     1 <1>   0.1500 
 33 H       -1.2590     5.0390     0.1270 H     1 <1>   0.1500 
 34 H       -5.0000     3.4510    -1.1580 H     1 <1>   0.1500 
 35 H       -3.4430    -1.9970     1.5910 H     1 <1>   0.0800 
 36 H       -3.6340    -3.7060     1.7580 H     1 <1>   0.0800 
 37 H       -4.1020    -3.8650    -1.8150 H     1 <1>   0.0800 
 38 H       -3.4080    -2.3220    -2.1860 H     1 <1>   0.0800 
 39 H       -0.2160    -3.9960    -0.4380 H     1 <1>   0.1500 
 40 H       -4.1960    -5.4580     0.0000 H     1 <1>   0.1500 
 41 H       -5.7410    -2.0650     1.2260 H     1 <1>   0.0800 
 42 H       -5.6670    -3.7070     0.6260 H     1 <1>   0.0800 
 43 H       -5.9770    -2.5330    -1.4050 H     1 <1>   0.0800 
 44 H       -5.0010    -1.1880    -0.8560 H     1 <1>   0.0800 
 45 H       -3.3810    -7.7140    -0.0040 H     1 <1>   0.1500 
 46 H       -3.8270     7.6120    -0.3040 H     1 <1>   0.0800 
 47 H       -2.3170     6.9210    -0.8870 H     1 <1>   0.0800 
 48 H       -2.7930     6.7230     0.8090 H     1 <1>   0.0800 
 49 H        2.8380    -5.8570    -0.7200 H     1 <1>   0.0800 
 50 H        1.8670    -4.7420     0.2330 H     1 <1>   0.0800 
 51 H        1.6630    -4.8260    -1.5290 H     1 <1>   0.0800 
 52 H       -0.9990   -10.4480    -0.1470 H     1 <1>   0.0800 
 53 H       -2.3180    -9.5920    -0.9380 H     1 <1>   0.0800 
 54 H       -2.1440    -9.5330     0.8270 H     1 <1>   0.0800 
@<TRIPOS>BOND
  1   1   2  2   
  2   2   3  am  
  3   2   4  1   
  4   3   5  1   
  5   3  28  1   
  6   4   6  ar  
  7   4   7  ar  
  8   5   8  1   
  9   5  29  1   
 10   5  30  1   
 11   6   9  ar  
 12   6  31  1   
 13   7  10  ar  
 14   7  32  1   
 15   8  11  1   
 16   8  12  1   
 17   8  13  1   
 18   9  14  ar  
 19   9  33  1   
 20  10  14  ar  
 21  10  34  1   
 22  11  15  ar  
 23  11  16  ar  
 24  12  17  1   
 25  12  35  1   
 26  12  36  1   
 27  13  18  1   
 28  13  37  1   
 29  13  38  1   
 30  14  19  1   
 31  15  20  ar  
 32  15  39  1   
 33  16  21  ar  
 34  16  40  1   
 35  17  18  1   
 36  17  41  1   
 37  17  42  1   
 38  18  43  1   
 39  18  44  1   
 40  19  22  1   
 41  20  23  1   
 42  20  24  ar  
 43  21  24  ar  
 44  21  45  1   
 45  22  46  1   
 46  22  47  1   
 47  22  48  1   
 48  23  25  1   
 49  24  26  1   
 50  25  49  1   
 51  25  50  1   
 52  25  51  1   
 53  26  27  1   
 54  27  52  1   
 55  27  53  1   
 56  27  54  1   
@<TRIPOS>SUBSTRUCTURE
  1 ****   5 GROUP 4 **** **** 0

# MOE 2024.06 (io_trps.svl 2023.06)
