@<TRIPOS>MOLECULE
NONAME
39 41 1 0 0 
SMALL
USER_CHARGES


@<TRIPOS>ATOM
  1 O       -4.1690     2.0140     2.0700 O.2   1 <1>  -0.5700 
  2 C       -3.2650     2.1710     1.2850 C.2   1 <1>   0.5690 
  3 N       -2.7210     1.1340     0.5970 N.am  1 <1>  -0.7300 
  4 C       -2.7270     3.5810     1.0690 C.3   1 <1>   0.1810 
  5 C       -3.1200    -0.2790     0.6880 C.3   1 <1>   0.2200 
  6 O       -1.6690     3.6020     0.1180 O.3   1 <1>  -0.3630 
  7 C       -1.8960    -1.1100     1.0520 C.3   1 <1>  -0.1600 
  8 C       -3.4800    -0.7760    -0.7060 C.3   1 <1>  -0.1600 
  9 C       -1.0450     4.7550    -0.2250 C.ar  1 <1>   0.0820 
 10 C       -1.1300    -1.3210    -0.2600 C.3   1 <1>  -0.1600 
 11 C       -2.1480    -1.1060    -1.3880 C.3   1 <1>  -0.1600 
 12 C       -0.0370     4.6780    -1.1490 C.ar  1 <1>  -0.1500 
 13 C       -1.3860     6.0070     0.3220 C.ar  1 <1>  -0.1500 
 14 C        0.6710     5.8180    -1.5700 C.ar  1 <1>   0.0000 
 15 C       -0.7130     7.1310    -0.0710 C.ar  1 <1>  -0.1500 
 16 C        0.3270     7.0720    -1.0210 C.ar  1 <1>   0.0000 
 17 C        1.7120     5.7580    -2.5200 C.ar  1 <1>  -0.1500 
 18 C        1.0360     8.2150    -1.4420 C.ar  1 <1>  -0.1500 
 19 C        2.3830     6.8840    -2.9110 C.ar  1 <1>  -0.1500 
 20 C        2.0410     8.1260    -2.3660 C.ar  1 <1>  -0.1500 
 21 H       -1.9580     1.3310    -0.0530 H     1 <1>   0.3700 
 22 H       -2.3540     3.9600     2.0010 H     1 <1>   0.0800 
 23 H       -3.5220     4.2070     0.7070 H     1 <1>   0.0800 
 24 H       -3.9270    -0.4030     1.3920 H     1 <1>   0.0800 
 25 H       -2.2320    -2.0650     1.4170 H     1 <1>   0.0800 
 26 H       -1.2980    -0.6420     1.8140 H     1 <1>   0.0800 
 27 H       -4.0650    -0.0590    -1.2550 H     1 <1>   0.0800 
 28 H       -4.0540    -1.6810    -0.6050 H     1 <1>   0.0800 
 29 H       -0.7010    -2.3070    -0.2990 H     1 <1>   0.0800 
 30 H       -0.3400    -0.5950    -0.3420 H     1 <1>   0.0800 
 31 H       -1.8370    -0.2790    -2.0030 H     1 <1>   0.0800 
 32 H       -2.2410    -1.9820    -2.0070 H     1 <1>   0.0800 
 33 H        0.2260     3.7250    -1.5680 H     1 <1>   0.1500 
 34 H       -2.1720     6.0950     1.0480 H     1 <1>   0.1500 
 35 H       -0.9690     8.0900     0.3430 H     1 <1>   0.1500 
 36 H        1.9700     4.8010    -2.9360 H     1 <1>   0.1500 
 37 H        0.7710     9.1670    -1.0210 H     1 <1>   0.1500 
 38 H        3.1760     6.8320    -3.6370 H     1 <1>   0.1500 
 39 H        2.5790     9.0030    -2.6840 H     1 <1>   0.1500 
@<TRIPOS>BOND
  1   1   2  2   
  2   2   3  am  
  3   2   4  1   
  4   3   5  1   
  5   3  21  1   
  6   4   6  1   
  7   4  22  1   
  8   4  23  1   
  9   5   7  1   
 10   5   8  1   
 11   5  24  1   
 12   6   9  1   
 13   7  10  1   
 14   7  25  1   
 15   7  26  1   
 16   8  11  1   
 17   8  27  1   
 18   8  28  1   
 19   9  12  ar  
 20   9  13  ar  
 21  10  11  1   
 22  10  29  1   
 23  10  30  1   
 24  11  31  1   
 25  11  32  1   
 26  12  14  ar  
 27  12  33  1   
 28  13  15  ar  
 29  13  34  1   
 30  14  16  ar  
 31  14  17  ar  
 32  15  16  ar  
 33  15  35  1   
 34  16  18  ar  
 35  17  19  ar  
 36  17  36  1   
 37  18  20  ar  
 38  18  37  1   
 39  19  20  ar  
 40  19  38  1   
 41  20  39  1   
@<TRIPOS>SUBSTRUCTURE
  1 ****   6 GROUP 4 **** **** 0

# MOE 2024.06 (io_trps.svl 2023.06)
