@<TRIPOS>MOLECULE
NONAME
38 38 1 0 0 
SMALL
USER_CHARGES


@<TRIPOS>ATOM
  1 O       -0.1140     0.3480     1.8600 O.2   1 <1>  -0.5700 
  2 C       -0.0820     1.3600     1.2030 C.2   1 <1>   0.5690 
  3 N        1.0260     1.8130     0.5490 N.am  1 <1>  -0.5470 
  4 C       -1.3430     2.2040     1.1120 C.3   1 <1>  -0.0990 
  5 C        2.3290     1.3100     0.3820 C.ar  1 <1>   0.1170 
  6 C       -2.2040     1.9780    -0.1540 C.3   1 <1>   0.0000 
  7 C        3.1580     1.9360    -0.5550 C.ar  1 <1>   0.0830 
  8 C        2.8270     0.2300     1.1020 C.ar  1 <1>  -0.1500 
  9 C       -2.6420     0.5100    -0.2570 C.3   1 <1>  -0.2400 
 10 C       -3.4590     2.8570    -0.0540 C.3   1 <1>  -0.2400 
 11 C       -1.4430     2.3640    -1.4330 C.3   1 <1>  -0.2400 
 12 O        2.6340     2.9980    -1.2420 O.3   1 <1>  -0.3630 
 13 C        4.4550     1.4740    -0.7530 C.ar  1 <1>  -0.1500 
 14 C        4.1170    -0.2320     0.9020 C.ar  1 <1>  -0.1430 
 15 C        3.3800     3.6610    -2.2390 C.3   1 <1>   0.0400 
 16 C        4.9280     0.3950    -0.0270 C.ar  1 <1>  -0.1500 
 17 C        4.6360    -1.4140     1.7000 C.3   1 <1>  -0.0970 
 18 H        0.8800     2.6480    -0.0190 H     1 <1>   0.3700 
 19 H       -1.0630     3.2390     1.1790 H     1 <1>   0.0800 
 20 H       -1.9370     1.9850     1.9810 H     1 <1>   0.0800 
 21 H        2.2040    -0.2560     1.8290 H     1 <1>   0.1500 
 22 H       -1.7910    -0.1380    -0.3740 H     1 <1>   0.0800 
 23 H       -3.1700     0.2090     0.6310 H     1 <1>   0.0800 
 24 H       -3.2900     0.3650    -1.1030 H     1 <1>   0.0800 
 25 H       -3.1920     3.8970     0.0060 H     1 <1>   0.0800 
 26 H       -4.0310     2.6020     0.8210 H     1 <1>   0.0800 
 27 H       -4.0880     2.7200    -0.9160 H     1 <1>   0.0800 
 28 H       -1.0830     3.3760    -1.3730 H     1 <1>   0.0800 
 29 H       -2.0910     2.2890    -2.2890 H     1 <1>   0.0800 
 30 H       -0.6080     1.7080    -1.6000 H     1 <1>   0.0800 
 31 H        5.1130     1.9340    -1.4640 H     1 <1>   0.1500 
 32 H        2.7670     4.4410    -2.6540 H     1 <1>   0.0800 
 33 H        3.6410     2.9550    -3.0080 H     1 <1>   0.0800 
 34 H        4.2600     4.0880    -1.7920 H     1 <1>   0.0800 
 35 H        5.9330     0.0450    -0.1880 H     1 <1>   0.1500 
 36 H        5.1480    -1.0630     2.5780 H     1 <1>   0.0800 
 37 H        5.3180    -1.9970     1.1070 H     1 <1>   0.0800 
 38 H        3.8230    -2.0490     2.0040 H     1 <1>   0.0800 
@<TRIPOS>BOND
  1   1   2  2   
  2   2   3  am  
  3   2   4  1   
  4   3   5  1   
  5   3  18  1   
  6   4   6  1   
  7   4  19  1   
  8   4  20  1   
  9   5   7  ar  
 10   5   8  ar  
 11   6   9  1   
 12   6  10  1   
 13   6  11  1   
 14   7  12  1   
 15   7  13  ar  
 16   8  14  ar  
 17   8  21  1   
 18   9  22  1   
 19   9  23  1   
 20   9  24  1   
 21  10  25  1   
 22  10  26  1   
 23  10  27  1   
 24  11  28  1   
 25  11  29  1   
 26  11  30  1   
 27  12  15  1   
 28  13  16  ar  
 29  13  31  1   
 30  14  16  ar  
 31  14  17  1   
 32  15  32  1   
 33  15  33  1   
 34  15  34  1   
 35  16  35  1   
 36  17  36  1   
 37  17  37  1   
 38  17  38  1   
@<TRIPOS>SUBSTRUCTURE
  1 ****   3 GROUP 4 **** **** 0

# MOE 2024.06 (io_trps.svl 2023.06)
