@<TRIPOS>MOLECULE
NONAME
44 46 1 0 0 
SMALL
USER_CHARGES


@<TRIPOS>ATOM
  1 O        0.5290    -0.4840    -3.2570 O.2   1 <1>  -0.5700 
  2 C       -0.0750    -0.8370    -2.2720 C.2   1 <1>   0.5690 
  3 N        0.4880    -1.0470    -1.0450 N.am  1 <1>  -0.5470 
  4 C       -1.5830    -1.0780    -2.3690 C.3   1 <1>   0.1710 
  5 C        1.7950    -0.9440    -0.5470 C.ar  1 <1>   0.1170 
  6 N       -2.2900    -1.0060    -1.0540 N.3   1 <1>  -0.8100 
  7 C        1.9990    -1.1320     0.8160 C.ar  1 <1>  -0.1500 
  8 C        2.8990    -0.6650    -1.3470 C.ar  1 <1>  -0.1500 
  9 C       -3.6300    -1.6290    -1.1460 C.3   1 <1>   0.1100 
 10 C       -2.4450     0.4050    -0.6160 C.3   1 <1>   0.1100 
 11 C        3.2630    -1.0460     1.3740 C.ar  1 <1>  -0.1430 
 12 C        4.1650    -0.5750    -0.7980 C.ar  1 <1>  -0.1500 
 13 C       -4.3890    -1.5870     0.1940 C.3   1 <1>   0.2090 
 14 C       -3.1680     0.5260     0.7400 C.3   1 <1>   0.2090 
 15 C        4.3480    -0.7640     0.5600 C.ar  1 <1>  -0.1500 
 16 C        3.4650    -1.2530     2.8650 C.3   1 <1>  -0.0970 
 17 N       -4.4830    -0.1890     0.7210 N.pl3 1 <1>  -0.8380 
 18 C       -5.6130     0.3050     1.3410 C.ar  1 <1>   0.7200 
 19 N       -6.7170    -0.4400     1.2800 N.ar  1 <1>  -0.6200 
 20 N       -5.5070     1.4850     1.9530 N.ar  1 <1>  -0.6200 
 21 C       -7.7820     0.0400     1.8740 C.ar  1 <1>   0.1600 
 22 C       -6.5870     1.9400     2.5390 C.ar  1 <1>   0.1600 
 23 C       -7.7710     1.2460     2.5290 C.ar  1 <1>  -0.1500 
 24 H       -0.2340    -1.2900    -0.3590 H     1 <1>   0.3700 
 25 H       -1.7130    -2.0600    -2.7890 H     1 <1>   0.0800 
 26 H       -2.0070    -0.3690    -3.0580 H     1 <1>   0.0800 
 27 H        1.1560    -1.3480     1.4450 H     1 <1>   0.1500 
 28 H        2.7780    -0.5180    -2.4030 H     1 <1>   0.1500 
 29 H       -3.5260    -2.6570    -1.4460 H     1 <1>   0.0800 
 30 H       -4.2210    -1.1220    -1.8900 H     1 <1>   0.0800 
 31 H       -3.0090     0.9560    -1.3490 H     1 <1>   0.0800 
 32 H       -1.4780     0.8690    -0.5280 H     1 <1>   0.0800 
 33 H        5.0080    -0.3580    -1.4300 H     1 <1>   0.1500 
 34 H       -3.8720    -2.1970     0.9120 H     1 <1>   0.0800 
 35 H       -5.3650    -2.0130     0.0430 H     1 <1>   0.0800 
 36 H       -3.2990     1.5710     0.9580 H     1 <1>   0.0800 
 37 H       -2.5500     0.1030     1.5120 H     1 <1>   0.0800 
 38 H        5.3360    -0.6910     0.9790 H     1 <1>   0.1500 
 39 H        2.6780    -1.8600     3.2740 H     1 <1>   0.0800 
 40 H        3.4680    -0.3020     3.3660 H     1 <1>   0.0800 
 41 H        4.4030    -1.7460     3.0490 H     1 <1>   0.0800 
 42 H       -8.6860    -0.5440     1.8370 H     1 <1>   0.1500 
 43 H       -6.5260     2.8920     3.0390 H     1 <1>   0.1500 
 44 H       -8.6490     1.6290     3.0120 H     1 <1>   0.1500 
@<TRIPOS>BOND
  1   1   2  2   
  2   2   3  am  
  3   2   4  1   
  4   3   5  1   
  5   3  24  1   
  6   4   6  1   
  7   4  25  1   
  8   4  26  1   
  9   5   7  ar  
 10   5   8  ar  
 11   6   9  1   
 12   6  10  1   
 13   7  11  ar  
 14   7  27  1   
 15   8  12  ar  
 16   8  28  1   
 17   9  13  1   
 18   9  29  1   
 19   9  30  1   
 20  10  14  1   
 21  10  31  1   
 22  10  32  1   
 23  11  15  ar  
 24  11  16  1   
 25  12  15  ar  
 26  12  33  1   
 27  13  17  1   
 28  13  34  1   
 29  13  35  1   
 30  14  17  1   
 31  14  36  1   
 32  14  37  1   
 33  15  38  1   
 34  16  39  1   
 35  16  40  1   
 36  16  41  1   
 37  17  18  1   
 38  18  19  ar  
 39  18  20  ar  
 40  19  21  ar  
 41  20  22  ar  
 42  21  23  ar  
 43  21  42  1   
 44  22  23  ar  
 45  22  43  1   
 46  23  44  1   
@<TRIPOS>SUBSTRUCTURE
  1 ****  10 GROUP 4 **** **** 0

# MOE 2024.06 (io_trps.svl 2023.06)
