@<TRIPOS>MOLECULE
NONAME
30 30 1 0 0 
SMALL
USER_CHARGES


@<TRIPOS>ATOM
  1 S        0.2080     0.3840    -0.8800 S.o2  1 <1>   1.4470 
  2 O        0.6100     0.6890    -2.2340 O.2   1 <1>  -0.6500 
  3 O        0.3160    -0.9660    -0.3770 O.2   1 <1>  -0.6500 
  4 N        1.2060     1.2630     0.1410 N.am  1 <1>  -0.9140 
  5 C       -1.4400     1.0590    -0.5420 C.ar  1 <1>  -0.0090 
  6 C        2.5960     1.2160    -0.2580 C.3   1 <1>   0.1960 
  7 C       -1.6890     2.4210    -0.6520 C.ar  1 <1>  -0.1500 
  8 C       -2.4960     0.2360    -0.1680 C.ar  1 <1>  -0.1500 
  9 C        3.4200     1.9090     0.8180 C.3   1 <1>  -0.2400 
 10 C       -2.9410     2.9580    -0.3980 C.ar  1 <1>  -0.1430 
 11 C       -3.7530     0.7520     0.0900 C.ar  1 <1>  -0.1500 
 12 C       -3.9850     2.1190    -0.0230 C.ar  1 <1>   0.0830 
 13 C       -3.1620     4.4580    -0.5330 C.3   1 <1>  -0.0970 
 14 O       -5.1960     2.6850     0.2180 O.3   1 <1>  -0.3630 
 15 C       -6.3170     1.9150     0.5910 C.3   1 <1>   0.0400 
 16 H        1.1360     0.7660     1.0250 H     1 <1>   0.4200 
 17 H        2.7230     1.7240    -1.2010 H     1 <1>   0.0800 
 18 H        2.9180     0.1920    -0.3700 H     1 <1>   0.0800 
 19 H       -0.8780     3.0680    -0.9440 H     1 <1>   0.1500 
 20 H       -2.3310    -0.8250    -0.0780 H     1 <1>   0.1500 
 21 H        3.0990     2.9300     0.9300 H     1 <1>   0.0800 
 22 H        4.4570     1.9080     0.5330 H     1 <1>   0.0800 
 23 H        3.3250     1.3960     1.7580 H     1 <1>   0.0800 
 24 H       -4.5350     0.0750     0.3760 H     1 <1>   0.1500 
 25 H       -2.2590     4.9620    -0.8270 H     1 <1>   0.0800 
 26 H       -3.4900     4.8630     0.4080 H     1 <1>   0.0800 
 27 H       -3.9190     4.6480    -1.2720 H     1 <1>   0.0800 
 28 H       -7.1510     2.5810     0.7190 H     1 <1>   0.0800 
 29 H       -6.1040     1.4140     1.5190 H     1 <1>   0.0800 
 30 H       -6.5300     1.2080    -0.1910 H     1 <1>   0.0800 
@<TRIPOS>BOND
  1   1   2  2   
  2   1   3  2   
  3   1   4  am  
  4   1   5  1   
  5   4   6  1   
  6   4  16  1   
  7   5   7  ar  
  8   5   8  ar  
  9   6   9  1   
 10   6  17  1   
 11   6  18  1   
 12   7  10  ar  
 13   7  19  1   
 14   8  11  ar  
 15   8  20  1   
 16   9  21  1   
 17   9  22  1   
 18   9  23  1   
 19  10  12  ar  
 20  10  13  1   
 21  11  12  ar  
 22  11  24  1   
 23  12  14  1   
 24  13  25  1   
 25  13  26  1   
 26  13  27  1   
 27  14  15  1   
 28  15  28  1   
 29  15  29  1   
 30  15  30  1   
@<TRIPOS>SUBSTRUCTURE
  1 ****   5 GROUP 4 **** **** 0

# MOE 2024.06 (io_trps.svl 2023.06)
