@<TRIPOS>MOLECULE
NONAME
56 59 1 0 0 
SMALL
USER_CHARGES


@<TRIPOS>ATOM
  1 O        0.2150     0.3620    -0.4630 O.2   1 <1>  -0.5700 
  2 C        0.6010     1.5100    -0.3830 C.2   1 <1>   0.5440 
  3 N       -0.1920     2.6300    -0.2170 N.am  1 <1>  -0.4200 
  4 C        1.9800     1.8950    -0.4400 C.ar  1 <1>   0.0860 
  5 C        0.6650     3.7190    -0.1610 C.2   1 <1>   0.5440 
  6 C       -1.6920     2.5950    -0.1240 C.3   1 <1>   0.3000 
  7 C        2.0180     3.2670    -0.3020 C.ar  1 <1>   0.0860 
  8 C        3.1490     1.1640    -0.5990 C.ar  1 <1>  -0.1500 
  9 O        0.3560     4.8830    -0.0140 O.2   1 <1>  -0.5700 
 10 C       -2.2680     1.9910    -1.4130 C.3   1 <1>  -0.2400 
 11 C       -2.1080     1.7520     1.0890 C.3   1 <1>  -0.2400 
 12 C       -2.3210     3.9860     0.0480 C.3   1 <1>  -0.2400 
 13 C        3.2390     3.9270    -0.3210 C.ar  1 <1>  -0.1500 
 14 C        4.3920     1.8010    -0.6140 C.ar  1 <1>   0.0860 
 15 C        4.4030     3.1960    -0.4780 C.ar  1 <1>  -0.1500 
 16 C        5.6340     1.0710    -0.7800 C.2   1 <1>   0.3980 
 17 O        6.5400     1.5810    -1.4030 O.2   1 <1>  -0.5700 
 18 C        5.8210    -0.2520    -0.2170 C.ar  1 <1>   0.0860 
 19 C        6.5840    -1.2070    -0.8920 C.ar  1 <1>  -0.1500 
 20 C        5.2700    -0.6220     1.0190 C.ar  1 <1>  -0.1500 
 21 C        6.7760    -2.4740    -0.3620 C.ar  1 <1>   0.0860 
 22 C        5.4590    -1.8840     1.5520 C.ar  1 <1>  -0.1500 
 23 C        7.4930    -3.6260    -0.8310 C.2   1 <1>   0.5440 
 24 C        6.2190    -2.8140     0.8540 C.ar  1 <1>   0.0860 
 25 O        8.0930    -3.6600    -1.8840 O.2   1 <1>  -0.5700 
 26 N        7.3760    -4.6520     0.0930 N.am  1 <1>  -0.4200 
 27 C        6.5970    -4.1670     1.1280 C.2   1 <1>   0.5440 
 28 C        7.9470    -6.0430     0.0480 C.3   1 <1>   0.3000 
 29 O        6.2720    -4.7790     2.1250 O.2   1 <1>  -0.5700 
 30 C        8.8730    -6.2530     1.2540 C.3   1 <1>  -0.2400 
 31 C        6.8020    -7.0650     0.0730 C.3   1 <1>  -0.2400 
 32 C        8.7760    -6.3170    -1.2160 C.3   1 <1>  -0.2400 
 33 H        3.0750     0.0960    -0.7190 H     1 <1>   0.1500 
 34 H       -1.9670     0.9670    -1.5360 H     1 <1>   0.0800 
 35 H       -1.9450     2.5570    -2.2680 H     1 <1>   0.0800 
 36 H       -3.3420     2.0080    -1.3840 H     1 <1>   0.0800 
 37 H       -1.6740     2.1520     1.9880 H     1 <1>   0.0800 
 38 H       -1.8040     0.7280     0.9790 H     1 <1>   0.0800 
 39 H       -3.1770     1.7600     1.1990 H     1 <1>   0.0800 
 40 H       -1.9780     4.4510     0.9550 H     1 <1>   0.0800 
 41 H       -3.3920     3.9100     0.1050 H     1 <1>   0.0800 
 42 H       -2.0830     4.6190    -0.7880 H     1 <1>   0.0800 
 43 H        3.2640     5.0000    -0.2180 H     1 <1>   0.1500 
 44 H        5.3520     3.7090    -0.5020 H     1 <1>   0.1500 
 45 H        7.0370    -0.9610    -1.8390 H     1 <1>   0.1500 
 46 H        4.6910     0.0950     1.5770 H     1 <1>   0.1500 
 47 H        5.0320    -2.1610     2.5020 H     1 <1>   0.1500 
 48 H        8.3320    -6.2000     2.1810 H     1 <1>   0.0800 
 49 H        9.6530    -5.5130     1.2600 H     1 <1>   0.0800 
 50 H        9.3310    -7.2250     1.2070 H     1 <1>   0.0800 
 51 H        6.1310    -6.8940    -0.7490 H     1 <1>   0.0800 
 52 H        6.2500    -7.0150     0.9930 H     1 <1>   0.0800 
 53 H        7.1920    -8.0630    -0.0130 H     1 <1>   0.0800 
 54 H        9.6120    -5.6420    -1.2770 H     1 <1>   0.0800 
 55 H        8.1710    -6.2140    -2.0990 H     1 <1>   0.0800 
 56 H        9.1650    -7.3190    -1.2020 H     1 <1>   0.0800 
@<TRIPOS>BOND
  1   1   2  2   
  2   2   3  am  
  3   2   4  1   
  4   3   5  am  
  5   3   6  1   
  6   4   7  ar  
  7   4   8  ar  
  8   5   7  1   
  9   5   9  2   
 10   6  10  1   
 11   6  11  1   
 12   6  12  1   
 13   7  13  ar  
 14   8  14  ar  
 15   8  33  1   
 16  10  34  1   
 17  10  35  1   
 18  10  36  1   
 19  11  37  1   
 20  11  38  1   
 21  11  39  1   
 22  12  40  1   
 23  12  41  1   
 24  12  42  1   
 25  13  15  ar  
 26  13  43  1   
 27  14  15  ar  
 28  14  16  1   
 29  15  44  1   
 30  16  17  2   
 31  16  18  1   
 32  18  19  ar  
 33  18  20  ar  
 34  19  21  ar  
 35  19  45  1   
 36  20  22  ar  
 37  20  46  1   
 38  21  23  1   
 39  21  24  ar  
 40  22  24  ar  
 41  22  47  1   
 42  23  25  2   
 43  23  26  am  
 44  24  27  1   
 45  26  27  am  
 46  26  28  1   
 47  27  29  2   
 48  28  30  1   
 49  28  31  1   
 50  28  32  1   
 51  30  48  1   
 52  30  49  1   
 53  30  50  1   
 54  31  51  1   
 55  31  52  1   
 56  31  53  1   
 57  32  54  1   
 58  32  55  1   
 59  32  56  1   
@<TRIPOS>SUBSTRUCTURE
  1 ****  20 GROUP 4 **** **** 0

# MOE 2024.06 (io_trps.svl 2023.06)
