@<TRIPOS>MOLECULE
NONAME
43 44 1 0 0 
SMALL
USER_CHARGES


@<TRIPOS>ATOM
  1 S       -0.2550    -0.0800     0.4760 S.o2  1 <1>   1.3330 
  2 O       -0.2750    -0.0490     1.9200 O.2   1 <1>  -0.6500 
  3 O        0.7880    -0.8020    -0.2150 O.2   1 <1>  -0.6500 
  4 N       -1.7490    -0.6790    -0.0520 N.am  1 <1>  -0.8490 
  5 C       -0.2510     1.5880    -0.1470 C.3   1 <1>  -0.1350 
  6 C       -2.8680    -0.2060     0.7830 C.3   1 <1>   0.1960 
  7 C       -1.7380    -2.1460    -0.1040 C.3   1 <1>   0.1960 
  8 C       -4.2140    -0.6310     0.1750 C.3   1 <1>  -0.0190 
  9 C       -3.0410    -2.6720    -0.7180 C.3   1 <1>  -0.1600 
 10 C       -5.3810    -0.0980     0.9940 C.2   1 <1>   0.5690 
 11 C       -4.2740    -2.1630     0.0410 C.3   1 <1>  -0.1600 
 12 O       -5.2050     0.2770     2.1280 O.2   1 <1>  -0.5700 
 13 N       -6.6060    -0.0640     0.4180 N.am  1 <1>  -0.7300 
 14 C       -7.8430     0.2920     1.1160 C.3   1 <1>   0.3640 
 15 C       -8.9600    -0.5880     0.5650 C.ar  1 <1>  -0.1440 
 16 C       -8.1150     1.7810     0.9150 C.3   1 <1>  -0.2400 
 17 C       -9.5350    -1.5500     1.3830 C.ar  1 <1>  -0.1500 
 18 C       -9.4120    -0.4620    -0.7430 C.ar  1 <1>  -0.1500 
 19 C      -10.5450    -2.3680     0.9070 C.ar  1 <1>  -0.1500 
 20 C      -10.4220    -1.2790    -1.2210 C.ar  1 <1>  -0.1500 
 21 C      -10.9900    -2.2330    -0.3960 C.ar  1 <1>  -0.1500 
 22 H        0.6800     2.0620     0.0910 H     1 <1>   0.0800 
 23 H       -1.0470     2.1560     0.2920 H     1 <1>   0.0800 
 24 H       -0.3720     1.5810    -1.2120 H     1 <1>   0.0800 
 25 H       -2.8440     0.8680     0.8550 H     1 <1>   0.0800 
 26 H       -2.7770    -0.6050     1.7810 H     1 <1>   0.0800 
 27 H       -1.6050    -2.5450     0.8890 H     1 <1>   0.0800 
 28 H       -0.9150    -2.4840    -0.7120 H     1 <1>   0.0800 
 29 H       -4.2800    -0.1900    -0.8030 H     1 <1>   0.0800 
 30 H       -3.0270    -3.7470    -0.7070 H     1 <1>   0.0800 
 31 H       -3.0870    -2.3560    -1.7460 H     1 <1>   0.0800 
 32 H       -5.1690    -2.4590    -0.4780 H     1 <1>   0.0800 
 33 H       -4.2950    -2.6040     1.0230 H     1 <1>   0.0800 
 34 H       -6.7610    -0.4690    -0.5040 H     1 <1>   0.3700 
 35 H       -7.7230     0.1030     2.1700 H     1 <1>   0.0800 
 36 H       -8.1580     2.0330    -0.1280 H     1 <1>   0.0800 
 37 H       -7.3390     2.3550     1.3870 H     1 <1>   0.0800 
 38 H       -9.0530     2.0380     1.3720 H     1 <1>   0.0800 
 39 H       -9.1980    -1.6700     2.3990 H     1 <1>   0.1500 
 40 H       -8.9840     0.2730    -1.4010 H     1 <1>   0.1500 
 41 H      -10.9860    -3.1100     1.5510 H     1 <1>   0.1500 
 42 H      -10.7680    -1.1730    -2.2340 H     1 <1>   0.1500 
 43 H      -11.7750    -2.8680    -0.7660 H     1 <1>   0.1500 
@<TRIPOS>BOND
  1   1   2  2   
  2   1   3  2   
  3   1   4  am  
  4   1   5  1   
  5   4   6  1   
  6   4   7  1   
  7   5  22  1   
  8   5  23  1   
  9   5  24  1   
 10   6   8  1   
 11   6  25  1   
 12   6  26  1   
 13   7   9  1   
 14   7  27  1   
 15   7  28  1   
 16   8  10  1   
 17   8  11  1   
 18   8  29  1   
 19   9  11  1   
 20   9  30  1   
 21   9  31  1   
 22  10  12  2   
 23  10  13  am  
 24  11  32  1   
 25  11  33  1   
 26  13  14  1   
 27  13  34  1   
 28  14  15  1   
 29  14  16  1   
 30  14  35  1   
 31  15  17  ar  
 32  15  18  ar  
 33  16  36  1   
 34  16  37  1   
 35  16  38  1   
 36  17  19  ar  
 37  17  39  1   
 38  18  20  ar  
 39  18  40  1   
 40  19  21  ar  
 41  19  41  1   
 42  20  21  ar  
 43  20  42  1   
 44  21  43  1   
@<TRIPOS>SUBSTRUCTURE
  1 ****  10 GROUP 4 **** **** 0

# MOE 2024.06 (io_trps.svl 2023.06)
