@<TRIPOS>MOLECULE
NONAME
33 33 1 0 0 
SMALL
USER_CHARGES


@<TRIPOS>ATOM
  1 F        1.2080     1.1240     1.3380 F     1 <1>  -0.3400 
  2 C        1.9690     0.0560     1.1060 C.3   1 <1>   1.0200 
  3 F        1.1450    -0.9870     1.0890 F     1 <1>  -0.3400 
  4 F        2.6900    -0.1070     2.2090 F     1 <1>  -0.3400 
  5 C        2.8420     0.1850    -0.1790 C.3   1 <1>   0.4990 
  6 N        3.7650    -0.9940    -0.4550 N.am  1 <1>  -0.7300 
  7 C        1.8320     0.4560    -1.3040 C.2   1 <1>   0.5690 
  8 C        3.6410     1.5020    -0.2320 C.2   1 <1>  -0.1240 
  9 C        4.4190    -1.2190    -1.6160 C.2   1 <1>   0.5690 
 10 O        0.9650    -0.2870    -1.6950 O.2   1 <1>  -0.5700 
 11 N        2.0420     1.6990    -1.8030 N.am  1 <1>  -0.5390 
 12 C        3.1080     2.3000    -1.1910 C.2   1 <1>  -0.0290 
 13 C        4.7450     1.6740     0.6590 C.2   1 <1>   0.7060 
 14 O        4.3060    -0.4900    -2.5670 O.2   1 <1>  -0.5700 
 15 C        5.3450    -2.4170    -1.7020 C.3   1 <1>  -0.0990 
 16 C        3.5030     3.6810    -1.6830 C.3   1 <1>  -0.1020 
 17 O        5.1920     0.7760     1.3450 O.2   1 <1>  -0.5700 
 18 O        5.3060     2.8820     0.7530 O.3   1 <1>  -0.4300 
 19 C        4.5910    -3.7550    -1.6610 C.3   1 <1>  -0.2400 
 20 C        6.4000     3.1330     1.6150 C.3   1 <1>   0.0400 
 21 H        4.0290    -1.5340     0.3720 H     1 <1>   0.3700 
 22 H        1.5200     2.0310    -2.6180 H     1 <1>   0.3700 
 23 H        6.0500    -2.3690    -0.8910 H     1 <1>   0.0800 
 24 H        5.9000    -2.3530    -2.6210 H     1 <1>   0.0800 
 25 H        2.7040     4.3770    -1.5020 H     1 <1>   0.0800 
 26 H        3.6980     3.6450    -2.7400 H     1 <1>   0.0800 
 27 H        4.3870     4.0440    -1.1970 H     1 <1>   0.0800 
 28 H        4.0540    -3.8620    -0.7340 H     1 <1>   0.0800 
 29 H        5.2820    -4.5730    -1.7550 H     1 <1>   0.0800 
 30 H        3.8860    -3.8050    -2.4730 H     1 <1>   0.0800 
 31 H        6.6780     4.1670     1.5200 H     1 <1>   0.0800 
 32 H        7.2220     2.5010     1.3280 H     1 <1>   0.0800 
 33 H        6.1020     2.9200     2.6280 H     1 <1>   0.0800 
@<TRIPOS>BOND
  1   1   2  1   
  2   2   3  1   
  3   2   4  1   
  4   2   5  1   
  5   5   6  1   
  6   5   7  1   
  7   5   8  1   
  8   6   9  am  
  9   6  21  1   
 10   7  10  2   
 11   7  11  am  
 12   8  12  2   
 13   8  13  1   
 14   9  14  2   
 15   9  15  1   
 16  11  12  1   
 17  11  22  1   
 18  12  16  1   
 19  13  17  2   
 20  13  18  1   
 21  15  19  1   
 22  15  23  1   
 23  15  24  1   
 24  16  25  1   
 25  16  26  1   
 26  16  27  1   
 27  18  20  1   
 28  19  28  1   
 29  19  29  1   
 30  19  30  1   
 31  20  31  1   
 32  20  32  1   
 33  20  33  1   
@<TRIPOS>SUBSTRUCTURE
  1 ****   5 GROUP 4 **** **** 0

# MOE 2024.06 (io_trps.svl 2023.06)
