@<TRIPOS>MOLECULE
NONAME
54 57 1 0 0 
SMALL
USER_CHARGES


@<TRIPOS>ATOM
  1 O       -0.2620     0.7370    -1.3470 O.2   1 <1>  -0.5700 
  2 C        0.3690     1.3710    -0.5350 C.2   1 <1>   0.4950 
  3 C       -0.0210     2.6340    -0.0090 C.2   1 <1>  -0.1240 
  4 C        1.6860     0.7830    -0.0560 C.3   1 <1>  -0.0990 
  5 C        0.7870     3.4000     0.7650 C.2   1 <1>  -0.0380 
  6 C       -1.4360     3.1100    -0.3420 C.3   1 <1>   0.3770 
  7 C        2.7520     1.8660     0.2140 C.3   1 <1>   0.0000 
  8 N        0.3920     4.6340     1.2220 N.pl3 1 <1>  -0.6000 
  9 C        2.1820     2.9400     1.1690 C.3   1 <1>  -0.0220 
 10 C       -1.6850     4.5730     0.0390 C.2   1 <1>  -0.1240 
 11 C       -2.4370     2.2550     0.4350 C.2   1 <1>  -0.1810 
 12 C        3.1810     2.5190    -1.1140 C.3   1 <1>  -0.2400 
 13 C        3.9920     1.2150     0.8490 C.3   1 <1>  -0.2400 
 14 C       -0.7760     5.2350     0.8080 C.2   1 <1>  -0.0380 
 15 C       -2.9270     5.0640    -0.4670 C.2   1 <1>   0.7060 
 16 C       -3.6310     1.7110    -0.0970 C.ar  1 <1>   0.0000 
 17 C       -2.3730     1.8920     1.7410 C.2   1 <1>  -0.3020 
 18 C       -0.9060     6.6770     1.2720 C.3   1 <1>  -0.1020 
 19 O       -3.3270     4.8260    -1.5920 O.2   1 <1>  -0.5700 
 20 O       -3.6900     5.8130     0.3360 O.3   1 <1>  -0.4300 
 21 C       -4.2490     1.0260     0.9460 C.ar  1 <1>  -0.1520 
 22 C       -4.2440     1.7370    -1.3540 C.ar  1 <1>  -0.1500 
 23 N       -3.4650     1.1420     2.0640 N.pl3 1 <1>   0.0330 
 24 C       -4.9700     6.2440    -0.0650 C.3   1 <1>   0.1200 
 25 C       -5.4670     0.3700     0.7570 C.ar  1 <1>  -0.1500 
 26 C       -5.4440     1.0920    -1.5410 C.ar  1 <1>  -0.1500 
 27 C       -5.5730     7.0570     1.0760 C.3   1 <1>  -0.2400 
 28 C       -6.0570     0.4070    -0.4850 C.ar  1 <1>  -0.1500 
 29 H        2.0450     0.0870    -0.7920 H     1 <1>   0.0800 
 30 H        1.4840     0.2310     0.8440 H     1 <1>   0.0800 
 31 H       -1.5870     2.9830    -1.4000 H     1 <1>   0.0800 
 32 H        1.0260     5.1660     1.8290 H     1 <1>   0.4000 
 33 H        2.1210     2.5460     2.1680 H     1 <1>   0.0800 
 34 H        2.8500     3.7830     1.1910 H     1 <1>   0.0800 
 35 H        2.3540     3.0160    -1.5910 H     1 <1>   0.0800 
 36 H        3.5630     1.7790    -1.7940 H     1 <1>   0.0800 
 37 H        3.9530     3.2490    -0.9450 H     1 <1>   0.0800 
 38 H        3.7380     0.7360     1.7790 H     1 <1>   0.0800 
 39 H        4.7490     1.9530     1.0460 H     1 <1>   0.0800 
 40 H        4.4080     0.4720     0.1910 H     1 <1>   0.0800 
 41 H       -1.6100     2.1320     2.4610 H     1 <1>   0.1500 
 42 H        0.0160     7.2020     1.1040 H     1 <1>   0.0800 
 43 H       -1.1350     6.7010     2.3220 H     1 <1>   0.0800 
 44 H       -1.6770     7.2030     0.7420 H     1 <1>   0.0800 
 45 H       -3.7690     2.2650    -2.1620 H     1 <1>   0.1500 
 46 H       -3.6780     0.7340     2.9780 H     1 <1>   0.2700 
 47 H       -5.5690     5.3730    -0.2780 H     1 <1>   0.0800 
 48 H       -4.8670     6.8410    -0.9550 H     1 <1>   0.0800 
 49 H       -5.9290    -0.1540     1.5740 H     1 <1>   0.1500 
 50 H       -5.9210     1.1080    -2.5050 H     1 <1>   0.1500 
 51 H       -5.6550     6.4480     1.9590 H     1 <1>   0.0800 
 52 H       -6.5550     7.3960     0.8000 H     1 <1>   0.0800 
 53 H       -4.9590     7.9140     1.2850 H     1 <1>   0.0800 
 54 H       -6.9950    -0.0900    -0.6580 H     1 <1>   0.1500 
@<TRIPOS>BOND
  1   1   2  2   
  2   2   3  1   
  3   2   4  1   
  4   3   5  2   
  5   3   6  1   
  6   4   7  1   
  7   4  29  1   
  8   4  30  1   
  9   5   8  1   
 10   5   9  1   
 11   6  10  1   
 12   6  11  1   
 13   6  31  1   
 14   7   9  1   
 15   7  12  1   
 16   7  13  1   
 17   8  14  1   
 18   8  32  1   
 19   9  33  1   
 20   9  34  1   
 21  10  14  2   
 22  10  15  1   
 23  11  16  1   
 24  11  17  2   
 25  12  35  1   
 26  12  36  1   
 27  12  37  1   
 28  13  38  1   
 29  13  39  1   
 30  13  40  1   
 31  14  18  1   
 32  15  19  2   
 33  15  20  1   
 34  16  21  ar  
 35  16  22  ar  
 36  17  23  1   
 37  17  41  1   
 38  18  42  1   
 39  18  43  1   
 40  18  44  1   
 41  20  24  1   
 42  21  23  1   
 43  21  25  ar  
 44  22  26  ar  
 45  22  45  1   
 46  23  46  1   
 47  24  27  1   
 48  24  47  1   
 49  24  48  1   
 50  25  28  ar  
 51  25  49  1   
 52  26  28  ar  
 53  26  50  1   
 54  27  51  1   
 55  27  52  1   
 56  27  53  1   
 57  28  54  1   
@<TRIPOS>SUBSTRUCTURE
  1 ****   6 GROUP 4 **** **** 0

# MOE 2024.06 (io_trps.svl 2023.06)
