@<TRIPOS>MOLECULE
NONAME
44 46 1 0 0 
SMALL
USER_CHARGES


@<TRIPOS>ATOM
  1 F        0.5320     1.7190     0.5750 F     1 <1>  -0.3400 
  2 C        1.4550     1.4470    -0.3400 C.3   1 <1>   1.1640 
  3 F        1.3140     0.1590    -0.6350 F     1 <1>  -0.3400 
  4 F        1.1080     2.1190    -1.4300 F     1 <1>  -0.3400 
  5 C        2.8790     1.7930     0.1220 C.ar  1 <1>  -0.1440 
  6 C        3.9760     1.1310    -0.4170 C.ar  1 <1>  -0.1500 
  7 C        3.1050     2.7790     1.0780 C.ar  1 <1>  -0.1500 
  8 C        5.2750     1.4250    -0.0210 C.ar  1 <1>   0.1000 
  9 C        4.3930     3.0860     1.4810 C.ar  1 <1>  -0.1500 
 10 N        6.3380     0.7240    -0.5840 N.pl3 1 <1>  -0.8380 
 11 C        5.4690     2.4140     0.9360 C.ar  1 <1>  -0.1500 
 12 C        7.5670     1.4400    -1.0460 C.3   1 <1>   0.2090 
 13 C        6.4860    -0.7280    -0.2670 C.3   1 <1>   0.2090 
 14 C        8.7800     1.1280    -0.1430 C.3   1 <1>   0.3430 
 15 C        7.7160    -0.9840     0.6300 C.3   1 <1>   0.3430 
 16 N        8.9740    -0.3540     0.0870 N.4   1 <1>  -0.9590 
 17 C       10.1510    -0.6290     0.9560 C.3   1 <1>   0.4860 
 18 C       11.3950    -0.1050     0.2660 C.ar  1 <1>  -0.1430 
 19 C       11.9830     1.0770     0.6990 C.ar  1 <1>  -0.1500 
 20 C       11.9530    -0.7970    -0.8020 C.ar  1 <1>  -0.1500 
 21 C       13.1050     1.5700     0.0590 C.ar  1 <1>  -0.1500 
 22 C       13.0780    -0.3050    -1.4420 C.ar  1 <1>  -0.1500 
 23 C       13.6470     0.8810    -1.0090 C.ar  1 <1>   0.0830 
 24 O       14.7340     1.3760    -1.6170 O.3   1 <1>  -0.5330 
 25 H        3.8360     0.3740    -1.1690 H     1 <1>   0.1500 
 26 H        2.2790     3.3180     1.5140 H     1 <1>   0.1500 
 27 H        4.5520     3.8530     2.2210 H     1 <1>   0.1500 
 28 H        6.4600     2.6610     1.2610 H     1 <1>   0.1500 
 29 H        7.3870     2.5020    -1.0550 H     1 <1>   0.0800 
 30 H        7.7840     1.1440    -2.0570 H     1 <1>   0.0800 
 31 H        6.5800    -1.2810    -1.1860 H     1 <1>   0.0800 
 32 H        5.6020    -1.0810     0.2370 H     1 <1>   0.0800 
 33 H        8.6290     1.6210     0.8020 H     1 <1>   0.0800 
 34 H        9.6640     1.5490    -0.5960 H     1 <1>   0.0800 
 35 H        7.8520    -2.0470     0.7370 H     1 <1>   0.0800 
 36 H        7.5030    -0.5780     1.6050 H     1 <1>   0.0800 
 37 H        9.1760    -0.7670    -0.8310 H     1 <1>   0.4500 
 38 H       10.2540    -1.6890     1.1190 H     1 <1>   0.0800 
 39 H       10.0310    -0.1470     1.9130 H     1 <1>   0.0800 
 40 H       11.5820     1.6270     1.5340 H     1 <1>   0.1500 
 41 H       11.5280    -1.7240    -1.1470 H     1 <1>   0.1500 
 42 H       13.5710     2.4850     0.3830 H     1 <1>   0.1500 
 43 H       13.5090    -0.8430    -2.2680 H     1 <1>   0.1500 
 44 H       15.0780     0.8120    -2.3330 H     1 <1>   0.4500 
@<TRIPOS>BOND
  1   1   2  1   
  2   2   3  1   
  3   2   4  1   
  4   2   5  1   
  5   5   6  ar  
  6   5   7  ar  
  7   6   8  ar  
  8   6  25  1   
  9   7   9  ar  
 10   7  26  1   
 11   8  10  1   
 12   8  11  ar  
 13   9  11  ar  
 14   9  27  1   
 15  10  12  1   
 16  10  13  1   
 17  11  28  1   
 18  12  14  1   
 19  12  29  1   
 20  12  30  1   
 21  13  15  1   
 22  13  31  1   
 23  13  32  1   
 24  14  16  1   
 25  14  33  1   
 26  14  34  1   
 27  15  16  1   
 28  15  35  1   
 29  15  36  1   
 30  16  17  1   
 31  16  37  1   
 32  17  18  1   
 33  17  38  1   
 34  17  39  1   
 35  18  19  ar  
 36  18  20  ar  
 37  19  21  ar  
 38  19  40  1   
 39  20  22  ar  
 40  20  41  1   
 41  21  23  ar  
 42  21  42  1   
 43  22  23  ar  
 44  22  43  1   
 45  23  24  1   
 46  24  44  1   
@<TRIPOS>SUBSTRUCTURE
  1 ****  12 GROUP 4 **** **** 0

# MOE 2024.06 (io_trps.svl 2023.06)
