@<TRIPOS>MOLECULE
NONAME
35 35 1 0 0 
SMALL
USER_CHARGES


@<TRIPOS>ATOM
  1 CL      -0.2710    -0.7670     0.0530 Cl    1 <1>  -0.1770 
  2 C       -1.4180     0.5660     0.0360 C.ar  1 <1>   0.1770 
  3 C       -2.7640     0.2320    -0.0280 C.ar  1 <1>   0.1770 
  4 C       -1.0420     1.9180     0.0870 C.ar  1 <1>   0.0820 
  5 CL      -3.2670    -1.4420    -0.0950 Cl    1 <1>  -0.1770 
  6 C       -3.7480     1.2030    -0.0390 C.ar  1 <1>  -0.1500 
  7 O        0.2180     2.4340     0.1480 O.3   1 <1>  -0.3630 
  8 C       -2.0440     2.8810     0.0770 C.ar  1 <1>  -0.1500 
  9 C       -3.3830     2.5360     0.0140 C.ar  1 <1>  -0.1500 
 10 C        1.3970     1.6760     0.0680 C.3   1 <1>   0.1200 
 11 C        2.5750     2.6510     0.0750 C.3   1 <1>  -0.1600 
 12 C        3.9190     1.9120    -0.0060 C.3   1 <1>  -0.1600 
 13 C        5.0790     2.9040     0.0040 C.3   1 <1>   0.3430 
 14 N        6.3560     2.1560    -0.0730 N.4   1 <1>  -0.9060 
 15 C        7.5330     3.0750    -0.0670 C.3   1 <1>   0.3430 
 16 C        8.8590     2.3080    -0.1460 C.3   1 <1>   0.1200 
 17 O        9.8760     3.2420    -0.1340 O.3   1 <1>  -0.6800 
 18 H       -4.7840     0.9160    -0.0890 H     1 <1>   0.1500 
 19 H       -1.7640     3.9200     0.1180 H     1 <1>   0.1500 
 20 H       -4.1380     3.3040     0.0070 H     1 <1>   0.1500 
 21 H        1.3760     1.1090    -0.8470 H     1 <1>   0.0800 
 22 H        1.4390     1.0230     0.9230 H     1 <1>   0.0800 
 23 H        2.5320     3.2330     0.9810 H     1 <1>   0.0800 
 24 H        2.4730     3.3160    -0.7670 H     1 <1>   0.0800 
 25 H        3.9420     1.3320    -0.9130 H     1 <1>   0.0800 
 26 H        3.9990     1.2460     0.8370 H     1 <1>   0.0800 
 27 H        5.0460     3.4900     0.9100 H     1 <1>   0.0800 
 28 H        4.9900     3.5740    -0.8370 H     1 <1>   0.0800 
 29 H        6.3630     1.5890    -0.9300 H     1 <1>   0.4500 
 30 H        6.4160     1.5090     0.7230 H     1 <1>   0.4500 
 31 H        7.5310     3.6620     0.8380 H     1 <1>   0.0800 
 32 H        7.4750     3.7470    -0.9090 H     1 <1>   0.0800 
 33 H        8.9330     1.7470    -1.0630 H     1 <1>   0.0800 
 34 H        8.9900     1.6620     0.7050 H     1 <1>   0.0800 
 35 H       10.7620     2.8220    -0.1830 H     1 <1>   0.4000 
@<TRIPOS>BOND
  1   1   2  1   
  2   2   3  ar  
  3   2   4  ar  
  4   3   5  1   
  5   3   6  ar  
  6   4   7  1   
  7   4   8  ar  
  8   6   9  ar  
  9   6  18  1   
 10   7  10  1   
 11   8   9  ar  
 12   8  19  1   
 13   9  20  1   
 14  10  11  1   
 15  10  21  1   
 16  10  22  1   
 17  11  12  1   
 18  11  23  1   
 19  11  24  1   
 20  12  13  1   
 21  12  25  1   
 22  12  26  1   
 23  13  14  1   
 24  13  27  1   
 25  13  28  1   
 26  14  15  1   
 27  14  29  1   
 28  14  30  1   
 29  15  16  1   
 30  15  31  1   
 31  15  32  1   
 32  16  17  1   
 33  16  33  1   
 34  16  34  1   
 35  17  35  1   
@<TRIPOS>SUBSTRUCTURE
  1 ****  10 GROUP 4 **** **** 0

# MOE 2024.06 (io_trps.svl 2023.06)
