@<TRIPOS>MOLECULE
NONAME
41 43 1 0 0 
SMALL
USER_CHARGES


@<TRIPOS>ATOM
  1 F       -0.1340     0.5430    -0.3050 F     1 <1>  -0.3400 
  2 C        0.3330     1.7510    -0.6030 C.3   1 <1>   1.1640 
  3 F       -0.2940     2.5980     0.2050 F     1 <1>  -0.3400 
  4 F       -0.0930     2.0210    -1.8300 F     1 <1>  -0.3400 
  5 C        1.8650     1.8390    -0.4940 C.ar  1 <1>  -0.1440 
  6 C        2.4890     3.0370    -0.1570 C.ar  1 <1>  -0.1500 
  7 C        2.6680     0.7290    -0.7400 C.ar  1 <1>  -0.1500 
  8 C        3.8670     3.1170    -0.0610 C.ar  1 <1>  -0.1500 
  9 C        4.0460     0.8140    -0.6420 C.ar  1 <1>  -0.1500 
 10 C        4.6690     2.0060    -0.2970 C.ar  1 <1>   0.1170 
 11 N        6.0680     2.0390    -0.2190 N.am  1 <1>  -0.5470 
 12 C        6.9490     2.8700     0.4330 C.2   1 <1>   0.5440 
 13 O        6.5190     3.7430     1.1630 O.2   1 <1>  -0.5700 
 14 C        8.3780     2.7170     0.2520 C.ar  1 <1>   0.0860 
 15 C        8.9930     1.4930    -0.0990 C.ar  1 <1>   0.4100 
 16 C        9.2070     3.8210     0.4160 C.ar  1 <1>  -0.1500 
 17 N       10.3030     1.3600    -0.3100 N.ar  1 <1>  -0.6200 
 18 N        8.2740     0.3120    -0.2220 N.pl3 1 <1>  -0.8380 
 19 C       10.5580     3.6740     0.2100 C.ar  1 <1>  -0.1500 
 20 C       11.0480     2.4340    -0.1530 C.ar  1 <1>   0.1600 
 21 C        8.6400    -0.6730    -1.2950 C.3   1 <1>   0.2090 
 22 C        7.8440    -0.3610     1.0470 C.3   1 <1>   0.2090 
 23 C        9.5460    -1.7960    -0.7540 C.3   1 <1>   0.1200 
 24 C        8.8120    -1.4910     1.4410 C.3   1 <1>   0.1200 
 25 O        8.9820    -2.3910     0.3820 O.3   1 <1>  -0.5600 
 26 H        1.9050     3.9220     0.0360 H     1 <1>   0.1500 
 27 H        2.2220    -0.2150    -1.0100 H     1 <1>   0.1500 
 28 H        4.3190     4.0570     0.1970 H     1 <1>   0.1500 
 29 H        4.6450    -0.0570    -0.8350 H     1 <1>   0.1500 
 30 H        6.5570     1.2260    -0.6150 H     1 <1>   0.3700 
 31 H        8.7940     4.7760     0.6970 H     1 <1>   0.1500 
 32 H       11.2270     4.5080     0.3260 H     1 <1>   0.1500 
 33 H       12.1060     2.3250    -0.3190 H     1 <1>   0.1500 
 34 H        9.1440    -0.1680    -2.1000 H     1 <1>   0.0800 
 35 H        7.7430    -1.1120    -1.6940 H     1 <1>   0.0800 
 36 H        6.8580    -0.7730     0.9180 H     1 <1>   0.0800 
 37 H        7.7980     0.3570     1.8480 H     1 <1>   0.0800 
 38 H       10.5140    -1.4020    -0.4950 H     1 <1>   0.0800 
 39 H        9.6740    -2.5610    -1.4990 H     1 <1>   0.0800 
 40 H        8.4230    -2.0400     2.2790 H     1 <1>   0.0800 
 41 H        9.7730    -1.0850     1.7070 H     1 <1>   0.0800 
@<TRIPOS>BOND
  1   1   2  1   
  2   2   3  1   
  3   2   4  1   
  4   2   5  1   
  5   5   6  ar  
  6   5   7  ar  
  7   6   8  ar  
  8   6  26  1   
  9   7   9  ar  
 10   7  27  1   
 11   8  10  ar  
 12   8  28  1   
 13   9  10  ar  
 14   9  29  1   
 15  10  11  1   
 16  11  12  am  
 17  11  30  1   
 18  12  13  2   
 19  12  14  1   
 20  14  15  ar  
 21  14  16  ar  
 22  15  17  ar  
 23  15  18  1   
 24  16  19  ar  
 25  16  31  1   
 26  17  20  ar  
 27  18  21  1   
 28  18  22  1   
 29  19  20  ar  
 30  19  32  1   
 31  20  33  1   
 32  21  23  1   
 33  21  34  1   
 34  21  35  1   
 35  22  24  1   
 36  22  36  1   
 37  22  37  1   
 38  23  25  1   
 39  23  38  1   
 40  23  39  1   
 41  24  25  1   
 42  24  40  1   
 43  24  41  1   
@<TRIPOS>SUBSTRUCTURE
  1 ****  11 GROUP 4 **** **** 0

# MOE 2024.06 (io_trps.svl 2023.06)
