@<TRIPOS>MOLECULE
NONAME
55 57 1 0 0 
SMALL
USER_CHARGES


@<TRIPOS>ATOM
  1 O       -0.0620     0.5630     0.1130 O.2   1 <1>  -0.5700 
  2 C        0.5210    -0.4700     0.3840 C.2   1 <1>   0.6900 
  3 N        1.8680    -0.4500     0.6450 N.am  1 <1>  -0.6600 
  4 N       -0.1380    -1.6660     0.4050 N.am  1 <1>  -0.5470 
  5 C        2.6220    -1.5200     1.3680 C.3   1 <1>   0.1400 
  6 C        2.6860     0.7730     0.3770 C.3   1 <1>   0.1400 
  7 C       -1.5020    -1.9790     0.3120 C.ar  1 <1>   0.1170 
  8 C        3.9090    -1.8850     0.6140 C.3   1 <1>   0.1400 
  9 C        3.9920     0.4220    -0.3550 C.3   1 <1>   0.1400 
 10 C       -1.8710    -3.2480    -0.1170 C.ar  1 <1>  -0.1500 
 11 C       -2.5090    -1.0830     0.6520 C.ar  1 <1>  -0.1500 
 12 N        4.7390    -0.6690     0.3500 N.am  1 <1>  -0.6600 
 13 C       -3.2030    -3.6100    -0.2090 C.ar  1 <1>  -0.1500 
 14 C       -3.8410    -1.4420     0.5590 C.ar  1 <1>  -0.1500 
 15 C        6.0770    -0.6250     0.6790 C.2   1 <1>   0.5690 
 16 C       -4.2040    -2.7100     0.1280 C.ar  1 <1>  -0.1430 
 17 O        6.5950    -1.5650     1.2440 O.2   1 <1>  -0.5700 
 18 C        6.9430     0.6240     0.3600 C.3   1 <1>   0.2610 
 19 C       -5.6720    -3.1210     0.0160 C.3   1 <1>   0.0630 
 20 O        6.9590     0.8970    -1.0170 O.3   1 <1>  -0.5600 
 21 C        8.4310     0.5060     0.6970 C.3   1 <1>  -0.1600 
 22 C       -6.3840    -2.2570    -1.0410 C.3   1 <1>  -0.1600 
 23 C       -6.3490    -3.0460     1.3920 C.3   1 <1>  -0.2400 
 24 C        7.9620     0.1550    -1.6340 C.3   1 <1>   0.1200 
 25 C        9.0320    -0.0810    -0.5710 C.3   1 <1>  -0.1600 
 26 C       -7.8090    -2.7290    -1.3620 C.3   1 <1>  -0.2400 
 27 H        0.4890    -2.4580     0.3650 H     1 <1>   0.3700 
 28 H        2.0220    -2.4010     1.4970 H     1 <1>   0.0800 
 29 H        2.8850    -1.1590     2.3470 H     1 <1>   0.0800 
 30 H        2.9170     1.2530     1.3110 H     1 <1>   0.0800 
 31 H        2.1310     1.4740    -0.2230 H     1 <1>   0.0800 
 32 H        3.6560    -2.3460    -0.3250 H     1 <1>   0.0800 
 33 H        4.4610    -2.6040     1.1940 H     1 <1>   0.0800 
 34 H        4.5860     1.3130    -0.4370 H     1 <1>   0.0800 
 35 H        3.7580     0.0960    -1.3540 H     1 <1>   0.0800 
 36 H       -1.1150    -3.9600    -0.3870 H     1 <1>   0.1500 
 37 H       -2.2550    -0.0960     0.9930 H     1 <1>   0.1500 
 38 H       -3.4580    -4.5980    -0.5480 H     1 <1>   0.1500 
 39 H       -4.5950    -0.7240     0.8270 H     1 <1>   0.1500 
 40 H        6.5160     1.4710     0.8640 H     1 <1>   0.0800 
 41 H       -5.7120    -4.1450    -0.3120 H     1 <1>   0.0800 
 42 H        8.6190    -0.0970     1.5680 H     1 <1>   0.0800 
 43 H        8.8250     1.4920     0.8670 H     1 <1>   0.0800 
 44 H       -5.8030    -2.2860    -1.9470 H     1 <1>   0.0800 
 45 H       -6.4160    -1.2330    -0.7140 H     1 <1>   0.0800 
 46 H       -6.4320    -2.0260     1.7220 H     1 <1>   0.0800 
 47 H       -5.7650    -3.5910     2.1130 H     1 <1>   0.0800 
 48 H       -7.3310    -3.4810     1.3580 H     1 <1>   0.0800 
 49 H        8.3370     0.7140    -2.4740 H     1 <1>   0.0800 
 50 H        7.5350    -0.7760    -1.9690 H     1 <1>   0.0800 
 51 H        9.2030    -1.1380    -0.4610 H     1 <1>   0.0800 
 52 H        9.9580     0.4000    -0.8320 H     1 <1>   0.0800 
 53 H       -7.8050    -3.7600    -1.6670 H     1 <1>   0.0800 
 54 H       -8.2150    -2.1380    -2.1650 H     1 <1>   0.0800 
 55 H       -8.4520    -2.6190    -0.5080 H     1 <1>   0.0800 
@<TRIPOS>BOND
  1   1   2  2   
  2   2   3  am  
  3   2   4  am  
  4   3   5  1   
  5   3   6  1   
  6   4   7  1   
  7   4  27  1   
  8   5   8  1   
  9   5  28  1   
 10   5  29  1   
 11   6   9  1   
 12   6  30  1   
 13   6  31  1   
 14   7  10  ar  
 15   7  11  ar  
 16   8  12  1   
 17   8  32  1   
 18   8  33  1   
 19   9  12  1   
 20   9  34  1   
 21   9  35  1   
 22  10  13  ar  
 23  10  36  1   
 24  11  14  ar  
 25  11  37  1   
 26  12  15  am  
 27  13  16  ar  
 28  13  38  1   
 29  14  16  ar  
 30  14  39  1   
 31  15  17  2   
 32  15  18  1   
 33  16  19  1   
 34  18  20  1   
 35  18  21  1   
 36  18  40  1   
 37  19  22  1   
 38  19  23  1   
 39  19  41  1   
 40  20  24  1   
 41  21  25  1   
 42  21  42  1   
 43  21  43  1   
 44  22  26  1   
 45  22  44  1   
 46  22  45  1   
 47  23  46  1   
 48  23  47  1   
 49  23  48  1   
 50  24  25  1   
 51  24  49  1   
 52  24  50  1   
 53  25  51  1   
 54  25  52  1   
 55  26  53  1   
 56  26  54  1   
 57  26  55  1   
@<TRIPOS>SUBSTRUCTURE
  1 ****   2 GROUP 4 **** **** 0

# MOE 2024.06 (io_trps.svl 2023.06)
