@<TRIPOS>MOLECULE
NONAME
37 37 1 0 0 
SMALL
USER_CHARGES


@<TRIPOS>ATOM
  1 O       -0.5760    -2.5840    -0.7230 O.2   1 <1>  -0.5700 
  2 C        0.0460    -2.2570     0.2700 C.2   1 <1>   0.7060 
  3 O        1.3820    -2.3700     0.2800 O.3   1 <1>  -0.4300 
  4 C       -0.5360    -1.7530     1.4610 C.2   1 <1>  -0.1360 
  5 C        2.2190    -2.8350    -0.7590 C.3   1 <1>   0.2800 
  6 C       -1.8360    -1.5050     1.7920 C.2   1 <1>   0.0720 
  7 C        2.1040    -1.9210    -1.9850 C.3   1 <1>  -0.2400 
  8 C        3.6390    -2.7440    -0.1970 C.3   1 <1>  -0.2400 
  9 C        1.9000    -4.2990    -1.0860 C.3   1 <1>  -0.2400 
 10 N       -2.1300    -0.9930     3.0340 N.pl3 1 <1>  -0.9000 
 11 C       -2.9760    -1.7340     0.9360 C.ar  1 <1>   0.0280 
 12 C       -3.7990    -0.6770     0.5520 C.ar  1 <1>  -0.1500 
 13 C       -3.3110    -3.0100     0.4880 C.ar  1 <1>  -0.1500 
 14 C       -4.9090    -0.8850    -0.2450 C.ar  1 <1>  -0.1500 
 15 C       -4.4180    -3.2270    -0.3120 C.ar  1 <1>  -0.1500 
 16 C       -5.2300    -2.1590    -0.6840 C.ar  1 <1>   0.0820 
 17 O       -6.3320    -2.2830    -1.4600 O.3   1 <1>  -0.3620 
 18 C       -6.7060    -3.5240    -2.0140 C.3   1 <1>   0.0400 
 19 H        0.2020    -1.5340     2.2050 H     1 <1>   0.1500 
 20 H        1.1400    -2.0140    -2.4500 H     1 <1>   0.0800 
 21 H        2.8430    -2.1940    -2.7160 H     1 <1>   0.0800 
 22 H        2.2630    -0.8960    -1.7050 H     1 <1>   0.0800 
 23 H        4.3520    -3.0810    -0.9270 H     1 <1>   0.0800 
 24 H        3.7340    -3.3600     0.6790 H     1 <1>   0.0800 
 25 H        3.8730    -1.7270     0.0610 H     1 <1>   0.0800 
 26 H        2.6300    -4.6880    -1.7720 H     1 <1>   0.0800 
 27 H        0.9370    -4.3920    -1.5520 H     1 <1>   0.0800 
 28 H        1.9200    -4.8950    -0.1920 H     1 <1>   0.0800 
 29 H       -1.4300    -0.8240     3.7620 H     1 <1>   0.4000 
 30 H       -3.1040    -0.8620     3.3280 H     1 <1>   0.4000 
 31 H       -3.5560     0.3170     0.8830 H     1 <1>   0.1500 
 32 H       -2.6860    -3.8380     0.7680 H     1 <1>   0.1500 
 33 H       -5.5340    -0.0610    -0.5360 H     1 <1>   0.1500 
 34 H       -4.6300    -4.2270    -0.6350 H     1 <1>   0.1500 
 35 H       -7.5900    -3.3710    -2.6070 H     1 <1>   0.0800 
 36 H       -6.9140    -4.2140    -1.2160 H     1 <1>   0.0800 
 37 H       -5.9050    -3.8820    -2.6360 H     1 <1>   0.0800 
@<TRIPOS>BOND
  1   1   2  2   
  2   2   3  1   
  3   2   4  1   
  4   3   5  1   
  5   4   6  2   
  6   4  19  1   
  7   5   7  1   
  8   5   8  1   
  9   5   9  1   
 10   6  10  1   
 11   6  11  1   
 12   7  20  1   
 13   7  21  1   
 14   7  22  1   
 15   8  23  1   
 16   8  24  1   
 17   8  25  1   
 18   9  26  1   
 19   9  27  1   
 20   9  28  1   
 21  10  29  1   
 22  10  30  1   
 23  11  12  ar  
 24  11  13  ar  
 25  12  14  ar  
 26  12  31  1   
 27  13  15  ar  
 28  13  32  1   
 29  14  16  ar  
 30  14  33  1   
 31  15  16  ar  
 32  15  34  1   
 33  16  17  1   
 34  17  18  1   
 35  18  35  1   
 36  18  36  1   
 37  18  37  1   
@<TRIPOS>SUBSTRUCTURE
  1 ****   1 GROUP 4 **** **** 0

# MOE 2024.06 (io_trps.svl 2023.06)
