@<TRIPOS>MOLECULE
NONAME
32 33 1 0 0 
SMALL
USER_CHARGES


@<TRIPOS>ATOM
  1 CL      -0.6780     0.0590     1.2190 Cl    1 <1>  -0.1770 
  2 C       -0.6040     1.5330     0.2730 C.ar  1 <1>   0.1770 
  3 C       -1.7440     2.3290     0.1580 C.ar  1 <1>   0.1170 
  4 C        0.5930     1.8650    -0.3320 C.ar  1 <1>  -0.1500 
  5 N       -2.9300     1.9320     0.8050 N.am  1 <1>  -0.5470 
  6 C       -1.6320     3.4970    -0.5920 C.ar  1 <1>  -0.1500 
  7 C        0.6760     3.0290    -1.0770 C.ar  1 <1>  -0.1500 
  8 C       -4.2290     2.3050     0.6370 C.2   1 <1>   0.6900 
  9 C       -0.4380     3.8420    -1.2040 C.ar  1 <1>  -0.1500 
 10 O       -4.5770     3.0790    -0.2320 O.2   1 <1>  -0.5700 
 11 N       -5.1470     1.7600     1.4710 N.am  1 <1>  -0.7300 
 12 C       -6.6050     2.0710     1.4400 C.3   1 <1>   0.1400 
 13 C       -7.2900     1.5220     0.1780 C.3   1 <1>   0.2000 
 14 O       -8.6680     1.6190     0.3270 O.3   1 <1>  -0.5600 
 15 C       -7.0570     0.0410    -0.0950 C.3   1 <1>  -0.1600 
 16 C       -9.2980     0.7680    -0.5730 C.3   1 <1>   0.1200 
 17 C       -8.3240    -0.3810    -0.8240 C.3   1 <1>  -0.1600 
 18 H        1.4480     1.2230    -0.2200 H     1 <1>   0.1500 
 19 H       -2.8090     1.1430     1.4330 H     1 <1>   0.3700 
 20 H       -2.4780     4.1510    -0.7020 H     1 <1>   0.1500 
 21 H        1.6020     3.3010    -1.5560 H     1 <1>   0.1500 
 22 H       -0.3780     4.7480    -1.7810 H     1 <1>   0.1500 
 23 H       -4.8370     1.1910     2.2560 H     1 <1>   0.3700 
 24 H       -6.7370     3.1390     1.4680 H     1 <1>   0.0800 
 25 H       -7.0720     1.6420     2.3080 H     1 <1>   0.0800 
 26 H       -7.0140     2.1120    -0.6800 H     1 <1>   0.0800 
 27 H       -6.9680    -0.4930     0.8350 H     1 <1>   0.0800 
 28 H       -6.1690    -0.1140    -0.6820 H     1 <1>   0.0800 
 29 H       -9.4900     1.3210    -1.4770 H     1 <1>   0.0800 
 30 H      -10.2250     0.4330    -0.1400 H     1 <1>   0.0800 
 31 H       -8.7110    -1.3070    -0.4360 H     1 <1>   0.0800 
 32 H       -8.1500    -0.4870    -1.8800 H     1 <1>   0.0800 
@<TRIPOS>BOND
  1   1   2  1   
  2   2   3  ar  
  3   2   4  ar  
  4   3   5  1   
  5   3   6  ar  
  6   4   7  ar  
  7   4  18  1   
  8   5   8  am  
  9   5  19  1   
 10   6   9  ar  
 11   6  20  1   
 12   7   9  ar  
 13   7  21  1   
 14   8  10  2   
 15   8  11  am  
 16   9  22  1   
 17  11  12  1   
 18  11  23  1   
 19  12  13  1   
 20  12  24  1   
 21  12  25  1   
 22  13  14  1   
 23  13  15  1   
 24  13  26  1   
 25  14  16  1   
 26  15  17  1   
 27  15  27  1   
 28  15  28  1   
 29  16  17  1   
 30  16  29  1   
 31  16  30  1   
 32  17  31  1   
 33  17  32  1   
@<TRIPOS>SUBSTRUCTURE
  1 ****   8 GROUP 4 **** **** 0

# MOE 2024.06 (io_trps.svl 2023.06)
