@<TRIPOS>MOLECULE
NONAME
37 37 1 0 0 
SMALL
USER_CHARGES


@<TRIPOS>ATOM
  1 CL       0.1370     0.7530    -2.8720 Cl    1 <1>  -0.1770 
  2 C       -0.7840     1.0920    -1.4230 C.ar  1 <1>   0.1770 
  3 C       -0.2510     1.9110    -0.4340 C.ar  1 <1>   0.0830 
  4 C       -2.0390     0.5240    -1.2830 C.ar  1 <1>  -0.1500 
  5 O        0.9680     2.4820    -0.5880 O.3   1 <1>  -0.3630 
  6 C       -1.0090     2.1460     0.7060 C.ar  1 <1>   0.1770 
  7 C       -2.7830     0.7720    -0.1380 C.ar  1 <1>  -0.1500 
  8 C        2.0640     1.7490    -0.1090 C.3   1 <1>   0.1200 
  9 CL      -0.3770     3.1580     1.9860 Cl    1 <1>  -0.1770 
 10 C       -2.2650     1.5850     0.8600 C.ar  1 <1>  -0.1500 
 11 C        3.3140     2.5810    -0.3900 C.3   1 <1>  -0.1600 
 12 C        4.5650     1.8640     0.0980 C.3   1 <1>   0.3430 
 13 N        5.7460     2.7140    -0.1980 N.4   1 <1>  -0.9060 
 14 C        7.0570     2.1930     0.1980 C.3   1 <1>   0.5030 
 15 C        8.0790     3.2470    -0.2150 C.3   1 <1>  -0.2400 
 16 C        7.0970     1.9950     1.7130 C.3   1 <1>  -0.2400 
 17 C        7.3350     0.8820    -0.5360 C.3   1 <1>  -0.2400 
 18 H       -2.4280    -0.1050    -2.0640 H     1 <1>   0.1500 
 19 H       -3.7610     0.3330    -0.0250 H     1 <1>   0.1500 
 20 H        2.0920     0.8050    -0.6290 H     1 <1>   0.0800 
 21 H        1.9260     1.5850     0.9470 H     1 <1>   0.0800 
 22 H       -2.8320     1.7850     1.7520 H     1 <1>   0.1500 
 23 H        3.2120     3.5250     0.1180 H     1 <1>   0.0800 
 24 H        3.3780     2.7480    -1.4510 H     1 <1>   0.0800 
 25 H        4.6550     0.9130    -0.4040 H     1 <1>   0.0800 
 26 H        4.4900     1.6870     1.1590 H     1 <1>   0.0800 
 27 H        5.6270     3.6240     0.2580 H     1 <1>   0.4500 
 28 H        5.7810     2.8990    -1.2060 H     1 <1>   0.4500 
 29 H        7.9000     4.1810     0.2860 H     1 <1>   0.0800 
 30 H        8.0650     3.4070    -1.2790 H     1 <1>   0.0800 
 31 H        9.0690     2.9200     0.0510 H     1 <1>   0.0800 
 32 H        6.8530     2.9060     2.2300 H     1 <1>   0.0800 
 33 H        8.0890     1.7050     2.0130 H     1 <1>   0.0800 
 34 H        6.4300     1.2150     2.0300 H     1 <1>   0.0800 
 35 H        7.2580     1.0100    -1.6020 H     1 <1>   0.0800 
 36 H        6.6680     0.1000    -0.2210 H     1 <1>   0.0800 
 37 H        8.3360     0.5520    -0.3180 H     1 <1>   0.0800 
@<TRIPOS>BOND
  1   1   2  1   
  2   2   3  ar  
  3   2   4  ar  
  4   3   5  1   
  5   3   6  ar  
  6   4   7  ar  
  7   4  18  1   
  8   5   8  1   
  9   6   9  1   
 10   6  10  ar  
 11   7  10  ar  
 12   7  19  1   
 13   8  11  1   
 14   8  20  1   
 15   8  21  1   
 16  10  22  1   
 17  11  12  1   
 18  11  23  1   
 19  11  24  1   
 20  12  13  1   
 21  12  25  1   
 22  12  26  1   
 23  13  14  1   
 24  13  27  1   
 25  13  28  1   
 26  14  15  1   
 27  14  16  1   
 28  14  17  1   
 29  15  29  1   
 30  15  30  1   
 31  15  31  1   
 32  16  32  1   
 33  16  33  1   
 34  16  34  1   
 35  17  35  1   
 36  17  36  1   
 37  17  37  1   
@<TRIPOS>SUBSTRUCTURE
  1 ****   8 GROUP 4 **** **** 0

# MOE 2024.06 (io_trps.svl 2023.06)
