@<TRIPOS>MOLECULE
NONAME
43 44 1 0 0 
SMALL
USER_CHARGES


@<TRIPOS>ATOM
  1 CL       1.4730     1.2420    -3.4180 Cl    1 <1>  -0.1770 
  2 C        2.5420     0.6070    -2.1940 C.ar  1 <1>   0.1770 
  3 C        3.1800     1.4800    -1.3340 C.ar  1 <1>  -0.1500 
  4 C        2.7360    -0.7580    -2.1080 C.ar  1 <1>  -0.1500 
  5 C        4.0380     1.0040    -0.3470 C.ar  1 <1>  -0.0090 
  6 C        3.5880    -1.2500    -1.1370 C.ar  1 <1>  -0.1500 
  7 S        4.8750     2.1610     0.7710 S.o2  1 <1>   1.4470 
  8 C        4.2290    -0.3760    -0.2670 C.ar  1 <1>   0.0830 
  9 O        5.0950     1.6220     2.0950 O.2   1 <1>  -0.6500 
 10 O        4.2390     3.4540     0.6600 O.2   1 <1>  -0.6500 
 11 N        6.4280     2.3880     0.1140 N.am  1 <1>  -0.8490 
 12 O        5.0730    -0.8870     0.6500 O.3   1 <1>  -0.3630 
 13 C        7.0940     3.5350     0.7690 C.3   1 <1>   0.1960 
 14 C        7.2750     1.1750     0.2190 C.3   1 <1>   0.1960 
 15 C        4.4970    -1.5960     1.7230 C.3   1 <1>   0.1200 
 16 C        8.4880     3.8430     0.1710 C.3   1 <1>   0.3430 
 17 C        8.7520     1.4170    -0.1840 C.3   1 <1>   0.3430 
 18 C        5.6050    -1.9220     2.7190 C.3   1 <1>  -0.2400 
 19 N        8.9470     2.7800    -0.7900 N.4   1 <1>  -0.9590 
 20 C       10.3170     3.0360    -1.3040 C.3   1 <1>   0.3430 
 21 C       10.5730     2.1730    -2.5340 C.3   1 <1>  -0.2400 
 22 H        2.9990     2.5360    -1.4360 H     1 <1>   0.1500 
 23 H        2.2280    -1.4170    -2.7910 H     1 <1>   0.1500 
 24 H        3.7610    -2.3090    -1.0590 H     1 <1>   0.1500 
 25 H        7.1960     3.3400     1.8250 H     1 <1>   0.0800 
 26 H        6.4860     4.4190     0.6700 H     1 <1>   0.0800 
 27 H        6.8800     0.4150    -0.4330 H     1 <1>   0.0800 
 28 H        7.2530     0.7800     1.2220 H     1 <1>   0.0800 
 29 H        4.0440    -2.4960     1.3440 H     1 <1>   0.0800 
 30 H        3.7470    -0.9740     2.1820 H     1 <1>   0.0800 
 31 H        9.1960     3.9440     0.9770 H     1 <1>   0.0800 
 32 H        8.4410     4.7920    -0.3380 H     1 <1>   0.0800 
 33 H        9.0490     0.6510    -0.8800 H     1 <1>   0.0800 
 34 H        9.3720     1.3170     0.6920 H     1 <1>   0.0800 
 35 H        6.3630    -2.5250     2.2530 H     1 <1>   0.0800 
 36 H        5.1950    -2.4700     3.5490 H     1 <1>   0.0800 
 37 H        6.0400    -1.0140     3.0960 H     1 <1>   0.0800 
 38 H        8.2770     2.8260    -1.5730 H     1 <1>   0.4500 
 39 H       11.0490     2.8230    -0.5410 H     1 <1>   0.0800 
 40 H       10.4100     4.0740    -1.5830 H     1 <1>   0.0800 
 41 H       10.5930     1.1270    -2.2860 H     1 <1>   0.0800 
 42 H       11.5340     2.4270    -2.9450 H     1 <1>   0.0800 
 43 H        9.8320     2.3550    -3.2920 H     1 <1>   0.0800 
@<TRIPOS>BOND
  1   1   2  1   
  2   2   3  ar  
  3   2   4  ar  
  4   3   5  ar  
  5   3  22  1   
  6   4   6  ar  
  7   4  23  1   
  8   5   7  1   
  9   5   8  ar  
 10   6   8  ar  
 11   6  24  1   
 12   7   9  2   
 13   7  10  2   
 14   7  11  am  
 15   8  12  1   
 16  11  13  1   
 17  11  14  1   
 18  12  15  1   
 19  13  16  1   
 20  13  25  1   
 21  13  26  1   
 22  14  17  1   
 23  14  27  1   
 24  14  28  1   
 25  15  18  1   
 26  15  29  1   
 27  15  30  1   
 28  16  19  1   
 29  16  31  1   
 30  16  32  1   
 31  17  19  1   
 32  17  33  1   
 33  17  34  1   
 34  18  35  1   
 35  18  36  1   
 36  18  37  1   
 37  19  20  1   
 38  19  38  1   
 39  20  21  1   
 40  20  39  1   
 41  20  40  1   
 42  21  41  1   
 43  21  42  1   
 44  21  43  1   
@<TRIPOS>SUBSTRUCTURE
  1 ****  11 GROUP 4 **** **** 0

# MOE 2024.06 (io_trps.svl 2023.06)
