@<TRIPOS>MOLECULE
NONAME
41 43 1 0 0 
SMALL
USER_CHARGES


@<TRIPOS>ATOM
  1 S        0.3270     0.0500    -1.4450 S.3   1 <1>  -0.0800 
  2 C        0.6320    -1.3220    -0.4050 C.2   1 <1>  -0.1400 
  3 C        1.9410     0.6600    -1.1530 C.2   1 <1>  -0.1100 
  4 C        1.8690    -1.2760     0.1110 C.2   1 <1>  -0.1810 
  5 C       -0.4350    -2.3690    -0.1770 C.3   1 <1>   0.0200 
  6 C        2.6520    -0.1440    -0.3230 C.2   1 <1>  -0.0860 
  7 C        2.3720    -2.3490     1.0660 C.3   1 <1>   0.0210 
  8 C        0.2070    -3.6010     0.4870 C.3   1 <1>  -0.1600 
  9 C        4.0240     0.0690     0.0920 C.2   1 <1>   0.7160 
 10 C        1.2040    -3.2070     1.5960 C.3   1 <1>  -0.1600 
 11 O        4.2670     0.2860     1.2650 O.2   1 <1>  -0.5700 
 12 N        5.0640     0.0230    -0.8120 N.am  1 <1>  -0.6600 
 13 C        6.4530     0.3620    -0.3910 C.3   1 <1>   0.2840 
 14 C        4.9020    -0.4280    -2.2210 C.3   1 <1>   0.1400 
 15 C        7.2670    -0.9070    -0.1930 C.ar  1 <1>  -0.1430 
 16 C        4.7760    -1.9490    -2.2850 C.3   1 <1>  -0.2400 
 17 C        8.2830    -1.2790    -1.0520 C.ar  1 <1>  -0.1500 
 18 C        7.0220    -1.7570     0.8660 C.ar  1 <1>  -0.1500 
 19 C        8.9820    -2.4510    -0.8160 C.ar  1 <1>   0.1600 
 20 C        7.7800    -2.9060     1.0120 C.ar  1 <1>   0.1600 
 21 N        8.7540    -3.2740     0.1950 N.ar  1 <1>  -0.6200 
 22 H        2.2140     1.5790    -1.6380 H     1 <1>   0.1500 
 23 H       -0.8860    -2.6480    -1.1120 H     1 <1>   0.0800 
 24 H       -1.1940    -1.9550     0.4620 H     1 <1>   0.0800 
 25 H        2.8760    -1.8920     1.9000 H     1 <1>   0.0800 
 26 H        3.0770    -2.9730     0.5470 H     1 <1>   0.0800 
 27 H        0.7330    -4.1650    -0.2640 H     1 <1>   0.0800 
 28 H       -0.5650    -4.2310     0.8920 H     1 <1>   0.0800 
 29 H        0.6780    -2.6430     2.3480 H     1 <1>   0.0800 
 30 H        1.5980    -4.0910     2.0660 H     1 <1>   0.0800 
 31 H        6.4440     0.9230     0.5280 H     1 <1>   0.0800 
 32 H        6.9100     0.9840    -1.1400 H     1 <1>   0.0800 
 33 H        5.7520    -0.1150    -2.8020 H     1 <1>   0.0800 
 34 H        4.0280     0.0260    -2.6550 H     1 <1>   0.0800 
 35 H        5.6380    -2.4230    -1.8520 H     1 <1>   0.0800 
 36 H        4.6990    -2.2610    -3.3110 H     1 <1>   0.0800 
 37 H        3.8930    -2.2780    -1.7690 H     1 <1>   0.0800 
 38 H        8.5370    -0.6720    -1.9010 H     1 <1>   0.1500 
 39 H        6.2450    -1.5310     1.5760 H     1 <1>   0.1500 
 40 H        9.7700    -2.7270    -1.4950 H     1 <1>   0.1500 
 41 H        7.5730    -3.5560     1.8440 H     1 <1>   0.1500 
@<TRIPOS>BOND
  1   1   2  1   
  2   1   3  1   
  3   2   4  2   
  4   2   5  1   
  5   3   6  2   
  6   3  22  1   
  7   4   6  1   
  8   4   7  1   
  9   5   8  1   
 10   5  23  1   
 11   5  24  1   
 12   6   9  1   
 13   7  10  1   
 14   7  25  1   
 15   7  26  1   
 16   8  10  1   
 17   8  27  1   
 18   8  28  1   
 19   9  11  2   
 20   9  12  am  
 21  10  29  1   
 22  10  30  1   
 23  12  13  1   
 24  12  14  1   
 25  13  15  1   
 26  13  31  1   
 27  13  32  1   
 28  14  16  1   
 29  14  33  1   
 30  14  34  1   
 31  15  17  ar  
 32  15  18  ar  
 33  16  35  1   
 34  16  36  1   
 35  16  37  1   
 36  17  19  ar  
 37  17  38  1   
 38  18  20  ar  
 39  18  39  1   
 40  19  21  ar  
 41  19  40  1   
 42  20  21  ar  
 43  20  41  1   
@<TRIPOS>SUBSTRUCTURE
  1 ****   9 GROUP 4 **** **** 0

# MOE 2024.06 (io_trps.svl 2023.06)
