@<TRIPOS>MOLECULE
NONAME
55 58 1 0 0 
SMALL
USER_CHARGES


@<TRIPOS>ATOM
  1 O        3.7020    -3.7850    -1.8090 O.2   1 <1>  -0.5700 
  2 C        3.5830    -3.2000    -0.7640 C.2   1 <1>   0.5690 
  3 N        4.1750    -1.9980    -0.6020 N.am  1 <1>  -0.7300 
  4 C        2.7500    -3.8580     0.3390 C.3   1 <1>  -0.0190 
  5 C        4.1390    -1.0540     0.5270 C.3   1 <1>   0.2840 
  6 C        3.2860    -5.2700     0.6560 C.3   1 <1>  -0.1600 
  7 C        1.2700    -3.9290    -0.0830 C.3   1 <1>  -0.1600 
  8 C        4.8250     0.2250     0.0910 C.ar  1 <1>  -0.1440 
  9 C        2.3880    -6.0330     1.6260 C.3   1 <1>   0.3430 
 10 C        0.4180    -4.7250     0.9030 C.3   1 <1>   0.3430 
 11 C        4.1130     1.2030    -0.5880 C.ar  1 <1>  -0.1500 
 12 C        6.1700     0.4270     0.3610 C.ar  1 <1>  -0.1500 
 13 N        1.0070    -6.0840     1.0780 N.4   1 <1>  -0.9590 
 14 C        4.7390     2.3700    -0.9850 C.ar  1 <1>  -0.1500 
 15 C        6.7990     1.5950    -0.0370 C.ar  1 <1>  -0.1500 
 16 C        0.1250    -6.9760     1.8810 C.3   1 <1>   0.4860 
 17 C        6.0820     2.5770    -0.7140 C.ar  1 <1>   0.0820 
 18 C       -1.1870    -7.1490     1.1420 C.ar  1 <1>  -0.1440 
 19 O        6.6180     3.7490    -1.1370 O.3   1 <1>  -0.3620 
 20 C       -1.2220    -7.8710    -0.0480 C.ar  1 <1>  -0.1500 
 21 C       -2.3570    -6.5760     1.6470 C.ar  1 <1>  -0.1500 
 22 C        7.9750     4.0580    -0.9140 C.3   1 <1>   0.0400 
 23 C       -2.4300    -7.9820    -0.7060 C.ar  1 <1>   0.0820 
 24 C       -3.5630    -6.7050     0.9690 C.ar  1 <1>  -0.1500 
 25 O       -2.6880    -8.6120    -1.8550 O.3   1 <1>  -0.3620 
 26 C       -3.5680    -7.4150    -0.2140 C.ar  1 <1>   0.0820 
 27 C       -4.0830    -8.4460    -2.1080 C.3   1 <1>   0.4000 
 28 O       -4.5950    -7.6630    -1.0310 O.3   1 <1>  -0.3620 
 29 H        4.7030    -1.6460    -1.4070 H     1 <1>   0.3700 
 30 H        2.8180    -3.2690     1.2350 H     1 <1>   0.0800 
 31 H        4.6520    -1.4790     1.3730 H     1 <1>   0.0800 
 32 H        3.1190    -0.8480     0.8020 H     1 <1>   0.0800 
 33 H        4.2740    -5.1880     1.0760 H     1 <1>   0.0800 
 34 H        3.3780    -5.8410    -0.2530 H     1 <1>   0.0800 
 35 H        1.1880    -4.3830    -1.0570 H     1 <1>   0.0800 
 36 H        0.8740    -2.9320    -0.1660 H     1 <1>   0.0800 
 37 H        2.3860    -5.5390     2.5850 H     1 <1>   0.0800 
 38 H        2.7740    -7.0320     1.7580 H     1 <1>   0.0800 
 39 H       -0.5880    -4.8020     0.5190 H     1 <1>   0.0800 
 40 H        0.3810    -4.2140     1.8520 H     1 <1>   0.0800 
 41 H        3.0700     1.0620    -0.8130 H     1 <1>   0.1500 
 42 H        6.7390    -0.3250     0.8800 H     1 <1>   0.1500 
 43 H        1.0550    -6.4980     0.1370 H     1 <1>   0.4500 
 44 H        4.1910     3.1310    -1.5110 H     1 <1>   0.1500 
 45 H        7.8400     1.7220     0.1880 H     1 <1>   0.1500 
 46 H       -0.0520    -6.5500     2.8550 H     1 <1>   0.0800 
 47 H        0.5890    -7.9410     2.0080 H     1 <1>   0.0800 
 48 H       -0.3560    -8.3460    -0.4730 H     1 <1>   0.1500 
 49 H       -2.3470    -6.0250     2.5730 H     1 <1>   0.1500 
 50 H        8.1700     5.0270    -1.3360 H     1 <1>   0.0800 
 51 H        8.5860     3.3180    -1.4000 H     1 <1>   0.0800 
 52 H        8.1590     4.0760     0.1460 H     1 <1>   0.0800 
 53 H       -4.4760    -6.2730     1.3410 H     1 <1>   0.1500 
 54 H       -4.5660    -9.4080    -2.1160 H     1 <1>   0.0800 
 55 H       -4.2240    -7.9220    -3.0360 H     1 <1>   0.0800 
@<TRIPOS>BOND
  1   1   2  2   
  2   2   3  am  
  3   2   4  1   
  4   3   5  1   
  5   3  29  1   
  6   4   6  1   
  7   4   7  1   
  8   4  30  1   
  9   5   8  1   
 10   5  31  1   
 11   5  32  1   
 12   6   9  1   
 13   6  33  1   
 14   6  34  1   
 15   7  10  1   
 16   7  35  1   
 17   7  36  1   
 18   8  11  ar  
 19   8  12  ar  
 20   9  13  1   
 21   9  37  1   
 22   9  38  1   
 23  10  13  1   
 24  10  39  1   
 25  10  40  1   
 26  11  14  ar  
 27  11  41  1   
 28  12  15  ar  
 29  12  42  1   
 30  13  16  1   
 31  13  43  1   
 32  14  17  ar  
 33  14  44  1   
 34  15  17  ar  
 35  15  45  1   
 36  16  18  1   
 37  16  46  1   
 38  16  47  1   
 39  17  19  1   
 40  18  20  ar  
 41  18  21  ar  
 42  19  22  1   
 43  20  23  ar  
 44  20  48  1   
 45  21  24  ar  
 46  21  49  1   
 47  22  50  1   
 48  22  51  1   
 49  22  52  1   
 50  23  25  1   
 51  23  26  ar  
 52  24  26  ar  
 53  24  53  1   
 54  25  27  1   
 55  26  28  1   
 56  27  28  1   
 57  27  54  1   
 58  27  55  1   
@<TRIPOS>SUBSTRUCTURE
  1 ****   7 GROUP 4 **** **** 0

# MOE 2024.06 (io_trps.svl 2023.06)
