@<TRIPOS>MOLECULE
NONAME
41 43 1 0 0 
SMALL
USER_CHARGES


@<TRIPOS>ATOM
  1 S        0.5070    -0.2540    -0.3000 S.3   1 <1>  -0.0800 
  2 C       -0.8810    -0.9480    -1.1160 C.2   1 <1>  -0.1100 
  3 C        0.0520    -1.0140     1.2130 C.2   1 <1>  -0.1100 
  4 C       -1.6200    -1.6850    -0.2640 C.2   1 <1>  -0.1810 
  5 C       -1.0790    -1.7280     1.0660 C.2   1 <1>  -0.1500 
  6 C       -2.8960    -2.4170    -0.6230 C.3   1 <1>   0.5240 
  7 N       -4.0270    -1.4620    -0.5210 N.4   1 <1>  -0.9590 
  8 C       -4.2420    -0.9730     0.8920 C.3   1 <1>   0.3430 
  9 C       -5.3010    -2.0350    -1.0900 C.3   1 <1>   0.3430 
 10 C       -5.4180     0.0170     1.0010 C.3   1 <1>   0.2090 
 11 C       -6.4830    -1.0500    -0.9950 C.3   1 <1>   0.2090 
 12 N       -6.6590    -0.5580     0.4020 N.pl3 1 <1>  -0.8380 
 13 C       -7.8090     0.2190     0.6010 C.ar  1 <1>   0.1000 
 14 C       -8.0070     1.4900     0.0280 C.ar  1 <1>   0.0830 
 15 C       -8.8010    -0.3100     1.4130 C.ar  1 <1>  -0.1500 
 16 O       -7.0200     2.0050    -0.7730 O.3   1 <1>  -0.3620 
 17 C       -9.1870     2.1820     0.2860 C.ar  1 <1>  -0.1500 
 18 C       -9.9690     0.3850     1.6650 C.ar  1 <1>  -0.1500 
 19 C       -7.1430     3.2890    -1.3480 C.3   1 <1>   0.0400 
 20 C      -10.1620     1.6320     1.1010 C.ar  1 <1>  -0.1500 
 21 H       -0.9840    -0.7150    -2.1630 H     1 <1>   0.1500 
 22 H        0.6950    -0.8450     2.0600 H     1 <1>   0.1500 
 23 H       -1.5440    -2.2930     1.8570 H     1 <1>   0.1500 
 24 H       -3.0430    -3.2580     0.0350 H     1 <1>   0.0800 
 25 H       -2.8170    -2.7820    -1.6350 H     1 <1>   0.0800 
 26 H       -3.7720    -0.6360    -1.0770 H     1 <1>   0.4500 
 27 H       -3.3500    -0.4880     1.2530 H     1 <1>   0.0800 
 28 H       -4.4490    -1.8100     1.5370 H     1 <1>   0.0800 
 29 H       -5.5700    -2.9260    -0.5470 H     1 <1>   0.0800 
 30 H       -5.1560    -2.3050    -2.1220 H     1 <1>   0.0800 
 31 H       -5.1610     0.9370     0.5070 H     1 <1>   0.0800 
 32 H       -5.6010     0.2420     2.0380 H     1 <1>   0.0800 
 33 H       -7.3880    -1.5430    -1.3080 H     1 <1>   0.0800 
 34 H       -6.3170    -0.2200    -1.6600 H     1 <1>   0.0800 
 35 H       -8.6510    -1.2790     1.8520 H     1 <1>   0.1500 
 36 H       -9.3760     3.1520    -0.1320 H     1 <1>   0.1500 
 37 H      -10.7270    -0.0440     2.2980 H     1 <1>   0.1500 
 38 H       -6.2540     3.4890    -1.9180 H     1 <1>   0.0800 
 39 H       -7.2440     4.0160    -0.5620 H     1 <1>   0.0800 
 40 H       -8.0020     3.3010    -1.9970 H     1 <1>   0.0800 
 41 H      -11.0720     2.1740     1.2960 H     1 <1>   0.1500 
@<TRIPOS>BOND
  1   1   2  1   
  2   1   3  1   
  3   2   4  2   
  4   2  21  1   
  5   3   5  2   
  6   3  22  1   
  7   4   5  1   
  8   4   6  1   
  9   5  23  1   
 10   6   7  1   
 11   6  24  1   
 12   6  25  1   
 13   7   8  1   
 14   7   9  1   
 15   7  26  1   
 16   8  10  1   
 17   8  27  1   
 18   8  28  1   
 19   9  11  1   
 20   9  29  1   
 21   9  30  1   
 22  10  12  1   
 23  10  31  1   
 24  10  32  1   
 25  11  12  1   
 26  11  33  1   
 27  11  34  1   
 28  12  13  1   
 29  13  14  ar  
 30  13  15  ar  
 31  14  16  1   
 32  14  17  ar  
 33  15  18  ar  
 34  15  35  1   
 35  16  19  1   
 36  17  20  ar  
 37  17  36  1   
 38  18  20  ar  
 39  18  37  1   
 40  19  38  1   
 41  19  39  1   
 42  19  40  1   
 43  20  41  1   
@<TRIPOS>SUBSTRUCTURE
  1 ****  10 GROUP 4 **** **** 0

# MOE 2024.06 (io_trps.svl 2023.06)
