@<TRIPOS>MOLECULE
NONAME
32 33 1 0 0 
SMALL
USER_CHARGES


@<TRIPOS>ATOM
  1 CL       0.9430     1.6940     2.0400 Cl    1 <1>  -0.1770 
  2 C       -0.3690     2.5330     1.2570 C.ar  1 <1>   0.1770 
  3 C       -0.1980     3.1580     0.0290 C.ar  1 <1>  -0.0090 
  4 C       -1.5800     2.5590     1.9220 C.ar  1 <1>  -0.1500 
  5 S        1.3850     3.1130    -0.8450 S.o2  1 <1>   1.4470 
  6 C       -1.2990     3.8120    -0.5150 C.ar  1 <1>  -0.1500 
  7 C       -2.6490     3.2210     1.3540 C.ar  1 <1>   0.1770 
  8 O        1.7410     1.7340    -1.0620 O.2   1 <1>  -0.6500 
  9 O        1.2980     4.0440    -1.9460 O.2   1 <1>  -0.6500 
 10 N        2.4700     3.8560     0.2720 N.am  1 <1>  -0.7300 
 11 C       -2.5440     3.8590     0.1190 C.ar  1 <1>   0.0860 
 12 CL      -4.1370     3.2600     2.2640 Cl    1 <1>  -0.1770 
 13 C        3.7940     3.6640     0.1940 C.2   1 <1>   0.7450 
 14 C        2.1360     5.1450     0.8880 C.3   1 <1>   0.1960 
 15 C       -3.6530     4.5450    -0.4980 C.2   1 <1>   0.6340 
 16 O        4.3720     2.7970    -0.4050 O.2   1 <1>  -0.5700 
 17 C        4.5380     4.7340     0.9460 C.3   1 <1>  -0.0990 
 18 C        3.4250     5.5630     1.6020 C.3   1 <1>  -0.1600 
 19 O       -4.7570     4.0640    -0.6220 O.2   1 <1>  -0.5700 
 20 O       -3.4130     5.7660    -0.9810 O.3   1 <1>  -0.4300 
 21 C       -4.4240     6.5230    -1.6190 C.3   1 <1>   0.0400 
 22 H       -1.6870     2.0710     2.8740 H     1 <1>   0.1500 
 23 H       -1.1970     4.3010    -1.4720 H     1 <1>   0.1500 
 24 H        1.3200     5.0460     1.5830 H     1 <1>   0.0800 
 25 H        1.8810     5.8560     0.1180 H     1 <1>   0.0800 
 26 H        5.1030     5.3210     0.2460 H     1 <1>   0.0800 
 27 H        5.1960     4.2930     1.6740 H     1 <1>   0.0800 
 28 H        3.3470     5.3080     2.6450 H     1 <1>   0.0800 
 29 H        3.6010     6.6210     1.5160 H     1 <1>   0.0800 
 30 H       -4.0060     7.4670    -1.9200 H     1 <1>   0.0800 
 31 H       -5.2320     6.6780    -0.9260 H     1 <1>   0.0800 
 32 H       -4.7730     5.9810    -2.4810 H     1 <1>   0.0800 
@<TRIPOS>BOND
  1   1   2  1   
  2   2   3  ar  
  3   2   4  ar  
  4   3   5  1   
  5   3   6  ar  
  6   4   7  ar  
  7   4  22  1   
  8   5   8  2   
  9   5   9  2   
 10   5  10  am  
 11   6  11  ar  
 12   6  23  1   
 13   7  11  ar  
 14   7  12  1   
 15  10  13  am  
 16  10  14  1   
 17  11  15  1   
 18  13  16  2   
 19  13  17  1   
 20  14  18  1   
 21  14  24  1   
 22  14  25  1   
 23  15  19  2   
 24  15  20  1   
 25  17  18  1   
 26  17  26  1   
 27  17  27  1   
 28  18  28  1   
 29  18  29  1   
 30  20  21  1   
 31  21  30  1   
 32  21  31  1   
 33  21  32  1   
@<TRIPOS>SUBSTRUCTURE
  1 ****   3 GROUP 4 **** **** 0

# MOE 2024.06 (io_trps.svl 2023.06)
