@<TRIPOS>MOLECULE
NONAME
38 39 1 0 0 
SMALL
USER_CHARGES


@<TRIPOS>ATOM
  1 BR       0.1690     0.3200    -1.1870 Br    1 <1>  -0.1110 
  2 C        1.6640    -0.7150    -0.5560 C.ar  1 <1>   0.1110 
  3 C        2.9330    -0.1780    -0.6520 C.ar  1 <1>  -0.1500 
  4 C        1.4280    -1.9680    -0.0240 C.ar  1 <1>  -0.1500 
  5 C        4.0100    -0.9220    -0.1980 C.ar  1 <1>   0.0830 
  6 C        2.5070    -2.7080     0.4280 C.ar  1 <1>  -0.1500 
  7 O        5.2340    -0.3500    -0.3140 O.3   1 <1>  -0.3630 
  8 C        3.7910    -2.1900     0.3430 C.ar  1 <1>  -0.1500 
  9 C        6.3980    -1.0140     0.1080 C.3   1 <1>   0.1200 
 10 C        7.5760    -0.0820    -0.1730 C.3   1 <1>  -0.1600 
 11 C        8.8910    -0.7220     0.2630 C.3   1 <1>   0.3430 
 12 N       10.0430     0.1430    -0.1170 N.4   1 <1>  -0.9590 
 13 C       11.3200    -0.6260    -0.0520 C.3   1 <1>   0.3430 
 14 C       10.1180     1.3900     0.7060 C.3   1 <1>   0.3430 
 15 C       12.4680     0.2290    -0.5940 C.3   1 <1>  -0.1600 
 16 C       11.2400     2.2880     0.1830 C.3   1 <1>  -0.1600 
 17 C       12.5890     1.5590     0.1600 C.3   1 <1>  -0.1600 
 18 H        3.0820     0.7990    -1.0710 H     1 <1>   0.1500 
 19 H        0.4250    -2.3520     0.0330 H     1 <1>   0.1500 
 20 H        2.3470    -3.6870     0.8470 H     1 <1>   0.1500 
 21 H        4.6030    -2.7920     0.7030 H     1 <1>   0.1500 
 22 H        6.4820    -1.9320    -0.4490 H     1 <1>   0.0800 
 23 H        6.3040    -1.2200     1.1620 H     1 <1>   0.0800 
 24 H        7.4090     0.8350     0.3630 H     1 <1>   0.0800 
 25 H        7.6020     0.1190    -1.2300 H     1 <1>   0.0800 
 26 H        8.9870    -1.6790    -0.2250 H     1 <1>   0.0800 
 27 H        8.8880    -0.8860     1.3290 H     1 <1>   0.0800 
 28 H        9.9180     0.4350    -1.0960 H     1 <1>   0.4500 
 29 H       11.2410    -1.5280    -0.6380 H     1 <1>   0.0800 
 30 H       11.5300    -0.9010     0.9690 H     1 <1>   0.0800 
 31 H       10.3110     1.1360     1.7360 H     1 <1>   0.0800 
 32 H        9.1850     1.9280     0.6590 H     1 <1>   0.0800 
 33 H       12.3120     0.4140    -1.6430 H     1 <1>   0.0800 
 34 H       13.3900    -0.3190    -0.4990 H     1 <1>   0.0800 
 35 H       11.3180     3.1570     0.8140 H     1 <1>   0.0800 
 36 H       10.9910     2.6320    -0.8060 H     1 <1>   0.0800 
 37 H       13.3340     2.1800    -0.3100 H     1 <1>   0.0800 
 38 H       12.9130     1.3710     1.1710 H     1 <1>   0.0800 
@<TRIPOS>BOND
  1   1   2  1   
  2   2   3  ar  
  3   2   4  ar  
  4   3   5  ar  
  5   3  18  1   
  6   4   6  ar  
  7   4  19  1   
  8   5   7  1   
  9   5   8  ar  
 10   6   8  ar  
 11   6  20  1   
 12   7   9  1   
 13   8  21  1   
 14   9  10  1   
 15   9  22  1   
 16   9  23  1   
 17  10  11  1   
 18  10  24  1   
 19  10  25  1   
 20  11  12  1   
 21  11  26  1   
 22  11  27  1   
 23  12  13  1   
 24  12  14  1   
 25  12  28  1   
 26  13  15  1   
 27  13  29  1   
 28  13  30  1   
 29  14  16  1   
 30  14  31  1   
 31  14  32  1   
 32  15  17  1   
 33  15  33  1   
 34  15  34  1   
 35  16  17  1   
 36  16  35  1   
 37  16  36  1   
 38  17  37  1   
 39  17  38  1   
@<TRIPOS>SUBSTRUCTURE
  1 ****   9 GROUP 4 **** **** 0

# MOE 2024.06 (io_trps.svl 2023.06)
