@<TRIPOS>MOLECULE
NONAME
39 40 1 0 0 
SMALL
USER_CHARGES


@<TRIPOS>ATOM
  1 O        3.2280     2.8880     0.3800 O.3   1 <1>  -0.5600 
  2 C        2.7260     1.6430     0.7470 C.3   1 <1>   0.4800 
  3 C        4.5640     3.1510     0.6920 C.3   1 <1>   0.1200 
  4 O        2.7670     0.8670    -0.4090 O.3   1 <1>  -0.5600 
  5 C        1.2410     1.8440     1.0950 C.3   1 <1>   0.3430 
  6 C        5.5300     2.0440     0.2390 C.3   1 <1>  -0.1600 
  7 C        3.9810     0.2460    -0.7050 C.3   1 <1>   0.1200 
  8 N        0.5440     2.4610    -0.0780 N.4   1 <1>  -0.9060 
  9 C        5.0830     1.2690    -1.0090 C.3   1 <1>  -0.1600 
 10 C       -0.8850     2.7640     0.0810 C.3   1 <1>   0.4230 
 11 C       -1.6900     1.4610     0.1790 C.3   1 <1>  -0.1600 
 12 C       -1.3320     3.6000    -1.1210 C.3   1 <1>  -0.1600 
 13 C       -3.1990     1.7440     0.2330 C.3   1 <1>  -0.1600 
 14 C       -2.8380     3.8910    -1.0660 C.3   1 <1>  -0.1600 
 15 C       -3.6490     2.5930    -0.9630 C.3   1 <1>  -0.1600 
 16 H        3.2930     1.1970     1.5490 H     1 <1>   0.0800 
 17 H        4.6460     3.3150     1.7530 H     1 <1>   0.0800 
 18 H        4.8190     4.0700     0.1910 H     1 <1>   0.0800 
 19 H        1.1650     2.4820     1.9580 H     1 <1>   0.0800 
 20 H        0.8060     0.8890     1.3350 H     1 <1>   0.0800 
 21 H        5.6960     1.3590     1.0520 H     1 <1>   0.0800 
 22 H        6.4810     2.5070     0.0380 H     1 <1>   0.0800 
 23 H        3.8170    -0.3690    -1.5730 H     1 <1>   0.0800 
 24 H        4.2580    -0.3940     0.1150 H     1 <1>   0.0800 
 25 H        0.7080     1.8350    -0.8780 H     1 <1>   0.4500 
 26 H        1.0840     3.3070    -0.3120 H     1 <1>   0.4500 
 27 H        5.9330     0.7280    -1.3890 H     1 <1>   0.0800 
 28 H        4.7600     1.9420    -1.7850 H     1 <1>   0.0800 
 29 H       -1.0380     3.3420     0.9790 H     1 <1>   0.0800 
 30 H       -1.4170     0.9180     1.0660 H     1 <1>   0.0800 
 31 H       -1.4880     0.8420    -0.6780 H     1 <1>   0.0800 
 32 H       -1.1190     3.0720    -2.0350 H     1 <1>   0.0800 
 33 H       -0.8000     4.5360    -1.1340 H     1 <1>   0.0800 
 34 H       -3.4390     2.2620     1.1460 H     1 <1>   0.0800 
 35 H       -3.7420     0.8140     0.2340 H     1 <1>   0.0800 
 36 H       -3.1360     4.4280    -1.9520 H     1 <1>   0.0800 
 37 H       -3.0580     4.5170    -0.2170 H     1 <1>   0.0800 
 38 H       -4.6950     2.8290    -0.8620 H     1 <1>   0.0800 
 39 H       -3.5320     2.0240    -1.8710 H     1 <1>   0.0800 
@<TRIPOS>BOND
  1   1   2  1   
  2   1   3  1   
  3   2   4  1   
  4   2   5  1   
  5   2  16  1   
  6   3   6  1   
  7   3  17  1   
  8   3  18  1   
  9   4   7  1   
 10   5   8  1   
 11   5  19  1   
 12   5  20  1   
 13   6   9  1   
 14   6  21  1   
 15   6  22  1   
 16   7   9  1   
 17   7  23  1   
 18   7  24  1   
 19   8  10  1   
 20   8  25  1   
 21   8  26  1   
 22   9  27  1   
 23   9  28  1   
 24  10  11  1   
 25  10  12  1   
 26  10  29  1   
 27  11  13  1   
 28  11  30  1   
 29  11  31  1   
 30  12  14  1   
 31  12  32  1   
 32  12  33  1   
 33  13  15  1   
 34  13  34  1   
 35  13  35  1   
 36  14  15  1   
 37  14  36  1   
 38  14  37  1   
 39  15  38  1   
 40  15  39  1   
@<TRIPOS>SUBSTRUCTURE
  1 ****   8 GROUP 4 **** **** 0

# MOE 2024.06 (io_trps.svl 2023.06)
