@<TRIPOS>MOLECULE
NONAME
38 39 1 0 0 
SMALL
USER_CHARGES


@<TRIPOS>ATOM
  1 BR       0.7470    -0.4930     1.9000 Br    1 <1>  -0.1110 
  2 C       -0.6160    -1.4810     0.9570 C.ar  1 <1>   0.1110 
  3 C       -0.3360    -2.7490     0.4660 C.ar  1 <1>   0.0830 
  4 C       -1.8500    -0.8850     0.7960 C.ar  1 <1>  -0.1500 
  5 O        0.9060    -3.2620     0.6670 O.3   1 <1>  -0.3630 
  6 C       -1.3490    -3.4260    -0.2070 C.ar  1 <1>  -0.1500 
  7 C       -2.8400    -1.5810     0.1230 C.ar  1 <1>  -0.1500 
  8 C        1.2790    -4.5240     0.1610 C.3   1 <1>   0.1200 
  9 C       -2.6090    -2.8580    -0.3830 C.ar  1 <1>  -0.0090 
 10 C        2.7330    -4.7810     0.5540 C.3   1 <1>  -0.1600 
 11 S       -3.9200    -3.7570    -1.2590 S.o2  1 <1>   1.4470 
 12 C        3.2190    -6.1420     0.0410 C.3   1 <1>  -0.2400 
 13 O       -4.2510    -3.0520    -2.4770 O.2   1 <1>  -0.6500 
 14 O       -3.5980    -5.1670    -1.3240 O.2   1 <1>  -0.6500 
 15 N       -5.2500    -3.6070    -0.2230 N.am  1 <1>  -0.8490 
 16 C       -5.1000    -4.3390     1.0540 C.3   1 <1>   0.1960 
 17 C       -6.5160    -3.9480    -0.8800 C.3   1 <1>   0.1960 
 18 C       -6.4430    -4.6990     1.7300 C.3   1 <1>   0.1200 
 19 C       -7.7280    -3.6650     0.0400 C.3   1 <1>   0.1200 
 20 O       -7.4350    -3.7690     1.4110 O.3   1 <1>  -0.5600 
 21 H       -2.0310     0.1010     1.1870 H     1 <1>   0.1500 
 22 H       -1.1790    -4.4100    -0.6070 H     1 <1>   0.1500 
 23 H       -3.8100    -1.1300    -0.0120 H     1 <1>   0.1500 
 24 H        1.1710    -4.5070    -0.9100 H     1 <1>   0.0800 
 25 H        0.6320    -5.2690     0.5920 H     1 <1>   0.0800 
 26 H        2.8190    -4.7550     1.6260 H     1 <1>   0.0800 
 27 H        3.3530    -4.0040     0.1400 H     1 <1>   0.0800 
 28 H        2.6210    -6.9360     0.4540 H     1 <1>   0.0800 
 29 H        4.2430    -6.2990     0.3320 H     1 <1>   0.0800 
 30 H        3.1590    -6.1840    -1.0330 H     1 <1>   0.0800 
 31 H       -4.5260    -3.7300     1.7310 H     1 <1>   0.0800 
 32 H       -4.5560    -5.2560     0.9090 H     1 <1>   0.0800 
 33 H       -6.5090    -4.9900    -1.1540 H     1 <1>   0.0800 
 34 H       -6.6320    -3.3760    -1.7850 H     1 <1>   0.0800 
 35 H       -6.3310    -4.7150     2.7990 H     1 <1>   0.0800 
 36 H       -6.7780    -5.6700     1.4090 H     1 <1>   0.0800 
 37 H       -8.5290    -4.3460    -0.1860 H     1 <1>   0.0800 
 38 H       -8.0800    -2.6640    -0.1300 H     1 <1>   0.0800 
@<TRIPOS>BOND
  1   1   2  1   
  2   2   3  ar  
  3   2   4  ar  
  4   3   5  1   
  5   3   6  ar  
  6   4   7  ar  
  7   4  21  1   
  8   5   8  1   
  9   6   9  ar  
 10   6  22  1   
 11   7   9  ar  
 12   7  23  1   
 13   8  10  1   
 14   8  24  1   
 15   8  25  1   
 16   9  11  1   
 17  10  12  1   
 18  10  26  1   
 19  10  27  1   
 20  11  13  2   
 21  11  14  2   
 22  11  15  am  
 23  12  28  1   
 24  12  29  1   
 25  12  30  1   
 26  15  16  1   
 27  15  17  1   
 28  16  18  1   
 29  16  31  1   
 30  16  32  1   
 31  17  19  1   
 32  17  33  1   
 33  17  34  1   
 34  18  20  1   
 35  18  35  1   
 36  18  36  1   
 37  19  20  1   
 38  19  37  1   
 39  19  38  1   
@<TRIPOS>SUBSTRUCTURE
  1 ****   9 GROUP 4 **** **** 0

# MOE 2024.06 (io_trps.svl 2023.06)
