@<TRIPOS>MOLECULE
NONAME
24 23 1 0 0 
SMALL
USER_CHARGES


@<TRIPOS>ATOM
  1 O        1.3760    -0.1530     0.3020 O.2   1 <1>  -0.5700 
  2 C        1.4250     0.8710    -0.3290 C.2   1 <1>   0.5690 
  3 N        1.5730     0.8260    -1.6670 N.am  1 <1>  -0.8000 
  4 C        1.3250     2.2180     0.3900 C.3   1 <1>  -0.0190 
  5 C        0.1250     3.0650    -0.0840 C.3   1 <1>  -0.1600 
  6 C        2.6280     3.0250     0.2510 C.3   1 <1>  -0.2400 
  7 C       -1.2200     2.3520     0.1300 C.3   1 <1>  -0.1600 
  8 C       -2.3920     3.2430    -0.2980 C.3   1 <1>  -0.1600 
  9 C       -3.7300     2.5300    -0.0850 C.3   1 <1>  -0.2400 
 10 H        1.6370    -0.0800    -2.1300 H     1 <1>   0.3700 
 11 H        1.6120     1.6540    -2.2570 H     1 <1>   0.3700 
 12 H        1.1860     2.0060     1.4360 H     1 <1>   0.0800 
 13 H        0.2380     3.3050    -1.1270 H     1 <1>   0.0800 
 14 H        0.1150     3.9910     0.4660 H     1 <1>   0.0800 
 15 H        2.8070     3.2910    -0.7750 H     1 <1>   0.0800 
 16 H        3.4590     2.4390     0.6040 H     1 <1>   0.0800 
 17 H        2.5760     3.9250     0.8380 H     1 <1>   0.0800 
 18 H       -1.3280     2.0960     1.1710 H     1 <1>   0.0800 
 19 H       -1.2450     1.4380    -0.4390 H     1 <1>   0.0800 
 20 H       -2.2900     3.5000    -1.3390 H     1 <1>   0.0800 
 21 H       -2.3830     4.1550     0.2750 H     1 <1>   0.0800 
 22 H       -3.7700     1.6240    -0.6660 H     1 <1>   0.0800 
 23 H       -4.5400     3.1680    -0.3910 H     1 <1>   0.0800 
 24 H       -3.8620     2.2810     0.9530 H     1 <1>   0.0800 
@<TRIPOS>BOND
  1   1   2  2   
  2   2   3  am  
  3   2   4  1   
  4   3  10  1   
  5   3  11  1   
  6   4   5  1   
  7   4   6  1   
  8   4  12  1   
  9   5   7  1   
 10   5  13  1   
 11   5  14  1   
 12   6  15  1   
 13   6  16  1   
 14   6  17  1   
 15   7   8  1   
 16   7  18  1   
 17   7  19  1   
 18   8   9  1   
 19   8  20  1   
 20   8  21  1   
 21   9  22  1   
 22   9  23  1   
 23   9  24  1   
@<TRIPOS>SUBSTRUCTURE
  1 ****   5 GROUP 4 **** **** 0

# MOE 2024.06 (io_trps.svl 2023.06)
