@<TRIPOS>MOLECULE
NONAME
63 67 1 0 0 
SMALL
USER_CHARGES


@<TRIPOS>ATOM
  1 O       -3.4850     2.9800    -1.2160 O.2   1 <1>  -0.5700 
  2 C       -2.5720     2.3920    -0.6820 C.2   1 <1>   0.5690 
  3 N       -1.3080     2.9520    -0.6900 N.am  1 <1>  -0.6600 
  4 C       -2.8440     1.0640     0.0390 C.3   1 <1>   0.0420 
  5 C       -0.1090     2.3560    -0.0180 C.3   1 <1>   0.1400 
  6 C       -1.0590     4.1790    -1.5140 C.3   1 <1>   0.1400 
  7 C       -2.0240    -0.0150    -0.6710 C.2   1 <1>   0.5690 
  8 C       -4.3350     0.6380     0.2930 C.3   1 <1>   0.0000 
  9 C        0.9500     3.4260     0.2710 C.3   1 <1>  -0.1600 
 10 C        0.3560     4.1650    -2.1010 C.3   1 <1>  -0.1600 
 11 O       -2.1490    -0.1070    -1.8710 O.2   1 <1>  -0.5700 
 12 N       -1.1410    -0.8490    -0.0030 N.am  1 <1>  -0.6600 
 13 C       -5.0760     1.7150     1.1320 C.3   1 <1>  -0.1600 
 14 C       -5.1430     0.3850    -1.0100 C.3   1 <1>  -0.1600 
 15 C       -4.3720    -0.6810     1.1140 C.3   1 <1>  -0.1600 
 16 C        1.4400     4.1180    -1.0110 C.3   1 <1>  -0.1600 
 17 C       -0.2930    -1.8090    -0.7750 C.3   1 <1>   0.1400 
 18 C       -0.9030    -0.9300     1.4720 C.3   1 <1>   0.1400 
 19 C       -6.5230     1.2930     1.4440 C.3   1 <1>  -0.0800 
 20 C       -6.5920    -0.0360    -0.6980 C.3   1 <1>  -0.0800 
 21 C       -5.8120    -1.1200     1.4350 C.3   1 <1>  -0.0800 
 22 C       -0.5620    -3.2410    -0.3050 C.3   1 <1>  -0.1600 
 23 C       -1.1500    -2.3580     1.9750 C.3   1 <1>  -0.1600 
 24 C       -7.2780     1.0710     0.1220 C.3   1 <1>  -0.1600 
 25 C       -6.5080    -0.0170     2.2500 C.3   1 <1>  -0.1600 
 26 C       -6.5760    -1.3400     0.1180 C.3   1 <1>  -0.1600 
 27 C       -0.3210    -3.3900     1.2020 C.3   1 <1>  -0.1600 
 28 H       -2.4400     1.2250     1.0110 H     1 <1>   0.0800 
 29 H        0.3110     1.6000    -0.6610 H     1 <1>   0.0800 
 30 H       -0.3910     1.8980     0.9110 H     1 <1>   0.0800 
 31 H       -1.1930     5.0490    -0.8940 H     1 <1>   0.0800 
 32 H       -1.7690     4.2320    -2.3220 H     1 <1>   0.0800 
 33 H        1.7850     2.9810     0.7810 H     1 <1>   0.0800 
 34 H        0.5170     4.1560     0.9330 H     1 <1>   0.0800 
 35 H        0.4990     5.0350    -2.7170 H     1 <1>   0.0800 
 36 H        0.4420     3.3020    -2.7370 H     1 <1>   0.0800 
 37 H       -5.1100     2.6490     0.6020 H     1 <1>   0.0800 
 38 H       -4.5520     1.8890     2.0550 H     1 <1>   0.0800 
 39 H       -4.6770    -0.3890    -1.5940 H     1 <1>   0.0800 
 40 H       -5.1700     1.2680    -1.6200 H     1 <1>   0.0800 
 41 H       -3.8380    -0.5550     2.0380 H     1 <1>   0.0800 
 42 H       -3.8960    -1.4720     0.5610 H     1 <1>   0.0800 
 43 H        2.2970     3.5970    -1.4020 H     1 <1>   0.0800 
 44 H        1.7520     5.1190    -0.7650 H     1 <1>   0.0800 
 45 H        0.7430    -1.5630    -0.6190 H     1 <1>   0.0800 
 46 H       -0.4880    -1.7430    -1.8310 H     1 <1>   0.0800 
 47 H       -1.5340    -0.2630     2.0230 H     1 <1>   0.0800 
 48 H        0.1190    -0.6560     1.6710 H     1 <1>   0.0800 
 49 H       -7.0110     2.0650     2.0140 H     1 <1>   0.0800 
 50 H       -7.1270    -0.1900    -1.6200 H     1 <1>   0.0800 
 51 H       -5.7970    -2.0360     2.0010 H     1 <1>   0.0800 
 52 H        0.0800    -3.9170    -0.8420 H     1 <1>   0.0800 
 53 H       -1.5800    -3.4970    -0.5430 H     1 <1>   0.0800 
 54 H       -2.1950    -2.5910     1.8740 H     1 <1>   0.0800 
 55 H       -0.9060    -2.4130     3.0210 H     1 <1>   0.0800 
 56 H       -7.2920     1.9850    -0.4460 H     1 <1>   0.0800 
 57 H       -8.2980     0.7950     0.3250 H     1 <1>   0.0800 
 58 H       -7.5160    -0.3150     2.4800 H     1 <1>   0.0800 
 59 H       -5.9900     0.1320     3.1810 H     1 <1>   0.0800 
 60 H       -6.1040    -2.1200    -0.4530 H     1 <1>   0.0800 
 61 H       -7.5850    -1.6510     0.3270 H     1 <1>   0.0800 
 62 H        0.7240    -3.2430     1.4140 H     1 <1>   0.0800 
 63 H       -0.5890    -4.3840     1.5170 H     1 <1>   0.0800 
@<TRIPOS>BOND
  1   1   2  2   
  2   2   3  am  
  3   2   4  1   
  4   3   5  1   
  5   3   6  1   
  6   4   7  1   
  7   4   8  1   
  8   4  28  1   
  9   5   9  1   
 10   5  29  1   
 11   5  30  1   
 12   6  10  1   
 13   6  31  1   
 14   6  32  1   
 15   7  11  2   
 16   7  12  am  
 17   8  13  1   
 18   8  14  1   
 19   8  15  1   
 20   9  16  1   
 21   9  33  1   
 22   9  34  1   
 23  10  16  1   
 24  10  35  1   
 25  10  36  1   
 26  12  17  1   
 27  12  18  1   
 28  13  19  1   
 29  13  37  1   
 30  13  38  1   
 31  14  20  1   
 32  14  39  1   
 33  14  40  1   
 34  15  21  1   
 35  15  41  1   
 36  15  42  1   
 37  16  43  1   
 38  16  44  1   
 39  17  22  1   
 40  17  45  1   
 41  17  46  1   
 42  18  23  1   
 43  18  47  1   
 44  18  48  1   
 45  19  24  1   
 46  19  25  1   
 47  19  49  1   
 48  20  24  1   
 49  20  26  1   
 50  20  50  1   
 51  21  25  1   
 52  21  26  1   
 53  21  51  1   
 54  22  27  1   
 55  22  52  1   
 56  22  53  1   
 57  23  27  1   
 58  23  54  1   
 59  23  55  1   
 60  24  56  1   
 61  24  57  1   
 62  25  58  1   
 63  25  59  1   
 64  26  60  1   
 65  26  61  1   
 66  27  62  1   
 67  27  63  1   
@<TRIPOS>SUBSTRUCTURE
  1 ****   4 GROUP 4 **** **** 0

# MOE 2024.06 (io_trps.svl 2023.06)
