@<TRIPOS>MOLECULE
NONAME
41 42 1 0 0 
SMALL
USER_CHARGES


@<TRIPOS>ATOM
  1 S        0.9020     0.4920    -0.8800 S.3   1 <1>  -0.2860 
  2 C       -0.8910     0.6150    -0.8690 C.2   1 <1>   0.2420 
  3 C        1.3560     1.2350    -2.5240 C.3   1 <1>   0.1310 
  4 N       -1.5560     1.1450    -1.8310 N.2   1 <1>  -0.3380 
  5 N       -1.6520     0.1760     0.1390 N.pl3 1 <1>   0.0480 
  6 C        2.8640     1.3450    -2.6780 C.2   1 <1>   0.5690 
  7 N       -2.8360     1.0740    -1.4680 N.2   1 <1>  -0.3380 
  8 C       -2.8810     0.5060    -0.3080 C.2   1 <1>   0.0060 
  9 C       -1.1710    -0.4670     1.3960 C.3   1 <1>   0.1760 
 10 O        3.3460     1.2650    -3.7820 O.2   1 <1>  -0.5700 
 11 N        3.6400     1.5400    -1.5830 N.am  1 <1>  -0.7300 
 12 C       -4.1920     0.2660     0.4170 C.3   1 <1>  -0.0600 
 13 C       -1.9270    -1.7630     1.7150 C.3   1 <1>  -0.2400 
 14 C       -1.2340     0.5210     2.5660 C.3   1 <1>  -0.2400 
 15 C        5.1090     1.5810    -1.5900 C.3   1 <1>   0.2840 
 16 C        5.5920     1.2060    -0.2010 C.ar  1 <1>  -0.1430 
 17 C        5.6320    -0.1260     0.1840 C.ar  1 <1>  -0.1500 
 18 C        5.9910     2.1860     0.6950 C.ar  1 <1>  -0.1500 
 19 C        6.0690    -0.4750     1.4500 C.ar  1 <1>  -0.1500 
 20 C        6.4280     1.8380     1.9620 C.ar  1 <1>  -0.1500 
 21 C        6.4680     0.5070     2.3400 C.ar  1 <1>  -0.1500 
 22 H        0.9030     2.2070    -2.5740 H     1 <1>   0.0800 
 23 H        0.9420     0.6000    -3.2850 H     1 <1>   0.0800 
 24 H       -0.1390    -0.7360     1.2510 H     1 <1>   0.0800 
 25 H        3.2210     1.5160    -0.6510 H     1 <1>   0.3700 
 26 H       -4.1380     0.6130     1.4310 H     1 <1>   0.0800 
 27 H       -4.4350    -0.7810     0.4030 H     1 <1>   0.0800 
 28 H       -4.9830     0.8000    -0.0800 H     1 <1>   0.0800 
 29 H       -2.9290    -1.5650     2.0430 H     1 <1>   0.0800 
 30 H       -1.4220    -2.2870     2.5060 H     1 <1>   0.0800 
 31 H       -1.9490    -2.4040     0.8510 H     1 <1>   0.0800 
 32 H       -2.2470     0.8030     2.7830 H     1 <1>   0.0800 
 33 H       -0.6640     1.4030     2.3350 H     1 <1>   0.0800 
 34 H       -0.8120     0.0710     3.4480 H     1 <1>   0.0800 
 35 H        5.4380     2.5710    -1.8530 H     1 <1>   0.0800 
 36 H        5.4910     0.8880    -2.3210 H     1 <1>   0.0800 
 37 H        5.3210    -0.8950    -0.5030 H     1 <1>   0.1500 
 38 H        5.9630     3.2240     0.4130 H     1 <1>   0.1500 
 39 H        6.1000    -1.5100     1.7430 H     1 <1>   0.1500 
 40 H        6.7380     2.6020     2.6540 H     1 <1>   0.1500 
 41 H        6.8090     0.2360     3.3240 H     1 <1>   0.1500 
@<TRIPOS>BOND
  1   1   2  1   
  2   1   3  1   
  3   2   4  2   
  4   2   5  1   
  5   3   6  1   
  6   3  22  1   
  7   3  23  1   
  8   4   7  1   
  9   5   8  1   
 10   5   9  1   
 11   6  10  2   
 12   6  11  am  
 13   7   8  2   
 14   8  12  1   
 15   9  13  1   
 16   9  14  1   
 17   9  24  1   
 18  11  15  1   
 19  11  25  1   
 20  12  26  1   
 21  12  27  1   
 22  12  28  1   
 23  13  29  1   
 24  13  30  1   
 25  13  31  1   
 26  14  32  1   
 27  14  33  1   
 28  14  34  1   
 29  15  16  1   
 30  15  35  1   
 31  15  36  1   
 32  16  17  ar  
 33  16  18  ar  
 34  17  19  ar  
 35  17  37  1   
 36  18  20  ar  
 37  18  38  1   
 38  19  21  ar  
 39  19  39  1   
 40  20  21  ar  
 41  20  40  1   
 42  21  41  1   
@<TRIPOS>SUBSTRUCTURE
  1 ****   1 GROUP 4 **** **** 0

# MOE 2024.06 (io_trps.svl 2023.06)
