@<TRIPOS>MOLECULE
NONAME
38 39 1 0 0 
SMALL
USER_CHARGES


@<TRIPOS>ATOM
  1 O        0.7080     2.6030    -1.8810 O.2   1 <1>  -0.5700 
  2 C        0.3680     2.8260    -0.7460 C.2   1 <1>   0.5690 
  3 N        1.1860     2.6540     0.3340 N.am  1 <1>  -0.5470 
  4 C       -1.0350     3.3500    -0.5020 C.3   1 <1>  -0.0990 
  5 C        2.5270     2.2470     0.3700 C.ar  1 <1>   0.1170 
  6 C       -2.0850     2.2330    -0.3480 C.3   1 <1>  -0.0800 
  7 C        2.9660     1.0050    -0.0980 C.ar  1 <1>  -0.1440 
  8 C        3.4530     3.1210     0.9280 C.ar  1 <1>  -0.1500 
  9 C       -3.4990     2.8410    -0.3290 C.3   1 <1>  -0.1600 
 10 C       -1.8520     1.3870     0.9190 C.3   1 <1>  -0.1600 
 11 C        4.3090     0.6750    -0.0090 C.ar  1 <1>  -0.1500 
 12 C        2.0120    -0.0150    -0.7080 C.3   1 <1>  -0.0970 
 13 C        4.7900     2.7830     1.0170 C.ar  1 <1>  -0.1500 
 14 C       -4.5780     1.7620    -0.1650 C.3   1 <1>  -0.1600 
 15 C       -2.9310     0.3090     1.0840 C.3   1 <1>  -0.1600 
 16 C        5.2200     1.5570     0.5460 C.ar  1 <1>  -0.1500 
 17 C       -4.3350     0.9240     1.0960 C.3   1 <1>  -0.1600 
 18 H        0.8010     2.9400     1.2310 H     1 <1>   0.3700 
 19 H       -1.2960     3.9610    -1.3470 H     1 <1>   0.0800 
 20 H       -1.0390     3.9830     0.3650 H     1 <1>   0.0800 
 21 H       -2.0110     1.5850    -1.2080 H     1 <1>   0.0800 
 22 H        3.1260     4.0780     1.2890 H     1 <1>   0.1500 
 23 H       -3.6770     3.3750    -1.2470 H     1 <1>   0.0800 
 24 H       -3.5800     3.5430     0.4830 H     1 <1>   0.0800 
 25 H       -1.8590     2.0240     1.7870 H     1 <1>   0.0800 
 26 H       -0.8940     0.9010     0.8700 H     1 <1>   0.0800 
 27 H        4.6580    -0.2750    -0.3740 H     1 <1>   0.1500 
 28 H        1.0830    -0.0340    -0.1720 H     1 <1>   0.0800 
 29 H        2.4360    -1.0020    -0.6770 H     1 <1>   0.0800 
 30 H        1.8170     0.2400    -1.7340 H     1 <1>   0.0800 
 31 H        5.4960     3.4720     1.4480 H     1 <1>   0.1500 
 32 H       -4.5710     1.1170    -1.0280 H     1 <1>   0.0800 
 33 H       -5.5470     2.2260    -0.1090 H     1 <1>   0.0800 
 34 H       -2.7670    -0.2290     2.0020 H     1 <1>   0.0800 
 35 H       -2.8580    -0.3950     0.2730 H     1 <1>   0.0800 
 36 H        6.2600     1.2880     0.6090 H     1 <1>   0.1500 
 37 H       -5.0720     0.1410     1.1550 H     1 <1>   0.0800 
 38 H       -4.4460     1.5480     1.9660 H     1 <1>   0.0800 
@<TRIPOS>BOND
  1   1   2  2   
  2   2   3  am  
  3   2   4  1   
  4   3   5  1   
  5   3  18  1   
  6   4   6  1   
  7   4  19  1   
  8   4  20  1   
  9   5   7  ar  
 10   5   8  ar  
 11   6   9  1   
 12   6  10  1   
 13   6  21  1   
 14   7  11  ar  
 15   7  12  1   
 16   8  13  ar  
 17   8  22  1   
 18   9  14  1   
 19   9  23  1   
 20   9  24  1   
 21  10  15  1   
 22  10  25  1   
 23  10  26  1   
 24  11  16  ar  
 25  11  27  1   
 26  12  28  1   
 27  12  29  1   
 28  12  30  1   
 29  13  16  ar  
 30  13  31  1   
 31  14  17  1   
 32  14  32  1   
 33  14  33  1   
 34  15  17  1   
 35  15  34  1   
 36  15  35  1   
 37  16  36  1   
 38  17  37  1   
 39  17  38  1   
@<TRIPOS>SUBSTRUCTURE
  1 ****   3 GROUP 4 **** **** 0

# MOE 2024.06 (io_trps.svl 2023.06)
