@<TRIPOS>MOLECULE
NONAME
44 45 1 0 0 
SMALL
USER_CHARGES


@<TRIPOS>ATOM
  1 O        0.9180    -0.4880     0.3960 O.3   1 <1>  -0.3630 
  2 C        0.5370    -1.7680     0.1280 C.ar  1 <1>   0.0830 
  3 C       -0.0410     0.5530     0.4340 C.3   1 <1>   0.0400 
  4 C        1.4560    -2.7830     0.3880 C.ar  1 <1>  -0.1440 
  5 C       -0.7110    -2.0920    -0.3980 C.ar  1 <1>  -0.1500 
  6 C        1.1230    -4.1030     0.1240 C.ar  1 <1>  -0.1500 
  7 C        2.8120    -2.4430     0.9600 C.3   1 <1>   0.4870 
  8 C       -1.0330    -3.4110    -0.6590 C.ar  1 <1>  -0.1500 
  9 C       -0.1180    -4.4150    -0.3990 C.ar  1 <1>  -0.1500 
 10 N        3.4750    -1.5720    -0.0350 N.4   1 <1>  -0.9060 
 11 C        4.7320    -0.9300     0.3920 C.3   1 <1>   0.4230 
 12 C        5.0720     0.1830    -0.6000 C.3   1 <1>  -0.1600 
 13 C        5.8670    -1.9560     0.4520 C.3   1 <1>  -0.1600 
 14 C        6.4110     0.8380    -0.2560 C.3   1 <1>   0.3430 
 15 C        7.2020    -1.2820     0.7780 C.3   1 <1>   0.3430 
 16 N        7.4870    -0.1940    -0.2060 N.4   1 <1>  -0.9590 
 17 C        8.7990     0.4630     0.0700 C.3   1 <1>   0.3430 
 18 C        9.9370    -0.4780    -0.3060 C.3   1 <1>  -0.2400 
 19 H        0.4400     1.4500     0.7820 H     1 <1>   0.0800 
 20 H       -0.8310     0.2800     1.1140 H     1 <1>   0.0800 
 21 H       -0.4320     0.7120    -0.5570 H     1 <1>   0.0800 
 22 H       -1.4460    -1.3390    -0.6150 H     1 <1>   0.1500 
 23 H        1.8140    -4.9060     0.3220 H     1 <1>   0.1500 
 24 H        3.3830    -3.3410     1.1300 H     1 <1>   0.0800 
 25 H        2.6810    -1.9210     1.8940 H     1 <1>   0.0800 
 26 H       -1.9990    -3.6590    -1.0660 H     1 <1>   0.1500 
 27 H       -0.3790    -5.4400    -0.6040 H     1 <1>   0.1500 
 28 H        2.7470    -0.8570    -0.2190 H     1 <1>   0.4500 
 29 H        3.5600    -2.0960    -0.9130 H     1 <1>   0.4500 
 30 H        4.5940    -0.4920     1.3700 H     1 <1>   0.0800 
 31 H        4.3090     0.9410    -0.5680 H     1 <1>   0.0800 
 32 H        5.1210    -0.2020    -1.6040 H     1 <1>   0.0800 
 33 H        5.9610    -2.4740    -0.4870 H     1 <1>   0.0800 
 34 H        5.6670    -2.6830     1.2190 H     1 <1>   0.0800 
 35 H        6.3390     1.3360     0.6990 H     1 <1>   0.0800 
 36 H        6.6490     1.5810    -1.0020 H     1 <1>   0.0800 
 37 H        7.9890    -2.0200     0.7500 H     1 <1>   0.0800 
 38 H        7.1700    -0.8700     1.7750 H     1 <1>   0.0800 
 39 H        7.5810    -0.6140    -1.1440 H     1 <1>   0.4500 
 40 H        8.8730     0.7380     1.1110 H     1 <1>   0.0800 
 41 H        8.8890     1.3620    -0.5210 H     1 <1>   0.0800 
 42 H        9.9610    -1.3490     0.3240 H     1 <1>   0.0800 
 43 H       10.8730     0.0370    -0.1750 H     1 <1>   0.0800 
 44 H        9.8700    -0.7750    -1.3380 H     1 <1>   0.0800 
@<TRIPOS>BOND
  1   1   2  1   
  2   1   3  1   
  3   2   4  ar  
  4   2   5  ar  
  5   3  19  1   
  6   3  20  1   
  7   3  21  1   
  8   4   6  ar  
  9   4   7  1   
 10   5   8  ar  
 11   5  22  1   
 12   6   9  ar  
 13   6  23  1   
 14   7  10  1   
 15   7  24  1   
 16   7  25  1   
 17   8   9  ar  
 18   8  26  1   
 19   9  27  1   
 20  10  11  1   
 21  10  28  1   
 22  10  29  1   
 23  11  12  1   
 24  11  13  1   
 25  11  30  1   
 26  12  14  1   
 27  12  31  1   
 28  12  32  1   
 29  13  15  1   
 30  13  33  1   
 31  13  34  1   
 32  14  16  1   
 33  14  35  1   
 34  14  36  1   
 35  15  16  1   
 36  15  37  1   
 37  15  38  1   
 38  16  17  1   
 39  16  39  1   
 40  17  18  1   
 41  17  40  1   
 42  17  41  1   
 43  18  42  1   
 44  18  43  1   
 45  18  44  1   
@<TRIPOS>SUBSTRUCTURE
  1 ****  10 GROUP 4 **** **** 0

# MOE 2024.06 (io_trps.svl 2023.06)
