@<TRIPOS>MOLECULE
NONAME
32 33 1 0 0 
SMALL
USER_CHARGES


@<TRIPOS>ATOM
  1 F       -0.8800     1.0550     1.1930 F     1 <1>  -0.3400 
  2 C       -1.9450     0.4180     0.7110 C.3   1 <1>   1.0200 
  3 F       -1.4920    -0.7390     0.2320 F     1 <1>  -0.3400 
  4 F       -2.6870     0.1120     1.7740 F     1 <1>  -0.3400 
  5 C       -2.7210     1.2700    -0.3630 C.3   1 <1>   0.5600 
  6 O       -3.8830     0.5950    -0.8070 O.3   1 <1>  -0.2170 
  7 O       -2.0000     1.5230    -1.5370 O.3   1 <1>  -0.6800 
  8 C       -3.2720     2.6010     0.1470 C.3   1 <1>  -0.0990 
  9 N       -4.9640     1.3450    -0.7850 N.2   1 <1>  -0.5130 
 10 C       -4.7050     2.4810    -0.2860 C.2   1 <1>   0.3750 
 11 C       -5.6070     3.5760    -0.1010 C.2   1 <1>  -0.1360 
 12 C       -6.9210     3.5990    -0.4260 C.2   1 <1>  -0.1780 
 13 C       -7.8810     4.6620    -0.2670 C.ar  1 <1>   0.0280 
 14 C       -9.2110     4.4520    -0.6310 C.ar  1 <1>  -0.1500 
 15 C       -7.5500     5.9190     0.2420 C.ar  1 <1>  -0.1500 
 16 C      -10.1630     5.4440    -0.4930 C.ar  1 <1>  -0.1500 
 17 C       -8.4970     6.9180     0.3830 C.ar  1 <1>  -0.1500 
 18 C       -9.8180     6.6850     0.0140 C.ar  1 <1>   0.0830 
 19 O      -10.8070     7.6030     0.1190 O.3   1 <1>  -0.3630 
 20 C      -10.5630     8.8970     0.6230 C.3   1 <1>   0.0400 
 21 H       -2.0230     0.7130    -2.0840 H     1 <1>   0.4000 
 22 H       -3.2200     2.6710     1.2180 H     1 <1>   0.0800 
 23 H       -2.7790     3.4430    -0.3040 H     1 <1>   0.0800 
 24 H       -5.1530     4.4410     0.3430 H     1 <1>   0.1500 
 25 H       -7.3360     2.7080    -0.8690 H     1 <1>   0.1500 
 26 H       -9.5070     3.4970    -1.0280 H     1 <1>   0.1500 
 27 H       -6.5390     6.1300     0.5330 H     1 <1>   0.1500 
 28 H      -11.1830     5.2630    -0.7780 H     1 <1>   0.1500 
 29 H       -8.1920     7.8670     0.7790 H     1 <1>   0.1500 
 30 H      -11.4900     9.4410     0.6110 H     1 <1>   0.0800 
 31 H       -9.8430     9.3880    -0.0080 H     1 <1>   0.0800 
 32 H      -10.2000     8.8160     1.6320 H     1 <1>   0.0800 
@<TRIPOS>BOND
  1   1   2  1   
  2   2   3  1   
  3   2   4  1   
  4   2   5  1   
  5   5   6  1   
  6   5   7  1   
  7   5   8  1   
  8   6   9  1   
  9   7  21  1   
 10   8  10  1   
 11   8  22  1   
 12   8  23  1   
 13   9  10  2   
 14  10  11  1   
 15  11  12  2   
 16  11  24  1   
 17  12  13  1   
 18  12  25  1   
 19  13  14  ar  
 20  13  15  ar  
 21  14  16  ar  
 22  14  26  1   
 23  15  17  ar  
 24  15  27  1   
 25  16  18  ar  
 26  16  28  1   
 27  17  18  ar  
 28  17  29  1   
 29  18  19  1   
 30  19  20  1   
 31  20  30  1   
 32  20  31  1   
 33  20  32  1   
@<TRIPOS>SUBSTRUCTURE
  1 ****  11 GROUP 4 **** **** 0

# MOE 2024.06 (io_trps.svl 2023.06)
