@<TRIPOS>MOLECULE
NONAME
40 41 1 0 0 
SMALL
USER_CHARGES


@<TRIPOS>ATOM
  1 BR      -0.4780     0.5400    -1.6430 Br    1 <1>  -0.1110 
  2 C       -1.9290    -0.4780    -0.8960 C.ar  1 <1>   0.1110 
  3 C       -2.5840    -1.3920    -1.6970 C.ar  1 <1>  -0.1500 
  4 C       -2.2790    -0.2700     0.4240 C.ar  1 <1>  -0.1500 
  5 C       -3.6300    -2.1200    -1.1560 C.ar  1 <1>  -0.1500 
  6 C       -3.3260    -1.0030     0.9560 C.ar  1 <1>  -0.1500 
  7 C       -4.0080    -1.9250     0.1690 C.ar  1 <1>  -0.1430 
  8 C       -5.1630    -2.7150     0.7560 C.3   1 <1>   0.4870 
  9 N       -6.4410    -2.1900     0.1970 N.4   1 <1>  -0.9590 
 10 C       -6.6750    -0.7700     0.5920 C.3   1 <1>   0.3430 
 11 C       -7.5890    -3.0710     0.5470 C.3   1 <1>   0.3430 
 12 C       -7.9120    -0.2370    -0.1300 C.3   1 <1>  -0.1600 
 13 C       -8.8430    -2.5870    -0.1770 C.3   1 <1>  -0.1600 
 14 C       -9.1550    -1.1090     0.1290 C.3   1 <1>  -0.0190 
 15 C      -10.3440    -0.6180    -0.6930 C.2   1 <1>   0.6590 
 16 O      -10.3320    -0.6650    -1.8950 O.2   1 <1>  -0.5700 
 17 O      -11.3700    -0.1440    -0.0030 O.3   1 <1>  -0.4300 
 18 C      -12.5260     0.3410    -0.6470 C.3   1 <1>   0.1200 
 19 C      -13.5040     0.8090     0.4260 C.3   1 <1>  -0.2400 
 20 H       -2.2750    -1.5280    -2.7190 H     1 <1>   0.1500 
 21 H       -1.7370     0.4480     1.0160 H     1 <1>   0.1500 
 22 H       -4.1340    -2.8400    -1.7800 H     1 <1>   0.1500 
 23 H       -3.5940    -0.8450     1.9880 H     1 <1>   0.1500 
 24 H       -5.1610    -2.6290     1.8300 H     1 <1>   0.0800 
 25 H       -5.0450    -3.7550     0.4970 H     1 <1>   0.0800 
 26 H       -6.3330    -2.1930    -0.8250 H     1 <1>   0.4500 
 27 H       -5.8220    -0.1640     0.3260 H     1 <1>   0.0800 
 28 H       -6.8190    -0.7030     1.6580 H     1 <1>   0.0800 
 29 H       -7.7570    -3.0500     1.6130 H     1 <1>   0.0800 
 30 H       -7.3800    -4.0880     0.2560 H     1 <1>   0.0800 
 31 H       -7.7090    -0.1880    -1.1870 H     1 <1>   0.0800 
 32 H       -8.1060     0.7680     0.2030 H     1 <1>   0.0800 
 33 H       -9.6790    -3.1950     0.1210 H     1 <1>   0.0800 
 34 H       -8.7130    -2.7240    -1.2380 H     1 <1>   0.0800 
 35 H       -9.4210    -1.0250     1.1690 H     1 <1>   0.0800 
 36 H      -12.9500    -0.4560    -1.2360 H     1 <1>   0.0800 
 37 H      -12.2430     1.1550    -1.2930 H     1 <1>   0.0800 
 38 H      -13.7730    -0.0110     1.0680 H     1 <1>   0.0800 
 39 H      -14.3980     1.1850    -0.0390 H     1 <1>   0.0800 
 40 H      -13.0660     1.5980     1.0110 H     1 <1>   0.0800 
@<TRIPOS>BOND
  1   1   2  1   
  2   2   3  ar  
  3   2   4  ar  
  4   3   5  ar  
  5   3  20  1   
  6   4   6  ar  
  7   4  21  1   
  8   5   7  ar  
  9   5  22  1   
 10   6   7  ar  
 11   6  23  1   
 12   7   8  1   
 13   8   9  1   
 14   8  24  1   
 15   8  25  1   
 16   9  10  1   
 17   9  11  1   
 18   9  26  1   
 19  10  12  1   
 20  10  27  1   
 21  10  28  1   
 22  11  13  1   
 23  11  29  1   
 24  11  30  1   
 25  12  14  1   
 26  12  31  1   
 27  12  32  1   
 28  13  14  1   
 29  13  33  1   
 30  13  34  1   
 31  14  15  1   
 32  14  35  1   
 33  15  16  2   
 34  15  17  1   
 35  17  18  1   
 36  18  19  1   
 37  18  36  1   
 38  18  37  1   
 39  19  38  1   
 40  19  39  1   
 41  19  40  1   
@<TRIPOS>SUBSTRUCTURE
  1 ****  10 GROUP 4 **** **** 0

# MOE 2024.06 (io_trps.svl 2023.06)
