@<TRIPOS>MOLECULE
NONAME
63 66 1 0 0 
SMALL
USER_CHARGES


@<TRIPOS>ATOM
  1 O       -0.4550     0.0550    -1.1200 O.2   1 <1>  -0.5700 
  2 C        0.4090    -0.6670    -0.6820 C.2   1 <1>   0.5690 
  3 N        1.5540    -0.1290    -0.1310 N.am  1 <1>  -0.6600 
  4 C        0.1810    -2.1750    -0.8020 C.3   1 <1>   0.1810 
  5 C        2.7350    -0.9250     0.3240 C.3   1 <1>   0.1400 
  6 C        1.6360     1.3340     0.1660 C.3   1 <1>   0.1400 
  7 O        0.4760    -2.8440     0.4160 O.3   1 <1>  -0.3620 
  8 C        4.0640    -0.2750    -0.1130 C.3   1 <1>   0.3430 
  9 C        2.9750     1.9300    -0.2990 C.3   1 <1>   0.3430 
 10 C        0.5510    -4.1990     0.4660 C.ar  1 <1>   0.0820 
 11 N        4.1670     1.1860     0.2610 N.4   1 <1>  -0.9590 
 12 C        1.0510    -4.7500     1.6350 C.ar  1 <1>  -0.1500 
 13 C        0.1650    -5.0360    -0.5780 C.ar  1 <1>  -0.1500 
 14 C        5.4730     1.7990    -0.1490 C.3   1 <1>   0.4230 
 15 C        1.1830    -6.1210     1.7590 C.ar  1 <1>  -0.1500 
 16 C        0.2980    -6.4090    -0.4520 C.ar  1 <1>  -0.1500 
 17 C        6.6500     1.0140     0.4650 C.3   1 <1>  -0.1600 
 18 C        5.5350     3.2740     0.2970 C.3   1 <1>  -0.1600 
 19 C        0.8120    -6.9590     0.7190 C.ar  1 <1>   0.0820 
 20 C        8.0080     1.6630     0.1530 C.3   1 <1>  -0.1600 
 21 C        6.8950     3.9190    -0.0150 C.3   1 <1>  -0.1600 
 22 O        0.9800    -8.2910     0.9210 O.3   1 <1>  -0.3630 
 23 C        8.0570     3.1300     0.6030 C.3   1 <1>   0.0630 
 24 C        0.6090    -9.2320    -0.0620 C.3   1 <1>   0.0400 
 25 C        9.4010     3.7670     0.2620 C.ar  1 <1>  -0.1440 
 26 C       10.2140     4.2440     1.2810 C.ar  1 <1>  -0.1500 
 27 C        9.8360     3.8850    -1.0520 C.ar  1 <1>  -0.1500 
 28 C       11.4370     4.8260     0.9940 C.ar  1 <1>  -0.1500 
 29 C       11.0590     4.4660    -1.3400 C.ar  1 <1>  -0.1500 
 30 C       11.8600     4.9380    -0.3170 C.ar  1 <1>  -0.1500 
 31 H        0.8140    -2.5670    -1.5750 H     1 <1>   0.0800 
 32 H       -0.8490    -2.3640    -1.0440 H     1 <1>   0.0800 
 33 H        2.7030    -1.9180    -0.0870 H     1 <1>   0.0800 
 34 H        2.7070    -1.0160     1.3960 H     1 <1>   0.0800 
 35 H        1.5180     1.4860     1.2250 H     1 <1>   0.0800 
 36 H        0.8370     1.8660    -0.3230 H     1 <1>   0.0800 
 37 H        4.1560    -0.3790    -1.1820 H     1 <1>   0.0800 
 38 H        4.8680    -0.8310     0.3390 H     1 <1>   0.0800 
 39 H        3.0030     2.9610     0.0080 H     1 <1>   0.0800 
 40 H        3.0030     1.9050    -1.3760 H     1 <1>   0.0800 
 41 H        4.1140     1.2480     1.2850 H     1 <1>   0.4500 
 42 H        1.3330    -4.1060     2.4470 H     1 <1>   0.1500 
 43 H       -0.2440    -4.6450    -1.4900 H     1 <1>   0.1500 
 44 H        5.5640     1.7640    -1.2240 H     1 <1>   0.0800 
 45 H        1.5720    -6.5530     2.6630 H     1 <1>   0.1500 
 46 H       -0.0050    -7.0330    -1.2710 H     1 <1>   0.1500 
 47 H        6.6880     0.0150     0.0740 H     1 <1>   0.0800 
 48 H        6.5340     0.9630     1.5340 H     1 <1>   0.0800 
 49 H        5.3610     3.3410     1.3570 H     1 <1>   0.0800 
 50 H        4.7910     3.8580    -0.2120 H     1 <1>   0.0800 
 51 H        8.1970     1.6030    -0.9050 H     1 <1>   0.0800 
 52 H        8.7940     1.1190     0.6510 H     1 <1>   0.0800 
 53 H        6.9150     4.9260     0.3670 H     1 <1>   0.0800 
 54 H        7.0240     3.9790    -1.0820 H     1 <1>   0.0800 
 55 H        7.9360     3.1500     1.6740 H     1 <1>   0.0800 
 56 H        0.8240   -10.2140     0.3190 H     1 <1>   0.0800 
 57 H        1.1850    -9.0530    -0.9520 H     1 <1>   0.0800 
 58 H       -0.4450    -9.1380    -0.2560 H     1 <1>   0.0800 
 59 H        9.9050     4.1680     2.3080 H     1 <1>   0.1500 
 60 H        9.2320     3.5260    -1.8650 H     1 <1>   0.1500 
 61 H       12.0580     5.1920     1.7920 H     1 <1>   0.1500 
 62 H       11.3860     4.5530    -2.3620 H     1 <1>   0.1500 
 63 H       12.8110     5.3900    -0.5410 H     1 <1>   0.1500 
@<TRIPOS>BOND
  1   1   2  2   
  2   2   3  am  
  3   2   4  1   
  4   3   5  1   
  5   3   6  1   
  6   4   7  1   
  7   4  31  1   
  8   4  32  1   
  9   5   8  1   
 10   5  33  1   
 11   5  34  1   
 12   6   9  1   
 13   6  35  1   
 14   6  36  1   
 15   7  10  1   
 16   8  11  1   
 17   8  37  1   
 18   8  38  1   
 19   9  11  1   
 20   9  39  1   
 21   9  40  1   
 22  10  12  ar  
 23  10  13  ar  
 24  11  14  1   
 25  11  41  1   
 26  12  15  ar  
 27  12  42  1   
 28  13  16  ar  
 29  13  43  1   
 30  14  17  1   
 31  14  18  1   
 32  14  44  1   
 33  15  19  ar  
 34  15  45  1   
 35  16  19  ar  
 36  16  46  1   
 37  17  20  1   
 38  17  47  1   
 39  17  48  1   
 40  18  21  1   
 41  18  49  1   
 42  18  50  1   
 43  19  22  1   
 44  20  23  1   
 45  20  51  1   
 46  20  52  1   
 47  21  23  1   
 48  21  53  1   
 49  21  54  1   
 50  22  24  1   
 51  23  25  1   
 52  23  55  1   
 53  24  56  1   
 54  24  57  1   
 55  24  58  1   
 56  25  26  ar  
 57  25  27  ar  
 58  26  28  ar  
 59  26  59  1   
 60  27  29  ar  
 61  27  60  1   
 62  28  30  ar  
 63  28  61  1   
 64  29  30  ar  
 65  29  62  1   
 66  30  63  1   
@<TRIPOS>SUBSTRUCTURE
  1 ****   8 GROUP 4 **** **** 0

# MOE 2024.06 (io_trps.svl 2023.06)
