@<TRIPOS>MOLECULE
NONAME
46 47 1 0 0 
SMALL
USER_CHARGES


@<TRIPOS>ATOM
  1 F        0.3500    -0.0950    -1.0570 F     1 <1>  -0.3400 
  2 C        1.2480     0.8790    -0.9230 C.3   1 <1>   1.0200 
  3 F        2.0420     0.7810    -1.9850 F     1 <1>  -0.3400 
  4 F        2.0060     0.5370     0.1170 F     1 <1>  -0.3400 
  5 C        0.5970     2.3040    -0.7620 C.3   1 <1>   0.6610 
  6 N       -0.2120     2.7840    -1.9070 N.am  1 <1>  -0.7300 
  7 N        1.5290     3.4260    -0.4110 N.am  1 <1>  -0.7300 
  8 C       -0.5030     2.1710     0.2950 C.2   1 <1>   0.5690 
  9 C       -1.4890     2.9630    -1.5350 C.2   1 <1>   0.6900 
 10 C        2.3510     4.0760    -1.2670 C.2   1 <1>   0.5690 
 11 O       -0.3260     1.8500     1.4470 O.2   1 <1>  -0.5700 
 12 N       -1.6930     2.5580    -0.2470 N.am  1 <1>  -0.4200 
 13 O       -2.3280     3.4630    -2.2460 O.2   1 <1>  -0.5700 
 14 O        2.3180     3.8590    -2.4510 O.2   1 <1>  -0.5700 
 15 C        3.3340     5.1060    -0.7170 C.3   1 <1>  -0.0190 
 16 C       -2.9750     2.6830     0.4830 C.3   1 <1>   0.1400 
 17 C        4.3640     4.4600     0.2330 C.3   1 <1>  -0.1600 
 18 C        2.6070     6.2760    -0.0230 C.3   1 <1>  -0.1600 
 19 C       -2.9750     3.8890     1.4420 C.3   1 <1>  -0.0800 
 20 C        5.3530     5.4990     0.7780 C.3   1 <1>  -0.1600 
 21 C        3.6010     7.3100     0.5220 C.3   1 <1>  -0.1600 
 22 C       -4.3130     3.9590     2.1880 C.3   1 <1>  -0.2400 
 23 C       -2.7270     5.2200     0.7140 C.3   1 <1>  -0.2400 
 24 C        4.6190     6.6580     1.4660 C.3   1 <1>  -0.1600 
 25 H        0.2560     3.3490    -2.6230 H     1 <1>   0.3700 
 26 H        1.6300     3.5830     0.5940 H     1 <1>   0.3700 
 27 H        3.8730     5.5080    -1.5580 H     1 <1>   0.0800 
 28 H       -3.1410     1.7790     1.0430 H     1 <1>   0.0800 
 29 H       -3.7780     2.7860    -0.2280 H     1 <1>   0.0800 
 30 H        4.9080     3.6950    -0.2950 H     1 <1>   0.0800 
 31 H        3.8600     3.9930     1.0610 H     1 <1>   0.0800 
 32 H        2.0080     5.9060     0.7910 H     1 <1>   0.0800 
 33 H        1.9470     6.7540    -0.7270 H     1 <1>   0.0800 
 34 H       -2.1990     3.7440     2.1760 H     1 <1>   0.0800 
 35 H        5.9470     5.8870    -0.0330 H     1 <1>   0.0800 
 36 H        6.0220     5.0300     1.4780 H     1 <1>   0.0800 
 37 H        3.0670     8.0830     1.0480 H     1 <1>   0.0800 
 38 H        4.1230     7.7720    -0.2990 H     1 <1>   0.0800 
 39 H       -5.1250     4.1120     1.4990 H     1 <1>   0.0800 
 40 H       -4.3060     4.7720     2.8930 H     1 <1>   0.0800 
 41 H       -4.4880     3.0460     2.7310 H     1 <1>   0.0800 
 42 H       -3.4530     5.3650    -0.0670 H     1 <1>   0.0800 
 43 H       -1.7460     5.2420     0.2750 H     1 <1>   0.0800 
 44 H       -2.7980     6.0430     1.4030 H     1 <1>   0.0800 
 45 H        5.3350     7.3950     1.7880 H     1 <1>   0.0800 
 46 H        4.1120     6.2900     2.3420 H     1 <1>   0.0800 
@<TRIPOS>BOND
  1   1   2  1   
  2   2   3  1   
  3   2   4  1   
  4   2   5  1   
  5   5   6  1   
  6   5   7  1   
  7   5   8  1   
  8   6   9  am  
  9   6  25  1   
 10   7  10  am  
 11   7  26  1   
 12   8  11  2   
 13   8  12  am  
 14   9  12  am  
 15   9  13  2   
 16  10  14  2   
 17  10  15  1   
 18  12  16  1   
 19  15  17  1   
 20  15  18  1   
 21  15  27  1   
 22  16  19  1   
 23  16  28  1   
 24  16  29  1   
 25  17  20  1   
 26  17  30  1   
 27  17  31  1   
 28  18  21  1   
 29  18  32  1   
 30  18  33  1   
 31  19  22  1   
 32  19  23  1   
 33  19  34  1   
 34  20  24  1   
 35  20  35  1   
 36  20  36  1   
 37  21  24  1   
 38  21  37  1   
 39  21  38  1   
 40  22  39  1   
 41  22  40  1   
 42  22  41  1   
 43  23  42  1   
 44  23  43  1   
 45  23  44  1   
 46  24  45  1   
 47  24  46  1   
@<TRIPOS>SUBSTRUCTURE
  1 ****   7 GROUP 4 **** **** 0

# MOE 2024.06 (io_trps.svl 2023.06)
