@<TRIPOS>MOLECULE
NONAME
49 51 1 0 0 
SMALL
USER_CHARGES


@<TRIPOS>ATOM
  1 S        0.0920    -1.2130     0.9380 S.o2  1 <1>   1.4470 
  2 O        0.1800    -2.6310     0.6620 O.2   1 <1>  -0.6500 
  3 O        0.3550    -0.7320     2.2770 O.2   1 <1>  -0.6500 
  4 N        1.2160    -0.4520    -0.0810 N.am  1 <1>  -0.8490 
  5 C       -1.4980    -0.5790     0.3370 C.ar  1 <1>  -0.0090 
  6 C        2.4880    -1.1820    -0.1350 C.3   1 <1>   0.1960 
  7 C        1.3280     1.0050     0.1170 C.3   1 <1>   0.1960 
  8 C       -1.8800    -0.7540    -0.9880 C.ar  1 <1>  -0.1500 
  9 C       -2.3700     0.1020     1.1780 C.ar  1 <1>  -0.1500 
 10 C        3.5660    -0.2830    -0.7340 C.3   1 <1>  -0.1600 
 11 C        2.5840     1.3680     0.9120 C.3   1 <1>  -0.1600 
 12 C       -3.0850    -0.2630    -1.4590 C.ar  1 <1>  -0.1500 
 13 C       -3.5770     0.5960     0.7130 C.ar  1 <1>  -0.1500 
 14 C        3.9130     0.8850     0.2400 C.3   1 <1>   0.2040 
 15 C       -3.9400     0.4180    -0.6100 C.ar  1 <1>  -0.1440 
 16 C        4.6020     2.0740    -0.4820 C.ar  1 <1>  -0.1440 
 17 C        4.9070     0.3980     1.3290 C.2   1 <1>   0.6590 
 18 C       -5.2630     0.9560    -1.1230 C.3   1 <1>  -0.0960 
 19 C        4.9470     3.1950     0.2700 C.ar  1 <1>  -0.1500 
 20 C        4.9280     2.0840    -1.8370 C.ar  1 <1>  -0.1500 
 21 O        4.8470     0.7660     2.4780 O.2   1 <1>  -0.5700 
 22 O        5.8670    -0.4400     0.9400 O.3   1 <1>  -0.4300 
 23 C        5.5650     4.2900    -0.3060 C.ar  1 <1>  -0.1500 
 24 C        5.5460     3.1790    -2.4170 C.ar  1 <1>  -0.1500 
 25 C        6.8560    -0.9110     1.8330 C.3   1 <1>   0.0400 
 26 C        5.8630     4.2860    -1.6540 C.ar  1 <1>  -0.1500 
 27 H        2.3610    -2.0640    -0.7410 H     1 <1>   0.0800 
 28 H        2.7800    -1.4960     0.8560 H     1 <1>   0.0800 
 29 H        0.4540     1.3890     0.6180 H     1 <1>   0.0800 
 30 H        1.3780     1.4810    -0.8480 H     1 <1>   0.0800 
 31 H       -1.2220    -1.2820    -1.6570 H     1 <1>   0.1500 
 32 H       -2.1020     0.2480     2.2110 H     1 <1>   0.1500 
 33 H        3.1650     0.0870    -1.6600 H     1 <1>   0.0800 
 34 H        4.4350    -0.8640    -0.9790 H     1 <1>   0.0800 
 35 H        2.4680     0.9240     1.8850 H     1 <1>   0.0800 
 36 H        2.5910     2.4300     1.0660 H     1 <1>   0.0800 
 37 H       -3.3540    -0.4150    -2.4900 H     1 <1>   0.1500 
 38 H       -4.2330     1.1180     1.3880 H     1 <1>   0.1500 
 39 H       -6.0280     0.2090    -1.0080 H     1 <1>   0.0800 
 40 H       -5.1860     1.2170    -2.1630 H     1 <1>   0.0800 
 41 H       -5.5510     1.8340    -0.5740 H     1 <1>   0.0800 
 42 H        4.7410     3.2280     1.3270 H     1 <1>   0.1500 
 43 H        4.7250     1.2500    -2.4810 H     1 <1>   0.1500 
 44 H        5.8170     5.1450     0.2980 H     1 <1>   0.1500 
 45 H        5.7850     3.1690    -3.4660 H     1 <1>   0.1500 
 46 H        6.3760    -1.4420     2.6370 H     1 <1>   0.0800 
 47 H        7.4040    -0.0680     2.2190 H     1 <1>   0.0800 
 48 H        7.5170    -1.5680     1.2960 H     1 <1>   0.0800 
 49 H        6.3420     5.1370    -2.1060 H     1 <1>   0.1500 
@<TRIPOS>BOND
  1   1   2  2   
  2   1   3  2   
  3   1   4  am  
  4   1   5  1   
  5   4   6  1   
  6   4   7  1   
  7   5   8  ar  
  8   5   9  ar  
  9   6  10  1   
 10   6  27  1   
 11   6  28  1   
 12   7  11  1   
 13   7  29  1   
 14   7  30  1   
 15   8  12  ar  
 16   8  31  1   
 17   9  13  ar  
 18   9  32  1   
 19  10  14  1   
 20  10  33  1   
 21  10  34  1   
 22  11  14  1   
 23  11  35  1   
 24  11  36  1   
 25  12  15  ar  
 26  12  37  1   
 27  13  15  ar  
 28  13  38  1   
 29  14  16  1   
 30  14  17  1   
 31  15  18  1   
 32  16  19  ar  
 33  16  20  ar  
 34  17  21  2   
 35  17  22  1   
 36  18  39  1   
 37  18  40  1   
 38  18  41  1   
 39  19  23  ar  
 40  19  42  1   
 41  20  24  ar  
 42  20  43  1   
 43  22  25  1   
 44  23  26  ar  
 45  23  44  1   
 46  24  26  ar  
 47  24  45  1   
 48  25  46  1   
 49  25  47  1   
 50  25  48  1   
 51  26  49  1   
@<TRIPOS>SUBSTRUCTURE
  1 ****   7 GROUP 4 **** **** 0

# MOE 2024.06 (io_trps.svl 2023.06)
