@<TRIPOS>MOLECULE
NONAME
43 44 1 0 0 
SMALL
USER_CHARGES


@<TRIPOS>ATOM
  1 S       -0.0350     0.1750     0.5140 S.o2  1 <1>   1.3330 
  2 O        0.1420     0.1950     1.9470 O.2   1 <1>  -0.6500 
  3 O       -1.1480     0.8740    -0.0850 O.2   1 <1>  -0.6500 
  4 N        1.3930     0.7500    -0.1950 N.am  1 <1>  -0.8490 
  5 C       -0.1040    -1.5140    -0.0440 C.3   1 <1>  -0.1350 
  6 C        2.5960     0.3150     0.5360 C.3   1 <1>   0.1960 
  7 C        1.3690     2.2130    -0.3080 C.3   1 <1>   0.1960 
  8 C        3.8650     0.7080    -0.2370 C.3   1 <1>  -0.0190 
  9 C        2.5960     2.7120    -1.0810 C.3   1 <1>  -0.1600 
 10 C        5.1170     0.2070     0.4690 C.2   1 <1>   0.5690 
 11 C        3.9060     2.2330    -0.4420 C.3   1 <1>  -0.1600 
 12 O        5.0800    -0.0340     1.6500 O.2   1 <1>  -0.5700 
 13 N        6.2470     0.0520    -0.2820 N.am  1 <1>  -0.5470 
 14 C        7.5140    -0.3620     0.1470 C.ar  1 <1>   0.1170 
 15 C        7.8060    -1.6910     0.4690 C.ar  1 <1>  -0.1440 
 16 C        8.5230     0.5900     0.2230 C.ar  1 <1>  -0.1500 
 17 C        9.0940    -2.0300     0.8550 C.ar  1 <1>  -0.1500 
 18 C        6.7560    -2.7970     0.4070 C.3   1 <1>  -0.0170 
 19 C        9.8030     0.2430     0.6090 C.ar  1 <1>  -0.1500 
 20 C       10.0900    -1.0720     0.9250 C.ar  1 <1>  -0.1500 
 21 C        6.5980    -3.3220    -1.0220 C.3   1 <1>  -0.2400 
 22 H       -1.0030    -1.9780     0.3120 H     1 <1>   0.0800 
 23 H        0.7360    -2.0680     0.3250 H     1 <1>   0.0800 
 24 H       -0.1010    -1.5460    -1.1150 H     1 <1>   0.0800 
 25 H        2.5830    -0.7540     0.6620 H     1 <1>   0.0800 
 26 H        2.6120     0.7610     1.5180 H     1 <1>   0.0800 
 27 H        1.3430     2.6550     0.6760 H     1 <1>   0.0800 
 28 H        0.4830     2.5260    -0.8380 H     1 <1>   0.0800 
 29 H        3.8160     0.2250    -1.1960 H     1 <1>   0.0800 
 30 H        2.5800     3.7870    -1.1120 H     1 <1>   0.0800 
 31 H        2.5300     2.3550    -2.0940 H     1 <1>   0.0800 
 32 H        4.7380     2.5060    -1.0670 H     1 <1>   0.0800 
 33 H        4.0340     2.7150     0.5130 H     1 <1>   0.0800 
 34 H        6.1980     0.3520    -1.2540 H     1 <1>   0.3700 
 35 H        8.3020     1.6140    -0.0170 H     1 <1>   0.1500 
 36 H        9.3320    -3.0490     1.1040 H     1 <1>   0.1500 
 37 H        5.8120    -2.4370     0.7730 H     1 <1>   0.0800 
 38 H        7.0480    -3.6080     1.0510 H     1 <1>   0.0800 
 39 H       10.5740     0.9910     0.6670 H     1 <1>   0.1500 
 40 H       11.0850    -1.3500     1.2280 H     1 <1>   0.1500 
 41 H        6.2750    -2.5330    -1.6760 H     1 <1>   0.0800 
 42 H        5.8710    -4.1140    -1.0460 H     1 <1>   0.0800 
 43 H        7.5380    -3.7040    -1.3800 H     1 <1>   0.0800 
@<TRIPOS>BOND
  1   1   2  2   
  2   1   3  2   
  3   1   4  am  
  4   1   5  1   
  5   4   6  1   
  6   4   7  1   
  7   5  22  1   
  8   5  23  1   
  9   5  24  1   
 10   6   8  1   
 11   6  25  1   
 12   6  26  1   
 13   7   9  1   
 14   7  27  1   
 15   7  28  1   
 16   8  10  1   
 17   8  11  1   
 18   8  29  1   
 19   9  11  1   
 20   9  30  1   
 21   9  31  1   
 22  10  12  2   
 23  10  13  am  
 24  11  32  1   
 25  11  33  1   
 26  13  14  1   
 27  13  34  1   
 28  14  15  ar  
 29  14  16  ar  
 30  15  17  ar  
 31  15  18  1   
 32  16  19  ar  
 33  16  35  1   
 34  17  20  ar  
 35  17  36  1   
 36  18  21  1   
 37  18  37  1   
 38  18  38  1   
 39  19  20  ar  
 40  19  39  1   
 41  20  40  1   
 42  21  41  1   
 43  21  42  1   
 44  21  43  1   
@<TRIPOS>SUBSTRUCTURE
  1 ****  10 GROUP 4 **** **** 0

# MOE 2024.06 (io_trps.svl 2023.06)
