@<TRIPOS>MOLECULE
NONAME
53 57 1 0 0 
SMALL
USER_CHARGES


@<TRIPOS>ATOM
  1 O        0.1760     1.0050     0.3700 O.2   1 <1>  -0.5700 
  2 C       -0.3970     1.9400     0.8630 C.2   1 <1>   0.5690 
  3 N        0.1500     3.0740     1.4070 N.am  1 <1>  -0.4200 
  4 C       -1.8720     2.0470     1.0810 C.3   1 <1>  -0.0190 
  5 C       -0.8270     4.0050     1.6630 C.2   1 <1>   0.5690 
  6 C        1.5900     3.3510     1.4910 C.3   1 <1>   0.2840 
  7 C       -3.2310     1.5410     0.6140 C.3   1 <1>   0.4180 
  8 C       -2.0520     3.5560     0.9210 C.3   1 <1>  -0.0190 
  9 O       -0.7230     5.0180     2.3030 O.2   1 <1>  -0.5700 
 10 C        2.0210     4.0780     0.2290 C.ar  1 <1>  -0.1440 
 11 O       -3.9640     2.3940     1.4550 O.3   1 <1>  -0.5600 
 12 C       -3.7270     2.1180    -0.7040 C.2   1 <1>  -0.2880 
 13 C       -3.5670     0.0620     0.8820 C.3   1 <1>   0.1400 
 14 C       -3.5910     3.6500     0.9650 C.3   1 <1>   0.3380 
 15 C        2.4130     3.3600    -0.8910 C.ar  1 <1>  -0.1500 
 16 C        2.0120     5.4640     0.1820 C.ar  1 <1>  -0.1500 
 17 C       -4.0080     3.3980    -0.4710 C.2   1 <1>  -0.2880 
 18 N       -5.0340    -0.1810     0.8140 N.am  1 <1>  -0.7300 
 19 C        2.8010     4.0220    -2.0430 C.ar  1 <1>  -0.1500 
 20 C        2.3990     6.1260    -0.9700 C.ar  1 <1>  -0.1500 
 21 C       -5.6460    -1.1860     0.1210 C.2   1 <1>   0.5440 
 22 C        2.7950     5.4050    -2.0830 C.ar  1 <1>  -0.1500 
 23 O       -4.9450    -2.0440    -0.3800 O.2   1 <1>  -0.5700 
 24 C       -7.0920    -1.2310    -0.0080 C.ar  1 <1>   0.0860 
 25 C       -7.8820    -0.0810     0.0810 C.ar  1 <1>  -0.1500 
 26 C       -7.7520    -2.4400    -0.2330 C.ar  1 <1>  -0.1500 
 27 C       -9.2590    -0.1430    -0.0340 C.ar  1 <1>  -0.1500 
 28 C       -9.1280    -2.5100    -0.3500 C.ar  1 <1>  -0.1500 
 29 C       -9.8950    -1.3540    -0.2480 C.ar  1 <1>   0.0820 
 30 O      -11.2440    -1.3320    -0.3480 O.3   1 <1>  -0.3620 
 31 C      -11.9900    -2.5060    -0.5750 C.3   1 <1>   0.0400 
 32 H       -1.9090     1.8050     2.1340 H     1 <1>   0.0800 
 33 H        2.1310     2.4250     1.5900 H     1 <1>   0.0800 
 34 H        1.7890     3.9570     2.3580 H     1 <1>   0.0800 
 35 H       -1.7850     3.8530    -0.0810 H     1 <1>   0.0800 
 36 H       -3.8100     1.4990    -1.5810 H     1 <1>   0.1500 
 37 H       -3.2120    -0.2190     1.8570 H     1 <1>   0.0800 
 38 H       -3.0580    -0.5490     0.1570 H     1 <1>   0.0800 
 39 H       -4.0620     4.4590     1.4970 H     1 <1>   0.0800 
 40 H        2.4140     2.2830    -0.8730 H     1 <1>   0.1500 
 41 H        1.7000     6.0340     1.0420 H     1 <1>   0.1500 
 42 H       -4.3990     4.1850    -1.0930 H     1 <1>   0.1500 
 43 H       -5.5930     0.5690     1.2310 H     1 <1>   0.3700 
 44 H        3.1060     3.4600    -2.9090 H     1 <1>   0.1500 
 45 H        2.3920     7.2010    -1.0000 H     1 <1>   0.1500 
 46 H        3.0970     5.9200    -2.9780 H     1 <1>   0.1500 
 47 H       -7.4170     0.8760     0.2340 H     1 <1>   0.1500 
 48 H       -7.1660    -3.3400    -0.3150 H     1 <1>   0.1500 
 49 H       -9.8540     0.7500     0.0380 H     1 <1>   0.1500 
 50 H       -9.5840    -3.4670    -0.5200 H     1 <1>   0.1500 
 51 H      -13.0300    -2.2380    -0.6180 H     1 <1>   0.0800 
 52 H      -11.8220    -3.1890     0.2390 H     1 <1>   0.0800 
 53 H      -11.6850    -2.9380    -1.5110 H     1 <1>   0.0800 
@<TRIPOS>BOND
  1   1   2  2   
  2   2   3  am  
  3   2   4  1   
  4   3   5  am  
  5   3   6  1   
  6   4   7  1   
  7   4   8  1   
  8   4  32  1   
  9   5   8  1   
 10   5   9  2   
 11   6  10  1   
 12   6  33  1   
 13   6  34  1   
 14   7  11  1   
 15   7  12  1   
 16   7  13  1   
 17   8  14  1   
 18   8  35  1   
 19  10  15  ar  
 20  10  16  ar  
 21  11  14  1   
 22  12  17  2   
 23  12  36  1   
 24  13  18  1   
 25  13  37  1   
 26  13  38  1   
 27  14  17  1   
 28  14  39  1   
 29  15  19  ar  
 30  15  40  1   
 31  16  20  ar  
 32  16  41  1   
 33  17  42  1   
 34  18  21  am  
 35  18  43  1   
 36  19  22  ar  
 37  19  44  1   
 38  20  22  ar  
 39  20  45  1   
 40  21  23  2   
 41  21  24  1   
 42  22  46  1   
 43  24  25  ar  
 44  24  26  ar  
 45  25  27  ar  
 46  25  47  1   
 47  26  28  ar  
 48  26  48  1   
 49  27  29  ar  
 50  27  49  1   
 51  28  29  ar  
 52  28  50  1   
 53  29  30  1   
 54  30  31  1   
 55  31  51  1   
 56  31  52  1   
 57  31  53  1   
@<TRIPOS>SUBSTRUCTURE
  1 ****   7 GROUP 4 **** **** 0

# MOE 2024.06 (io_trps.svl 2023.06)
