@<TRIPOS>MOLECULE
NONAME
51 52 1 0 0 
SMALL
USER_CHARGES


@<TRIPOS>ATOM
  1 O       -1.4090    -2.7510     1.8260 O.2   1 <1>  -0.5700 
  2 C       -0.8560    -3.4580     1.0060 C.2   1 <1>   0.5440 
  3 N       -1.6480    -4.2320     0.2000 N.am  1 <1>  -0.7300 
  4 C        0.5900    -3.4600     0.8680 C.ar  1 <1>   0.0860 
  5 C       -3.1120    -4.2950     0.3230 C.3   1 <1>   0.2200 
  6 C        1.2900    -4.5690     0.3810 C.ar  1 <1>  -0.1500 
  7 C        1.3430    -2.3390     1.2210 C.ar  1 <1>  -0.1500 
  8 C       -3.6160    -5.6470    -0.1670 C.3   1 <1>  -0.1600 
  9 C       -3.7320    -3.1810    -0.5140 C.3   1 <1>  -0.1600 
 10 C        2.6660    -4.5550     0.2390 C.ar  1 <1>  -0.1500 
 11 C        2.7180    -2.3180     1.0820 C.ar  1 <1>  -0.1500 
 12 C       -5.1470    -5.7440    -0.0930 C.3   1 <1>   0.5030 
 13 C       -5.2630    -3.1980    -0.4430 C.3   1 <1>   0.5030 
 14 C        3.3930    -3.4210     0.5890 C.ar  1 <1>   0.0830 
 15 N       -5.7930    -4.5540    -0.6750 N.4   1 <1>  -0.9060 
 16 C       -5.6230    -6.9230    -0.9390 C.3   1 <1>  -0.2400 
 17 C       -5.6420    -5.9580     1.3400 C.3   1 <1>  -0.2400 
 18 C       -5.8340    -2.3370    -1.5680 C.3   1 <1>  -0.2400 
 19 C       -5.7860    -2.6490     0.8870 C.3   1 <1>  -0.2400 
 20 O        4.7370    -3.3210     0.4810 O.3   1 <1>  -0.3620 
 21 C        5.5290    -4.3870     0.0120 C.3   1 <1>   0.1200 
 22 C        6.9870    -3.9350     0.0290 C.3   1 <1>  -0.2400 
 23 H       -1.2190    -4.7100    -0.5940 H     1 <1>   0.3700 
 24 H       -3.3690    -4.1630     1.3620 H     1 <1>   0.0800 
 25 H        0.7530    -5.4610     0.1180 H     1 <1>   0.1500 
 26 H        0.8380    -1.4720     1.6110 H     1 <1>   0.1500 
 27 H       -3.1800    -6.4270     0.4320 H     1 <1>   0.0800 
 28 H       -3.2940    -5.7960    -1.1830 H     1 <1>   0.0800 
 29 H       -3.4110    -3.2860    -1.5350 H     1 <1>   0.0800 
 30 H       -3.3730    -2.2310    -0.1570 H     1 <1>   0.0800 
 31 H        3.1580    -5.4310    -0.1400 H     1 <1>   0.1500 
 32 H        3.2810    -1.4440     1.3580 H     1 <1>   0.1500 
 33 H       -6.7750    -4.5580    -0.3920 H     1 <1>   0.4500 
 34 H       -5.7890    -4.6910    -1.6870 H     1 <1>   0.4500 
 35 H       -5.3280    -6.8150    -1.9670 H     1 <1>   0.0800 
 36 H       -6.6930    -7.0310    -0.8900 H     1 <1>   0.0800 
 37 H       -5.1880    -7.8370    -0.5720 H     1 <1>   0.0800 
 38 H       -5.2390    -5.2410     2.0270 H     1 <1>   0.0800 
 39 H       -5.3240    -6.9240     1.6910 H     1 <1>   0.0800 
 40 H       -6.7160    -5.9330     1.3910 H     1 <1>   0.0800 
 41 H       -5.5200    -2.6920    -2.5340 H     1 <1>   0.0800 
 42 H       -5.4820    -1.3250    -1.4670 H     1 <1>   0.0800 
 43 H       -6.9100    -2.3120    -1.5340 H     1 <1>   0.0800 
 44 H       -5.3220    -3.1120     1.7350 H     1 <1>   0.0800 
 45 H       -6.8540    -2.7540     0.9630 H     1 <1>   0.0800 
 46 H       -5.5570    -1.6000     0.9570 H     1 <1>   0.0800 
 47 H        5.2180    -4.6280    -0.9900 H     1 <1>   0.0800 
 48 H        5.3850    -5.2310     0.6630 H     1 <1>   0.0800 
 49 H        7.1160    -3.0810    -0.6110 H     1 <1>   0.0800 
 50 H        7.6190    -4.7280    -0.3250 H     1 <1>   0.0800 
 51 H        7.2820    -3.6800     1.0310 H     1 <1>   0.0800 
@<TRIPOS>BOND
  1   1   2  2   
  2   2   3  am  
  3   2   4  1   
  4   3   5  1   
  5   3  23  1   
  6   4   6  ar  
  7   4   7  ar  
  8   5   8  1   
  9   5   9  1   
 10   5  24  1   
 11   6  10  ar  
 12   6  25  1   
 13   7  11  ar  
 14   7  26  1   
 15   8  12  1   
 16   8  27  1   
 17   8  28  1   
 18   9  13  1   
 19   9  29  1   
 20   9  30  1   
 21  10  14  ar  
 22  10  31  1   
 23  11  14  ar  
 24  11  32  1   
 25  12  15  1   
 26  12  16  1   
 27  12  17  1   
 28  13  15  1   
 29  13  18  1   
 30  13  19  1   
 31  14  20  1   
 32  15  33  1   
 33  15  34  1   
 34  16  35  1   
 35  16  36  1   
 36  16  37  1   
 37  17  38  1   
 38  17  39  1   
 39  17  40  1   
 40  18  41  1   
 41  18  42  1   
 42  18  43  1   
 43  19  44  1   
 44  19  45  1   
 45  19  46  1   
 46  20  21  1   
 47  21  22  1   
 48  21  47  1   
 49  21  48  1   
 50  22  49  1   
 51  22  50  1   
 52  22  51  1   
@<TRIPOS>SUBSTRUCTURE
  1 ****   3 GROUP 4 **** **** 0

# MOE 2024.06 (io_trps.svl 2023.06)
