@<TRIPOS>MOLECULE
NONAME
46 49 1 0 0 
SMALL
USER_CHARGES


@<TRIPOS>ATOM
  1 F       -1.1180     2.2950    -0.4950 F     1 <1>  -0.1900 
  2 C       -2.2770     2.0760    -1.0550 C.ar  1 <1>   0.1900 
  3 C       -3.1770     1.2470    -0.4140 C.ar  1 <1>  -0.1500 
  4 C       -2.5580     2.6820    -2.2640 C.ar  1 <1>  -0.1500 
  5 C       -4.4130     1.0160    -1.0020 C.ar  1 <1>  -0.1440 
  6 C       -3.7900     2.4470    -2.8490 C.ar  1 <1>  -0.1500 
  7 C       -4.7090     1.6190    -2.2190 C.ar  1 <1>  -0.1500 
  8 C       -5.4360     0.1150    -0.3260 C.3   1 <1>   0.2540 
  9 N       -6.6380     0.8870     0.0490 N.3   1 <1>  -0.8100 
 10 C       -7.7110     0.0060     0.5680 C.3   1 <1>   0.1100 
 11 C       -6.3340     1.9700     1.0210 C.3   1 <1>   0.1100 
 12 C       -8.9840     0.7960     0.9620 C.3   1 <1>   0.3430 
 13 C       -7.5900     2.7920     1.3990 C.3   1 <1>   0.3430 
 14 N       -8.8080     2.2650     0.7050 N.4   1 <1>  -0.9590 
 15 C      -10.0330     3.0770     0.9190 C.3   1 <1>   0.4860 
 16 C      -11.1410     2.5280     0.0410 C.ar  1 <1>  -0.1430 
 17 C      -11.0730     2.6850    -1.3410 C.ar  1 <1>  -0.1500 
 18 C      -12.2230     1.8570     0.6160 C.ar  1 <1>  -0.1500 
 19 C      -12.0890     2.1510    -2.1070 C.ar  1 <1>   0.0830 
 20 C      -13.2360     1.3290    -0.1750 C.ar  1 <1>  -0.1500 
 21 O      -12.2220     2.1770    -3.4360 O.3   1 <1>  -0.3620 
 22 C      -13.1400     1.4910    -1.5420 C.ar  1 <1>   0.0830 
 23 C      -13.4440     1.5040    -3.7380 C.3   1 <1>   0.4000 
 24 O      -13.9830     1.0710    -2.4890 O.3   1 <1>  -0.3620 
 25 H       -2.9040     0.7980     0.5240 H     1 <1>   0.1500 
 26 H       -1.8290     3.3190    -2.7320 H     1 <1>   0.1500 
 27 H       -4.0350     2.9040    -3.7920 H     1 <1>   0.1500 
 28 H       -5.6650     1.4430    -2.6810 H     1 <1>   0.1500 
 29 H       -5.0060    -0.3480     0.5460 H     1 <1>   0.0800 
 30 H       -5.7120    -0.6640    -1.0170 H     1 <1>   0.0800 
 31 H       -7.3570    -0.5400     1.4260 H     1 <1>   0.0800 
 32 H       -7.9750    -0.7150    -0.1880 H     1 <1>   0.0800 
 33 H       -5.6070     2.6440     0.5980 H     1 <1>   0.0800 
 34 H       -5.9000     1.5510     1.9130 H     1 <1>   0.0800 
 35 H       -9.2020     0.6250     2.0020 H     1 <1>   0.0800 
 36 H       -9.8150     0.4200     0.3870 H     1 <1>   0.0800 
 37 H       -7.4250     3.8210     1.1220 H     1 <1>   0.0800 
 38 H       -7.7260     2.7570     2.4670 H     1 <1>   0.0800 
 39 H       -8.5630     2.2960    -0.2960 H     1 <1>   0.4500 
 40 H       -9.8470     4.1050     0.6570 H     1 <1>   0.0800 
 41 H      -10.3300     3.0350     1.9540 H     1 <1>   0.0800 
 42 H      -10.2690     3.2030    -1.8320 H     1 <1>   0.1500 
 43 H      -12.2930     1.7380     1.6850 H     1 <1>   0.1500 
 44 H      -14.0790     0.8100     0.2480 H     1 <1>   0.1500 
 45 H      -13.2440     0.6500    -4.3610 H     1 <1>   0.0800 
 46 H      -14.1280     2.1890    -4.2070 H     1 <1>   0.0800 
@<TRIPOS>BOND
  1   1   2  1   
  2   2   3  ar  
  3   2   4  ar  
  4   3   5  ar  
  5   3  25  1   
  6   4   6  ar  
  7   4  26  1   
  8   5   7  ar  
  9   5   8  1   
 10   6   7  ar  
 11   6  27  1   
 12   7  28  1   
 13   8   9  1   
 14   8  29  1   
 15   8  30  1   
 16   9  10  1   
 17   9  11  1   
 18  10  12  1   
 19  10  31  1   
 20  10  32  1   
 21  11  13  1   
 22  11  33  1   
 23  11  34  1   
 24  12  14  1   
 25  12  35  1   
 26  12  36  1   
 27  13  14  1   
 28  13  37  1   
 29  13  38  1   
 30  14  15  1   
 31  14  39  1   
 32  15  16  1   
 33  15  40  1   
 34  15  41  1   
 35  16  17  ar  
 36  16  18  ar  
 37  17  19  ar  
 38  17  42  1   
 39  18  20  ar  
 40  18  43  1   
 41  19  21  1   
 42  19  22  ar  
 43  20  22  ar  
 44  20  44  1   
 45  21  23  1   
 46  22  24  1   
 47  23  24  1   
 48  23  45  1   
 49  23  46  1   
@<TRIPOS>SUBSTRUCTURE
  1 ****  14 GROUP 4 **** **** 0

# MOE 2024.06 (io_trps.svl 2023.06)
