@<TRIPOS>MOLECULE
NONAME
33 34 1 0 0 
SMALL
USER_CHARGES


@<TRIPOS>ATOM
  1 BR       0.4080    -0.6920     1.7430 Br    1 <1>  -0.1110 
  2 C        2.1010    -0.2450     0.9410 C.ar  1 <1>   0.1110 
  3 C        2.8370    -1.2420     0.3400 C.ar  1 <1>  -0.1500 
  4 C        2.5320     1.0660     0.9900 C.ar  1 <1>  -0.1500 
  5 C        4.0680    -0.9420    -0.2420 C.ar  1 <1>   0.0860 
  6 C        3.7470     1.3810     0.4100 C.ar  1 <1>  -0.1500 
  7 C        4.5140     0.3890    -0.2060 C.ar  1 <1>   0.0830 
  8 C        4.8290    -2.0030    -0.8660 C.2   1 <1>   0.5440 
  9 O        5.7040     0.6660    -0.7920 O.3   1 <1>  -0.3630 
 10 O        4.3940    -2.5410    -1.8680 O.2   1 <1>  -0.5700 
 11 N        6.0050    -2.4720    -0.3240 N.am  1 <1>  -0.6600 
 12 C        6.1980     1.9750    -0.9470 C.3   1 <1>   0.1200 
 13 C        6.8050    -3.5440    -0.9500 C.3   1 <1>   0.1400 
 14 C        6.6260    -1.9980     0.9300 C.3   1 <1>   0.1400 
 15 C        7.5220     1.8870    -1.6990 C.3   1 <1>  -0.2400 
 16 C        7.8330    -3.9260     0.1100 C.3   1 <1>  -0.1600 
 17 C        7.9950    -2.6680     0.9600 C.3   1 <1>  -0.1600 
 18 H        2.4670    -2.2510     0.3120 H     1 <1>   0.1500 
 19 H        1.9280     1.8160     1.4690 H     1 <1>   0.1500 
 20 H        4.0780     2.4010     0.4470 H     1 <1>   0.1500 
 21 H        6.3440     2.4060     0.0280 H     1 <1>   0.0800 
 22 H        5.4790     2.5470    -1.5080 H     1 <1>   0.0800 
 23 H        7.2880    -3.1490    -1.8270 H     1 <1>   0.0800 
 24 H        6.1820    -4.3780    -1.2250 H     1 <1>   0.0800 
 25 H        6.0270    -2.3250     1.7640 H     1 <1>   0.0800 
 26 H        6.7180    -0.9260     0.9430 H     1 <1>   0.0800 
 27 H        8.2260     1.2970    -1.1400 H     1 <1>   0.0800 
 28 H        7.9300     2.8710    -1.8390 H     1 <1>   0.0800 
 29 H        7.3680     1.4380    -2.6640 H     1 <1>   0.0800 
 30 H        8.7590    -4.2470    -0.3320 H     1 <1>   0.0800 
 31 H        7.4320    -4.7240     0.7090 H     1 <1>   0.0800 
 32 H        8.3120    -2.8880     1.9640 H     1 <1>   0.0800 
 33 H        8.7120    -2.0090     0.5020 H     1 <1>   0.0800 
@<TRIPOS>BOND
  1   1   2  1   
  2   2   3  ar  
  3   2   4  ar  
  4   3   5  ar  
  5   3  18  1   
  6   4   6  ar  
  7   4  19  1   
  8   5   7  ar  
  9   5   8  1   
 10   6   7  ar  
 11   6  20  1   
 12   7   9  1   
 13   8  10  2   
 14   8  11  am  
 15   9  12  1   
 16  11  13  1   
 17  11  14  1   
 18  12  15  1   
 19  12  21  1   
 20  12  22  1   
 21  13  16  1   
 22  13  23  1   
 23  13  24  1   
 24  14  17  1   
 25  14  25  1   
 26  14  26  1   
 27  15  27  1   
 28  15  28  1   
 29  15  29  1   
 30  16  17  1   
 31  16  30  1   
 32  16  31  1   
 33  17  32  1   
 34  17  33  1   
@<TRIPOS>SUBSTRUCTURE
  1 ****   5 GROUP 4 **** **** 0

# MOE 2024.06 (io_trps.svl 2023.06)
