@<TRIPOS>MOLECULE
NONAME
46 48 1 0 0 
SMALL
USER_CHARGES


@<TRIPOS>ATOM
  1 O       -3.3760    -4.1510     1.4510 O.2   1 <1>  -0.5700 
  2 C       -3.5210    -5.2190     0.8600 C.2   1 <1>   0.6340 
  3 O       -4.7120    -5.8300     0.9740 O.3   1 <1>  -0.4300 
  4 C       -2.4900    -5.7520     0.0140 C.ar  1 <1>   0.0860 
  5 C       -5.7120    -5.3640     1.8500 C.3   1 <1>   0.0400 
  6 C       -2.2400    -7.1320    -0.1940 C.ar  1 <1>  -0.1710 
  7 C       -1.6220    -4.8630    -0.6320 C.ar  1 <1>  -0.1500 
  8 O       -2.8560    -8.0190     0.4270 O.3   1 <1>  -0.8290 
  9 C       -1.2400    -7.5480    -1.0840 C.ar  1 <1>  -0.1500 
 10 C       -0.5900    -5.2820    -1.4460 C.ar  1 <1>  -0.1440 
 11 C       -0.4230    -6.6440    -1.7030 C.ar  1 <1>  -0.1500 
 12 C        0.4070    -4.2890    -1.9850 C.3   1 <1>   0.4870 
 13 N        1.1900    -3.7900    -0.8200 N.4   1 <1>  -0.9590 
 14 C        2.2010    -2.7440    -1.2020 C.3   1 <1>   0.3430 
 15 C        1.8300    -4.9280    -0.0500 C.3   1 <1>   0.3430 
 16 C        2.9920    -2.2160     0.0130 C.3   1 <1>   0.2090 
 17 C        2.6410    -4.4440     1.1700 C.3   1 <1>   0.2090 
 18 N        3.5790    -3.3360     0.8050 N.pl3 1 <1>  -0.8380 
 19 C        4.9470    -3.5780     0.6780 C.ar  1 <1>   0.1000 
 20 C        5.8530    -2.6470     1.1690 C.ar  1 <1>  -0.1500 
 21 C        5.4430    -4.7230     0.0600 C.ar  1 <1>  -0.1500 
 22 C        7.2160    -2.8440     1.0440 C.ar  1 <1>  -0.1500 
 23 C        6.8050    -4.9250    -0.0670 C.ar  1 <1>  -0.1500 
 24 C        7.6950    -3.9850     0.4240 C.ar  1 <1>  -0.1500 
 25 H       -6.5510    -6.0330     1.7850 H     1 <1>   0.0800 
 26 H       -5.9990    -4.3710     1.5530 H     1 <1>   0.0800 
 27 H       -5.3170    -5.3610     2.8500 H     1 <1>   0.0800 
 28 H       -1.7820    -3.8150    -0.4550 H     1 <1>   0.1500 
 29 H       -1.1450    -8.6080    -1.2370 H     1 <1>   0.1500 
 30 H        0.3460    -6.9970    -2.3670 H     1 <1>   0.1500 
 31 H       -0.1140    -3.4780    -2.4670 H     1 <1>   0.0800 
 32 H        1.0540    -4.7670    -2.7010 H     1 <1>   0.0800 
 33 H        0.5070    -3.3770    -0.1720 H     1 <1>   0.4500 
 34 H        1.7100    -1.9160    -1.6860 H     1 <1>   0.0800 
 35 H        2.9070    -3.1650    -1.8990 H     1 <1>   0.0800 
 36 H        2.4910    -5.4740    -0.7000 H     1 <1>   0.0800 
 37 H        1.0720    -5.6150     0.2950 H     1 <1>   0.0800 
 38 H        2.3450    -1.6360     0.6480 H     1 <1>   0.0800 
 39 H        3.7780    -1.5660    -0.3340 H     1 <1>   0.0800 
 40 H        3.1940    -5.2690     1.5860 H     1 <1>   0.0800 
 41 H        1.9660    -4.0960     1.9330 H     1 <1>   0.0800 
 42 H        5.4840    -1.7660     1.6600 H     1 <1>   0.1500 
 43 H        4.7710    -5.4610    -0.3280 H     1 <1>   0.1500 
 44 H        7.9060    -2.1140     1.4310 H     1 <1>   0.1500 
 45 H        7.1800    -5.8140    -0.5450 H     1 <1>   0.1500 
 46 H        8.7560    -4.1410     0.3260 H     1 <1>   0.1500 
@<TRIPOS>BOND
  1   1   2  2   
  2   2   3  1   
  3   2   4  1   
  4   3   5  1   
  5   4   6  ar  
  6   4   7  ar  
  7   5  25  1   
  8   5  26  1   
  9   5  27  1   
 10   6   8  1   
 11   6   9  ar  
 12   7  10  ar  
 13   7  28  1   
 14   9  11  ar  
 15   9  29  1   
 16  10  11  ar  
 17  10  12  1   
 18  11  30  1   
 19  12  13  1   
 20  12  31  1   
 21  12  32  1   
 22  13  14  1   
 23  13  15  1   
 24  13  33  1   
 25  14  16  1   
 26  14  34  1   
 27  14  35  1   
 28  15  17  1   
 29  15  36  1   
 30  15  37  1   
 31  16  18  1   
 32  16  38  1   
 33  16  39  1   
 34  17  18  1   
 35  17  40  1   
 36  17  41  1   
 37  18  19  1   
 38  19  20  ar  
 39  19  21  ar  
 40  20  22  ar  
 41  20  42  1   
 42  21  23  ar  
 43  21  43  1   
 44  22  24  ar  
 45  22  44  1   
 46  23  24  ar  
 47  23  45  1   
 48  24  46  1   
@<TRIPOS>SUBSTRUCTURE
  1 ****  15 GROUP 4 **** **** 0

# MOE 2024.06 (io_trps.svl 2023.06)
