@<TRIPOS>MOLECULE
NONAME
44 46 1 0 0 
SMALL
USER_CHARGES


@<TRIPOS>ATOM
  1 BR       0.9860    -1.1680    -2.4620 Br    1 <1>  -0.1110 
  2 C        0.2100    -2.2160    -1.0430 C.ar  1 <1>   0.1110 
  3 C        0.8650    -2.3540     0.1670 C.ar  1 <1>   0.1900 
  4 C       -1.0140    -2.8210    -1.2600 C.ar  1 <1>  -0.1500 
  5 F        2.0200    -1.7740     0.3610 F     1 <1>  -0.1900 
  6 C        0.3110    -3.1030     1.1870 C.ar  1 <1>  -0.1500 
  7 C       -1.5880    -3.5720    -0.2380 C.ar  1 <1>  -0.1440 
  8 C       -0.9190    -3.7130     0.9770 C.ar  1 <1>  -0.1500 
  9 C       -2.9370    -4.2370    -0.4500 C.3   1 <1>   0.4870 
 10 N       -3.9790    -3.4510     0.2630 N.4   1 <1>  -0.9590 
 11 C       -5.3050    -4.1780     0.2740 C.3   1 <1>   0.3430 
 12 C       -4.1260    -2.0590    -0.3150 C.3   1 <1>   0.3430 
 13 C       -6.4230    -3.3750     0.9710 C.3   1 <1>   0.2090 
 14 C       -5.2310    -1.2360     0.3790 C.3   1 <1>   0.2090 
 15 N       -6.5070    -2.0040     0.3950 N.pl3 1 <1>  -0.8380 
 16 C       -7.7220    -1.3320     0.5000 C.ar  1 <1>   0.1000 
 17 C       -8.7960    -1.7350    -0.2810 C.ar  1 <1>  -0.1500 
 18 C       -7.9000    -0.2650     1.3750 C.ar  1 <1>  -0.1500 
 19 C      -10.0220    -1.1000    -0.2010 C.ar  1 <1>   0.0830 
 20 C       -9.1210     0.3800     1.4630 C.ar  1 <1>  -0.1500 
 21 O      -11.0070    -1.5740    -1.0060 O.3   1 <1>  -0.3620 
 22 C      -10.1840    -0.0330     0.6780 C.ar  1 <1>  -0.1500 
 23 C      -12.2860    -0.9800    -1.0200 C.3   1 <1>   0.0400 
 24 H       -1.4910    -2.6990    -2.2180 H     1 <1>   0.1500 
 25 H        0.8380    -3.2070     2.1200 H     1 <1>   0.1500 
 26 H       -1.3390    -4.3030     1.7750 H     1 <1>   0.1500 
 27 H       -2.9010    -5.2420    -0.0630 H     1 <1>   0.0800 
 28 H       -3.1640    -4.2860    -1.5030 H     1 <1>   0.0800 
 29 H       -3.6680    -3.3370     1.2350 H     1 <1>   0.4500 
 30 H       -5.2010    -5.1300     0.7680 H     1 <1>   0.0800 
 31 H       -5.6200    -4.3650    -0.7400 H     1 <1>   0.0800 
 32 H       -4.3760    -2.1280    -1.3610 H     1 <1>   0.0800 
 33 H       -3.1930    -1.5250    -0.2340 H     1 <1>   0.0800 
 34 H       -6.2310    -3.3090     2.0270 H     1 <1>   0.0800 
 35 H       -7.3650    -3.8800     0.8380 H     1 <1>   0.0800 
 36 H       -5.3790    -0.3110    -0.1540 H     1 <1>   0.0800 
 37 H       -4.9360    -0.9990     1.3860 H     1 <1>   0.0800 
 38 H       -8.6790    -2.5500    -0.9680 H     1 <1>   0.1500 
 39 H       -7.0890     0.0600     1.9970 H     1 <1>   0.1500 
 40 H       -9.2460     1.2040     2.1430 H     1 <1>   0.1500 
 41 H      -11.1210     0.4830     0.7650 H     1 <1>   0.1500 
 42 H      -12.8920    -1.5090    -1.7330 H     1 <1>   0.0800 
 43 H      -12.1890     0.0500    -1.3160 H     1 <1>   0.0800 
 44 H      -12.7200    -1.0620    -0.0390 H     1 <1>   0.0800 
@<TRIPOS>BOND
  1   1   2  1   
  2   2   3  ar  
  3   2   4  ar  
  4   3   5  1   
  5   3   6  ar  
  6   4   7  ar  
  7   4  24  1   
  8   6   8  ar  
  9   6  25  1   
 10   7   8  ar  
 11   7   9  1   
 12   8  26  1   
 13   9  10  1   
 14   9  27  1   
 15   9  28  1   
 16  10  11  1   
 17  10  12  1   
 18  10  29  1   
 19  11  13  1   
 20  11  30  1   
 21  11  31  1   
 22  12  14  1   
 23  12  32  1   
 24  12  33  1   
 25  13  15  1   
 26  13  34  1   
 27  13  35  1   
 28  14  15  1   
 29  14  36  1   
 30  14  37  1   
 31  15  16  1   
 32  16  17  ar  
 33  16  18  ar  
 34  17  19  ar  
 35  17  38  1   
 36  18  20  ar  
 37  18  39  1   
 38  19  21  1   
 39  19  22  ar  
 40  20  22  ar  
 41  20  40  1   
 42  21  23  1   
 43  22  41  1   
 44  23  42  1   
 45  23  43  1   
 46  23  44  1   
@<TRIPOS>SUBSTRUCTURE
  1 ****  12 GROUP 4 **** **** 0

# MOE 2024.06 (io_trps.svl 2023.06)
