@<TRIPOS>MOLECULE
NONAME
56 56 1 0 0 
SMALL
USER_CHARGES


@<TRIPOS>ATOM
  1 O       -7.5220     2.5010    -0.3870 O.3   1 <1>  -0.5600 
  2 C       -8.6670     3.2630    -0.6110 C.3   1 <1>   0.2000 
  3 C       -6.3730     2.9270    -1.0570 C.3   1 <1>   0.1200 
  4 C       -8.6810     4.4550     0.3510 C.3   1 <1>  -0.1600 
  5 C       -9.8710     2.3560    -0.3610 C.3   1 <1>  -0.1600 
  6 C       -5.2230     1.9840    -0.6760 C.3   1 <1>   0.2000 
  7 C       -9.9980     5.2400     0.2430 C.3   1 <1>  -0.1600 
  8 C      -11.1900     3.1340    -0.4760 C.3   1 <1>  -0.1600 
  9 O       -5.2440     1.8080     0.7060 O.3   1 <1>  -0.6800 
 10 C       -3.8370     2.5140    -1.0930 C.3   1 <1>   0.3430 
 11 C      -11.2380     4.3450     0.4890 C.3   1 <1>  -0.0800 
 12 N       -2.7660     1.8700    -0.2700 N.4   1 <1>  -0.9590 
 13 C      -12.5980     5.1230     0.4630 C.3   1 <1>   0.0000 
 14 C       -1.6560     2.8080     0.0310 C.3   1 <1>   0.3430 
 15 C       -2.3140     0.5700    -0.8300 C.3   1 <1>   0.3430 
 16 C      -12.6010     6.2460     1.5180 C.3   1 <1>  -0.2400 
 17 C      -13.7670     4.1840     0.8140 C.3   1 <1>  -0.2400 
 18 C      -12.8980     5.7600    -0.9060 C.3   1 <1>  -0.2400 
 19 C       -0.8610     2.2970     1.2270 C.3   1 <1>  -0.2400 
 20 C       -2.7970    -0.5480     0.0830 C.3   1 <1>  -0.2400 
 21 H       -8.6820     3.5990    -1.6360 H     1 <1>   0.0800 
 22 H       -6.1480     3.9360    -0.7570 H     1 <1>   0.0800 
 23 H       -6.5560     2.8960    -2.1180 H     1 <1>   0.0800 
 24 H       -7.8670     5.1200     0.1320 H     1 <1>   0.0800 
 25 H       -8.5700     4.0970     1.3600 H     1 <1>   0.0800 
 26 H       -9.7980     1.9320     0.6250 H     1 <1>   0.0800 
 27 H       -9.8680     1.5540    -1.0780 H     1 <1>   0.0800 
 28 H       -5.3990     1.0230    -1.1290 H     1 <1>   0.0800 
 29 H      -10.0550     5.6830    -0.7350 H     1 <1>   0.0800 
 30 H       -9.9610     6.0350     0.9650 H     1 <1>   0.0800 
 31 H      -11.9900     2.4500    -0.2610 H     1 <1>   0.0800 
 32 H      -11.3050     3.4690    -1.4910 H     1 <1>   0.0800 
 33 H       -6.1970     1.7850     0.9710 H     1 <1>   0.4000 
 34 H       -3.8280     3.5770    -0.9190 H     1 <1>   0.0800 
 35 H       -3.6700     2.3490    -2.1450 H     1 <1>   0.0800 
 36 H      -11.1350     3.9460     1.4850 H     1 <1>   0.0800 
 37 H       -3.2650     1.6640     0.6190 H     1 <1>   0.4500 
 38 H       -2.0600     3.7780     0.2750 H     1 <1>   0.0800 
 39 H       -1.0120     2.9150    -0.8280 H     1 <1>   0.0800 
 40 H       -1.2380     0.5440    -0.8900 H     1 <1>   0.0800 
 41 H       -2.7100     0.4280    -1.8230 H     1 <1>   0.0800 
 42 H      -12.3340     5.8570     2.4840 H     1 <1>   0.0800 
 43 H      -13.5760     6.6940     1.5940 H     1 <1>   0.0800 
 44 H      -11.9120     7.0290     1.2590 H     1 <1>   0.0800 
 45 H      -13.5720     3.6660     1.7370 H     1 <1>   0.0800 
 46 H      -13.9330     3.4570     0.0410 H     1 <1>   0.0800 
 47 H      -14.6810     4.7400     0.9290 H     1 <1>   0.0800 
 48 H      -12.1400     6.4700    -1.1790 H     1 <1>   0.0800 
 49 H      -13.8390     6.2810    -0.8760 H     1 <1>   0.0800 
 50 H      -12.9630     5.0140    -1.6760 H     1 <1>   0.0800 
 51 H       -1.5000     2.1740     2.0830 H     1 <1>   0.0800 
 52 H       -0.1030     3.0170     1.4800 H     1 <1>   0.0800 
 53 H       -0.3690     1.3670     1.0050 H     1 <1>   0.0800 
 54 H       -2.3970    -0.4300     1.0750 H     1 <1>   0.0800 
 55 H       -2.4580    -1.4930    -0.3020 H     1 <1>   0.0800 
 56 H       -3.8700    -0.5750     0.1290 H     1 <1>   0.0800 
@<TRIPOS>BOND
  1   1   2  1   
  2   1   3  1   
  3   2   4  1   
  4   2   5  1   
  5   2  21  1   
  6   3   6  1   
  7   3  22  1   
  8   3  23  1   
  9   4   7  1   
 10   4  24  1   
 11   4  25  1   
 12   5   8  1   
 13   5  26  1   
 14   5  27  1   
 15   6   9  1   
 16   6  10  1   
 17   6  28  1   
 18   7  11  1   
 19   7  29  1   
 20   7  30  1   
 21   8  11  1   
 22   8  31  1   
 23   8  32  1   
 24   9  33  1   
 25  10  12  1   
 26  10  34  1   
 27  10  35  1   
 28  11  13  1   
 29  11  36  1   
 30  12  14  1   
 31  12  15  1   
 32  12  37  1   
 33  13  16  1   
 34  13  17  1   
 35  13  18  1   
 36  14  19  1   
 37  14  38  1   
 38  14  39  1   
 39  15  20  1   
 40  15  40  1   
 41  15  41  1   
 42  16  42  1   
 43  16  43  1   
 44  16  44  1   
 45  17  45  1   
 46  17  46  1   
 47  17  47  1   
 48  18  48  1   
 49  18  49  1   
 50  18  50  1   
 51  19  51  1   
 52  19  52  1   
 53  19  53  1   
 54  20  54  1   
 55  20  55  1   
 56  20  56  1   
@<TRIPOS>SUBSTRUCTURE
  1 ****   1 GROUP 4 **** **** 0

# MOE 2024.06 (io_trps.svl 2023.06)
