@<TRIPOS>MOLECULE
NONAME
44 45 1 0 0 
SMALL
USER_CHARGES


@<TRIPOS>ATOM
  1 S       -0.0320     0.4370     0.0410 S.3   1 <1>  -0.3320 
  2 C       -1.4260    -0.6930    -0.1220 C.ar  1 <1>   0.1020 
  3 C        1.4870    -0.6120     0.0960 C.3   1 <1>   0.0700 
  4 C       -2.6880    -0.1290    -0.1810 C.ar  1 <1>  -0.1500 
  5 C       -1.2590    -2.0680    -0.1870 C.ar  1 <1>  -0.1500 
  6 C        2.6940     0.3180     0.2330 C.3   1 <1>  -0.0990 
  7 C       -3.7980    -0.9470    -0.3060 C.ar  1 <1>  -0.1500 
  8 C       -2.3730    -2.8810    -0.3120 C.ar  1 <1>  -0.1500 
  9 C        4.0140    -0.4340     0.2850 C.2   1 <1>   0.5690 
 10 C       -3.6390    -2.3220    -0.3720 C.ar  1 <1>  -0.1500 
 11 O        3.9920    -1.6370     0.1700 O.2   1 <1>  -0.5700 
 12 N        5.1910     0.2490     0.4530 N.am  1 <1>  -0.6600 
 13 C        5.3320     1.7380     0.5420 C.3   1 <1>   0.1400 
 14 C        6.5050    -0.4700     0.5060 C.3   1 <1>   0.1400 
 15 C        6.2820     2.2640    -0.5470 C.3   1 <1>   0.1400 
 16 C        7.4600     0.0490    -0.5790 C.3   1 <1>   0.1400 
 17 N        7.5840     1.5360    -0.5070 N.am  1 <1>  -0.6600 
 18 C        8.7920     2.1520    -0.3220 C.2   1 <1>   0.7800 
 19 O        9.8370     1.5350    -0.2380 O.2   1 <1>  -0.5700 
 20 O        8.8010     3.4820    -0.2240 O.3   1 <1>  -0.4300 
 21 C       10.0070     4.1840    -0.0320 C.3   1 <1>   0.1200 
 22 C        9.6820     5.6720     0.0460 C.3   1 <1>  -0.2400 
 23 H        1.5280    -1.1760    -0.8190 H     1 <1>   0.0800 
 24 H        1.4000    -1.2710     0.9420 H     1 <1>   0.0800 
 25 H       -2.7970     0.9390    -0.1290 H     1 <1>   0.1500 
 26 H       -0.2860    -2.5170    -0.1420 H     1 <1>   0.1500 
 27 H        2.5880     0.8900     1.1360 H     1 <1>   0.0800 
 28 H        2.7120     0.9850    -0.6080 H     1 <1>   0.0800 
 29 H       -4.7830    -0.5150    -0.3530 H     1 <1>   0.1500 
 30 H       -2.2540    -3.9500    -0.3630 H     1 <1>   0.1500 
 31 H       -4.5030    -2.9580    -0.4690 H     1 <1>   0.1500 
 32 H        5.7320     1.9940     1.5080 H     1 <1>   0.0800 
 33 H        4.3820     2.2290     0.4420 H     1 <1>   0.0800 
 34 H        6.3670    -1.5290     0.3750 H     1 <1>   0.0800 
 35 H        6.9520    -0.3170     1.4730 H     1 <1>   0.0800 
 36 H        6.4280     3.3210    -0.4070 H     1 <1>   0.0800 
 37 H        5.8300     2.1210    -1.5130 H     1 <1>   0.0800 
 38 H        7.0800    -0.2280    -1.5470 H     1 <1>   0.0800 
 39 H        8.4210    -0.4190    -0.4570 H     1 <1>   0.0800 
 40 H       10.6600     3.9730    -0.8620 H     1 <1>   0.0800 
 41 H       10.4610     3.8380     0.8820 H     1 <1>   0.0800 
 42 H        9.2220     5.9990    -0.8700 H     1 <1>   0.0800 
 43 H       10.5860     6.2330     0.1940 H     1 <1>   0.0800 
 44 H        9.0200     5.8640     0.8710 H     1 <1>   0.0800 
@<TRIPOS>BOND
  1   1   2  1   
  2   1   3  1   
  3   2   4  ar  
  4   2   5  ar  
  5   3   6  1   
  6   3  23  1   
  7   3  24  1   
  8   4   7  ar  
  9   4  25  1   
 10   5   8  ar  
 11   5  26  1   
 12   6   9  1   
 13   6  27  1   
 14   6  28  1   
 15   7  10  ar  
 16   7  29  1   
 17   8  10  ar  
 18   8  30  1   
 19   9  11  2   
 20   9  12  am  
 21  10  31  1   
 22  12  13  1   
 23  12  14  1   
 24  13  15  1   
 25  13  32  1   
 26  13  33  1   
 27  14  16  1   
 28  14  34  1   
 29  14  35  1   
 30  15  17  1   
 31  15  36  1   
 32  15  37  1   
 33  16  17  1   
 34  16  38  1   
 35  16  39  1   
 36  17  18  am  
 37  18  19  2   
 38  18  20  1   
 39  20  21  1   
 40  21  22  1   
 41  21  40  1   
 42  21  41  1   
 43  22  42  1   
 44  22  43  1   
 45  22  44  1   
@<TRIPOS>SUBSTRUCTURE
  1 ****   9 GROUP 4 **** **** 0

# MOE 2024.06 (io_trps.svl 2023.06)
