@<TRIPOS>MOLECULE
NONAME
49 51 1 0 0 
SMALL
USER_CHARGES


@<TRIPOS>ATOM
  1 O        1.4370    -0.2250     1.2000 O.2   1 <1>  -0.5700 
  2 C        2.3670    -1.0120     1.1520 C.2   1 <1>   0.5440 
  3 N        3.5600    -0.6400     1.7410 N.am  1 <1>  -0.6600 
  4 C        2.2490    -2.2340     0.3970 C.ar  1 <1>   0.0860 
  5 C        4.8550    -1.0110     1.1120 C.3   1 <1>   0.1400 
  6 C        3.6380     0.6410     2.4920 C.3   1 <1>   0.1400 
  7 C        2.0050    -3.4620     1.0200 C.ar  1 <1>   0.0830 
  8 C        2.3990    -2.2150    -0.9920 C.ar  1 <1>   0.0830 
  9 C        5.2450     0.0890     0.1050 C.3   1 <1>   0.3430 
 10 C        3.9810     1.7640     1.4980 C.3   1 <1>   0.3430 
 11 O        1.8820    -3.4630     2.3700 O.3   1 <1>  -0.3630 
 12 C        1.9040    -4.6260     0.2620 C.ar  1 <1>  -0.1500 
 13 O        2.6660    -1.0550    -1.6280 O.3   1 <1>  -0.3630 
 14 C        2.3050    -3.3770    -1.7400 C.ar  1 <1>  -0.1500 
 15 N        5.2480     1.4750     0.7210 N.4   1 <1>  -0.9590 
 16 C        1.4850    -4.6060     3.0960 C.3   1 <1>   0.0400 
 17 C        2.0540    -4.5830    -1.1130 C.ar  1 <1>  -0.1500 
 18 C        1.5540    -0.4160    -2.2190 C.3   1 <1>   0.0400 
 19 C        5.4760     2.5180    -0.3150 C.3   1 <1>   0.4860 
 20 C        6.8170     2.2700    -0.9790 C.ar  1 <1>  -0.1430 
 21 C        8.0120     2.5820    -0.3590 C.ar  1 <1>  -0.1500 
 22 C        6.9070     1.7110    -2.2410 C.ar  1 <1>  -0.1500 
 23 C        9.2070     2.3110    -1.0060 C.ar  1 <1>   0.1600 
 24 C        8.1540     1.4810    -2.7980 C.ar  1 <1>   0.1600 
 25 N        9.2990     1.7600    -2.2030 N.ar  1 <1>  -0.6200 
 26 H        4.7780    -1.9570     0.6060 H     1 <1>   0.0800 
 27 H        5.6110    -1.1100     1.8710 H     1 <1>   0.0800 
 28 H        4.3870     0.5710     3.2610 H     1 <1>   0.0800 
 29 H        2.6960     0.8500     2.9710 H     1 <1>   0.0800 
 30 H        4.5400     0.0600    -0.7080 H     1 <1>   0.0800 
 31 H        6.2190    -0.1360    -0.2990 H     1 <1>   0.0800 
 32 H        4.0780     2.6940     2.0340 H     1 <1>   0.0800 
 33 H        3.1500     1.8580     0.8170 H     1 <1>   0.0800 
 34 H        1.7120    -5.5770     0.7220 H     1 <1>   0.1500 
 35 H        2.4300    -3.3380    -2.8080 H     1 <1>   0.1500 
 36 H        6.0410     1.5100     1.3710 H     1 <1>   0.4500 
 37 H        1.4000    -4.3310     4.1310 H     1 <1>   0.0800 
 38 H        2.2320    -5.3720     2.9820 H     1 <1>   0.0800 
 39 H        0.5300    -4.9390     2.7280 H     1 <1>   0.0800 
 40 H        1.9760    -5.4870    -1.6930 H     1 <1>   0.1500 
 41 H        1.8890     0.4910    -2.6880 H     1 <1>   0.0800 
 42 H        0.8330    -0.1890    -1.4510 H     1 <1>   0.0800 
 43 H        1.1200    -1.0710    -2.9530 H     1 <1>   0.0800 
 44 H        5.4760     3.4970     0.1360 H     1 <1>   0.0800 
 45 H        4.6900     2.4840    -1.0530 H     1 <1>   0.0800 
 46 H        8.0430     3.0370     0.6150 H     1 <1>   0.1500 
 47 H        6.0300     1.4490    -2.8060 H     1 <1>   0.1500 
 48 H       10.1350     2.5590    -0.5160 H     1 <1>   0.1500 
 49 H        8.2140     1.0450    -3.7820 H     1 <1>   0.1500 
@<TRIPOS>BOND
  1   1   2  2   
  2   2   3  am  
  3   2   4  1   
  4   3   5  1   
  5   3   6  1   
  6   4   7  ar  
  7   4   8  ar  
  8   5   9  1   
  9   5  26  1   
 10   5  27  1   
 11   6  10  1   
 12   6  28  1   
 13   6  29  1   
 14   7  11  1   
 15   7  12  ar  
 16   8  13  1   
 17   8  14  ar  
 18   9  15  1   
 19   9  30  1   
 20   9  31  1   
 21  10  15  1   
 22  10  32  1   
 23  10  33  1   
 24  11  16  1   
 25  12  17  ar  
 26  12  34  1   
 27  13  18  1   
 28  14  17  ar  
 29  14  35  1   
 30  15  19  1   
 31  15  36  1   
 32  16  37  1   
 33  16  38  1   
 34  16  39  1   
 35  17  40  1   
 36  18  41  1   
 37  18  42  1   
 38  18  43  1   
 39  19  20  1   
 40  19  44  1   
 41  19  45  1   
 42  20  21  ar  
 43  20  22  ar  
 44  21  23  ar  
 45  21  46  1   
 46  22  24  ar  
 47  22  47  1   
 48  23  25  ar  
 49  23  48  1   
 50  24  25  ar  
 51  24  49  1   
@<TRIPOS>SUBSTRUCTURE
  1 ****   9 GROUP 4 **** **** 0

# MOE 2024.06 (io_trps.svl 2023.06)
