@<TRIPOS>MOLECULE
NONAME
35 36 1 0 0 
SMALL
USER_CHARGES


@<TRIPOS>ATOM
  1 F        0.7780    -0.6490     1.0710 F     1 <1>  -0.1900 
  2 C        2.0270    -0.6350     0.6830 C.ar  1 <1>   0.1900 
  3 C        2.6650     0.5830     0.5350 C.ar  1 <1>  -0.1500 
  4 C        2.6610    -1.8350     0.4320 C.ar  1 <1>  -0.1500 
  5 C        3.9890     0.6090     0.1230 C.ar  1 <1>  -0.1440 
  6 C        3.9820    -1.8040     0.0250 C.ar  1 <1>  -0.1500 
  7 C        4.6580    -0.5970    -0.1260 C.ar  1 <1>   0.1170 
  8 C        4.6730     1.9570    -0.0540 C.3   1 <1>  -0.0960 
  9 N        5.9900    -0.6700    -0.5430 N.am  1 <1>  -0.5470 
 10 C        7.1240    -0.3410     0.1410 C.2   1 <1>   0.5690 
 11 O        7.1070     0.3960     1.1010 O.2   1 <1>  -0.5700 
 12 C        8.4500    -0.9230    -0.3800 C.3   1 <1>  -0.0190 
 13 C        8.5560    -2.4640    -0.1820 C.3   1 <1>  -0.1860 
 14 C        9.6980    -0.2280     0.2130 C.3   1 <1>  -0.0220 
 15 C        7.4610    -3.2340    -0.9080 C.2   1 <1>   0.9060 
 16 C        8.6140    -2.8220     1.3170 C.3   1 <1>  -0.0220 
 17 C       10.1010    -0.8020     1.5640 C.2   1 <1>  -0.2880 
 18 O        7.0040    -4.2720    -0.4260 O.co2 1 <1>  -0.9000 
 19 O        7.0140    -2.7620    -1.9620 O.co2 1 <1>  -0.9000 
 20 C        9.6130    -1.9440     2.0560 C.2   1 <1>  -0.2880 
 21 H        2.1280     1.4890     0.7420 H     1 <1>   0.1500 
 22 H        2.1400    -2.7660     0.5520 H     1 <1>   0.1500 
 23 H        4.5080    -2.7250    -0.1790 H     1 <1>   0.1500 
 24 H        3.9520     2.7330    -0.2310 H     1 <1>   0.0800 
 25 H        5.3510     1.9290    -0.8880 H     1 <1>   0.0800 
 26 H        5.2300     2.1980     0.8340 H     1 <1>   0.0800 
 27 H        6.1650    -1.4030    -1.2610 H     1 <1>   0.3700 
 28 H        8.4640    -0.7240    -1.4360 H     1 <1>   0.0800 
 29 H        9.4770    -2.7870    -0.6280 H     1 <1>   0.0800 
 30 H        9.5130     0.8280     0.3080 H     1 <1>   0.0800 
 31 H       10.5240    -0.3540    -0.4630 H     1 <1>   0.0800 
 32 H        8.8970    -3.8560     1.4150 H     1 <1>   0.0800 
 33 H        7.6410    -2.7040     1.7620 H     1 <1>   0.0800 
 34 H       10.8150    -0.1940     2.0910 H     1 <1>   0.1500 
 35 H        9.8820    -2.3330     3.0220 H     1 <1>   0.1500 
@<TRIPOS>BOND
  1   1   2  1   
  2   2   3  ar  
  3   2   4  ar  
  4   3   5  ar  
  5   3  21  1   
  6   4   6  ar  
  7   4  22  1   
  8   5   7  ar  
  9   5   8  1   
 10   6   7  ar  
 11   6  23  1   
 12   7   9  1   
 13   8  24  1   
 14   8  25  1   
 15   8  26  1   
 16   9  10  am  
 17   9  27  1   
 18  10  11  2   
 19  10  12  1   
 20  12  13  1   
 21  12  14  1   
 22  12  28  1   
 23  13  15  1   
 24  13  16  1   
 25  13  29  1   
 26  14  17  1   
 27  14  30  1   
 28  14  31  1   
 29  15  18  ar  
 30  15  19  ar  
 31  16  20  1   
 32  16  32  1   
 33  16  33  1   
 34  17  20  2   
 35  17  34  1   
 36  20  35  1   
@<TRIPOS>SUBSTRUCTURE
  1 ****   9 GROUP 4 **** **** 0

# MOE 2024.06 (io_trps.svl 2023.06)
