@<TRIPOS>MOLECULE
NONAME
49 50 1 0 0 
SMALL
USER_CHARGES


@<TRIPOS>ATOM
  1 S       -0.2040    -0.6830    -1.3250 S.o2  1 <1>   1.3330 
  2 O       -0.1660    -1.2380    -2.6540 O.2   1 <1>  -0.6500 
  3 O        0.8290    -1.0180    -0.3740 O.2   1 <1>  -0.6500 
  4 N       -0.1240     1.0320    -1.5170 N.am  1 <1>  -0.6930 
  5 C       -1.8230    -0.9410    -0.6310 C.3   1 <1>  -0.1350 
  6 C       -0.5060     1.9110    -0.5090 C.ar  1 <1>   0.1990 
  7 C        0.8240     1.5400    -2.5610 C.3   1 <1>   0.2570 
  8 C        0.0530     1.8630     0.7630 C.ar  1 <1>  -0.1500 
  9 C       -1.4790     2.8680    -0.7700 C.ar  1 <1>  -0.1500 
 10 C        2.2710     1.7410    -2.0940 C.2   1 <1>   0.5690 
 11 C       -0.3580     2.7410     1.7490 C.ar  1 <1>  -0.1500 
 12 C       -1.8910     3.7470     0.2140 C.ar  1 <1>  -0.1500 
 13 O        2.9020     2.6240    -2.6240 O.2   1 <1>  -0.5700 
 14 N        2.7920     0.9200    -1.1260 N.am  1 <1>  -0.5470 
 15 C       -1.3330     3.6890     1.4800 C.ar  1 <1>  -0.1430 
 16 C        4.0420     0.8680    -0.4910 C.ar  1 <1>   0.1170 
 17 C       -1.7830     4.6520     2.5630 C.3   1 <1>  -0.0970 
 18 C        4.3180    -0.2290     0.3130 C.ar  1 <1>  -0.1500 
 19 C        5.0150     1.8550    -0.6090 C.ar  1 <1>  -0.1500 
 20 C        5.5270    -0.3440     0.9750 C.ar  1 <1>  -0.1500 
 21 C        6.2250     1.7420     0.0520 C.ar  1 <1>  -0.1500 
 22 C        6.4960     0.6410     0.8510 C.ar  1 <1>  -0.1430 
 23 C        7.8390     0.5340     1.5710 C.3   1 <1>   0.0630 
 24 C        8.6160    -0.6990     1.0980 C.3   1 <1>  -0.2400 
 25 C        7.6450     0.5050     3.0910 C.3   1 <1>  -0.2400 
 26 H       -1.9980    -1.9890    -0.4860 H     1 <1>   0.0800 
 27 H       -2.5740    -0.5540    -1.2910 H     1 <1>   0.0800 
 28 H       -1.9060    -0.4460     0.3170 H     1 <1>   0.0800 
 29 H        0.4630     2.4890    -2.9140 H     1 <1>   0.0800 
 30 H        0.8340     0.8740    -3.4040 H     1 <1>   0.0800 
 31 H        0.8180     1.1440     0.9900 H     1 <1>   0.1500 
 32 H       -1.9160     2.9190    -1.7510 H     1 <1>   0.1500 
 33 H        0.0870     2.6870     2.7270 H     1 <1>   0.1500 
 34 H       -2.6490     4.4790    -0.0090 H     1 <1>   0.1500 
 35 H        2.1460     0.1920    -0.7950 H     1 <1>   0.3700 
 36 H       -2.6040     4.2270     3.1120 H     1 <1>   0.0800 
 37 H       -2.1020     5.5840     2.1300 H     1 <1>   0.0800 
 38 H       -0.9770     4.8560     3.2450 H     1 <1>   0.0800 
 39 H        3.5810    -1.0050     0.4210 H     1 <1>   0.1500 
 40 H        4.8360     2.7220    -1.2160 H     1 <1>   0.1500 
 41 H        5.7100    -1.2080     1.5880 H     1 <1>   0.1500 
 42 H        6.9550     2.5230    -0.0630 H     1 <1>   0.1500 
 43 H        8.4280     1.4030     1.3330 H     1 <1>   0.0800 
 44 H        8.0940    -1.6030     1.3560 H     1 <1>   0.0800 
 45 H        9.5900    -0.7220     1.5520 H     1 <1>   0.0800 
 46 H        8.7360    -0.6660     0.0300 H     1 <1>   0.0800 
 47 H        7.1030    -0.3730     3.3910 H     1 <1>   0.0800 
 48 H        7.0910     1.3730     3.4030 H     1 <1>   0.0800 
 49 H        8.5980     0.5090     3.5880 H     1 <1>   0.0800 
@<TRIPOS>BOND
  1   1   2  2   
  2   1   3  2   
  3   1   4  am  
  4   1   5  1   
  5   4   6  1   
  6   4   7  1   
  7   5  26  1   
  8   5  27  1   
  9   5  28  1   
 10   6   8  ar  
 11   6   9  ar  
 12   7  10  1   
 13   7  29  1   
 14   7  30  1   
 15   8  11  ar  
 16   8  31  1   
 17   9  12  ar  
 18   9  32  1   
 19  10  13  2   
 20  10  14  am  
 21  11  15  ar  
 22  11  33  1   
 23  12  15  ar  
 24  12  34  1   
 25  14  16  1   
 26  14  35  1   
 27  15  17  1   
 28  16  18  ar  
 29  16  19  ar  
 30  17  36  1   
 31  17  37  1   
 32  17  38  1   
 33  18  20  ar  
 34  18  39  1   
 35  19  21  ar  
 36  19  40  1   
 37  20  22  ar  
 38  20  41  1   
 39  21  22  ar  
 40  21  42  1   
 41  22  23  1   
 42  23  24  1   
 43  23  25  1   
 44  23  43  1   
 45  24  44  1   
 46  24  45  1   
 47  24  46  1   
 48  25  47  1   
 49  25  48  1   
 50  25  49  1   
@<TRIPOS>SUBSTRUCTURE
  1 ****  14 GROUP 4 **** **** 0

# MOE 2024.06 (io_trps.svl 2023.06)
