@<TRIPOS>MOLECULE
NONAME
35 35 1 0 0 
SMALL
USER_CHARGES


@<TRIPOS>ATOM
  1 S       -0.3800     0.1060     1.0830 S.o2  1 <1>   1.3330 
  2 O       -0.6610     1.4020     1.6580 O.2   1 <1>  -0.6500 
  3 O       -0.0050    -1.0010     1.9320 O.2   1 <1>  -0.6500 
  4 N       -1.7220    -0.3600     0.1620 N.am  1 <1>  -0.8490 
  5 C        0.8850     0.2860    -0.1550 C.3   1 <1>  -0.1350 
  6 C       -2.6190    -1.2590     0.9190 C.3   1 <1>   0.1960 
  7 C       -2.4790     0.7960    -0.3590 C.3   1 <1>   0.1960 
  8 C       -3.8140    -1.7350     0.0750 C.3   1 <1>   0.1400 
  9 C       -3.6490     0.3520    -1.2530 C.3   1 <1>   0.1400 
 10 N       -4.5500    -0.5680    -0.4980 N.am  1 <1>  -0.6600 
 11 C       -5.8710    -0.3420    -0.2000 C.2   1 <1>   0.5690 
 12 O       -6.5240    -1.1670     0.3960 O.2   1 <1>  -0.5700 
 13 C       -6.5280     0.9690    -0.6200 C.3   1 <1>  -0.0990 
 14 C       -7.9030     1.2520     0.0050 C.3   1 <1>  -0.1600 
 15 C       -8.4230     2.6310    -0.4400 C.3   1 <1>  -0.2660 
 16 C       -9.7510     2.9860     0.1870 C.2   1 <1>   0.9060 
 17 O       -9.7500     3.6040     1.2550 O.co2 1 <1>  -0.9000 
 18 O      -10.7840     2.6630    -0.4040 O.co2 1 <1>  -0.9000 
 19 H        0.6110     1.0430    -0.8620 H     1 <1>   0.0800 
 20 H        1.0250    -0.6420    -0.6740 H     1 <1>   0.0800 
 21 H        1.8120     0.5650     0.3070 H     1 <1>   0.0800 
 22 H       -2.9860    -0.7550     1.7980 H     1 <1>   0.0800 
 23 H       -2.0720    -2.1280     1.2430 H     1 <1>   0.0800 
 24 H       -1.8220     1.4270    -0.9320 H     1 <1>   0.0800 
 25 H       -2.8700     1.3800     0.4580 H     1 <1>   0.0800 
 26 H       -4.4640    -2.3310     0.6920 H     1 <1>   0.0800 
 27 H       -3.4600    -2.3590    -0.7270 H     1 <1>   0.0800 
 28 H       -3.2590    -0.1670    -2.1110 H     1 <1>   0.0800 
 29 H       -4.1760     1.2170    -1.6090 H     1 <1>   0.0800 
 30 H       -6.6270     0.9660    -1.6900 H     1 <1>   0.0800 
 31 H       -5.8770     1.7750    -0.3380 H     1 <1>   0.0800 
 32 H       -7.8270     1.2340     1.0790 H     1 <1>   0.0800 
 33 H       -8.6090     0.4930    -0.2890 H     1 <1>   0.0800 
 34 H       -8.5520     2.6530    -1.5040 H     1 <1>   0.0800 
 35 H       -7.7250     3.3980    -0.1630 H     1 <1>   0.0800 
@<TRIPOS>BOND
  1   1   2  2   
  2   1   3  2   
  3   1   4  am  
  4   1   5  1   
  5   4   6  1   
  6   4   7  1   
  7   5  19  1   
  8   5  20  1   
  9   5  21  1   
 10   6   8  1   
 11   6  22  1   
 12   6  23  1   
 13   7   9  1   
 14   7  24  1   
 15   7  25  1   
 16   8  10  1   
 17   8  26  1   
 18   8  27  1   
 19   9  10  1   
 20   9  28  1   
 21   9  29  1   
 22  10  11  am  
 23  11  12  2   
 24  11  13  1   
 25  13  14  1   
 26  13  30  1   
 27  13  31  1   
 28  14  15  1   
 29  14  32  1   
 30  14  33  1   
 31  15  16  1   
 32  15  34  1   
 33  15  35  1   
 34  16  17  ar  
 35  16  18  ar  
@<TRIPOS>SUBSTRUCTURE
  1 ****  10 GROUP 4 **** **** 0

# MOE 2024.06 (io_trps.svl 2023.06)
