@<TRIPOS>MOLECULE
NONAME
44 45 1 0 0 
SMALL
USER_CHARGES


@<TRIPOS>ATOM
  1 O        1.2280    -0.3970    -0.3330 O.3   1 <1>  -0.3630 
  2 C        0.9140    -1.7210    -0.3740 C.ar  1 <1>   0.0830 
  3 C        0.2140     0.5900    -0.3400 C.3   1 <1>   0.0400 
  4 C        1.9530    -2.6220    -0.5970 C.ar  1 <1>  -0.1440 
  5 C       -0.3820    -2.1980    -0.1960 C.ar  1 <1>  -0.1500 
  6 C        1.6920    -3.9830    -0.6370 C.ar  1 <1>  -0.1500 
  7 C        3.3630    -2.1150    -0.7970 C.3   1 <1>   0.4870 
  8 C       -0.6320    -3.5580    -0.2380 C.ar  1 <1>  -0.1500 
  9 C        0.4020    -4.4490    -0.4570 C.ar  1 <1>  -0.1500 
 10 N        3.7480    -1.4260     0.4490 N.4   1 <1>  -0.9060 
 11 C        5.0250    -0.7050     0.4080 C.3   1 <1>   0.4230 
 12 C        6.1810    -1.7150     0.4220 C.3   1 <1>  -0.1600 
 13 C        5.0410     0.2220     1.6200 C.3   1 <1>  -0.2400 
 14 C        7.5660    -1.0610     0.3030 C.3   1 <1>  -0.0170 
 15 C        8.6220    -2.1410     0.1630 C.ar  1 <1>  -0.1430 
 16 C        9.1650    -2.7370     1.2910 C.ar  1 <1>  -0.1500 
 17 C        9.0490    -2.5470    -1.0930 C.ar  1 <1>  -0.1500 
 18 C       10.1210    -3.7300     1.1660 C.ar  1 <1>  -0.1500 
 19 C       10.0050    -3.5410    -1.2180 C.ar  1 <1>  -0.1500 
 20 C       10.5400    -4.1330    -0.0890 C.ar  1 <1>  -0.1500 
 21 H       -0.4200     0.4370    -1.1970 H     1 <1>   0.0800 
 22 H        0.6800     1.5570    -0.4020 H     1 <1>   0.0800 
 23 H       -0.3550     0.5190     0.5710 H     1 <1>   0.0800 
 24 H       -1.2090    -1.5360    -0.0210 H     1 <1>   0.1500 
 25 H        2.4800    -4.6980    -0.8100 H     1 <1>   0.1500 
 26 H        3.3800    -1.4270    -1.6270 H     1 <1>   0.0800 
 27 H        4.0300    -2.9360    -1.0030 H     1 <1>   0.0800 
 28 H       -1.6360    -3.9250    -0.1000 H     1 <1>   0.1500 
 29 H        0.1980    -5.5070    -0.4900 H     1 <1>   0.1500 
 30 H        3.7200    -2.0920     1.2260 H     1 <1>   0.4500 
 31 H        2.9760    -0.7620     0.6150 H     1 <1>   0.4500 
 32 H        5.0750    -0.1090    -0.4900 H     1 <1>   0.0800 
 33 H        6.0780    -2.3900    -0.4090 H     1 <1>   0.0800 
 34 H        6.1540    -2.2950     1.3280 H     1 <1>   0.0800 
 35 H        5.0520    -0.3390     2.5390 H     1 <1>   0.0800 
 36 H        4.1850     0.8740     1.6100 H     1 <1>   0.0800 
 37 H        5.9160     0.8460     1.5990 H     1 <1>   0.0800 
 38 H        7.7880    -0.4680     1.1730 H     1 <1>   0.0800 
 39 H        7.6040    -0.4120    -0.5560 H     1 <1>   0.0800 
 40 H        8.8510    -2.4330     2.2740 H     1 <1>   0.1500 
 41 H        8.6470    -2.0950    -1.9810 H     1 <1>   0.1500 
 42 H       10.5400    -4.1890     2.0450 H     1 <1>   0.1500 
 43 H       10.3350    -3.8520    -2.1940 H     1 <1>   0.1500 
 44 H       11.2840    -4.9050    -0.1860 H     1 <1>   0.1500 
@<TRIPOS>BOND
  1   1   2  1   
  2   1   3  1   
  3   2   4  ar  
  4   2   5  ar  
  5   3  21  1   
  6   3  22  1   
  7   3  23  1   
  8   4   6  ar  
  9   4   7  1   
 10   5   8  ar  
 11   5  24  1   
 12   6   9  ar  
 13   6  25  1   
 14   7  10  1   
 15   7  26  1   
 16   7  27  1   
 17   8   9  ar  
 18   8  28  1   
 19   9  29  1   
 20  10  11  1   
 21  10  30  1   
 22  10  31  1   
 23  11  12  1   
 24  11  13  1   
 25  11  32  1   
 26  12  14  1   
 27  12  33  1   
 28  12  34  1   
 29  13  35  1   
 30  13  36  1   
 31  13  37  1   
 32  14  15  1   
 33  14  38  1   
 34  14  39  1   
 35  15  16  ar  
 36  15  17  ar  
 37  16  18  ar  
 38  16  40  1   
 39  17  19  ar  
 40  17  41  1   
 41  18  20  ar  
 42  18  42  1   
 43  19  20  ar  
 44  19  43  1   
 45  20  44  1   
@<TRIPOS>SUBSTRUCTURE
  1 ****  10 GROUP 4 **** **** 0

# MOE 2024.06 (io_trps.svl 2023.06)
