@<TRIPOS>MOLECULE
NONAME
61 63 1 0 0 
SMALL
USER_CHARGES


@<TRIPOS>ATOM
  1 O        1.3440    -1.2450     2.0780 O.2   1 <1>  -0.5700 
  2 C        1.0370    -2.0820     1.2600 C.2   1 <1>   0.4950 
  3 C        1.7970    -2.3210     0.0700 C.2   1 <1>   0.0290 
  4 C       -0.2080    -2.8900     1.5840 C.3   1 <1>  -0.0990 
  5 C        1.3950    -3.3990    -0.7910 C.2   1 <1>   0.4950 
  6 C        2.8830    -1.5150    -0.2070 C.2   1 <1>  -0.0500 
  7 C       -0.8960    -3.4620     0.3360 C.3   1 <1>   0.0000 
  8 O        2.0050    -3.7400    -1.7820 O.2   1 <1>  -0.5700 
  9 C        0.1540    -4.2220    -0.4870 C.3   1 <1>  -0.0990 
 10 N        3.6900    -1.6120    -1.2930 N.pl3 1 <1>  -0.8690 
 11 C       -1.5260    -2.3320    -0.5010 C.3   1 <1>  -0.2400 
 12 C       -2.0130    -4.4270     0.7620 C.3   1 <1>  -0.2400 
 13 C        4.8490    -0.7550    -1.6080 C.3   1 <1>   0.2090 
 14 C        6.1440    -1.5280    -1.3010 C.3   1 <1>   0.3430 
 15 N        7.3980    -0.7440    -1.5720 N.4   1 <1>  -0.9590 
 16 C        8.6000    -1.6530    -1.4810 C.3   1 <1>   0.3430 
 17 C        7.5370     0.4320    -0.6300 C.3   1 <1>   0.3430 
 18 C        9.9370    -0.9040    -1.6760 C.3   1 <1>   0.1400 
 19 C        8.8520     1.1950    -0.8600 C.3   1 <1>   0.1400 
 20 N       10.0120     0.2590    -0.7440 N.am  1 <1>  -0.6600 
 21 C       10.8690     0.3550     0.3280 C.2   1 <1>   0.5690 
 22 O       10.5730     1.0450     1.2740 O.2   1 <1>  -0.5700 
 23 C       12.1870    -0.4300     0.3660 C.3   1 <1>  -0.0190 
 24 C       12.0850    -1.7700     1.1000 C.3   1 <1>  -0.1600 
 25 C       13.3390     0.2720     1.0910 C.3   1 <1>  -0.1600 
 26 C       13.5240    -2.1390     1.4720 C.3   1 <1>  -0.1600 
 27 C       14.3390    -0.8420     1.4020 C.3   1 <1>  -0.1600 
 28 H        0.0850    -3.6870     2.2430 H     1 <1>   0.0800 
 29 H       -0.8970    -2.2640     2.1230 H     1 <1>   0.0800 
 30 H        3.1200    -0.7290     0.4960 H     1 <1>   0.1500 
 31 H       -0.2820    -4.5460    -1.4160 H     1 <1>   0.0800 
 32 H        0.4700    -5.1030     0.0420 H     1 <1>   0.0800 
 33 H        3.4470    -2.3470    -1.9920 H     1 <1>   0.4000 
 34 H       -0.7950    -1.6180    -0.8340 H     1 <1>   0.0800 
 35 H       -2.2650    -1.8040     0.0770 H     1 <1>   0.0800 
 36 H       -2.0140    -2.7370    -1.3710 H     1 <1>   0.0800 
 37 H       -2.7530    -3.9120     1.3500 H     1 <1>   0.0800 
 38 H       -1.6190    -5.2360     1.3520 H     1 <1>   0.0800 
 39 H       -2.5000    -4.8460    -0.1010 H     1 <1>   0.0800 
 40 H        4.8070    -0.4830    -2.6490 H     1 <1>   0.0800 
 41 H        4.7910     0.1360    -1.0070 H     1 <1>   0.0800 
 42 H        6.1440    -2.4210    -1.9040 H     1 <1>   0.0800 
 43 H        6.1230    -1.8260    -0.2660 H     1 <1>   0.0800 
 44 H        7.3610    -0.3780    -2.5340 H     1 <1>   0.4500 
 45 H        8.6200    -2.1220    -0.5100 H     1 <1>   0.0800 
 46 H        8.5250    -2.4350    -2.2200 H     1 <1>   0.0800 
 47 H        6.7130     1.1130    -0.7600 H     1 <1>   0.0800 
 48 H        7.5240     0.0870     0.3910 H     1 <1>   0.0800 
 49 H       10.0180    -0.5540    -2.6910 H     1 <1>   0.0800 
 50 H       10.7450    -1.5910    -1.5040 H     1 <1>   0.0800 
 51 H        8.9300     1.9920    -0.1400 H     1 <1>   0.0800 
 52 H        8.8530     1.6460    -1.8370 H     1 <1>   0.0800 
 53 H       12.5200    -0.6080    -0.6400 H     1 <1>   0.0800 
 54 H       11.5150    -1.6330     2.0050 H     1 <1>   0.0800 
 55 H       11.6200    -2.5350     0.5040 H     1 <1>   0.0800 
 56 H       13.7750     1.0550     0.4960 H     1 <1>   0.0800 
 57 H       12.9880     0.6930     2.0180 H     1 <1>   0.0800 
 58 H       13.5620    -2.5660     2.4600 H     1 <1>   0.0800 
 59 H       13.9210    -2.8540     0.7710 H     1 <1>   0.0800 
 60 H       15.0620    -0.9130     0.6070 H     1 <1>   0.0800 
 61 H       14.8570    -0.6490     2.3260 H     1 <1>   0.0800 
@<TRIPOS>BOND
  1   1   2  2   
  2   2   3  1   
  3   2   4  1   
  4   3   5  1   
  5   3   6  2   
  6   4   7  1   
  7   4  28  1   
  8   4  29  1   
  9   5   8  2   
 10   5   9  1   
 11   6  10  1   
 12   6  30  1   
 13   7   9  1   
 14   7  11  1   
 15   7  12  1   
 16   9  31  1   
 17   9  32  1   
 18  10  13  1   
 19  10  33  1   
 20  11  34  1   
 21  11  35  1   
 22  11  36  1   
 23  12  37  1   
 24  12  38  1   
 25  12  39  1   
 26  13  14  1   
 27  13  40  1   
 28  13  41  1   
 29  14  15  1   
 30  14  42  1   
 31  14  43  1   
 32  15  16  1   
 33  15  17  1   
 34  15  44  1   
 35  16  18  1   
 36  16  45  1   
 37  16  46  1   
 38  17  19  1   
 39  17  47  1   
 40  17  48  1   
 41  18  20  1   
 42  18  49  1   
 43  18  50  1   
 44  19  20  1   
 45  19  51  1   
 46  19  52  1   
 47  20  21  am  
 48  21  22  2   
 49  21  23  1   
 50  23  24  1   
 51  23  25  1   
 52  23  53  1   
 53  24  26  1   
 54  24  54  1   
 55  24  55  1   
 56  25  27  1   
 57  25  56  1   
 58  25  57  1   
 59  26  27  1   
 60  26  58  1   
 61  26  59  1   
 62  27  60  1   
 63  27  61  1   
@<TRIPOS>SUBSTRUCTURE
  1 ****  14 GROUP 4 **** **** 0

# MOE 2024.06 (io_trps.svl 2023.06)
