@<TRIPOS>MOLECULE
NONAME
41 41 1 0 0 
SMALL
USER_CHARGES


@<TRIPOS>ATOM
  1 P       -0.2890    -0.3690    -0.1210 P.3   1 <1>   1.2420 
  2 O       -0.3930    -0.1690    -1.5680 O.2   1 <1>  -0.7000 
  3 O        0.9820    -1.2580     0.2970 O.3   1 <1>  -0.5510 
  4 O       -1.5230    -1.1730     0.5300 O.3   1 <1>  -0.5510 
  5 C       -0.1380     1.1400     0.8690 C.3   1 <1>   0.1100 
  6 C        2.0840    -1.3770    -0.5250 C.3   1 <1>   0.2000 
  7 C       -2.1890    -2.2540    -0.0270 C.3   1 <1>   0.2000 
  8 N       -1.1860     2.2140     0.8480 N.3   1 <1>  -0.8100 
  9 C        2.8870    -2.5660    -0.0090 C.3   1 <1>  -0.2400 
 10 C        2.9080    -0.0900    -0.4720 C.3   1 <1>  -0.2400 
 11 C       -1.2160    -3.3470    -0.4730 C.3   1 <1>  -0.2400 
 12 C       -3.1020    -1.7740    -1.1550 C.3   1 <1>  -0.2400 
 13 C       -1.4110     2.7570    -0.5060 C.3   1 <1>   0.1100 
 14 C       -2.4730     1.7640     1.4140 C.3   1 <1>   0.1100 
 15 C       -2.4730     3.8710    -0.4750 C.3   1 <1>   0.1200 
 16 C       -3.5010     2.9090     1.3970 C.3   1 <1>   0.1200 
 17 O       -3.6640     3.4050     0.0980 O.3   1 <1>  -0.5600 
 18 H        0.7820     1.6240     0.6020 H     1 <1>   0.0800 
 19 H       -0.0160     0.8560     1.8970 H     1 <1>   0.0800 
 20 H        1.7470    -1.5770    -1.5310 H     1 <1>   0.0800 
 21 H       -2.8090    -2.6520     0.7590 H     1 <1>   0.0800 
 22 H        3.2070    -2.3930     1.0030 H     1 <1>   0.0800 
 23 H        3.7540    -2.7200    -0.6240 H     1 <1>   0.0800 
 24 H        2.2850    -3.4570    -0.0440 H     1 <1>   0.0800 
 25 H        3.1530     0.1610     0.5450 H     1 <1>   0.0800 
 26 H        2.3760     0.7220    -0.9330 H     1 <1>   0.0800 
 27 H        3.8240    -0.2260    -1.0180 H     1 <1>   0.0800 
 28 H       -0.6310    -3.0250    -1.3170 H     1 <1>   0.0800 
 29 H       -1.7680    -4.2200    -0.7680 H     1 <1>   0.0800 
 30 H       -0.5640    -3.6170     0.3380 H     1 <1>   0.0800 
 31 H       -2.5340    -1.4460    -2.0050 H     1 <1>   0.0800 
 32 H       -3.7270    -0.9710    -0.8090 H     1 <1>   0.0800 
 33 H       -3.7350    -2.5820    -1.4740 H     1 <1>   0.0800 
 34 H       -1.7500     1.9830    -1.1730 H     1 <1>   0.0800 
 35 H       -0.4900     3.1560    -0.8930 H     1 <1>   0.0800 
 36 H       -2.3260     1.4340     2.4280 H     1 <1>   0.0800 
 37 H       -2.8690     0.9420     0.8440 H     1 <1>   0.0800 
 38 H       -2.6960     4.2010    -1.4730 H     1 <1>   0.0800 
 39 H       -2.1210     4.7100     0.1000 H     1 <1>   0.0800 
 40 H       -3.1790     3.7130     2.0350 H     1 <1>   0.0800 
 41 H       -4.4580     2.5560     1.7360 H     1 <1>   0.0800 
@<TRIPOS>BOND
  1   1   2  2   
  2   1   3  1   
  3   1   4  1   
  4   1   5  1   
  5   3   6  1   
  6   4   7  1   
  7   5   8  1   
  8   5  18  1   
  9   5  19  1   
 10   6   9  1   
 11   6  10  1   
 12   6  20  1   
 13   7  11  1   
 14   7  12  1   
 15   7  21  1   
 16   8  13  1   
 17   8  14  1   
 18   9  22  1   
 19   9  23  1   
 20   9  24  1   
 21  10  25  1   
 22  10  26  1   
 23  10  27  1   
 24  11  28  1   
 25  11  29  1   
 26  11  30  1   
 27  12  31  1   
 28  12  32  1   
 29  12  33  1   
 30  13  15  1   
 31  13  34  1   
 32  13  35  1   
 33  14  16  1   
 34  14  36  1   
 35  14  37  1   
 36  15  17  1   
 37  15  38  1   
 38  15  39  1   
 39  16  17  1   
 40  16  40  1   
 41  16  41  1   
@<TRIPOS>SUBSTRUCTURE
  1 ****   1 GROUP 4 **** **** 0

# MOE 2024.06 (io_trps.svl 2023.06)
