@<TRIPOS>MOLECULE
NONAME
33 36 1 0 0 
SMALL
USER_CHARGES


@<TRIPOS>ATOM
  1 S        0.4350    -0.0170     1.4830 S.3   1 <1>  -0.4600 
  2 C        0.2060    -1.1920     0.1400 C.3   1 <1>   0.2300 
  3 C        2.0300     0.7440     1.1080 C.3   1 <1>   0.2140 
  4 C        1.3730    -2.1780     0.2360 C.3   1 <1>  -0.0160 
  5 C        0.1520    -0.4210    -1.1860 C.3   1 <1>  -0.2400 
  6 C       -1.1330    -1.8810     0.4120 C.3   1 <1>  -0.2400 
  7 C        3.0550    -0.2520     0.5710 C.ar  1 <1>  -0.1440 
  8 C        2.7660    -1.5640     0.1560 C.ar  1 <1>   0.1670 
  9 C        4.3550     0.2130     0.4840 C.ar  1 <1>  -0.1500 
 10 N        3.6710    -2.4030    -0.3240 N.ar  1 <1>  -0.5670 
 11 C        5.3190    -0.6470    -0.0130 C.ar  1 <1>   0.0000 
 12 C        4.8920    -1.9130    -0.3870 C.ar  1 <1>   0.2970 
 13 C        6.7280    -0.4590    -0.2210 C.2   1 <1>   0.0830 
 14 S        6.2530    -2.8660    -1.0010 S.3   1 <1>  -0.0800 
 15 N        7.4900     0.6570     0.0340 N.pl3 1 <1>  -0.5330 
 16 C        7.3830    -1.5220    -0.7360 C.2   1 <1>  -0.0450 
 17 C        8.8330     0.6510    -0.2330 C.2   1 <1>   0.4400 
 18 C        8.7740    -1.4970    -1.0020 C.2   1 <1>   0.8660 
 19 N        9.4770    -0.3490    -0.7230 N.2   1 <1>  -0.6610 
 20 O        9.3740    -2.4540    -1.4680 O.2   1 <1>  -0.5700 
 21 H        2.3720     1.1920     2.0250 H     1 <1>   0.0800 
 22 H        1.8380     1.5170     0.3850 H     1 <1>   0.0800 
 23 H        1.2660    -2.8980    -0.5560 H     1 <1>   0.0800 
 24 H        1.3070    -2.7170     1.1630 H     1 <1>   0.0800 
 25 H        1.0890     0.0500    -1.4120 H     1 <1>   0.0800 
 26 H       -0.6140     0.3330    -1.1450 H     1 <1>   0.0800 
 27 H       -0.0790    -1.0960    -1.9900 H     1 <1>   0.0800 
 28 H       -1.1200    -2.3650     1.3720 H     1 <1>   0.0800 
 29 H       -1.3340    -2.6200    -0.3430 H     1 <1>   0.0800 
 30 H       -1.9310    -1.1590     0.4060 H     1 <1>   0.0800 
 31 H        4.6200     1.2090     0.7900 H     1 <1>   0.1500 
 32 H        7.0590     1.4960     0.4270 H     1 <1>   0.4000 
 33 H        9.3690     1.5580    -0.0080 H     1 <1>   0.0600 
@<TRIPOS>BOND
  1   1   2  1   
  2   1   3  1   
  3   2   4  1   
  4   2   5  1   
  5   2   6  1   
  6   3   7  1   
  7   3  21  1   
  8   3  22  1   
  9   4   8  1   
 10   4  23  1   
 11   4  24  1   
 12   5  25  1   
 13   5  26  1   
 14   5  27  1   
 15   6  28  1   
 16   6  29  1   
 17   6  30  1   
 18   7   8  ar  
 19   7   9  ar  
 20   8  10  ar  
 21   9  11  ar  
 22   9  31  1   
 23  10  12  ar  
 24  11  12  ar  
 25  11  13  1   
 26  12  14  1   
 27  13  15  1   
 28  13  16  2   
 29  14  16  1   
 30  15  17  1   
 31  15  32  1   
 32  16  18  1   
 33  17  19  2   
 34  17  33  1   
 35  18  19  1   
 36  18  20  2   
@<TRIPOS>SUBSTRUCTURE
  1 ****  11 GROUP 4 **** **** 0

# MOE 2024.06 (io_trps.svl 2023.06)
