@<TRIPOS>MOLECULE
NONAME
47 49 1 0 0 
SMALL
USER_CHARGES


@<TRIPOS>ATOM
  1 O        0.5420     0.6700    -2.2280 O.2   1 <1>  -0.5700 
  2 C        0.3760     1.4320    -1.2930 C.2   1 <1>   0.5440 
  3 N       -0.8820     1.5670    -0.7610 N.am  1 <1>  -0.5470 
  4 C        1.4970     2.2130    -0.7880 C.ar  1 <1>   0.0860 
  5 C       -2.1720     1.1590    -1.1430 C.ar  1 <1>   0.1170 
  6 C        1.5350     2.8380     0.4750 C.ar  1 <1>   0.0830 
  7 C        2.6260     2.3710    -1.6020 C.ar  1 <1>  -0.1500 
  8 C       -3.2560     1.8300    -0.5510 C.ar  1 <1>   0.1000 
  9 C       -2.4150     0.1370    -2.0500 C.ar  1 <1>  -0.1500 
 10 O        0.4780     2.6980     1.3150 O.3   1 <1>  -0.3630 
 11 C        2.6450     3.5850     0.8610 C.ar  1 <1>  -0.1500 
 12 C        3.7280     3.1040    -1.2120 C.ar  1 <1>  -0.1500 
 13 N       -3.0210     2.8710     0.3700 N.pl3 1 <1>  -0.8380 
 14 C       -4.5490     1.4610    -0.9040 C.ar  1 <1>  -0.1500 
 15 C       -3.7090    -0.2220    -2.3850 C.ar  1 <1>  -0.1500 
 16 C        0.5690     2.9590     2.6990 C.3   1 <1>   0.0400 
 17 C        3.7410     3.7220     0.0320 C.ar  1 <1>   0.0830 
 18 C       -3.8630     2.9500     1.5990 C.3   1 <1>   0.2090 
 19 C       -2.7970     4.2210    -0.2260 C.3   1 <1>   0.2090 
 20 C       -4.7780     0.4420    -1.8120 C.ar  1 <1>  -0.1500 
 21 O        4.7730     4.4630     0.4940 O.3   1 <1>  -0.3630 
 22 C       -3.2870     3.9880     2.5800 C.3   1 <1>   0.1200 
 23 C       -2.2670     5.1960     0.8400 C.3   1 <1>   0.1200 
 24 C        5.9530     4.6450    -0.2580 C.3   1 <1>   0.0400 
 25 O       -3.1150     5.2330     1.9590 O.3   1 <1>  -0.5600 
 26 H       -0.9340     2.1840     0.0590 H     1 <1>   0.3700 
 27 H        2.6350     1.9020    -2.5710 H     1 <1>   0.1500 
 28 H       -1.5940    -0.3900    -2.5000 H     1 <1>   0.1500 
 29 H        2.6880     4.0800     1.8110 H     1 <1>   0.1500 
 30 H        4.5610     3.1850    -1.8850 H     1 <1>   0.1500 
 31 H       -5.3860     1.9760    -0.4740 H     1 <1>   0.1500 
 32 H       -3.8790    -1.0160    -3.0910 H     1 <1>   0.1500 
 33 H       -0.3210     2.5820     3.1690 H     1 <1>   0.0800 
 34 H        0.6410     4.0220     2.8520 H     1 <1>   0.0800 
 35 H        1.4310     2.4520     3.0970 H     1 <1>   0.0800 
 36 H       -3.8970     1.9830     2.0700 H     1 <1>   0.0800 
 37 H       -4.8670     3.2380     1.3390 H     1 <1>   0.0800 
 38 H       -3.7220     4.5960    -0.6280 H     1 <1>   0.0800 
 39 H       -2.0880     4.1470    -1.0320 H     1 <1>   0.0800 
 40 H       -5.7850     0.1680    -2.0730 H     1 <1>   0.1500 
 41 H       -2.3360     3.6570     2.9540 H     1 <1>   0.0800 
 42 H       -3.9580     4.1250     3.4090 H     1 <1>   0.0800 
 43 H       -2.2120     6.1910     0.4370 H     1 <1>   0.0800 
 44 H       -1.2850     4.8980     1.1620 H     1 <1>   0.0800 
 45 H        6.6250     5.2560     0.3170 H     1 <1>   0.0800 
 46 H        5.7070     5.1410    -1.1800 H     1 <1>   0.0800 
 47 H        6.4010     3.6850    -0.4440 H     1 <1>   0.0800 
@<TRIPOS>BOND
  1   1   2  2   
  2   2   3  am  
  3   2   4  1   
  4   3   5  1   
  5   3  26  1   
  6   4   6  ar  
  7   4   7  ar  
  8   5   8  ar  
  9   5   9  ar  
 10   6  10  1   
 11   6  11  ar  
 12   7  12  ar  
 13   7  27  1   
 14   8  13  1   
 15   8  14  ar  
 16   9  15  ar  
 17   9  28  1   
 18  10  16  1   
 19  11  17  ar  
 20  11  29  1   
 21  12  17  ar  
 22  12  30  1   
 23  13  18  1   
 24  13  19  1   
 25  14  20  ar  
 26  14  31  1   
 27  15  20  ar  
 28  15  32  1   
 29  16  33  1   
 30  16  34  1   
 31  16  35  1   
 32  17  21  1   
 33  18  22  1   
 34  18  36  1   
 35  18  37  1   
 36  19  23  1   
 37  19  38  1   
 38  19  39  1   
 39  20  40  1   
 40  21  24  1   
 41  22  25  1   
 42  22  41  1   
 43  22  42  1   
 44  23  25  1   
 45  23  43  1   
 46  23  44  1   
 47  24  45  1   
 48  24  46  1   
 49  24  47  1   
@<TRIPOS>SUBSTRUCTURE
  1 ****   3 GROUP 4 **** **** 0

# MOE 2024.06 (io_trps.svl 2023.06)
