@<TRIPOS>MOLECULE
NONAME
46 48 1 0 0 
SMALL
USER_CHARGES


@<TRIPOS>ATOM
  1 N        0.3940     0.4300     0.4780 N.pl3 1 <1>  -0.8380 
  2 C       -0.6870     0.8970    -0.2680 C.ar  1 <1>   0.1000 
  3 C        0.3700    -0.9950     0.9150 C.3   1 <1>   0.2090 
  4 C        1.7310     1.0460     0.2290 C.3   1 <1>   0.2090 
  5 C       -1.6680     1.6970     0.3190 C.ar  1 <1>  -0.1440 
  6 C       -0.8040     0.5660    -1.6150 C.ar  1 <1>  -0.1500 
  7 C        1.3100    -1.8720     0.0600 C.3   1 <1>   0.3430 
  8 C        2.6430     0.1210    -0.6040 C.3   1 <1>   0.3430 
  9 C       -2.7350     2.1470    -0.4400 C.ar  1 <1>  -0.1500 
 10 C       -1.5790     2.0850     1.7880 C.3   1 <1>  -0.0970 
 11 C       -1.8710     1.0180    -2.3670 C.ar  1 <1>  -0.1500 
 12 N        2.6930    -1.2880    -0.0640 N.4   1 <1>  -0.9590 
 13 C       -2.8400     1.8100    -1.7790 C.ar  1 <1>  -0.1500 
 14 C        3.6030    -2.1550    -0.8580 C.3   1 <1>   0.4860 
 15 C        5.0090    -1.5990    -0.7430 C.ar  1 <1>  -0.1430 
 16 C        5.7790    -1.7750     0.4050 C.ar  1 <1>  -0.1430 
 17 C        5.5280    -0.8880    -1.8170 C.ar  1 <1>  -0.1500 
 18 C        7.0460    -1.2130     0.4620 C.ar  1 <1>  -0.1500 
 19 C        5.2970    -2.5730     1.6110 C.3   1 <1>  -0.0970 
 20 C        6.7930    -0.3350    -1.7490 C.ar  1 <1>  -0.1500 
 21 C        7.5510    -0.4950    -0.6060 C.ar  1 <1>  -0.1500 
 22 H       -0.6360    -1.3730     0.8410 H     1 <1>   0.0800 
 23 H        0.6600    -1.0490     1.9490 H     1 <1>   0.0800 
 24 H        2.1990     1.2610     1.1740 H     1 <1>   0.0800 
 25 H        1.6030     1.9820    -0.2880 H     1 <1>   0.0800 
 26 H       -0.0590    -0.0470    -2.0810 H     1 <1>   0.1500 
 27 H        0.8710    -1.9700    -0.9190 H     1 <1>   0.0800 
 28 H        1.3610    -2.8550     0.4980 H     1 <1>   0.0800 
 29 H        3.6350     0.5430    -0.6240 H     1 <1>   0.0800 
 30 H        2.2710     0.1080    -1.6140 H     1 <1>   0.0800 
 31 H       -3.4960     2.7640     0.0050 H     1 <1>   0.1500 
 32 H       -1.5970     1.2020     2.3990 H     1 <1>   0.0800 
 33 H       -2.3990     2.7180     2.0740 H     1 <1>   0.0800 
 34 H       -0.6600     2.6130     1.9700 H     1 <1>   0.0800 
 35 H       -1.9550     0.7580    -3.4080 H     1 <1>   0.1500 
 36 H        3.1080    -1.2190     0.8730 H     1 <1>   0.4500 
 37 H       -3.6740     2.1650    -2.3590 H     1 <1>   0.1500 
 38 H        3.2970    -2.1730    -1.8910 H     1 <1>   0.0800 
 39 H        3.5860    -3.1640    -0.4800 H     1 <1>   0.0800 
 40 H        4.9590    -0.7540    -2.7220 H     1 <1>   0.1500 
 41 H        7.6580    -1.3320     1.3410 H     1 <1>   0.1500 
 42 H        4.6190    -1.9880     2.2040 H     1 <1>   0.0800 
 43 H        6.1290    -2.8470     2.2360 H     1 <1>   0.0800 
 44 H        4.8160    -3.4850     1.3050 H     1 <1>   0.0800 
 45 H        7.1940     0.2160    -2.5830 H     1 <1>   0.1500 
 46 H        8.5370    -0.0660    -0.5480 H     1 <1>   0.1500 
@<TRIPOS>BOND
  1   1   2  1   
  2   1   3  1   
  3   1   4  1   
  4   2   5  ar  
  5   2   6  ar  
  6   3   7  1   
  7   3  22  1   
  8   3  23  1   
  9   4   8  1   
 10   4  24  1   
 11   4  25  1   
 12   5   9  ar  
 13   5  10  1   
 14   6  11  ar  
 15   6  26  1   
 16   7  12  1   
 17   7  27  1   
 18   7  28  1   
 19   8  12  1   
 20   8  29  1   
 21   8  30  1   
 22   9  13  ar  
 23   9  31  1   
 24  10  32  1   
 25  10  33  1   
 26  10  34  1   
 27  11  13  ar  
 28  11  35  1   
 29  12  14  1   
 30  12  36  1   
 31  13  37  1   
 32  14  15  1   
 33  14  38  1   
 34  14  39  1   
 35  15  16  ar  
 36  15  17  ar  
 37  16  18  ar  
 38  16  19  1   
 39  17  20  ar  
 40  17  40  1   
 41  18  21  ar  
 42  18  41  1   
 43  19  42  1   
 44  19  43  1   
 45  19  44  1   
 46  20  21  ar  
 47  20  45  1   
 48  21  46  1   
@<TRIPOS>SUBSTRUCTURE
  1 ****   8 GROUP 4 **** **** 0

# MOE 2024.06 (io_trps.svl 2023.06)
