@<TRIPOS>MOLECULE
NONAME
38 39 1 0 0 
SMALL
USER_CHARGES


@<TRIPOS>ATOM
  1 BR      -0.0470     0.1320     0.3580 Br    1 <1>  -0.1110 
  2 C       -1.9660     0.0570     0.2550 C.ar  1 <1>   0.1110 
  3 C       -2.5770    -1.1570     0.0140 C.ar  1 <1>  -0.1500 
  4 C       -2.6910     1.2190     0.4260 C.ar  1 <1>  -0.1500 
  5 C       -3.9580    -1.2020    -0.0580 C.ar  1 <1>  -0.1500 
  6 C       -4.0710     1.1550     0.3500 C.ar  1 <1>  -0.1500 
  7 C       -4.7360    -0.0520     0.1070 C.ar  1 <1>   0.0530 
  8 C       -6.1800    -0.1110     0.0290 C.2   1 <1>   0.0870 
  9 O       -6.9100     0.9810     0.2170 O.3   1 <1>  -0.2800 
 10 C       -7.0240    -1.1490    -0.2200 C.2   1 <1>  -0.1500 
 11 C       -8.1850     0.6780     0.0980 C.2   1 <1>  -0.0400 
 12 C       -8.3230    -0.6390    -0.1750 C.2   1 <1>  -0.1500 
 13 C       -9.1840     1.8030     0.2800 C.3   1 <1>   0.5230 
 14 N      -10.5430     1.3250    -0.0530 N.4   1 <1>  -0.9060 
 15 C      -11.6230     2.3120     0.1420 C.3   1 <1>   0.4230 
 16 C      -12.9260     1.5480     0.4790 C.3   1 <1>   0.1200 
 17 C      -11.7470     3.1920    -1.1100 C.3   1 <1>  -0.1600 
 18 O      -12.6210     0.3980     1.2170 O.3   1 <1>  -0.6800 
 19 C      -12.7830     4.3140    -0.9460 C.3   1 <1>  -0.2400 
 20 H       -1.9820    -2.0440    -0.1140 H     1 <1>   0.1500 
 21 H       -2.1850     2.1500     0.6130 H     1 <1>   0.1500 
 22 H       -4.4350    -2.1460    -0.2450 H     1 <1>   0.1500 
 23 H       -4.6420     2.0570     0.4820 H     1 <1>   0.1500 
 24 H       -6.7710    -2.1760    -0.4160 H     1 <1>   0.1500 
 25 H       -9.2070    -1.2320    -0.3320 H     1 <1>   0.1500 
 26 H       -8.9120     2.6200    -0.3680 H     1 <1>   0.0800 
 27 H       -9.1470     2.1470     1.3010 H     1 <1>   0.0800 
 28 H      -10.7990     0.5500     0.5860 H     1 <1>   0.4500 
 29 H      -10.5640     0.9360    -0.9980 H     1 <1>   0.4500 
 30 H      -11.3850     2.9380     0.9880 H     1 <1>   0.0800 
 31 H      -13.4350     1.2430    -0.4200 H     1 <1>   0.0800 
 32 H      -13.5870     2.1700     1.0590 H     1 <1>   0.0800 
 33 H      -12.0240     2.5890    -1.9580 H     1 <1>   0.0800 
 34 H      -10.7970     3.6520    -1.3210 H     1 <1>   0.0800 
 35 H      -13.4420    -0.0490     1.5260 H     1 <1>   0.4000 
 36 H      -13.7760     3.9190    -0.8160 H     1 <1>   0.0800 
 37 H      -12.7900     4.9340    -1.8270 H     1 <1>   0.0800 
 38 H      -12.5440     4.9390    -0.1020 H     1 <1>   0.0800 
@<TRIPOS>BOND
  1   1   2  1   
  2   2   3  ar  
  3   2   4  ar  
  4   3   5  ar  
  5   3  20  1   
  6   4   6  ar  
  7   4  21  1   
  8   5   7  ar  
  9   5  22  1   
 10   6   7  ar  
 11   6  23  1   
 12   7   8  1   
 13   8   9  1   
 14   8  10  2   
 15   9  11  1   
 16  10  12  1   
 17  10  24  1   
 18  11  12  2   
 19  11  13  1   
 20  12  25  1   
 21  13  14  1   
 22  13  26  1   
 23  13  27  1   
 24  14  15  1   
 25  14  28  1   
 26  14  29  1   
 27  15  16  1   
 28  15  17  1   
 29  15  30  1   
 30  16  18  1   
 31  16  31  1   
 32  16  32  1   
 33  17  19  1   
 34  17  33  1   
 35  17  34  1   
 36  18  35  1   
 37  19  36  1   
 38  19  37  1   
 39  19  38  1   
@<TRIPOS>SUBSTRUCTURE
  1 ****   9 GROUP 4 **** **** 0

# MOE 2024.06 (io_trps.svl 2023.06)
