@<TRIPOS>MOLECULE
NONAME
37 39 1 0 0 
SMALL
USER_CHARGES


@<TRIPOS>ATOM
  1 O        0.0660    -0.0190    -0.6870 O.3   1 <1>  -0.3370 
  2 N       -0.8130    -0.6010     0.1060 N.2   1 <1>  -0.5130 
  3 C       -1.2650    -1.7500    -0.1850 C.2   1 <1>   0.3280 
  4 C       -0.8530    -2.5680    -1.4150 C.3   1 <1>   0.2340 
  5 C       -2.2810    -2.4210     0.7400 C.3   1 <1>  -0.0990 
  6 N       -0.1870    -3.8070    -1.0320 N.2   1 <1>  -0.1710 
  7 C       -3.7690    -2.0780     0.4870 C.3   1 <1>   0.0000 
  8 O        0.8890    -3.9890    -1.4530 O.2   1 <1>  -0.1620 
  9 C       -4.2250    -2.4440    -0.9450 C.3   1 <1>  -0.1600 
 10 C       -4.0460    -0.5720     0.7130 C.3   1 <1>  -0.1600 
 11 C       -4.6310    -2.8820     1.4910 C.3   1 <1>  -0.1600 
 12 C       -5.7230    -2.1400    -1.1400 C.3   1 <1>  -0.0800 
 13 C       -5.5420    -0.2530     0.5250 C.3   1 <1>  -0.0800 
 14 C       -6.1280    -2.5770     1.3090 C.3   1 <1>  -0.0800 
 15 C       -5.9660    -0.6380    -0.9050 C.3   1 <1>  -0.1600 
 16 C       -6.5460    -2.9520    -0.1240 C.3   1 <1>  -0.1600 
 17 C       -6.3660    -1.0730     1.5340 C.3   1 <1>  -0.1600 
 18 H        0.3990     0.8420    -0.3590 H     1 <1>   0.4000 
 19 H       -0.1960    -1.9990    -2.0470 H     1 <1>   0.0800 
 20 H       -1.7180    -2.8200    -1.9940 H     1 <1>   0.0800 
 21 H       -2.1510    -3.4860     0.7000 H     1 <1>   0.0800 
 22 H       -2.0370    -2.1260     1.7460 H     1 <1>   0.0800 
 23 H       -3.6740    -1.8670    -1.6660 H     1 <1>   0.0800 
 24 H       -4.0430    -3.4870    -1.1360 H     1 <1>   0.0800 
 25 H       -3.7410    -0.2870     1.7050 H     1 <1>   0.0800 
 26 H       -3.4750     0.0190     0.0190 H     1 <1>   0.0800 
 27 H       -4.4670    -3.9370     1.3540 H     1 <1>   0.0800 
 28 H       -4.3420    -2.6370     2.4990 H     1 <1>   0.0800 
 29 H       -6.0210    -2.4030    -2.1410 H     1 <1>   0.0800 
 30 H       -5.7120     0.7980     0.6850 H     1 <1>   0.0800 
 31 H       -6.7050    -3.1460     2.0170 H     1 <1>   0.0800 
 32 H       -7.0080    -0.4100    -1.0480 H     1 <1>   0.0800 
 33 H       -5.4050    -0.0600    -1.6180 H     1 <1>   0.0800 
 34 H       -6.3920    -4.0040    -0.2860 H     1 <1>   0.0800 
 35 H       -7.5940    -2.7510    -0.2620 H     1 <1>   0.0800 
 36 H       -6.0850    -0.8050     2.5370 H     1 <1>   0.0800 
 37 H       -7.4120    -0.8480     1.4170 H     1 <1>   0.0800 
@<TRIPOS>BOND
  1   1   2  1   
  2   1  18  1   
  3   2   3  2   
  4   3   4  1   
  5   3   5  1   
  6   4   6  1   
  7   4  19  1   
  8   4  20  1   
  9   5   7  1   
 10   5  21  1   
 11   5  22  1   
 12   6   8  2   
 13   7   9  1   
 14   7  10  1   
 15   7  11  1   
 16   9  12  1   
 17   9  23  1   
 18   9  24  1   
 19  10  13  1   
 20  10  25  1   
 21  10  26  1   
 22  11  14  1   
 23  11  27  1   
 24  11  28  1   
 25  12  15  1   
 26  12  16  1   
 27  12  29  1   
 28  13  15  1   
 29  13  17  1   
 30  13  30  1   
 31  14  16  1   
 32  14  17  1   
 33  14  31  1   
 34  15  32  1   
 35  15  33  1   
 36  16  34  1   
 37  16  35  1   
 38  17  36  1   
 39  17  37  1   
@<TRIPOS>SUBSTRUCTURE
  1 ****   7 GROUP 4 **** **** 0

# MOE 2024.06 (io_trps.svl 2023.06)
