@<TRIPOS>MOLECULE
NONAME
46 49 1 0 0 
SMALL
USER_CHARGES


@<TRIPOS>ATOM
  1 O       -1.6140     0.0440     2.1890 O.2   1 <1>  -0.5700 
  2 C       -1.6340    -1.0740     1.7180 C.2   1 <1>   0.7060 
  3 O       -2.4970    -1.3420     0.7380 O.3   1 <1>  -0.2320 
  4 C       -0.7700    -2.1180     2.1610 C.2   1 <1>  -0.1360 
  5 C       -2.5720    -2.5550     0.1440 C.ar  1 <1>   0.0820 
  6 C       -0.7940    -3.3500     1.6080 C.2   1 <1>  -0.1670 
  7 C       -1.7280    -3.6030     0.5420 C.ar  1 <1>   0.0280 
  8 C       -3.5030    -2.7290    -0.8690 C.ar  1 <1>  -0.1500 
  9 C        0.1500    -4.4430     2.0980 C.3   1 <1>   0.2480 
 10 C       -1.8570    -4.8210    -0.1300 C.ar  1 <1>  -0.1500 
 11 C       -3.6170    -3.9450    -1.5150 C.ar  1 <1>  -0.1440 
 12 N        1.1330    -4.8090     1.0670 N.3   1 <1>  -0.8100 
 13 C       -2.7860    -4.9890    -1.1380 C.ar  1 <1>  -0.1500 
 14 C       -4.6320    -4.1500    -2.6250 C.3   1 <1>  -0.0970 
 15 C        1.9420    -3.6480     0.6250 C.3   1 <1>   0.1100 
 16 C        2.0060    -5.8990     1.5570 C.3   1 <1>   0.1100 
 17 C        2.9750    -4.0400    -0.4450 C.3   1 <1>   0.1400 
 18 C        3.0350    -6.3260     0.4970 C.3   1 <1>   0.1400 
 19 N        3.8370    -5.1480     0.0550 N.am  1 <1>  -0.6600 
 20 C        5.1090    -4.9230     0.5410 C.2   1 <1>   0.7150 
 21 O        5.4880    -5.5820     1.4940 O.2   1 <1>  -0.5700 
 22 C        5.9740    -3.9290    -0.0610 C.2   1 <1>   0.0550 
 23 O        6.8040    -3.1970     0.6790 O.3   1 <1>  -0.2800 
 24 C        6.1230    -3.5530    -1.3630 C.2   1 <1>  -0.1500 
 25 C        7.4660    -2.3780    -0.1050 C.2   1 <1>  -0.0100 
 26 C        7.0890    -2.5460    -1.3890 C.2   1 <1>  -0.1500 
 27 H       -0.1030    -1.8490     2.9580 H     1 <1>   0.1500 
 28 H       -4.1320    -1.9010    -1.1430 H     1 <1>   0.1500 
 29 H       -0.4290    -5.3100     2.3650 H     1 <1>   0.0800 
 30 H        0.6690    -4.1080     2.9810 H     1 <1>   0.0800 
 31 H       -1.2200    -5.6460     0.1310 H     1 <1>   0.1500 
 32 H       -2.8630    -5.9400    -1.6380 H     1 <1>   0.1500 
 33 H       -5.1920    -3.2510    -2.8060 H     1 <1>   0.0800 
 34 H       -5.3190    -4.9320    -2.3530 H     1 <1>   0.0800 
 35 H       -4.1290    -4.4290    -3.5330 H     1 <1>   0.0800 
 36 H        2.4550    -3.2160     1.4670 H     1 <1>   0.0800 
 37 H        1.2980    -2.8960     0.2020 H     1 <1>   0.0800 
 38 H        1.4040    -6.7520     1.8150 H     1 <1>   0.0800 
 39 H        2.5350    -5.5810     2.4400 H     1 <1>   0.0800 
 40 H        3.5630    -3.1750    -0.6930 H     1 <1>   0.0800 
 41 H        2.4600    -4.3610    -1.3340 H     1 <1>   0.0800 
 42 H        2.5200    -6.7440    -0.3500 H     1 <1>   0.0800 
 43 H        3.6770    -7.0890     0.9030 H     1 <1>   0.0800 
 44 H        5.6100    -3.9480    -2.2220 H     1 <1>   0.1500 
 45 H        8.1890    -1.7090     0.3310 H     1 <1>   0.1500 
 46 H        7.4430    -2.0320    -2.2660 H     1 <1>   0.1500 
@<TRIPOS>BOND
  1   1   2  2   
  2   2   3  1   
  3   2   4  1   
  4   3   5  1   
  5   4   6  2   
  6   4  27  1   
  7   5   7  ar  
  8   5   8  ar  
  9   6   7  1   
 10   6   9  1   
 11   7  10  ar  
 12   8  11  ar  
 13   8  28  1   
 14   9  12  1   
 15   9  29  1   
 16   9  30  1   
 17  10  13  ar  
 18  10  31  1   
 19  11  13  ar  
 20  11  14  1   
 21  12  15  1   
 22  12  16  1   
 23  13  32  1   
 24  14  33  1   
 25  14  34  1   
 26  14  35  1   
 27  15  17  1   
 28  15  36  1   
 29  15  37  1   
 30  16  18  1   
 31  16  38  1   
 32  16  39  1   
 33  17  19  1   
 34  17  40  1   
 35  17  41  1   
 36  18  19  1   
 37  18  42  1   
 38  18  43  1   
 39  19  20  am  
 40  20  21  2   
 41  20  22  1   
 42  22  23  1   
 43  22  24  2   
 44  23  25  1   
 45  24  26  1   
 46  24  44  1   
 47  25  26  2   
 48  25  45  1   
 49  26  46  1   
@<TRIPOS>SUBSTRUCTURE
  1 ****  15 GROUP 4 **** **** 0

# MOE 2024.06 (io_trps.svl 2023.06)
