@<TRIPOS>MOLECULE
NONAME
36 37 1 0 0 
SMALL
USER_CHARGES


@<TRIPOS>ATOM
  1 O       -0.7770    -0.3420    -0.9510 O.2   1 <1>  -0.5700 
  2 C       -1.7760    -0.9070    -0.5570 C.2   1 <1>   0.7060 
  3 O       -2.8730    -0.1870    -0.3390 O.3   1 <1>  -0.2320 
  4 C       -1.8420    -2.3060    -0.3130 C.2   1 <1>  -0.1360 
  5 C       -4.0330    -0.7280     0.1010 C.ar  1 <1>   0.0830 
  6 C       -2.9680    -2.9120     0.1280 C.2   1 <1>  -0.1670 
  7 C       -4.1520    -2.1080     0.3610 C.ar  1 <1>   0.0280 
  8 C       -5.0890     0.1490     0.2800 C.ar  1 <1>  -0.1500 
  9 C       -2.9370    -4.4190     0.3580 C.3   1 <1>  -0.1020 
 10 C       -5.4130    -2.5560     0.8170 C.ar  1 <1>   0.0830 
 11 C       -6.3100    -0.3080     0.7270 C.ar  1 <1>  -0.1440 
 12 O       -5.5830    -3.8770     1.0850 O.3   1 <1>  -0.3630 
 13 C       -6.4610    -1.6570     0.9930 C.ar  1 <1>  -0.1500 
 14 C       -7.4760     0.6430     0.9280 C.3   1 <1>  -0.0970 
 15 C       -6.8190    -4.5040     1.3640 C.3   1 <1>   0.1200 
 16 C       -7.6210    -4.6640     0.0670 C.3   1 <1>  -0.1600 
 17 C       -8.9570    -5.3700     0.3290 C.3   1 <1>  -0.1600 
 18 C       -9.7560    -5.5320    -0.9670 C.3   1 <1>  -0.2400 
 19 H       -0.9310    -2.8390    -0.5050 H     1 <1>   0.1500 
 20 H       -4.9410     1.1920     0.0650 H     1 <1>   0.1500 
 21 H       -3.1550    -4.6400     1.3870 H     1 <1>   0.0800 
 22 H       -1.9710    -4.8310     0.1270 H     1 <1>   0.0800 
 23 H       -3.6640    -4.9040    -0.2690 H     1 <1>   0.0800 
 24 H       -7.4210    -1.9840     1.3410 H     1 <1>   0.1500 
 25 H       -7.2030     1.6490     0.6610 H     1 <1>   0.0800 
 26 H       -7.7830     0.6340     1.9580 H     1 <1>   0.0800 
 27 H       -8.3060     0.3410     0.3140 H     1 <1>   0.0800 
 28 H       -7.3460    -3.9390     2.1110 H     1 <1>   0.0800 
 29 H       -6.5920    -5.4730     1.7730 H     1 <1>   0.0800 
 30 H       -7.0410    -5.2430    -0.6300 H     1 <1>   0.0800 
 31 H       -7.8100    -3.6990    -0.3670 H     1 <1>   0.0800 
 32 H       -9.5380    -4.7990     1.0330 H     1 <1>   0.0800 
 33 H       -8.7760    -6.3430     0.7550 H     1 <1>   0.0800 
 34 H       -9.9680    -4.5700    -1.4020 H     1 <1>   0.0800 
 35 H      -10.6880    -6.0290    -0.7660 H     1 <1>   0.0800 
 36 H       -9.2030    -6.1190    -1.6800 H     1 <1>   0.0800 
@<TRIPOS>BOND
  1   1   2  2   
  2   2   3  1   
  3   2   4  1   
  4   3   5  1   
  5   4   6  2   
  6   4  19  1   
  7   5   7  ar  
  8   5   8  ar  
  9   6   7  1   
 10   6   9  1   
 11   7  10  ar  
 12   8  11  ar  
 13   8  20  1   
 14   9  21  1   
 15   9  22  1   
 16   9  23  1   
 17  10  12  1   
 18  10  13  ar  
 19  11  13  ar  
 20  11  14  1   
 21  12  15  1   
 22  13  24  1   
 23  14  25  1   
 24  14  26  1   
 25  14  27  1   
 26  15  16  1   
 27  15  28  1   
 28  15  29  1   
 29  16  17  1   
 30  16  30  1   
 31  16  31  1   
 32  17  18  1   
 33  17  32  1   
 34  17  33  1   
 35  18  34  1   
 36  18  35  1   
 37  18  36  1   
@<TRIPOS>SUBSTRUCTURE
  1 ****  10 GROUP 4 **** **** 0

# MOE 2024.06 (io_trps.svl 2023.06)
