@<TRIPOS>MOLECULE
NONAME
44 45 1 0 0 
SMALL
USER_CHARGES


@<TRIPOS>ATOM
  1 O        0.3090     0.0440    -0.7740 O.2   1 <1>  -0.5700 
  2 C        1.1030    -0.7550    -0.3660 C.2   1 <1>   0.4480 
  3 C        2.1910    -0.4250     0.6490 C.3   1 <1>   0.0610 
  4 C        1.0940    -2.2150    -0.8030 C.3   1 <1>   0.0610 
  5 C        1.9220    -1.2970     1.8960 C.3   1 <1>   0.1400 
  6 C        3.5530    -0.7600     0.0030 C.3   1 <1>   0.1400 
  7 C        2.1560     1.0610     1.1160 C.3   1 <1>  -0.1600 
  8 C        0.8000    -3.0660     0.4490 C.3   1 <1>   0.1400 
  9 C        2.4660    -2.5390    -1.4320 C.3   1 <1>   0.1400 
 10 C       -0.0010    -2.5020    -1.8560 C.3   1 <1>  -0.2400 
 11 N        1.6960    -2.7520     1.6060 N.am  1 <1>  -0.6600 
 12 N        3.6200    -2.1440    -0.5660 N.am  1 <1>  -0.6600 
 13 C        2.5120     2.1340     0.0640 C.3   1 <1>  -0.1600 
 14 C        2.2120    -3.6960     2.4590 C.2   1 <1>   0.5690 
 15 C        4.7330    -2.9170    -0.3470 C.2   1 <1>   0.5690 
 16 C        3.9710     2.6030     0.1570 C.3   1 <1>  -0.2400 
 17 O        2.8250    -3.3970     3.4540 O.2   1 <1>  -0.5700 
 18 C        2.0070    -5.1710     2.2000 C.3   1 <1>  -0.1790 
 19 O        5.6910    -2.5070     0.2600 O.2   1 <1>  -0.5700 
 20 C        4.8170    -4.3250    -0.8890 C.3   1 <1>  -0.1790 
 21 H        2.7520    -1.1850     2.5740 H     1 <1>   0.0800 
 22 H        1.0460    -0.9280     2.4020 H     1 <1>   0.0800 
 23 H        4.3270    -0.6200     0.7370 H     1 <1>   0.0800 
 24 H        3.7450    -0.0800    -0.8060 H     1 <1>   0.0800 
 25 H        2.8010     1.1850     1.9690 H     1 <1>   0.0800 
 26 H        1.1570     1.2700     1.4600 H     1 <1>   0.0800 
 27 H        0.8730    -4.1040     0.1830 H     1 <1>   0.0800 
 28 H       -0.2140    -2.8820     0.7630 H     1 <1>   0.0800 
 29 H        2.5570    -2.0030    -2.3610 H     1 <1>   0.0800 
 30 H        2.5030    -3.5880    -1.6600 H     1 <1>   0.0800 
 31 H        0.1520    -1.8960    -2.7320 H     1 <1>   0.0800 
 32 H       -0.9740    -2.2650    -1.4610 H     1 <1>   0.0800 
 33 H        0.0060    -3.5370    -2.1490 H     1 <1>   0.0800 
 34 H        1.8830     2.9920     0.2330 H     1 <1>   0.0800 
 35 H        2.2960     1.7850    -0.9320 H     1 <1>   0.0800 
 36 H        4.1650     3.0300     1.1250 H     1 <1>   0.0800 
 37 H        4.1560     3.3580    -0.5870 H     1 <1>   0.0800 
 38 H        4.6620     1.7960    -0.0040 H     1 <1>   0.0800 
 39 H        0.9590    -5.4020     2.2120 H     1 <1>   0.0800 
 40 H        2.4930    -5.7420     2.9700 H     1 <1>   0.0800 
 41 H        2.4340    -5.4420     1.2550 H     1 <1>   0.0800 
 42 H        5.7460    -4.7720    -0.5870 H     1 <1>   0.0800 
 43 H        4.0120    -4.9170    -0.5000 H     1 <1>   0.0800 
 44 H        4.7770    -4.3070    -1.9610 H     1 <1>   0.0800 
@<TRIPOS>BOND
  1   1   2  2   
  2   2   3  1   
  3   2   4  1   
  4   3   5  1   
  5   3   6  1   
  6   3   7  1   
  7   4   8  1   
  8   4   9  1   
  9   4  10  1   
 10   5  11  1   
 11   5  21  1   
 12   5  22  1   
 13   6  12  1   
 14   6  23  1   
 15   6  24  1   
 16   7  13  1   
 17   7  25  1   
 18   7  26  1   
 19   8  11  1   
 20   8  27  1   
 21   8  28  1   
 22   9  12  1   
 23   9  29  1   
 24   9  30  1   
 25  10  31  1   
 26  10  32  1   
 27  10  33  1   
 28  11  14  am  
 29  12  15  am  
 30  13  16  1   
 31  13  34  1   
 32  13  35  1   
 33  14  17  2   
 34  14  18  1   
 35  15  19  2   
 36  15  20  1   
 37  16  36  1   
 38  16  37  1   
 39  16  38  1   
 40  18  39  1   
 41  18  40  1   
 42  18  41  1   
 43  20  42  1   
 44  20  43  1   
 45  20  44  1   
@<TRIPOS>SUBSTRUCTURE
  1 ****   3 GROUP 4 **** **** 0

# MOE 2024.06 (io_trps.svl 2023.06)
