@<TRIPOS>MOLECULE
NONAME
57 61 1 0 0 
SMALL
USER_CHARGES


@<TRIPOS>ATOM
  1 O       -5.3550     1.5610     2.5010 O.2   1 <1>  -0.5740 
  2 C       -5.9800     0.9120     1.7090 C.2   1 <1>   0.4440 
  3 C       -5.3250    -0.0440     0.6950 C.3   1 <1>   0.0540 
  4 C       -7.4980     1.0900     1.6650 C.3   1 <1>   0.4100 
  5 C       -5.8270     0.2360    -0.7480 C.3   1 <1>  -0.1660 
  6 C       -5.6450    -1.5160     1.0540 C.3   1 <1>  -0.1660 
  7 C       -3.7830     0.1290     0.7020 C.3   1 <1>  -0.1660 
  8 N       -7.9410     2.2720     0.8490 N.pl3 1 <1>  -0.7670 
  9 C       -5.1670    -0.7220    -1.7550 C.3   1 <1>  -0.0870 
 10 C       -4.9860    -2.4790     0.0490 C.3   1 <1>  -0.0870 
 11 C       -3.1130    -0.8270    -0.2990 C.3   1 <1>  -0.0870 
 12 C       -7.3860     3.4900     0.7610 C.cat 1 <1>   1.0690 
 13 C       -9.0540     2.2610     0.0110 C.ar  1 <1>   0.3040 
 14 C       -5.5070    -2.1730    -1.3670 C.3   1 <1>  -0.1660 
 15 C       -3.6410    -0.5280    -1.7120 C.3   1 <1>  -0.1660 
 16 C       -3.4610    -2.2780     0.0800 C.3   1 <1>  -0.1660 
 17 N       -8.0730     4.2450    -0.0820 N.pl3 1 <1>  -0.7030 
 18 N       -6.3010     3.9000     1.4040 N.pl3 1 <1>  -0.7170 
 19 C       -9.1310     3.5110    -0.5770 C.ar  1 <1>   0.3040 
 20 C       -9.9980     1.2840    -0.2920 C.ar  1 <1>  -0.1150 
 21 C       -5.5300     5.1560     1.2740 C.3   1 <1>   0.1620 
 22 C      -10.1410     3.8250    -1.4770 C.ar  1 <1>  -0.1150 
 23 C      -11.0060     1.5910    -1.1880 C.ar  1 <1>  -0.1560 
 24 C       -4.0850     4.8180     0.9010 C.3   1 <1>  -0.1660 
 25 C      -11.0770     2.8540    -1.7770 C.ar  1 <1>  -0.1560 
 26 C       -3.9720     4.1940    -0.4920 C.3   1 <1>   0.1140 
 27 O       -2.6870     3.7270    -0.6550 O.3   1 <1>  -0.6830 
 28 H       -7.8490     1.2210     2.6740 H     1 <1>   0.0730 
 29 H       -7.9480     0.1930     1.2840 H     1 <1>   0.0730 
 30 H       -5.5950     1.2480    -1.0280 H     1 <1>   0.0730 
 31 H       -6.8910     0.1070    -0.8190 H     1 <1>   0.0730 
 32 H       -6.7060    -1.6910     1.0500 H     1 <1>   0.0730 
 33 H       -5.2810    -1.7350     2.0430 H     1 <1>   0.0730 
 34 H       -3.5220     1.1420     0.4500 H     1 <1>   0.0730 
 35 H       -3.3960    -0.0670     1.6870 H     1 <1>   0.0730 
 36 H       -5.5270    -0.5180    -2.7480 H     1 <1>   0.0730 
 37 H       -5.2200    -3.4970     0.3100 H     1 <1>   0.0730 
 38 H       -2.0450    -0.6900    -0.2740 H     1 <1>   0.0730 
 39 H       -6.5710    -2.3270    -1.4100 H     1 <1>   0.0730 
 40 H       -5.0540    -2.8500    -2.0720 H     1 <1>   0.0730 
 41 H       -3.3900     0.4820    -1.9870 H     1 <1>   0.0730 
 42 H       -3.1700    -1.1850    -2.4220 H     1 <1>   0.0730 
 43 H       -2.9900    -2.9550    -0.6110 H     1 <1>   0.0730 
 44 H       -3.0810    -2.4990     1.0620 H     1 <1>   0.0730 
 45 H       -7.8600     5.2120    -0.3050 H     1 <1>   0.4460 
 46 H       -5.8310     3.2110     2.0150 H     1 <1>   0.4460 
 47 H       -9.9510     0.3090     0.1570 H     1 <1>   0.1440 
 48 H       -5.5410     5.6730     2.2200 H     1 <1>   0.0730 
 49 H       -5.9620     5.8020     0.5300 H     1 <1>   0.0730 
 50 H      -10.1900     4.8010    -1.9270 H     1 <1>   0.1440 
 51 H      -11.7500     0.8520    -1.4390 H     1 <1>   0.1440 
 52 H       -3.6790     4.1450     1.6380 H     1 <1>   0.0730 
 53 H       -3.5050     5.7240     0.9230 H     1 <1>   0.0730 
 54 H      -11.8750     3.0670    -2.4720 H     1 <1>   0.1440 
 55 H       -4.1750     4.9120    -1.2680 H     1 <1>   0.0730 
 56 H       -4.6290     3.3500    -0.6020 H     1 <1>   0.0730 
 57 H       -2.0330     4.4520    -0.6000 H     1 <1>   0.3950 
@<TRIPOS>BOND
  1   1   2  2   
  2   2   3  1   
  3   2   4  1   
  4   3   5  1   
  5   3   6  1   
  6   3   7  1   
  7   4   8  1   
  8   4  28  1   
  9   4  29  1   
 10   5   9  1   
 11   5  30  1   
 12   5  31  1   
 13   6  10  1   
 14   6  32  1   
 15   6  33  1   
 16   7  11  1   
 17   7  34  1   
 18   7  35  1   
 19   8  12  ar  
 20   8  13  1   
 21   9  14  1   
 22   9  15  1   
 23   9  36  1   
 24  10  14  1   
 25  10  16  1   
 26  10  37  1   
 27  11  15  1   
 28  11  16  1   
 29  11  38  1   
 30  12  17  ar  
 31  12  18  ar  
 32  13  19  ar  
 33  13  20  ar  
 34  14  39  1   
 35  14  40  1   
 36  15  41  1   
 37  15  42  1   
 38  16  43  1   
 39  16  44  1   
 40  17  19  1   
 41  17  45  1   
 42  18  21  1   
 43  18  46  1   
 44  19  22  ar  
 45  20  23  ar  
 46  20  47  1   
 47  21  24  1   
 48  21  48  1   
 49  21  49  1   
 50  22  25  ar  
 51  22  50  1   
 52  23  25  ar  
 53  23  51  1   
 54  24  26  1   
 55  24  52  1   
 56  24  53  1   
 57  25  54  1   
 58  26  27  1   
 59  26  55  1   
 60  26  56  1   
 61  27  57  1   
@<TRIPOS>SUBSTRUCTURE
  1 ****   5 GROUP 4 **** **** 0

# MOE 2024.06 (io_trps.svl 2023.06)
