@<TRIPOS>MOLECULE
NONAME
40 41 1 0 0 
SMALL
USER_CHARGES


@<TRIPOS>ATOM
  1 O        0.4050     0.8840    -0.1790 O.2   1 <1>  -0.5700 
  2 C        0.1410     1.5630     0.7930 C.2   1 <1>   0.6900 
  3 N       -1.1530     1.8060     1.1630 N.am  1 <1>  -0.5470 
  4 N        1.1260     2.1200     1.5470 N.am  1 <1>  -0.4930 
  5 C       -2.3540     1.2710     0.6690 C.ar  1 <1>   0.1170 
  6 C        2.5070     2.0980     1.3760 C.2   1 <1>   0.3520 
  7 C       -2.4360     0.0050     0.0980 C.ar  1 <1>  -0.1500 
  8 C       -3.5180     2.0260     0.7720 C.ar  1 <1>  -0.1500 
  9 N        3.2890     2.6210     2.2530 N.2   1 <1>  -0.4100 
 10 C        3.2440     1.5620     0.3190 C.2   1 <1>  -0.1500 
 11 C       -3.6440    -0.4880    -0.3590 C.ar  1 <1>  -0.1500 
 12 C       -4.7300     1.5370     0.3170 C.ar  1 <1>  -0.1500 
 13 O        4.5060     2.4420     1.8040 O.3   1 <1>  -0.0190 
 14 C        4.5180     1.8140     0.6540 C.2   1 <1>  -0.0400 
 15 C       -4.7980     0.2700    -0.2540 C.ar  1 <1>   0.0830 
 16 C        5.8470     1.5090    -0.0350 C.3   1 <1>   0.1800 
 17 O       -5.9430    -0.2900    -0.7280 O.3   1 <1>  -0.3630 
 18 C        5.6070     0.7740    -1.3620 C.3   1 <1>  -0.2400 
 19 C        6.7040     0.6230     0.8770 C.3   1 <1>  -0.2400 
 20 C        6.5880     2.8220    -0.3200 C.3   1 <1>  -0.2400 
 21 C       -7.1620     0.4190    -0.7000 C.3   1 <1>   0.0400 
 22 H       -1.2730     2.5610     1.8290 H     1 <1>   0.3700 
 23 H        0.8530     2.5630     2.4160 H     1 <1>   0.3700 
 24 H       -1.5540    -0.6040     0.0100 H     1 <1>   0.1500 
 25 H       -3.4780     3.0070     1.2080 H     1 <1>   0.1500 
 26 H        2.8430     1.0680    -0.5460 H     1 <1>   0.1500 
 27 H       -3.6990    -1.4670    -0.8010 H     1 <1>   0.1500 
 28 H       -5.6040     2.1510     0.4130 H     1 <1>   0.1500 
 29 H        5.0110     1.3780    -2.0220 H     1 <1>   0.0800 
 30 H        5.0920    -0.1530    -1.1880 H     1 <1>   0.0800 
 31 H        6.5410     0.5580    -1.8490 H     1 <1>   0.0800 
 32 H        6.1860    -0.2920     1.0990 H     1 <1>   0.0800 
 33 H        6.9090     1.1270     1.8050 H     1 <1>   0.0800 
 34 H        7.6410     0.3840     0.4060 H     1 <1>   0.0800 
 35 H        7.5220     2.6310    -0.8180 H     1 <1>   0.0800 
 36 H        5.9880     3.4590    -0.9450 H     1 <1>   0.0800 
 37 H        6.7910     3.3450     0.5970 H     1 <1>   0.0800 
 38 H       -7.9210    -0.2070    -1.1350 H     1 <1>   0.0800 
 39 H       -7.0560     1.3190    -1.2790 H     1 <1>   0.0800 
 40 H       -7.4140     0.6410     0.3210 H     1 <1>   0.0800 
@<TRIPOS>BOND
  1   1   2  2   
  2   2   3  am  
  3   2   4  am  
  4   3   5  1   
  5   3  22  1   
  6   4   6  1   
  7   4  23  1   
  8   5   7  ar  
  9   5   8  ar  
 10   6   9  2   
 11   6  10  1   
 12   7  11  ar  
 13   7  24  1   
 14   8  12  ar  
 15   8  25  1   
 16   9  13  1   
 17  10  14  2   
 18  10  26  1   
 19  11  15  ar  
 20  11  27  1   
 21  12  15  ar  
 22  12  28  1   
 23  13  14  1   
 24  14  16  1   
 25  15  17  1   
 26  16  18  1   
 27  16  19  1   
 28  16  20  1   
 29  17  21  1   
 30  18  29  1   
 31  18  30  1   
 32  18  31  1   
 33  19  32  1   
 34  19  33  1   
 35  19  34  1   
 36  20  35  1   
 37  20  36  1   
 38  20  37  1   
 39  21  38  1   
 40  21  39  1   
 41  21  40  1   
@<TRIPOS>SUBSTRUCTURE
  1 ****   2 GROUP 4 **** **** 0

# MOE 2024.06 (io_trps.svl 2023.06)
