@<TRIPOS>MOLECULE
NONAME
44 45 1 0 0 
SMALL
USER_CHARGES


@<TRIPOS>ATOM
  1 O        1.1820     0.3400     1.1550 O.3   1 <1>  -0.6800 
  2 C        1.3340    -1.0360     1.1510 C.3   1 <1>   0.1200 
  3 C        1.0210    -1.5310    -0.2680 C.3   1 <1>   0.3430 
  4 N        1.1240    -3.0230    -0.3890 N.4   1 <1>  -0.9590 
  5 C        2.3880    -3.4580    -1.0390 C.3   1 <1>   0.4860 
  6 C       -0.0750    -3.6060    -1.0370 C.3   1 <1>   0.4860 
  7 C        3.5300    -3.1510    -0.0930 C.ar  1 <1>  -0.1430 
  8 C       -1.1910    -3.5840    -0.0140 C.ar  1 <1>  -0.1430 
  9 C        3.7780    -3.9270     1.0370 C.ar  1 <1>  -0.1430 
 10 C        4.3300    -2.0480    -0.3620 C.ar  1 <1>  -0.1500 
 11 C       -1.2380    -4.5500     0.9820 C.ar  1 <1>  -0.1500 
 12 C       -2.1670    -2.5980    -0.0550 C.ar  1 <1>  -0.1500 
 13 C        4.8130    -3.5670     1.8860 C.ar  1 <1>  -0.1500 
 14 C        2.9650    -5.1680     1.3880 C.3   1 <1>  -0.0970 
 15 C        5.3610    -1.6960     0.4900 C.ar  1 <1>  -0.1430 
 16 C       -2.2420    -4.5210     1.9340 C.ar  1 <1>  -0.1500 
 17 C       -3.1690    -2.5710     0.8980 C.ar  1 <1>  -0.1500 
 18 C        5.5970    -2.4610     1.6170 C.ar  1 <1>  -0.1500 
 19 C        6.2270    -0.4860     0.1880 C.3   1 <1>  -0.0970 
 20 C       -3.2060    -3.5300     1.8930 C.ar  1 <1>  -0.1500 
 21 H        1.3920     0.7190     2.0350 H     1 <1>   0.4000 
 22 H        0.6400    -1.4490     1.8640 H     1 <1>   0.0800 
 23 H        2.3470    -1.2600     1.4370 H     1 <1>   0.0800 
 24 H        1.6990    -1.0560    -0.9580 H     1 <1>   0.0800 
 25 H        0.0200    -1.2140    -0.5070 H     1 <1>   0.0800 
 26 H        1.1470    -3.3950     0.5670 H     1 <1>   0.4500 
 27 H        2.5290    -2.9400    -1.9730 H     1 <1>   0.0800 
 28 H        2.3670    -4.5170    -1.2340 H     1 <1>   0.0800 
 29 H        0.1130    -4.6270    -1.3280 H     1 <1>   0.0800 
 30 H       -0.3500    -3.0410    -1.9120 H     1 <1>   0.0800 
 31 H        4.1600    -1.4470    -1.2390 H     1 <1>   0.1500 
 32 H       -0.5050    -5.3370     1.0310 H     1 <1>   0.1500 
 33 H       -2.1650    -1.8420    -0.8220 H     1 <1>   0.1500 
 34 H        5.0250    -4.1480     2.7670 H     1 <1>   0.1500 
 35 H        2.0390    -4.8900     1.8580 H     1 <1>   0.0800 
 36 H        3.5110    -5.7890     2.0760 H     1 <1>   0.0800 
 37 H        2.7640    -5.7610     0.5140 H     1 <1>   0.0800 
 38 H       -2.2800    -5.2700     2.7070 H     1 <1>   0.1500 
 39 H       -3.9260    -1.8050     0.8670 H     1 <1>   0.1500 
 40 H        6.3980    -2.2030     2.2890 H     1 <1>   0.1500 
 41 H        5.6360     0.3050    -0.2380 H     1 <1>   0.0800 
 42 H        7.0010    -0.7560    -0.5090 H     1 <1>   0.0800 
 43 H        6.6890    -0.1160     1.0860 H     1 <1>   0.0800 
 44 H       -3.9880    -3.5080     2.6340 H     1 <1>   0.1500 
@<TRIPOS>BOND
  1   1   2  1   
  2   1  21  1   
  3   2   3  1   
  4   2  22  1   
  5   2  23  1   
  6   3   4  1   
  7   3  24  1   
  8   3  25  1   
  9   4   5  1   
 10   4   6  1   
 11   4  26  1   
 12   5   7  1   
 13   5  27  1   
 14   5  28  1   
 15   6   8  1   
 16   6  29  1   
 17   6  30  1   
 18   7   9  ar  
 19   7  10  ar  
 20   8  11  ar  
 21   8  12  ar  
 22   9  13  ar  
 23   9  14  1   
 24  10  15  ar  
 25  10  31  1   
 26  11  16  ar  
 27  11  32  1   
 28  12  17  ar  
 29  12  33  1   
 30  13  18  ar  
 31  13  34  1   
 32  14  35  1   
 33  14  36  1   
 34  14  37  1   
 35  15  18  ar  
 36  15  19  1   
 37  16  20  ar  
 38  16  38  1   
 39  17  20  ar  
 40  17  39  1   
 41  18  40  1   
 42  19  41  1   
 43  19  42  1   
 44  19  43  1   
 45  20  44  1   
@<TRIPOS>SUBSTRUCTURE
  1 ****   4 GROUP 4 **** **** 0

# MOE 2024.06 (io_trps.svl 2023.06)
