@<TRIPOS>MOLECULE
NONAME
36 38 1 0 0 
SMALL
USER_CHARGES


@<TRIPOS>ATOM
  1 F       -0.5000    -0.1520     0.0520 F     1 <1>  -0.1900 
  2 C       -1.6530    -0.7680    -0.0150 C.ar  1 <1>   0.1900 
  3 C       -2.8190    -0.0300     0.1320 C.ar  1 <1>  -0.1440 
  4 C       -1.6500    -2.1320    -0.2290 C.ar  1 <1>  -0.1500 
  5 C       -4.0240    -0.7130     0.0590 C.ar  1 <1>  -0.1500 
  6 C       -2.7870     1.4730     0.3660 C.3   1 <1>  -0.0960 
  7 C       -2.8610    -2.8090    -0.3070 C.ar  1 <1>   0.1170 
  8 C       -4.0380    -2.0820    -0.1560 C.ar  1 <1>  -0.1500 
  9 N       -2.9780    -4.1880    -0.5210 N.am  1 <1>  -0.5470 
 10 C       -2.0890    -5.1730    -0.8420 C.2   1 <1>   0.5690 
 11 O       -0.9380    -4.9170    -1.1170 O.2   1 <1>  -0.5700 
 12 C       -2.5110    -6.6480    -0.9610 C.3   1 <1>  -0.0190 
 13 C       -3.8440    -7.2260    -0.3920 C.3   1 <1>  -0.1860 
 14 C       -1.5040    -7.5010    -0.1720 C.3   1 <1>   0.2000 
 15 C       -4.9410    -6.3000     0.0830 C.2   1 <1>   0.9060 
 16 C       -3.3230    -8.1630     0.7080 C.3   1 <1>   0.2000 
 17 O       -2.1220    -7.5770     1.0540 O.3   1 <1>  -0.5600 
 18 C       -1.5330    -8.9740    -0.6020 C.3   1 <1>  -0.1600 
 19 O       -5.3520    -5.4500    -0.7160 O.co2 1 <1>  -0.9000 
 20 O       -5.4370    -6.4150     1.2040 O.co2 1 <1>  -0.9000 
 21 C       -2.8140    -9.4630     0.0820 C.3   1 <1>  -0.1600 
 22 H       -0.7180    -2.6510    -0.3290 H     1 <1>   0.1500 
 23 H       -4.9570    -0.1910     0.1700 H     1 <1>   0.1500 
 24 H       -2.2530     1.6880     1.2740 H     1 <1>   0.0800 
 25 H       -3.7820     1.8710     0.4480 H     1 <1>   0.0800 
 26 H       -2.2870     1.9590    -0.4530 H     1 <1>   0.0800 
 27 H       -4.9780    -2.6090    -0.2070 H     1 <1>   0.1500 
 28 H       -3.9600    -4.5180    -0.4990 H     1 <1>   0.3700 
 29 H       -2.4390    -6.8870    -2.0050 H     1 <1>   0.0800 
 30 H       -4.3180    -7.8160    -1.1510 H     1 <1>   0.0800 
 31 H       -0.5130    -7.0890    -0.0780 H     1 <1>   0.0800 
 32 H       -3.9620    -8.2910     1.5670 H     1 <1>   0.0800 
 33 H       -0.6710    -9.4870    -0.2160 H     1 <1>   0.0800 
 34 H       -1.5650    -9.0770    -1.6720 H     1 <1>   0.0800 
 35 H       -3.5240    -9.8930    -0.6020 H     1 <1>   0.0800 
 36 H       -2.5900   -10.1720     0.8590 H     1 <1>   0.0800 
@<TRIPOS>BOND
  1   1   2  1   
  2   2   3  ar  
  3   2   4  ar  
  4   3   5  ar  
  5   3   6  1   
  6   4   7  ar  
  7   4  22  1   
  8   5   8  ar  
  9   5  23  1   
 10   6  24  1   
 11   6  25  1   
 12   6  26  1   
 13   7   8  ar  
 14   7   9  1   
 15   8  27  1   
 16   9  10  am  
 17   9  28  1   
 18  10  11  2   
 19  10  12  1   
 20  12  13  1   
 21  12  14  1   
 22  12  29  1   
 23  13  15  1   
 24  13  16  1   
 25  13  30  1   
 26  14  17  1   
 27  14  18  1   
 28  14  31  1   
 29  15  19  ar  
 30  15  20  ar  
 31  16  17  1   
 32  16  21  1   
 33  16  32  1   
 34  18  21  1   
 35  18  33  1   
 36  18  34  1   
 37  21  35  1   
 38  21  36  1   
@<TRIPOS>SUBSTRUCTURE
  1 ****   9 GROUP 4 **** **** 0

# MOE 2024.06 (io_trps.svl 2023.06)
