@<TRIPOS>MOLECULE
NONAME
51 52 1 0 0 
SMALL
USER_CHARGES


@<TRIPOS>ATOM
  1 O       -6.0620     1.5670    -0.2690 O.2   1 <1>  -0.5700 
  2 C       -6.4310     2.4680     0.4370 C.2   1 <1>   0.6590 
  3 O       -5.7850     2.8310     1.5340 O.3   1 <1>  -0.4300 
  4 C       -7.6930     3.2610     0.1110 C.3   1 <1>  -0.0190 
  5 C       -4.6080     2.1740     1.9450 C.3   1 <1>   0.1200 
  6 C       -8.9430     2.3670     0.2170 C.3   1 <1>  -0.1600 
  7 C       -7.6070     3.8940    -1.2910 C.3   1 <1>  -0.1600 
  8 C       -4.1250     2.8300     3.2340 C.3   1 <1>  -0.2400 
  9 C      -10.2090     3.1010    -0.2180 C.3   1 <1>   0.3430 
 10 C       -8.9070     4.5910    -1.6860 C.3   1 <1>   0.3430 
 11 N      -10.0350     3.6220    -1.6080 N.4   1 <1>  -0.9590 
 12 C      -11.3010     4.2600    -2.1000 C.3   1 <1>   0.3430 
 13 C      -12.4110     3.2390    -2.3730 C.3   1 <1>   0.1200 
 14 O      -13.6410     3.9220    -2.3350 O.3   1 <1>  -0.3630 
 15 C      -14.5080     3.5870    -1.3450 C.ar  1 <1>   0.0820 
 16 C      -14.2040     3.7240     0.0150 C.ar  1 <1>   0.0820 
 17 C      -15.7430     3.0970    -1.7310 C.ar  1 <1>  -0.1500 
 18 O      -13.0060     4.2570     0.3940 O.3   1 <1>  -0.3620 
 19 C      -15.1420     3.3220     0.9600 C.ar  1 <1>  -0.1500 
 20 C      -16.6710     2.7130    -0.7800 C.ar  1 <1>  -0.1500 
 21 C      -12.9750     5.0960     1.5340 C.3   1 <1>   0.0400 
 22 C      -16.3730     2.8200     0.5680 C.ar  1 <1>  -0.1440 
 23 C      -17.3910     2.3870     1.6090 C.3   1 <1>  -0.0970 
 24 H       -7.7780     4.0520     0.8360 H     1 <1>   0.0800 
 25 H       -3.8720     2.2680     1.1640 H     1 <1>   0.0800 
 26 H       -4.8350     1.1320     2.1020 H     1 <1>   0.0800 
 27 H       -9.0610     2.0390     1.2350 H     1 <1>   0.0800 
 28 H       -8.8200     1.4860    -0.3900 H     1 <1>   0.0800 
 29 H       -7.3740     3.1400    -2.0240 H     1 <1>   0.0800 
 30 H       -6.8040     4.6110    -1.3080 H     1 <1>   0.0800 
 31 H       -3.9100     3.8700     3.0650 H     1 <1>   0.0800 
 32 H       -3.2270     2.3460     3.5710 H     1 <1>   0.0800 
 33 H       -4.8720     2.7350     4.0020 H     1 <1>   0.0800 
 34 H      -10.4060     3.9200     0.4560 H     1 <1>   0.0800 
 35 H      -11.0480     2.4260    -0.1700 H     1 <1>   0.0800 
 36 H       -8.8170     4.9750    -2.6900 H     1 <1>   0.0800 
 37 H       -9.0910     5.4200    -1.0210 H     1 <1>   0.0800 
 38 H       -9.8040     2.8260    -2.2190 H     1 <1>   0.4500 
 39 H      -11.1090     4.8000    -3.0130 H     1 <1>   0.0800 
 40 H      -11.6530     4.9630    -1.3630 H     1 <1>   0.0800 
 41 H      -12.4340     2.4510    -1.6410 H     1 <1>   0.0800 
 42 H      -12.3060     2.8140    -3.3540 H     1 <1>   0.0800 
 43 H      -15.9770     3.0130    -2.7780 H     1 <1>   0.1500 
 44 H      -14.9280     3.3920     2.0100 H     1 <1>   0.1500 
 45 H      -17.6260     2.3280    -1.0960 H     1 <1>   0.1500 
 46 H      -12.0510     5.6440     1.5300 H     1 <1>   0.0800 
 47 H      -13.0360     4.4910     2.4210 H     1 <1>   0.0800 
 48 H      -13.8040     5.7820     1.4860 H     1 <1>   0.0800 
 49 H      -17.2900     2.9750     2.5030 H     1 <1>   0.0800 
 50 H      -17.2410     1.3510     1.8550 H     1 <1>   0.0800 
 51 H      -18.3900     2.5130     1.2330 H     1 <1>   0.0800 
@<TRIPOS>BOND
  1   1   2  2   
  2   2   3  1   
  3   2   4  1   
  4   3   5  1   
  5   4   6  1   
  6   4   7  1   
  7   4  24  1   
  8   5   8  1   
  9   5  25  1   
 10   5  26  1   
 11   6   9  1   
 12   6  27  1   
 13   6  28  1   
 14   7  10  1   
 15   7  29  1   
 16   7  30  1   
 17   8  31  1   
 18   8  32  1   
 19   8  33  1   
 20   9  11  1   
 21   9  34  1   
 22   9  35  1   
 23  10  11  1   
 24  10  36  1   
 25  10  37  1   
 26  11  12  1   
 27  11  38  1   
 28  12  13  1   
 29  12  39  1   
 30  12  40  1   
 31  13  14  1   
 32  13  41  1   
 33  13  42  1   
 34  14  15  1   
 35  15  16  ar  
 36  15  17  ar  
 37  16  18  1   
 38  16  19  ar  
 39  17  20  ar  
 40  17  43  1   
 41  18  21  1   
 42  19  22  ar  
 43  19  44  1   
 44  20  22  ar  
 45  20  45  1   
 46  21  46  1   
 47  21  47  1   
 48  21  48  1   
 49  22  23  1   
 50  23  49  1   
 51  23  50  1   
 52  23  51  1   
@<TRIPOS>SUBSTRUCTURE
  1 ****   9 GROUP 4 **** **** 0

# MOE 2024.06 (io_trps.svl 2023.06)
