@<TRIPOS>MOLECULE
NONAME
54 55 1 0 0 
SMALL
USER_CHARGES


@<TRIPOS>ATOM
  1 O       -0.8390    -0.4840    -2.0190 O.2   1 <1>  -0.5700 
  2 C       -0.4610    -1.4270    -1.3450 C.2   1 <1>   0.7160 
  3 N       -1.3930    -2.1380    -0.6070 N.am  1 <1>  -0.6600 
  4 C        0.9310    -1.7680    -1.3800 C.2   1 <1>  -0.0860 
  5 C       -2.8410    -1.7810    -0.6750 C.3   1 <1>   0.1400 
  6 C       -1.0960    -3.4680     0.0030 C.3   1 <1>   0.1400 
  7 C        1.8820    -1.9470    -0.4100 C.2   1 <1>  -0.0880 
  8 C        1.6180    -2.0260    -2.5670 C.2   1 <1>   0.1390 
  9 C       -3.1590    -0.6510     0.3090 C.3   1 <1>  -0.1600 
 10 C       -1.3770    -3.4580     1.5090 C.3   1 <1>  -0.1600 
 11 N        3.0380    -2.3250    -1.0370 N.pl3 1 <1>   0.5930 
 12 N        1.7590    -1.7990     0.9890 N.am  1 <1>  -0.4940 
 13 N        2.8480    -2.3700    -2.3830 N.2   1 <1>  -0.7070 
 14 C       -4.6620    -0.3520     0.3450 C.3   1 <1>  -0.2400 
 15 C       -0.9020    -4.7560     2.1710 C.3   1 <1>  -0.2400 
 16 C        4.2710    -2.6820    -0.4220 C.ar  1 <1>  -0.0230 
 17 C        1.2140    -0.8040     1.7410 C.2   1 <1>   0.5690 
 18 C        4.9050    -3.8740    -0.7550 C.ar  1 <1>  -0.1500 
 19 C        4.8680    -1.8590     0.5260 C.ar  1 <1>  -0.1500 
 20 O        1.2150    -0.9000     2.9400 O.2   1 <1>  -0.5700 
 21 C        0.6370     0.4400     1.1100 C.3   1 <1>  -0.1790 
 22 C        6.0920    -4.2550    -0.1500 C.ar  1 <1>  -0.1440 
 23 C        6.0510    -2.2310     1.1360 C.ar  1 <1>  -0.1500 
 24 C        6.6690    -3.4280     0.8070 C.ar  1 <1>  -0.1440 
 25 C        6.7370    -5.5720    -0.5550 C.3   1 <1>  -0.0970 
 26 C        7.9710    -3.8020     1.5010 C.3   1 <1>  -0.0970 
 27 H       -3.4410    -2.6440    -0.4450 H     1 <1>   0.0800 
 28 H       -3.0910    -1.4680    -1.6750 H     1 <1>   0.0800 
 29 H       -0.0700    -3.7400    -0.1630 H     1 <1>   0.0800 
 30 H       -1.7060    -4.2170    -0.4730 H     1 <1>   0.0800 
 31 H        1.1610    -1.9500    -3.5410 H     1 <1>   0.1500 
 32 H       -2.6360     0.2380     0.0040 H     1 <1>   0.0800 
 33 H       -2.8310    -0.9220     1.2960 H     1 <1>   0.0800 
 34 H       -2.4320    -3.3470     1.6820 H     1 <1>   0.0800 
 35 H       -0.8700    -2.6290     1.9680 H     1 <1>   0.0800 
 36 H        2.2510    -2.4790     1.5770 H     1 <1>   0.3700 
 37 H       -5.0090    -0.0570    -0.6300 H     1 <1>   0.0800 
 38 H       -4.8590     0.4510     1.0340 H     1 <1>   0.0800 
 39 H       -5.2130    -1.2190     0.6640 H     1 <1>   0.0800 
 40 H       -1.4080    -5.6050     1.7450 H     1 <1>   0.0800 
 41 H       -1.1120    -4.7260     3.2260 H     1 <1>   0.0800 
 42 H        0.1590    -4.8800     2.0400 H     1 <1>   0.0800 
 43 H        4.4560    -4.5040    -1.5040 H     1 <1>   0.1500 
 44 H        4.4120    -0.9200     0.7920 H     1 <1>   0.1500 
 45 H        1.1460     0.6780     0.1960 H     1 <1>   0.0800 
 46 H        0.7440     1.2660     1.7880 H     1 <1>   0.0800 
 47 H       -0.4050     0.2910     0.9130 H     1 <1>   0.0800 
 48 H        6.4900    -1.5790     1.8700 H     1 <1>   0.1500 
 49 H        6.1500    -6.0760    -1.3020 H     1 <1>   0.0800 
 50 H        6.8240    -6.2190     0.2980 H     1 <1>   0.0800 
 51 H        7.7160    -5.3930    -0.9620 H     1 <1>   0.0800 
 52 H        8.7570    -3.9070     0.7760 H     1 <1>   0.0800 
 53 H        7.8530    -4.7300     2.0300 H     1 <1>   0.0800 
 54 H        8.2630    -3.0460     2.2080 H     1 <1>   0.0800 
@<TRIPOS>BOND
  1   1   2  2   
  2   2   3  am  
  3   2   4  1   
  4   3   5  1   
  5   3   6  1   
  6   4   7  2   
  7   4   8  1   
  8   5   9  1   
  9   5  27  1   
 10   5  28  1   
 11   6  10  1   
 12   6  29  1   
 13   6  30  1   
 14   7  11  1   
 15   7  12  1   
 16   8  13  2   
 17   8  31  1   
 18   9  14  1   
 19   9  32  1   
 20   9  33  1   
 21  10  15  1   
 22  10  34  1   
 23  10  35  1   
 24  11  13  1   
 25  11  16  1   
 26  12  17  am  
 27  12  36  1   
 28  14  37  1   
 29  14  38  1   
 30  14  39  1   
 31  15  40  1   
 32  15  41  1   
 33  15  42  1   
 34  16  18  ar  
 35  16  19  ar  
 36  17  20  2   
 37  17  21  1   
 38  18  22  ar  
 39  18  43  1   
 40  19  23  ar  
 41  19  44  1   
 42  21  45  1   
 43  21  46  1   
 44  21  47  1   
 45  22  24  ar  
 46  22  25  1   
 47  23  24  ar  
 48  23  48  1   
 49  24  26  1   
 50  25  49  1   
 51  25  50  1   
 52  25  51  1   
 53  26  52  1   
 54  26  53  1   
 55  26  54  1   
@<TRIPOS>SUBSTRUCTURE
  1 ****   7 GROUP 4 **** **** 0

# MOE 2024.06 (io_trps.svl 2023.06)
