@<TRIPOS>MOLECULE
NONAME
48 50 1 0 0 
SMALL
USER_CHARGES


@<TRIPOS>ATOM
  1 CL      -0.2840    -2.8850     0.2350 Cl    1 <1>  -0.1770 
  2 C        1.2910    -2.5330    -0.4300 C.ar  1 <1>   0.1770 
  3 C        2.4140    -2.7270     0.3490 C.ar  1 <1>  -0.1500 
  4 C        1.3850    -2.0650    -1.7280 C.ar  1 <1>  -0.1500 
  5 C        3.6690    -2.4500    -0.1710 C.ar  1 <1>   0.1000 
  6 C        2.6360    -1.7860    -2.2540 C.ar  1 <1>  -0.1500 
  7 N        4.7940    -2.6500     0.6170 N.pl3 1 <1>  -0.8380 
  8 C        3.7670    -1.9790    -1.4780 C.ar  1 <1>  -0.1500 
  9 C        5.6650    -3.8010     0.2340 C.3   1 <1>   0.2090 
 10 C        5.5830    -1.4270     0.9670 C.3   1 <1>   0.2090 
 11 C        6.7020    -4.1060     1.3310 C.3   1 <1>   0.1400 
 12 C        6.6090    -1.7320     2.0700 C.3   1 <1>   0.1400 
 13 N        7.4870    -2.8800     1.6820 N.am  1 <1>  -0.6600 
 14 C        8.7290    -2.6460     1.1610 C.2   1 <1>   0.6900 
 15 O        9.0300    -1.5360     0.7640 O.2   1 <1>  -0.5700 
 16 N        9.6130    -3.6840     1.1160 N.am  1 <1>  -0.5470 
 17 C       10.8650    -3.8030     0.4940 C.ar  1 <1>   0.1170 
 18 C       11.7800    -4.7200     0.9950 C.ar  1 <1>  -0.1500 
 19 C       11.2170    -3.0540    -0.6220 C.ar  1 <1>  -0.1500 
 20 C       13.0260    -4.8910     0.4010 C.ar  1 <1>   0.0830 
 21 C       12.4510    -3.2120    -1.2260 C.ar  1 <1>  -0.1500 
 22 O       13.9450    -5.7820     0.8740 O.3   1 <1>  -0.3630 
 23 C       13.3660    -4.1310    -0.7220 C.ar  1 <1>   0.0830 
 24 C       13.7900    -6.4170     2.1230 C.3   1 <1>   0.0400 
 25 O       14.5980    -4.3250    -1.2830 O.3   1 <1>  -0.3630 
 26 C       15.0440    -3.5370    -2.3630 C.3   1 <1>   0.0400 
 27 H        2.3240    -3.0900     1.3550 H     1 <1>   0.1500 
 28 H        0.4940    -1.9230    -2.3120 H     1 <1>   0.1500 
 29 H        2.7280    -1.4210    -3.2620 H     1 <1>   0.1500 
 30 H        4.7380    -1.7630    -1.8840 H     1 <1>   0.1500 
 31 H        6.1770    -3.5740    -0.6850 H     1 <1>   0.0800 
 32 H        5.0510    -4.6700     0.0690 H     1 <1>   0.0800 
 33 H        4.9130    -0.6550     1.3030 H     1 <1>   0.0800 
 34 H        6.1020    -1.0650     0.0960 H     1 <1>   0.0800 
 35 H        7.3520    -4.8900     0.9870 H     1 <1>   0.0800 
 36 H        6.1880    -4.4590     2.2090 H     1 <1>   0.0800 
 37 H        6.0860    -1.9770     2.9780 H     1 <1>   0.0800 
 38 H        7.2040    -0.8550     2.2590 H     1 <1>   0.0800 
 39 H        9.3560    -4.4350     1.7460 H     1 <1>   0.3700 
 40 H       11.5020    -5.2950     1.8540 H     1 <1>   0.1500 
 41 H       10.5220    -2.3410    -1.0270 H     1 <1>   0.1500 
 42 H       12.6740    -2.6100    -2.0850 H     1 <1>   0.1500 
 43 H       14.6810    -6.9870     2.3160 H     1 <1>   0.0800 
 44 H       12.9400    -7.0730     2.0780 H     1 <1>   0.0800 
 45 H       13.6650    -5.6660     2.8830 H     1 <1>   0.0800 
 46 H       16.0450    -3.8440    -2.6080 H     1 <1>   0.0800 
 47 H       15.0420    -2.5040    -2.0650 H     1 <1>   0.0800 
 48 H       14.3950    -3.7000    -3.2050 H     1 <1>   0.0800 
@<TRIPOS>BOND
  1   1   2  1   
  2   2   3  ar  
  3   2   4  ar  
  4   3   5  ar  
  5   3  27  1   
  6   4   6  ar  
  7   4  28  1   
  8   5   7  1   
  9   5   8  ar  
 10   6   8  ar  
 11   6  29  1   
 12   7   9  1   
 13   7  10  1   
 14   8  30  1   
 15   9  11  1   
 16   9  31  1   
 17   9  32  1   
 18  10  12  1   
 19  10  33  1   
 20  10  34  1   
 21  11  13  1   
 22  11  35  1   
 23  11  36  1   
 24  12  13  1   
 25  12  37  1   
 26  12  38  1   
 27  13  14  am  
 28  14  15  2   
 29  14  16  am  
 30  16  17  1   
 31  16  39  1   
 32  17  18  ar  
 33  17  19  ar  
 34  18  20  ar  
 35  18  40  1   
 36  19  21  ar  
 37  19  41  1   
 38  20  22  1   
 39  20  23  ar  
 40  21  23  ar  
 41  21  42  1   
 42  22  24  1   
 43  23  25  1   
 44  24  43  1   
 45  24  44  1   
 46  24  45  1   
 47  25  26  1   
 48  26  46  1   
 49  26  47  1   
 50  26  48  1   
@<TRIPOS>SUBSTRUCTURE
  1 ****  14 GROUP 4 **** **** 0

# MOE 2024.06 (io_trps.svl 2023.06)
