@<TRIPOS>MOLECULE
NONAME
38 39 1 0 0 
SMALL
USER_CHARGES


@<TRIPOS>ATOM
  1 O        0.5240     0.4520    -1.3310 O.2   1 <1>  -0.5700 
  2 C        1.5490    -0.1800    -1.3990 C.2   1 <1>   0.5700 
  3 N        2.5950     0.0160    -0.5390 N.am  1 <1>  -0.6600 
  4 C        3.9130    -0.6530    -0.7160 C.3   1 <1>   0.1400 
  5 C        2.5030     0.9860     0.5930 C.3   1 <1>   0.1400 
  6 C        5.0570     0.3830    -0.7340 C.3   1 <1>   0.3430 
  7 C        3.6590     2.0000     0.5400 C.3   1 <1>   0.3430 
  8 N        5.0030     1.3220     0.4500 N.4   1 <1>  -0.9590 
  9 C        6.1140     2.3170     0.5010 C.3   1 <1>   0.4230 
 10 C        6.2210     3.1600    -0.7810 C.3   1 <1>  -0.1600 
 11 C        7.4400     1.6090     0.8030 C.3   1 <1>  -0.1600 
 12 C        7.3600     4.1830    -0.6580 C.3   1 <1>  -0.1600 
 13 C        8.5830     2.6280     0.9260 C.3   1 <1>  -0.1600 
 14 C        8.6990     3.5000    -0.3350 C.3   1 <1>  -0.0800 
 15 C        9.8010     4.5480    -0.1560 C.3   1 <1>  -0.2400 
 16 H        1.6470    -0.9190    -2.1760 H     1 <1>   0.0600 
 17 H        3.9210    -1.2080    -1.6390 H     1 <1>   0.0800 
 18 H        4.0680    -1.3520     0.0890 H     1 <1>   0.0800 
 19 H        2.5290     0.4480     1.5250 H     1 <1>   0.0800 
 20 H        1.5680     1.5200     0.5560 H     1 <1>   0.0800 
 21 H        4.9800     0.9510    -1.6460 H     1 <1>   0.0800 
 22 H        6.0000    -0.1370    -0.7500 H     1 <1>   0.0800 
 23 H        3.6190     2.6240     1.4170 H     1 <1>   0.0800 
 24 H        3.5110     2.6320    -0.3210 H     1 <1>   0.0800 
 25 H        5.0960     0.7430     1.2940 H     1 <1>   0.4500 
 26 H        5.9250     2.9950     1.3190 H     1 <1>   0.0800 
 27 H        5.3050     3.6930    -0.9600 H     1 <1>   0.0800 
 28 H        6.4290     2.5350    -1.6310 H     1 <1>   0.0800 
 29 H        7.6900     0.9210     0.0150 H     1 <1>   0.0800 
 30 H        7.3660     1.0640     1.7270 H     1 <1>   0.0800 
 31 H        7.1230     4.8950     0.1150 H     1 <1>   0.0800 
 32 H        7.4510     4.7290    -1.5830 H     1 <1>   0.0800 
 33 H        9.5120     2.1060     1.0870 H     1 <1>   0.0800 
 34 H        8.4130     3.2570     1.7840 H     1 <1>   0.0800 
 35 H        8.9730     2.8690    -1.1650 H     1 <1>   0.0800 
 36 H        9.5770     5.2080     0.6640 H     1 <1>   0.0800 
 37 H        9.9050     5.1380    -1.0500 H     1 <1>   0.0800 
 38 H       10.7450     4.0700     0.0390 H     1 <1>   0.0800 
@<TRIPOS>BOND
  1   1   2  2   
  2   2   3  am  
  3   2  16  1   
  4   3   4  1   
  5   3   5  1   
  6   4   6  1   
  7   4  17  1   
  8   4  18  1   
  9   5   7  1   
 10   5  19  1   
 11   5  20  1   
 12   6   8  1   
 13   6  21  1   
 14   6  22  1   
 15   7   8  1   
 16   7  23  1   
 17   7  24  1   
 18   8   9  1   
 19   8  25  1   
 20   9  10  1   
 21   9  11  1   
 22   9  26  1   
 23  10  12  1   
 24  10  27  1   
 25  10  28  1   
 26  11  13  1   
 27  11  29  1   
 28  11  30  1   
 29  12  14  1   
 30  12  31  1   
 31  12  32  1   
 32  13  14  1   
 33  13  33  1   
 34  13  34  1   
 35  14  15  1   
 36  14  35  1   
 37  15  36  1   
 38  15  37  1   
 39  15  38  1   
@<TRIPOS>SUBSTRUCTURE
  1 ****   8 GROUP 4 **** **** 0

# MOE 2024.06 (io_trps.svl 2023.06)
