@<TRIPOS>MOLECULE
NONAME
43 44 1 0 0 
SMALL
USER_CHARGES


@<TRIPOS>ATOM
  1 F       -0.0100    -0.8580    -0.8930 F     1 <1>  -0.3400 
  2 C        0.7180    -1.9610    -1.0210 C.3   1 <1>   1.1640 
  3 F        0.4590    -2.4420    -2.2300 F     1 <1>  -0.3400 
  4 F        0.2150    -2.8360    -0.1570 F     1 <1>  -0.3400 
  5 C        2.2190    -1.7130    -0.8100 C.ar  1 <1>  -0.1440 
  6 C        3.0350    -2.6900    -0.2470 C.ar  1 <1>  -0.1500 
  7 C        2.7960    -0.5050    -1.1900 C.ar  1 <1>  -0.1500 
  8 C        4.3960    -2.4840    -0.0560 C.ar  1 <1>   0.1170 
  9 C        4.1480    -0.2830    -1.0030 C.ar  1 <1>  -0.1500 
 10 N        5.1600    -3.5030     0.5310 N.am  1 <1>  -0.5470 
 11 C        4.9400    -1.2640    -0.4390 C.ar  1 <1>  -0.1500 
 12 C        6.4820    -3.8030     0.3930 C.2   1 <1>   0.6900 
 13 O        7.1920    -3.2260    -0.4070 O.2   1 <1>  -0.5700 
 14 N        6.9900    -4.7920     1.1790 N.am  1 <1>  -0.7300 
 15 C        8.3750    -5.3110     1.1780 C.3   1 <1>   0.2200 
 16 C        9.3550    -4.2050     1.5960 C.3   1 <1>  -0.1600 
 17 C        8.7100    -5.9220    -0.1900 C.3   1 <1>  -0.1600 
 18 C       10.8050    -4.6310     1.4050 C.3   1 <1>   0.3430 
 19 C       10.1870    -6.2780    -0.3060 C.3   1 <1>   0.3430 
 20 N       11.0050    -5.0720    -0.0050 N.4   1 <1>  -0.9590 
 21 C       12.4330    -5.3020    -0.3410 C.3   1 <1>   0.3430 
 22 C       13.1590    -3.9650    -0.4430 C.3   1 <1>  -0.2400 
 23 H        2.6120    -3.6350     0.0450 H     1 <1>   0.1500 
 24 H        2.1970     0.2730    -1.6350 H     1 <1>   0.1500 
 25 H        4.5870     0.6550    -1.2990 H     1 <1>   0.1500 
 26 H        4.6270    -4.1880     1.0560 H     1 <1>   0.3700 
 27 H        5.9890    -1.0740    -0.2960 H     1 <1>   0.1500 
 28 H        6.3960    -5.1500     1.9250 H     1 <1>   0.3700 
 29 H        8.4320    -6.0980     1.9130 H     1 <1>   0.0800 
 30 H        9.1940    -3.9600     2.6300 H     1 <1>   0.0800 
 31 H        9.1980    -3.3110     1.0220 H     1 <1>   0.0800 
 32 H        8.4720    -5.2430    -0.9880 H     1 <1>   0.0800 
 33 H        8.1220    -6.8110    -0.3340 H     1 <1>   0.0800 
 34 H       11.0450    -5.4370     2.0800 H     1 <1>   0.0800 
 35 H       11.4490    -3.7960     1.6310 H     1 <1>   0.0800 
 36 H       10.3900    -6.6230    -1.3070 H     1 <1>   0.0800 
 37 H       10.4300    -7.0700     0.3840 H     1 <1>   0.0800 
 38 H       10.6530    -4.3140    -0.6110 H     1 <1>   0.4500 
 39 H       12.5050    -5.8060    -1.2920 H     1 <1>   0.0800 
 40 H       12.9000    -5.9240     0.4070 H     1 <1>   0.0800 
 41 H       12.6880    -3.3290    -1.1710 H     1 <1>   0.0800 
 42 H       14.1720    -4.1390    -0.7620 H     1 <1>   0.0800 
 43 H       13.2000    -3.4630     0.5060 H     1 <1>   0.0800 
@<TRIPOS>BOND
  1   1   2  1   
  2   2   3  1   
  3   2   4  1   
  4   2   5  1   
  5   5   6  ar  
  6   5   7  ar  
  7   6   8  ar  
  8   6  23  1   
  9   7   9  ar  
 10   7  24  1   
 11   8  10  1   
 12   8  11  ar  
 13   9  11  ar  
 14   9  25  1   
 15  10  12  am  
 16  10  26  1   
 17  11  27  1   
 18  12  13  2   
 19  12  14  am  
 20  14  15  1   
 21  14  28  1   
 22  15  16  1   
 23  15  17  1   
 24  15  29  1   
 25  16  18  1   
 26  16  30  1   
 27  16  31  1   
 28  17  19  1   
 29  17  32  1   
 30  17  33  1   
 31  18  20  1   
 32  18  34  1   
 33  18  35  1   
 34  19  20  1   
 35  19  36  1   
 36  19  37  1   
 37  20  21  1   
 38  20  38  1   
 39  21  22  1   
 40  21  39  1   
 41  21  40  1   
 42  22  41  1   
 43  22  42  1   
 44  22  43  1   
@<TRIPOS>SUBSTRUCTURE
  1 ****  12 GROUP 4 **** **** 0

# MOE 2024.06 (io_trps.svl 2023.06)
