@<TRIPOS>MOLECULE
NONAME
33 34 1 0 0 
SMALL
USER_CHARGES


@<TRIPOS>ATOM
  1 O       -1.2290     2.4290     1.9000 O.2   1 <1>  -0.5700 
  2 C       -0.3630     2.2720     1.0710 C.2   1 <1>   0.5690 
  3 N       -0.6150     1.7540    -0.1620 N.am  1 <1>  -0.5790 
  4 C        1.0630     2.6710     1.4300 C.3   1 <1>   0.1810 
  5 C       -1.9210     1.3180    -0.6730 C.3   1 <1>   0.0490 
  6 O        1.9600     2.4250     0.3540 O.3   1 <1>  -0.3630 
  7 C       -1.9570     0.1450    -1.5940 C.3   1 <1>  -0.2000 
  8 C       -2.2110     1.5250    -2.1220 C.3   1 <1>  -0.2000 
  9 C        3.2820     2.7110     0.4660 C.ar  1 <1>   0.0820 
 10 C        4.0770     2.4360    -0.6340 C.ar  1 <1>  -0.1500 
 11 C        3.8630     3.2540     1.6060 C.ar  1 <1>  -0.1500 
 12 C        5.4390     2.6930    -0.6160 C.ar  1 <1>  -0.1440 
 13 C        5.2210     3.5130     1.6290 C.ar  1 <1>  -0.1500 
 14 C        6.0170     3.2370     0.5270 C.ar  1 <1>  -0.1440 
 15 C        6.2690     2.3730    -1.8510 C.3   1 <1>  -0.0970 
 16 C        7.5070     3.5390     0.5970 C.3   1 <1>  -0.0970 
 17 H        0.1760     1.6550    -0.8010 H     1 <1>   0.3700 
 18 H        1.3860     2.0990     2.2800 H     1 <1>   0.0800 
 19 H        1.0880     3.7200     1.6600 H     1 <1>   0.0800 
 20 H       -2.7220     1.4430     0.0400 H     1 <1>   0.1000 
 21 H       -2.7880    -0.5350    -1.5280 H     1 <1>   0.1000 
 22 H       -1.0340    -0.3500    -1.8400 H     1 <1>   0.1000 
 23 H       -1.4670     1.9980    -2.7380 H     1 <1>   0.1000 
 24 H       -3.2140     1.7820    -2.4140 H     1 <1>   0.1000 
 25 H        3.6150     2.0160    -1.5080 H     1 <1>   0.1500 
 26 H        3.2860     3.4830     2.4810 H     1 <1>   0.1500 
 27 H        5.6590     3.9340     2.5170 H     1 <1>   0.1500 
 28 H        5.6550     1.9610    -2.6320 H     1 <1>   0.0800 
 29 H        7.0310     1.6550    -1.6070 H     1 <1>   0.0800 
 30 H        6.7340     3.2670    -2.2240 H     1 <1>   0.0800 
 31 H        8.0730     2.6360     0.4520 H     1 <1>   0.0800 
 32 H        7.7740     3.9540     1.5520 H     1 <1>   0.0800 
 33 H        7.7760     4.2480    -0.1650 H     1 <1>   0.0800 
@<TRIPOS>BOND
  1   1   2  2   
  2   2   3  am  
  3   2   4  1   
  4   3   5  1   
  5   3  17  1   
  6   4   6  1   
  7   4  18  1   
  8   4  19  1   
  9   5   7  1   
 10   5   8  1   
 11   5  20  1   
 12   6   9  1   
 13   7   8  1   
 14   7  21  1   
 15   7  22  1   
 16   8  23  1   
 17   8  24  1   
 18   9  10  ar  
 19   9  11  ar  
 20  10  12  ar  
 21  10  25  1   
 22  11  13  ar  
 23  11  26  1   
 24  12  14  ar  
 25  12  15  1   
 26  13  14  ar  
 27  13  27  1   
 28  14  16  1   
 29  15  28  1   
 30  15  29  1   
 31  15  30  1   
 32  16  31  1   
 33  16  32  1   
 34  16  33  1   
@<TRIPOS>SUBSTRUCTURE
  1 ****   6 GROUP 4 **** **** 0

# MOE 2024.06 (io_trps.svl 2023.06)
