@<TRIPOS>MOLECULE
NONAME
41 42 1 0 0 
SMALL
USER_CHARGES


@<TRIPOS>ATOM
  1 S        0.5640    -0.3970    -1.7660 S.3   1 <1>  -0.4600 
  2 C        2.3020     0.1110    -1.8450 C.3   1 <1>   0.0700 
  3 C        0.6530    -1.9460    -0.8310 C.3   1 <1>   0.0700 
  4 C        2.8800     0.1380    -0.4240 C.3   1 <1>   0.3430 
  5 C        1.4080    -1.6970     0.4810 C.3   1 <1>   0.3430 
  6 N        2.8060    -1.2040     0.2500 N.4   1 <1>  -0.9590 
  7 C        3.6110    -1.2370     1.4990 C.3   1 <1>   0.4860 
  8 C        5.0710    -1.0430     1.1340 C.ar  1 <1>  -0.1430 
  9 C        5.7110    -1.9470     0.2860 C.ar  1 <1>   0.0830 
 10 C        5.7600     0.0440     1.6510 C.ar  1 <1>  -0.1500 
 11 O        4.9340    -2.9850    -0.1580 O.3   1 <1>  -0.3630 
 12 C        7.0570    -1.7380    -0.0610 C.ar  1 <1>   0.0830 
 13 C        7.0800     0.2530     1.3070 C.ar  1 <1>  -0.1500 
 14 C        5.4830    -4.2480    -0.4800 C.3   1 <1>   0.0400 
 15 O        7.6980    -2.5990    -0.9030 O.3   1 <1>  -0.3630 
 16 C        7.7230    -0.6140     0.4420 C.ar  1 <1>   0.0830 
 17 C        8.8360    -3.2720    -0.3990 C.3   1 <1>   0.0400 
 18 O        9.0020    -0.3100     0.1170 O.3   1 <1>  -0.3630 
 19 C        9.2180     0.1710    -1.1910 C.3   1 <1>   0.0400 
 20 H        2.3250     1.0880    -2.2930 H     1 <1>   0.0800 
 21 H        2.8250    -0.5870    -2.4750 H     1 <1>   0.0800 
 22 H        1.1480    -2.6760    -1.4470 H     1 <1>   0.0800 
 23 H       -0.3600    -2.2580    -0.6440 H     1 <1>   0.0800 
 24 H        2.3400     0.8680     0.1570 H     1 <1>   0.0800 
 25 H        3.9080     0.4570    -0.4850 H     1 <1>   0.0800 
 26 H        1.4390    -2.6200     1.0360 H     1 <1>   0.0800 
 27 H        0.8600    -0.9750     1.0650 H     1 <1>   0.0800 
 28 H        3.3020    -1.8810    -0.3590 H     1 <1>   0.4500 
 29 H        3.5000    -2.1930     1.9840 H     1 <1>   0.0800 
 30 H        3.2860    -0.4650     2.1770 H     1 <1>   0.0800 
 31 H        5.2840     0.7390     2.3240 H     1 <1>   0.1500 
 32 H        7.6240     1.0950     1.7010 H     1 <1>   0.1500 
 33 H        4.6890    -4.9730    -0.4890 H     1 <1>   0.0800 
 34 H        6.2140    -4.5170     0.2620 H     1 <1>   0.0800 
 35 H        5.9330    -4.1970    -1.4560 H     1 <1>   0.0800 
 36 H        9.0410    -4.1110    -1.0390 H     1 <1>   0.0800 
 37 H        8.6320    -3.6120     0.6010 H     1 <1>   0.0800 
 38 H        9.6790    -2.6050    -0.4010 H     1 <1>   0.0800 
 39 H       10.2640     0.3950    -1.2980 H     1 <1>   0.0800 
 40 H        8.6350     1.0620    -1.3350 H     1 <1>   0.0800 
 41 H        8.9310    -0.5840    -1.9010 H     1 <1>   0.0800 
@<TRIPOS>BOND
  1   1   2  1   
  2   1   3  1   
  3   2   4  1   
  4   2  20  1   
  5   2  21  1   
  6   3   5  1   
  7   3  22  1   
  8   3  23  1   
  9   4   6  1   
 10   4  24  1   
 11   4  25  1   
 12   5   6  1   
 13   5  26  1   
 14   5  27  1   
 15   6   7  1   
 16   6  28  1   
 17   7   8  1   
 18   7  29  1   
 19   7  30  1   
 20   8   9  ar  
 21   8  10  ar  
 22   9  11  1   
 23   9  12  ar  
 24  10  13  ar  
 25  10  31  1   
 26  11  14  1   
 27  12  15  1   
 28  12  16  ar  
 29  13  16  ar  
 30  13  32  1   
 31  14  33  1   
 32  14  34  1   
 33  14  35  1   
 34  15  17  1   
 35  16  18  1   
 36  17  36  1   
 37  17  37  1   
 38  17  38  1   
 39  18  19  1   
 40  19  39  1   
 41  19  40  1   
 42  19  41  1   
@<TRIPOS>SUBSTRUCTURE
  1 ****   9 GROUP 4 **** **** 0

# MOE 2024.06 (io_trps.svl 2023.06)
