@<TRIPOS>MOLECULE
NONAME
42 44 1 0 0 
SMALL
USER_CHARGES


@<TRIPOS>ATOM
  1 O        0.6450     0.2430     1.2470 O.2   1 <1>  -0.5700 
  2 C        0.2450     1.1320     0.5390 C.2   1 <1>   0.4230 
  3 C        1.0780     2.1560    -0.0260 C.ar  1 <1>   0.0860 
  4 C       -1.2290     1.1730     0.2070 C.3   1 <1>  -0.0990 
  5 C        0.4860     3.2230    -0.7090 C.ar  1 <1>   0.0820 
  6 C        2.4690     2.1270     0.0700 C.ar  1 <1>  -0.1500 
  7 C       -1.7180     2.6220     0.0770 C.3   1 <1>   0.2800 
  8 O       -0.8600     3.3290    -0.8090 O.3   1 <1>  -0.3630 
  9 C        1.2600     4.2080    -1.2990 C.ar  1 <1>  -0.1500 
 10 C        3.2490     3.1180    -0.5130 C.ar  1 <1>   0.0830 
 11 C       -3.1260     2.6660    -0.5330 C.3   1 <1>  -0.1600 
 12 C       -1.7290     3.3560     1.4310 C.3   1 <1>  -0.1600 
 13 C        2.6370     4.1550    -1.2000 C.ar  1 <1>  -0.1500 
 14 O        4.6060     3.1430    -0.4580 O.3   1 <1>  -0.3630 
 15 C       -3.6760     4.0930    -0.5860 C.3   1 <1>   0.1100 
 16 C       -2.3260     4.7590     1.3080 C.3   1 <1>   0.1100 
 17 C        5.3270     2.1320     0.2120 C.3   1 <1>   0.0400 
 18 N       -3.6890     4.6690     0.7690 N.3   1 <1>  -0.8100 
 19 C       -4.3220     6.0230     0.7520 C.3   1 <1>   0.1710 
 20 C       -5.8360     6.0220     0.5070 C.2   1 <1>   0.5690 
 21 O       -6.3610     6.9600    -0.0370 O.2   1 <1>  -0.5700 
 22 N       -6.5700     4.9660     0.9070 N.am  1 <1>  -0.8000 
 23 H       -1.7840     0.6650     0.9740 H     1 <1>   0.0800 
 24 H       -1.3850     0.6480    -0.7170 H     1 <1>   0.0800 
 25 H        2.9150     1.3090     0.6050 H     1 <1>   0.1500 
 26 H        0.7810     5.0120    -1.8290 H     1 <1>   0.1500 
 27 H       -3.7960     2.0680     0.0580 H     1 <1>   0.0800 
 28 H       -3.1060     2.2520    -1.5250 H     1 <1>   0.0800 
 29 H       -0.7350     3.4260     1.8350 H     1 <1>   0.0800 
 30 H       -2.3220     2.8010     2.1360 H     1 <1>   0.0800 
 31 H        3.2490     4.9160    -1.6530 H     1 <1>   0.1500 
 32 H       -4.6750     4.0680    -0.9860 H     1 <1>   0.0800 
 33 H       -3.0670     4.6980    -1.2390 H     1 <1>   0.0800 
 34 H       -1.7110     5.3670     0.6650 H     1 <1>   0.0800 
 35 H       -2.3520     5.2140     2.2840 H     1 <1>   0.0800 
 36 H        6.3750     2.3570     0.1280 H     1 <1>   0.0800 
 37 H        5.1180     1.1860    -0.2540 H     1 <1>   0.0800 
 38 H        5.0380     2.1240     1.2490 H     1 <1>   0.0800 
 39 H       -3.8540     6.6350     0.0010 H     1 <1>   0.0800 
 40 H       -4.1650     6.4970     1.7040 H     1 <1>   0.0800 
 41 H       -7.5760     4.9340     0.7520 H     1 <1>   0.3700 
 42 H       -6.1080     4.1450     1.3050 H     1 <1>   0.3700 
@<TRIPOS>BOND
  1   1   2  2   
  2   2   3  1   
  3   2   4  1   
  4   3   5  ar  
  5   3   6  ar  
  6   4   7  1   
  7   4  23  1   
  8   4  24  1   
  9   5   8  1   
 10   5   9  ar  
 11   6  10  ar  
 12   6  25  1   
 13   7   8  1   
 14   7  11  1   
 15   7  12  1   
 16   9  13  ar  
 17   9  26  1   
 18  10  13  ar  
 19  10  14  1   
 20  11  15  1   
 21  11  27  1   
 22  11  28  1   
 23  12  16  1   
 24  12  29  1   
 25  12  30  1   
 26  13  31  1   
 27  14  17  1   
 28  15  18  1   
 29  15  32  1   
 30  15  33  1   
 31  16  18  1   
 32  16  34  1   
 33  16  35  1   
 34  17  36  1   
 35  17  37  1   
 36  17  38  1   
 37  18  19  1   
 38  19  20  1   
 39  19  39  1   
 40  19  40  1   
 41  20  21  2   
 42  20  22  am  
 43  22  41  1   
 44  22  42  1   
@<TRIPOS>SUBSTRUCTURE
  1 ****   8 GROUP 4 **** **** 0

# MOE 2024.06 (io_trps.svl 2023.06)
