@<TRIPOS>MOLECULE
NONAME
45 46 1 0 0 
SMALL
USER_CHARGES


@<TRIPOS>ATOM
  1 O        8.0400     1.7860    -1.5480 O.2   1 <1>  -0.5700 
  2 C        8.1150     2.4480    -0.5460 C.2   1 <1>   0.6590 
  3 O        9.2370     2.5870     0.1410 O.3   1 <1>  -0.4300 
  4 C        6.8980     3.1880     0.0020 C.3   1 <1>  -0.0190 
  5 C       10.4300     1.9550    -0.2660 C.3   1 <1>   0.1200 
  6 C        5.7320     2.2170     0.2700 C.3   1 <1>  -0.1600 
  7 C        6.4540     4.3020    -0.9660 C.3   1 <1>  -0.1600 
  8 C       11.5230     2.3190     0.7340 C.3   1 <1>  -0.2400 
  9 C        4.4600     2.9490     0.6950 C.3   1 <1>   0.3430 
 10 C        5.1640     4.9800    -0.5080 C.3   1 <1>   0.3430 
 11 N        4.0920     3.9550    -0.3460 N.4   1 <1>  -0.9590 
 12 C        2.7830     4.6290    -0.0510 C.3   1 <1>   0.3430 
 13 C        1.5800     3.6860    -0.1690 C.3   1 <1>   0.1200 
 14 O        0.4300     4.4450     0.1120 O.3   1 <1>  -0.3630 
 15 C       -0.8100     3.9010     0.0860 C.ar  1 <1>   0.0820 
 16 C       -1.8660     4.7410     0.4030 C.ar  1 <1>  -0.1500 
 17 C       -1.0710     2.5720    -0.2360 C.ar  1 <1>  -0.1500 
 18 C       -3.1650     4.2660     0.4020 C.ar  1 <1>  -0.1500 
 19 C       -2.3740     2.1050    -0.2350 C.ar  1 <1>  -0.1500 
 20 C       -3.4400     2.9410     0.0830 C.ar  1 <1>   0.0730 
 21 C       -4.7890     2.4490     0.0810 C.1   1 <1>   0.4840 
 22 N       -5.8590     2.0550     0.0800 N.1   1 <1>  -0.5570 
 23 H        7.1840     3.6410     0.9350 H     1 <1>   0.0800 
 24 H       10.6810     2.3000    -1.2550 H     1 <1>   0.0800 
 25 H       10.2640     0.8910    -0.2870 H     1 <1>   0.0800 
 26 H        6.0170     1.5270     1.0450 H     1 <1>   0.0800 
 27 H        5.5250     1.6350    -0.6130 H     1 <1>   0.0800 
 28 H        6.3110     3.8960    -1.9530 H     1 <1>   0.0800 
 29 H        7.2330     5.0420    -1.0360 H     1 <1>   0.0800 
 30 H       11.6730     3.3840     0.7510 H     1 <1>   0.0800 
 31 H       12.4460     1.8490     0.4470 H     1 <1>   0.0800 
 32 H       11.2570     1.9760     1.7180 H     1 <1>   0.0800 
 33 H        4.6250     3.4420     1.6400 H     1 <1>   0.0800 
 34 H        3.6660     2.2310     0.8210 H     1 <1>   0.0800 
 35 H        4.8680     5.7140    -1.2410 H     1 <1>   0.0800 
 36 H        5.3330     5.4860     0.4290 H     1 <1>   0.0800 
 37 H        4.0150     3.4620    -1.2480 H     1 <1>   0.4500 
 38 H        2.6360     5.4390    -0.7470 H     1 <1>   0.0800 
 39 H        2.8060     5.0410     0.9450 H     1 <1>   0.0800 
 40 H        1.6320     2.8880     0.5500 H     1 <1>   0.0800 
 41 H        1.4900     3.3010    -1.1700 H     1 <1>   0.0800 
 42 H       -1.6670     5.7680     0.6510 H     1 <1>   0.1500 
 43 H       -0.2850     1.8870    -0.4890 H     1 <1>   0.1500 
 44 H       -3.9740     4.9330     0.6510 H     1 <1>   0.1500 
 45 H       -2.5700     1.0750    -0.4850 H     1 <1>   0.1500 
@<TRIPOS>BOND
  1   1   2  2   
  2   2   3  1   
  3   2   4  1   
  4   3   5  1   
  5   4   6  1   
  6   4   7  1   
  7   4  23  1   
  8   5   8  1   
  9   5  24  1   
 10   5  25  1   
 11   6   9  1   
 12   6  26  1   
 13   6  27  1   
 14   7  10  1   
 15   7  28  1   
 16   7  29  1   
 17   8  30  1   
 18   8  31  1   
 19   8  32  1   
 20   9  11  1   
 21   9  33  1   
 22   9  34  1   
 23  10  11  1   
 24  10  35  1   
 25  10  36  1   
 26  11  12  1   
 27  11  37  1   
 28  12  13  1   
 29  12  38  1   
 30  12  39  1   
 31  13  14  1   
 32  13  40  1   
 33  13  41  1   
 34  14  15  1   
 35  15  16  ar  
 36  15  17  ar  
 37  16  18  ar  
 38  16  42  1   
 39  17  19  ar  
 40  17  43  1   
 41  18  20  ar  
 42  18  44  1   
 43  19  20  ar  
 44  19  45  1   
 45  20  21  1   
 46  21  22  3   
@<TRIPOS>SUBSTRUCTURE
  1 ****  13 GROUP 4 **** **** 0

# MOE 2024.06 (io_trps.svl 2023.06)
