@<TRIPOS>MOLECULE
NONAME
39 41 1 0 0 
SMALL
USER_CHARGES


@<TRIPOS>ATOM
  1 O       -1.7880    -2.1150     1.4950 O.2   1 <1>  -0.5700 
  2 C       -1.2360    -1.9510     0.4360 C.2   1 <1>   0.5690 
  3 N       -1.5920    -0.9780    -0.4370 N.am  1 <1>  -0.7300 
  4 C       -0.1000    -2.8620     0.0520 C.3   1 <1>  -0.1790 
  5 C       -2.6740     0.0050    -0.2160 C.3   1 <1>   0.1400 
  6 C       -2.0960     1.4170    -0.3570 C.3   1 <1>  -0.1600 
  7 C       -3.1100     2.5670    -0.1510 C.3   1 <1>   0.0000 
  8 C       -4.2570     2.5120    -1.1890 C.3   1 <1>  -0.1600 
  9 C       -2.3640     3.9120    -0.3260 C.3   1 <1>  -0.1600 
 10 C       -3.7270     2.5380     1.2680 C.3   1 <1>  -0.1600 
 11 C       -5.2230     3.6980    -0.9980 C.3   1 <1>  -0.0800 
 12 C       -3.3190     5.1040    -0.1330 C.3   1 <1>  -0.0800 
 13 C       -4.6910     3.7240     1.4690 C.3   1 <1>  -0.0800 
 14 C       -4.4500     5.0170    -1.1730 C.3   1 <1>  -0.1600 
 15 C       -5.8180     3.6430     0.4210 C.3   1 <1>  -0.1600 
 16 C       -3.9210     5.0430     1.2830 C.3   1 <1>  -0.1600 
 17 H       -1.0910    -0.8900    -1.3210 H     1 <1>   0.3700 
 18 H       -0.3470    -3.3910    -0.8480 H     1 <1>   0.0800 
 19 H        0.0750    -3.5740     0.8380 H     1 <1>   0.0800 
 20 H        0.7920    -2.2840    -0.0990 H     1 <1>   0.0800 
 21 H       -3.0900    -0.1350     0.7670 H     1 <1>   0.0800 
 22 H       -3.4490    -0.1650    -0.9410 H     1 <1>   0.0800 
 23 H       -1.6650     1.5130    -1.3370 H     1 <1>   0.0800 
 24 H       -1.3060     1.5260     0.3650 H     1 <1>   0.0800 
 25 H       -4.8140     1.5990    -1.0840 H     1 <1>   0.0800 
 26 H       -3.8520     2.5370    -2.1850 H     1 <1>   0.0800 
 27 H       -1.9280     3.9650    -1.3080 H     1 <1>   0.0800 
 28 H       -1.5630     3.9810     0.3890 H     1 <1>   0.0800 
 29 H       -2.9470     2.5800     2.0080 H     1 <1>   0.0800 
 30 H       -4.2730     1.6250     1.4220 H     1 <1>   0.0800 
 31 H       -6.0150     3.6420    -1.7260 H     1 <1>   0.0800 
 32 H       -2.7790     6.0270    -0.2590 H     1 <1>   0.0800 
 33 H       -5.1120     3.6850     2.4590 H     1 <1>   0.0800 
 34 H       -5.1200     5.8510    -1.0520 H     1 <1>   0.0800 
 35 H       -4.0380     5.0700    -2.1650 H     1 <1>   0.0800 
 36 H       -6.3700     2.7280     0.5510 H     1 <1>   0.0800 
 37 H       -6.5030     4.4600     0.5610 H     1 <1>   0.0800 
 38 H       -3.1360     5.1130     2.0160 H     1 <1>   0.0800 
 39 H       -4.5840     5.8770     1.4330 H     1 <1>   0.0800 
@<TRIPOS>BOND
  1   1   2  2   
  2   2   3  am  
  3   2   4  1   
  4   3   5  1   
  5   3  17  1   
  6   4  18  1   
  7   4  19  1   
  8   4  20  1   
  9   5   6  1   
 10   5  21  1   
 11   5  22  1   
 12   6   7  1   
 13   6  23  1   
 14   6  24  1   
 15   7   8  1   
 16   7   9  1   
 17   7  10  1   
 18   8  11  1   
 19   8  25  1   
 20   8  26  1   
 21   9  12  1   
 22   9  27  1   
 23   9  28  1   
 24  10  13  1   
 25  10  29  1   
 26  10  30  1   
 27  11  14  1   
 28  11  15  1   
 29  11  31  1   
 30  12  14  1   
 31  12  16  1   
 32  12  32  1   
 33  13  15  1   
 34  13  16  1   
 35  13  33  1   
 36  14  34  1   
 37  14  35  1   
 38  15  36  1   
 39  15  37  1   
 40  16  38  1   
 41  16  39  1   
@<TRIPOS>SUBSTRUCTURE
  1 ****   7 GROUP 4 **** **** 0

# MOE 2024.06 (io_trps.svl 2023.06)
