@<TRIPOS>MOLECULE
NONAME
34 35 1 0 0 
SMALL
USER_CHARGES


@<TRIPOS>ATOM
  1 O       -0.4530    -0.4540    -1.3630 O.2   1 <1>  -0.5700 
  2 C       -0.8930    -1.4190    -0.7620 C.2   1 <1>   0.6900 
  3 N       -0.0390    -2.4300    -0.3590 N.am  1 <1>  -0.4690 
  4 N       -2.2420    -1.5050    -0.4670 N.am  1 <1>  -0.4200 
  5 C       -0.5250    -3.5360     0.3280 C.2   1 <1>  -0.0410 
  6 C        1.3960    -2.2670    -0.6950 C.3   1 <1>   0.5000 
  7 C       -2.7470    -2.6080     0.2010 C.2   1 <1>   0.6160 
  8 C       -3.1720    -0.4230    -0.9070 C.3   1 <1>   0.0600 
  9 C       -1.8420    -3.6420     0.6090 C.2   1 <1>  -0.1240 
 10 O        2.0110    -3.5230    -0.7260 O.3   1 <1>  -0.5600 
 11 C        2.1300    -1.4200     0.3410 C.3   1 <1>  -0.1600 
 12 O       -3.9420    -2.6830     0.4320 O.2   1 <1>  -0.5700 
 13 C       -2.3980    -4.8490     1.3550 C.3   1 <1>  -0.1020 
 14 C        3.0840    -3.5840     0.1730 C.3   1 <1>   0.2000 
 15 C        3.4520    -2.1350     0.4670 C.3   1 <1>   0.2000 
 16 C        4.2330    -4.4080    -0.4220 C.3   1 <1>   0.1200 
 17 O        3.9720    -1.9800     1.7410 O.3   1 <1>  -0.6800 
 18 O        3.7350    -5.6110    -0.8970 O.3   1 <1>  -0.6800 
 19 H        0.1810    -4.2980     0.6170 H     1 <1>   0.1500 
 20 H        1.5030    -1.8400    -1.6790 H     1 <1>   0.0800 
 21 H       -2.6510     0.5140    -0.9950 H     1 <1>   0.0800 
 22 H       -3.9670    -0.3010    -0.1920 H     1 <1>   0.0800 
 23 H       -3.5950    -0.6830    -1.8610 H     1 <1>   0.0800 
 24 H        1.5880    -1.4270     1.2700 H     1 <1>   0.0800 
 25 H        2.2510    -0.4120    -0.0100 H     1 <1>   0.0800 
 26 H       -2.8740    -4.5300     2.2650 H     1 <1>   0.0800 
 27 H       -1.6200    -5.5490     1.5990 H     1 <1>   0.0800 
 28 H       -3.1310    -5.3490     0.7450 H     1 <1>   0.0800 
 29 H        2.7190    -4.0570     1.0690 H     1 <1>   0.0800 
 30 H        4.1710    -1.7670    -0.2460 H     1 <1>   0.0800 
 31 H        4.9840    -4.6170     0.3210 H     1 <1>   0.0800 
 32 H        4.6880    -3.8850    -1.2450 H     1 <1>   0.0800 
 33 H        3.2980    -2.1710     2.4220 H     1 <1>   0.4000 
 34 H        2.8950    -5.4280    -1.3710 H     1 <1>   0.4000 
@<TRIPOS>BOND
  1   1   2  2   
  2   2   3  am  
  3   2   4  am  
  4   3   5  1   
  5   3   6  1   
  6   4   7  am  
  7   4   8  1   
  8   5   9  2   
  9   5  19  1   
 10   6  10  1   
 11   6  11  1   
 12   6  20  1   
 13   7   9  1   
 14   7  12  2   
 15   8  21  1   
 16   8  22  1   
 17   8  23  1   
 18   9  13  1   
 19  10  14  1   
 20  11  15  1   
 21  11  24  1   
 22  11  25  1   
 23  13  26  1   
 24  13  27  1   
 25  13  28  1   
 26  14  15  1   
 27  14  16  1   
 28  14  29  1   
 29  15  17  1   
 30  15  30  1   
 31  16  18  1   
 32  16  31  1   
 33  16  32  1   
 34  17  33  1   
 35  18  34  1   
@<TRIPOS>SUBSTRUCTURE
  1 ****   3 GROUP 4 **** **** 0

# MOE 2024.06 (io_trps.svl 2023.06)
