@<TRIPOS>MOLECULE
NONAME
40 41 1 0 0 
SMALL
USER_CHARGES


@<TRIPOS>ATOM
  1 BR      -1.5860     1.0990     2.7810 Br    1 <1>  -0.1110 
  2 C       -1.6590     1.3920     0.8760 C.ar  1 <1>   0.1110 
  3 C       -0.4940     1.6120     0.1540 C.ar  1 <1>  -0.1440 
  4 C       -2.9080     1.3720     0.2810 C.ar  1 <1>  -0.1500 
  5 C       -0.6100     1.8220    -1.2130 C.ar  1 <1>  -0.1500 
  6 C        0.8750     1.6280     0.8110 C.3   1 <1>   0.2140 
  7 C       -3.0020     1.5800    -1.0840 C.ar  1 <1>  -0.1500 
  8 C       -1.8540     1.8050    -1.8270 C.ar  1 <1>  -0.1500 
  9 S        1.2240     3.3280     1.3500 S.3   1 <1>  -0.4600 
 10 C        2.7200     3.1190     2.3760 C.3   1 <1>   0.1310 
 11 C        3.8300     2.4340     1.5850 C.2   1 <1>   0.5690 
 12 O        3.9860     1.2510     1.7840 O.2   1 <1>  -0.5700 
 13 N        4.6080     3.1250     0.6860 N.am  1 <1>  -0.6600 
 14 C        4.3740     4.5350     0.2650 C.3   1 <1>   0.1400 
 15 C        5.7780     2.4810     0.0270 C.3   1 <1>   0.1400 
 16 C        5.6200     5.3710     0.5670 C.3   1 <1>  -0.1600 
 17 C        7.0410     3.2970     0.3200 C.3   1 <1>  -0.1600 
 18 C        6.8790     4.7720    -0.0900 C.3   1 <1>  -0.0190 
 19 C        8.1320     5.5770     0.2530 C.2   1 <1>   0.5690 
 20 O        8.3920     5.8460     1.3970 O.2   1 <1>  -0.5700 
 21 N        8.9530     5.9860    -0.7310 N.am  1 <1>  -0.8000 
 22 H       -3.7850     1.1990     0.8760 H     1 <1>   0.1500 
 23 H        0.2690     2.0040    -1.8060 H     1 <1>   0.1500 
 24 H        1.6480     1.3460     0.1180 H     1 <1>   0.0800 
 25 H        0.9230     0.9910     1.6760 H     1 <1>   0.0800 
 26 H       -3.9640     1.5680    -1.5670 H     1 <1>   0.1500 
 27 H       -1.9280     1.9690    -2.8880 H     1 <1>   0.1500 
 28 H        2.4410     2.5160     3.2200 H     1 <1>   0.0800 
 29 H        3.0250     4.0900     2.7170 H     1 <1>   0.0800 
 30 H        3.5240     4.9610     0.7660 H     1 <1>   0.0800 
 31 H        4.1700     4.5520    -0.7920 H     1 <1>   0.0800 
 32 H        5.6030     2.4360    -1.0340 H     1 <1>   0.0800 
 33 H        5.9130     1.4740     0.3850 H     1 <1>   0.0800 
 34 H        5.7540     5.4200     1.6350 H     1 <1>   0.0800 
 35 H        5.4700     6.3750     0.2130 H     1 <1>   0.0800 
 36 H        7.8730     2.8630    -0.2050 H     1 <1>   0.0800 
 37 H        7.2550     3.2350     1.3740 H     1 <1>   0.0800 
 38 H        6.7430     4.8080    -1.1560 H     1 <1>   0.0800 
 39 H        9.7890     6.5180    -0.4840 H     1 <1>   0.3700 
 40 H        8.8100     5.7940    -1.7210 H     1 <1>   0.3700 
@<TRIPOS>BOND
  1   1   2  1   
  2   2   3  ar  
  3   2   4  ar  
  4   3   5  ar  
  5   3   6  1   
  6   4   7  ar  
  7   4  22  1   
  8   5   8  ar  
  9   5  23  1   
 10   6   9  1   
 11   6  24  1   
 12   6  25  1   
 13   7   8  ar  
 14   7  26  1   
 15   8  27  1   
 16   9  10  1   
 17  10  11  1   
 18  10  28  1   
 19  10  29  1   
 20  11  12  2   
 21  11  13  am  
 22  13  14  1   
 23  13  15  1   
 24  14  16  1   
 25  14  30  1   
 26  14  31  1   
 27  15  17  1   
 28  15  32  1   
 29  15  33  1   
 30  16  18  1   
 31  16  34  1   
 32  16  35  1   
 33  17  18  1   
 34  17  36  1   
 35  17  37  1   
 36  18  19  1   
 37  18  38  1   
 38  19  20  2   
 39  19  21  am  
 40  21  39  1   
 41  21  40  1   
@<TRIPOS>SUBSTRUCTURE
  1 ****  11 GROUP 4 **** **** 0

# MOE 2024.06 (io_trps.svl 2023.06)
