@<TRIPOS>MOLECULE
NONAME
37 37 1 0 0 
SMALL
USER_CHARGES


@<TRIPOS>ATOM
  1 O        0.1670    -0.0240    -0.8730 O.2   1 <1>  -0.5700 
  2 C        0.5410    -0.7950    -0.0130 C.2   1 <1>   0.6900 
  3 N       -0.2570    -1.7890     0.4690 N.am  1 <1>  -0.5470 
  4 N        1.7910    -0.7000     0.5030 N.am  1 <1>  -0.7300 
  5 C       -1.6090    -2.0830     0.2290 C.ar  1 <1>   0.1170 
  6 C        2.8010     0.2910     0.0920 C.3   1 <1>   0.2200 
  7 C       -2.0560    -3.3850     0.4230 C.ar  1 <1>  -0.1500 
  8 C       -2.5310    -1.1220    -0.1770 C.ar  1 <1>  -0.1500 
  9 C        4.1060    -0.4630    -0.2290 C.3   1 <1>  -0.1600 
 10 C        2.9270     1.3110     1.2370 C.3   1 <1>  -0.1600 
 11 C       -3.3830    -3.7180     0.2150 C.ar  1 <1>  -0.1500 
 12 C       -3.8580    -1.4500    -0.3890 C.ar  1 <1>  -0.1500 
 13 C        4.8860     0.1630    -1.3950 C.3   1 <1>  -0.2400 
 14 C        3.8940     2.4680     0.9530 C.3   1 <1>  -0.2400 
 15 C       -4.2930    -2.7570    -0.1930 C.ar  1 <1>   0.0830 
 16 O       -5.5760    -3.1680    -0.3770 O.3   1 <1>  -0.3620 
 17 C       -6.5630    -2.2680    -0.8300 C.3   1 <1>   0.0400 
 18 H        0.2410    -2.4860     1.0090 H     1 <1>   0.3700 
 19 H        2.0360    -1.2440     1.3240 H     1 <1>   0.3700 
 20 H        2.4550     0.7950    -0.7960 H     1 <1>   0.0800 
 21 H       -1.3660    -4.1460     0.7360 H     1 <1>   0.1500 
 22 H       -2.2110    -0.1070    -0.3280 H     1 <1>   0.1500 
 23 H        3.8710    -1.4730    -0.5180 H     1 <1>   0.0800 
 24 H        4.7330    -0.5070     0.6440 H     1 <1>   0.0800 
 25 H        3.2390     0.8110     2.1370 H     1 <1>   0.0800 
 26 H        1.9510     1.7320     1.4120 H     1 <1>   0.0800 
 27 H       -3.7230    -4.7270     0.3640 H     1 <1>   0.1500 
 28 H       -4.5320    -0.6760    -0.7040 H     1 <1>   0.1500 
 29 H        4.2810     0.1680    -2.2850 H     1 <1>   0.0800 
 30 H        5.7740    -0.4120    -1.5920 H     1 <1>   0.0800 
 31 H        5.1800     1.1730    -1.1760 H     1 <1>   0.0800 
 32 H        4.9090     2.1170     0.9140 H     1 <1>   0.0800 
 33 H        3.8240     3.2010     1.7370 H     1 <1>   0.0800 
 34 H        3.6470     2.9430     0.0190 H     1 <1>   0.0800 
 35 H       -7.4890    -2.8060    -0.9190 H     1 <1>   0.0800 
 36 H       -6.2690    -1.8830    -1.7910 H     1 <1>   0.0800 
 37 H       -6.6680    -1.4750    -0.1110 H     1 <1>   0.0800 
@<TRIPOS>BOND
  1   1   2  2   
  2   2   3  am  
  3   2   4  am  
  4   3   5  1   
  5   3  18  1   
  6   4   6  1   
  7   4  19  1   
  8   5   7  ar  
  9   5   8  ar  
 10   6   9  1   
 11   6  10  1   
 12   6  20  1   
 13   7  11  ar  
 14   7  21  1   
 15   8  12  ar  
 16   8  22  1   
 17   9  13  1   
 18   9  23  1   
 19   9  24  1   
 20  10  14  1   
 21  10  25  1   
 22  10  26  1   
 23  11  15  ar  
 24  11  27  1   
 25  12  15  ar  
 26  12  28  1   
 27  13  29  1   
 28  13  30  1   
 29  13  31  1   
 30  14  32  1   
 31  14  33  1   
 32  14  34  1   
 33  15  16  1   
 34  16  17  1   
 35  17  35  1   
 36  17  36  1   
 37  17  37  1   
@<TRIPOS>SUBSTRUCTURE
  1 ****   3 GROUP 4 **** **** 0

# MOE 2024.06 (io_trps.svl 2023.06)
