@<TRIPOS>MOLECULE
NONAME
39 39 1 0 0 
SMALL
USER_CHARGES


@<TRIPOS>ATOM
  1 CL       0.3920     0.3490    -1.8010 Cl    1 <1>  -0.1770 
  2 C        1.2500    -0.5130    -0.5490 C.ar  1 <1>   0.1770 
  3 C        2.4770    -0.0410    -0.0910 C.ar  1 <1>   0.0860 
  4 C        0.6630    -1.6520    -0.0270 C.ar  1 <1>  -0.1500 
  5 C        3.0880     1.1450    -0.6390 C.2   1 <1>   0.5440 
  6 C        3.1000    -0.7590     0.9300 C.ar  1 <1>  -0.1500 
  7 C        1.3020    -2.3490     0.9830 C.ar  1 <1>  -0.1500 
  8 O        3.5920     1.1440    -1.7410 O.2   1 <1>  -0.5700 
  9 N        3.1520     2.2880     0.0980 N.am  1 <1>  -0.7300 
 10 C        2.5210    -1.8990     1.4610 C.ar  1 <1>  -0.1500 
 11 C        3.9310     3.5350    -0.3300 C.3   1 <1>   0.2200 
 12 P        5.5240     3.7510     0.4580 P.3   1 <1>   1.2420 
 13 C        3.0970     4.8090    -0.1510 C.3   1 <1>   0.8700 
 14 O        5.4730     4.2950     1.8110 O.2   1 <1>  -0.7000 
 15 O        6.2250     2.3040     0.4160 O.3   1 <1>  -0.5510 
 16 O        6.4260     4.6150    -0.5530 O.3   1 <1>  -0.5510 
 17 CL       3.9230     6.3030    -0.5710 Cl    1 <1>  -0.2900 
 18 CL       1.6750     4.7470    -1.1790 Cl    1 <1>  -0.2900 
 19 CL       2.4900     4.9880     1.4900 Cl    1 <1>  -0.2900 
 20 C        6.7280     1.7580    -0.7550 C.3   1 <1>   0.1200 
 21 C        7.6490     5.1320    -0.1530 C.3   1 <1>   0.1200 
 22 C        7.0930     0.3070    -0.4690 C.3   1 <1>  -0.2400 
 23 C        7.4340     6.5390     0.4010 C.3   1 <1>  -0.2400 
 24 H       -0.2860    -1.9870    -0.4090 H     1 <1>   0.1500 
 25 H        4.0520    -0.4200     1.3050 H     1 <1>   0.1500 
 26 H        0.8530    -3.2380     1.3950 H     1 <1>   0.1500 
 27 H        2.7910     2.2850     1.0590 H     1 <1>   0.3700 
 28 H        3.0210    -2.4400     2.2470 H     1 <1>   0.1500 
 29 H        4.1010     3.4550    -1.3870 H     1 <1>   0.0800 
 30 H        7.5980     2.3190    -1.0510 H     1 <1>   0.0800 
 31 H        5.9820     1.8140    -1.5280 H     1 <1>   0.0800 
 32 H        8.2850     5.1740    -1.0200 H     1 <1>   0.0800 
 33 H        8.0940     4.4800     0.5820 H     1 <1>   0.0800 
 34 H        7.5090    -0.1420    -1.3530 H     1 <1>   0.0800 
 35 H        7.8220     0.2540     0.3200 H     1 <1>   0.0800 
 36 H        6.2150    -0.2470    -0.1900 H     1 <1>   0.0800 
 37 H        6.9680     7.1640    -0.3400 H     1 <1>   0.0800 
 38 H        8.3820     6.9710     0.6630 H     1 <1>   0.0800 
 39 H        6.8220     6.5130     1.2850 H     1 <1>   0.0800 
@<TRIPOS>BOND
  1   1   2  1   
  2   2   3  ar  
  3   2   4  ar  
  4   3   5  1   
  5   3   6  ar  
  6   4   7  ar  
  7   4  24  1   
  8   5   8  2   
  9   5   9  am  
 10   6  10  ar  
 11   6  25  1   
 12   7  10  ar  
 13   7  26  1   
 14   9  11  1   
 15   9  27  1   
 16  10  28  1   
 17  11  12  1   
 18  11  13  1   
 19  11  29  1   
 20  12  14  2   
 21  12  15  1   
 22  12  16  1   
 23  13  17  1   
 24  13  18  1   
 25  13  19  1   
 26  15  20  1   
 27  16  21  1   
 28  20  22  1   
 29  20  30  1   
 30  20  31  1   
 31  21  23  1   
 32  21  32  1   
 33  21  33  1   
 34  22  34  1   
 35  22  35  1   
 36  22  36  1   
 37  23  37  1   
 38  23  38  1   
 39  23  39  1   
@<TRIPOS>SUBSTRUCTURE
  1 ****   9 GROUP 4 **** **** 0

# MOE 2024.06 (io_trps.svl 2023.06)
