@<TRIPOS>MOLECULE
NONAME
48 50 1 0 0 
SMALL
USER_CHARGES


@<TRIPOS>ATOM
  1 O        1.8010     1.0640    -2.5880 O.2   1 <1>  -0.5700 
  2 C        1.0760     1.3080    -1.6530 C.2   1 <1>   0.5690 
  3 N        1.0850     0.6190    -0.4830 N.am  1 <1>  -0.7300 
  4 C        0.0930     2.4790    -1.7640 C.3   1 <1>   0.1710 
  5 C        1.9820    -0.4350     0.0270 C.3   1 <1>   0.3640 
  6 N       -1.0670     2.3950    -0.8270 N.3   1 <1>  -0.8100 
  7 C        3.1560     0.2050     0.7600 C.ar  1 <1>  -0.1440 
  8 C        2.4350    -1.4090    -1.0600 C.3   1 <1>  -0.2400 
  9 C       -2.0410     1.3700    -1.2770 C.3   1 <1>   0.1100 
 10 C       -1.7490     3.7040    -0.7080 C.3   1 <1>   0.1100 
 11 C        3.3430    -0.0320     2.1150 C.ar  1 <1>  -0.1500 
 12 C        4.0520     1.0310     0.0930 C.ar  1 <1>  -0.1500 
 13 C       -3.2590     1.2690    -0.3380 C.3   1 <1>   0.2090 
 14 C       -2.9580     3.6430     0.2450 C.3   1 <1>   0.2090 
 15 C        4.4050     0.5450     2.7910 C.ar  1 <1>  -0.1500 
 16 C        5.1140     1.6090     0.7660 C.ar  1 <1>  -0.1500 
 17 N       -3.9270     2.5910    -0.1830 N.pl3 1 <1>  -0.8380 
 18 C        5.2920     1.3660     2.1160 C.ar  1 <1>  -0.1500 
 19 C       -5.1590     2.5700     0.4370 C.ar  1 <1>   0.4100 
 20 N       -5.1960     2.8470     1.7360 N.ar  1 <1>  -0.6200 
 21 C       -6.2900     2.2500    -0.3080 C.ar  1 <1>  -0.1500 
 22 C       -6.3910     2.8020     2.3010 C.ar  1 <1>   0.1600 
 23 C       -7.5270     2.2070     0.2920 C.ar  1 <1>  -0.1500 
 24 C       -7.5670     2.4940     1.6410 C.ar  1 <1>  -0.1500 
 25 H        0.4420     0.9990     0.2180 H     1 <1>   0.3700 
 26 H       -0.2560     2.5440    -2.7790 H     1 <1>   0.0800 
 27 H        0.6530     3.3720    -1.5520 H     1 <1>   0.0800 
 28 H        1.4130    -1.0080     0.7390 H     1 <1>   0.0800 
 29 H        3.0980    -0.9310    -1.7560 H     1 <1>   0.0800 
 30 H        1.5840    -1.7980    -1.5880 H     1 <1>   0.0800 
 31 H        2.9650    -2.2260    -0.6080 H     1 <1>   0.0800 
 32 H       -1.5610     0.4080    -1.3200 H     1 <1>   0.0800 
 33 H       -2.3930     1.6100    -2.2660 H     1 <1>   0.0800 
 34 H       -2.0910     4.0300    -1.6750 H     1 <1>   0.0800 
 35 H       -1.0540     4.4350    -0.3330 H     1 <1>   0.0800 
 36 H        2.6640    -0.6670     2.6550 H     1 <1>   0.1500 
 37 H        3.9210     1.2270    -0.9580 H     1 <1>   0.1500 
 38 H       -2.9370     0.9200     0.6280 H     1 <1>   0.0800 
 39 H       -3.9600     0.5560    -0.7350 H     1 <1>   0.0800 
 40 H       -3.4560     4.5970     0.2610 H     1 <1>   0.0800 
 41 H       -2.6130     3.4300     1.2420 H     1 <1>   0.0800 
 42 H        4.5430     0.3550     3.8410 H     1 <1>   0.1500 
 43 H        5.8010     2.2460     0.2370 H     1 <1>   0.1500 
 44 H        6.1170     1.8150     2.6400 H     1 <1>   0.1500 
 45 H       -6.1740     2.0450    -1.3550 H     1 <1>   0.1500 
 46 H       -6.4340     3.0250     3.3530 H     1 <1>   0.1500 
 47 H       -8.4170     1.9640    -0.2610 H     1 <1>   0.1500 
 48 H       -8.5000     2.4790     2.1750 H     1 <1>   0.1500 
@<TRIPOS>BOND
  1   1   2  2   
  2   2   3  am  
  3   2   4  1   
  4   3   5  1   
  5   3  25  1   
  6   4   6  1   
  7   4  26  1   
  8   4  27  1   
  9   5   7  1   
 10   5   8  1   
 11   5  28  1   
 12   6   9  1   
 13   6  10  1   
 14   7  11  ar  
 15   7  12  ar  
 16   8  29  1   
 17   8  30  1   
 18   8  31  1   
 19   9  13  1   
 20   9  32  1   
 21   9  33  1   
 22  10  14  1   
 23  10  34  1   
 24  10  35  1   
 25  11  15  ar  
 26  11  36  1   
 27  12  16  ar  
 28  12  37  1   
 29  13  17  1   
 30  13  38  1   
 31  13  39  1   
 32  14  17  1   
 33  14  40  1   
 34  14  41  1   
 35  15  18  ar  
 36  15  42  1   
 37  16  18  ar  
 38  16  43  1   
 39  17  19  1   
 40  18  44  1   
 41  19  20  ar  
 42  19  21  ar  
 43  20  22  ar  
 44  21  23  ar  
 45  21  45  1   
 46  22  24  ar  
 47  22  46  1   
 48  23  24  ar  
 49  23  47  1   
 50  24  48  1   
@<TRIPOS>SUBSTRUCTURE
  1 ****   6 GROUP 4 **** **** 0

# MOE 2024.06 (io_trps.svl 2023.06)
