@<TRIPOS>MOLECULE
NONAME
31 30 1 0 0 
SMALL
USER_CHARGES


@<TRIPOS>ATOM
  1 F        0.3700     0.2410    -1.0250 F     1 <1>  -0.3400 
  2 C        1.4140     0.4900    -0.2460 C.3   1 <1>   1.0200 
  3 F        2.4430    -0.1090    -0.8310 F     1 <1>  -0.3400 
  4 F        1.2110    -0.1830     0.8800 F     1 <1>  -0.3400 
  5 C        1.6890     1.9840    -0.0200 C.3   1 <1>   0.2200 
  6 N        3.0080     2.2710     0.7100 N.am  1 <1>  -0.7300 
  7 C        0.4580     2.6190     0.6440 C.3   1 <1>   1.0200 
  8 C        4.0830     2.8300     0.1240 C.2   1 <1>   0.7800 
  9 F        0.6110     3.9280     0.7900 F     1 <1>  -0.3400 
 10 F       -0.6700     2.4680    -0.0350 F     1 <1>  -0.3400 
 11 F        0.2260     2.1540     1.8650 F     1 <1>  -0.3400 
 12 O        4.0650     3.1940    -1.0310 O.2   1 <1>  -0.5700 
 13 O        5.1630     2.9470     0.8850 O.3   1 <1>  -0.4300 
 14 C        6.3910     3.4610     0.3940 C.3   1 <1>   0.1200 
 15 C        7.3960     2.3250     0.0920 C.3   1 <1>   0.0000 
 16 C        7.6810     1.5020     1.3590 C.3   1 <1>  -0.2400 
 17 C        6.8670     1.3900    -1.0090 C.3   1 <1>  -0.2400 
 18 C        8.7130     2.9500    -0.3930 C.3   1 <1>  -0.2400 
 19 H        1.7520     2.4220    -0.9990 H     1 <1>   0.0800 
 20 H        3.1110     1.9680     1.6820 H     1 <1>   0.3700 
 21 H        6.7900     4.1040     1.1580 H     1 <1>   0.0800 
 22 H        6.2120     4.0580    -0.4830 H     1 <1>   0.0800 
 23 H        6.7830     1.0240     1.7100 H     1 <1>   0.0800 
 24 H        8.0560     2.1340     2.1430 H     1 <1>   0.0800 
 25 H        8.4110     0.7380     1.1580 H     1 <1>   0.0800 
 26 H        6.6220     1.9520    -1.8940 H     1 <1>   0.0800 
 27 H        5.9820     0.8760    -0.6810 H     1 <1>   0.0800 
 28 H        7.6050     0.6520    -1.2670 H     1 <1>   0.0800 
 29 H        8.5510     3.5230    -1.2890 H     1 <1>   0.0800 
 30 H        9.4390     2.1860    -0.6080 H     1 <1>   0.0800 
 31 H        9.1230     3.6030     0.3580 H     1 <1>   0.0800 
@<TRIPOS>BOND
  1   1   2  1   
  2   2   3  1   
  3   2   4  1   
  4   2   5  1   
  5   5   6  1   
  6   5   7  1   
  7   5  19  1   
  8   6   8  am  
  9   6  20  1   
 10   7   9  1   
 11   7  10  1   
 12   7  11  1   
 13   8  12  2   
 14   8  13  1   
 15  13  14  1   
 16  14  15  1   
 17  14  21  1   
 18  14  22  1   
 19  15  16  1   
 20  15  17  1   
 21  15  18  1   
 22  16  23  1   
 23  16  24  1   
 24  16  25  1   
 25  17  26  1   
 26  17  27  1   
 27  17  28  1   
 28  18  29  1   
 29  18  30  1   
 30  18  31  1   
@<TRIPOS>SUBSTRUCTURE
  1 ****   6 GROUP 4 **** **** 0

# MOE 2024.06 (io_trps.svl 2023.06)
