@<TRIPOS>MOLECULE
NONAME
34 34 1 0 0 
SMALL
USER_CHARGES


@<TRIPOS>ATOM
  1 O       -0.2760    -0.4710     1.1740 O.2   1 <1>  -0.5700 
  2 C       -0.2020    -1.2000     0.2070 C.2   1 <1>   0.6900 
  3 N       -1.3220    -1.6800    -0.4000 N.am  1 <1>  -0.5470 
  4 N        0.9890    -1.6020    -0.3040 N.am  1 <1>  -0.7300 
  5 C       -2.6690    -1.3260    -0.2300 C.ar  1 <1>   0.1170 
  6 C        2.3420    -1.2730     0.1540 C.3   1 <1>   0.3000 
  7 C       -3.6860    -2.2870    -0.3710 C.ar  1 <1>   0.0860 
  8 C       -3.0180    -0.0040     0.0400 C.ar  1 <1>  -0.1500 
  9 C        2.5430    -1.7670     1.5880 C.3   1 <1>  -0.2400 
 10 C        3.3040    -2.0100    -0.7760 C.3   1 <1>  -0.2400 
 11 C        2.5780     0.2330     0.0420 C.3   1 <1>  -0.2400 
 12 C       -3.3990    -3.6850    -0.6040 C.2   1 <1>   0.5440 
 13 C       -5.0140    -1.8690    -0.2720 C.ar  1 <1>  -0.1500 
 14 C       -4.3380     0.3830     0.1510 C.ar  1 <1>  -0.1500 
 15 O       -3.9950    -4.3290    -1.4390 O.2   1 <1>  -0.5700 
 16 N       -2.4650    -4.3580     0.1110 N.am  1 <1>  -0.8000 
 17 C       -5.3430    -0.5530    -0.0120 C.ar  1 <1>  -0.1500 
 18 H       -1.1630    -2.5370    -0.9270 H     1 <1>   0.3700 
 19 H        0.9800    -2.0340    -1.2230 H     1 <1>   0.3700 
 20 H       -2.2440     0.7340     0.1590 H     1 <1>   0.1500 
 21 H        1.9060    -1.2310     2.2680 H     1 <1>   0.0800 
 22 H        3.5600    -1.6050     1.8960 H     1 <1>   0.0800 
 23 H        2.3270    -2.8170     1.6590 H     1 <1>   0.0800 
 24 H        3.1420    -3.0720    -0.7230 H     1 <1>   0.0800 
 25 H        4.3200    -1.8130    -0.4860 H     1 <1>   0.0800 
 26 H        3.1780    -1.6810    -1.7920 H     1 <1>   0.0800 
 27 H        1.9340     0.7690     0.7160 H     1 <1>   0.0800 
 28 H        2.3920     0.5720    -0.9610 H     1 <1>   0.0800 
 29 H        3.5940     0.4700     0.3000 H     1 <1>   0.0800 
 30 H       -5.7970    -2.5970    -0.4010 H     1 <1>   0.1500 
 31 H       -4.5840     1.4090     0.3610 H     1 <1>   0.1500 
 32 H       -2.3970    -5.3700    -0.0090 H     1 <1>   0.3700 
 33 H       -2.0410    -3.9680     0.9550 H     1 <1>   0.3700 
 34 H       -6.3750    -0.2550     0.0650 H     1 <1>   0.1500 
@<TRIPOS>BOND
  1   1   2  2   
  2   2   3  am  
  3   2   4  am  
  4   3   5  1   
  5   3  18  1   
  6   4   6  1   
  7   4  19  1   
  8   5   7  ar  
  9   5   8  ar  
 10   6   9  1   
 11   6  10  1   
 12   6  11  1   
 13   7  12  1   
 14   7  13  ar  
 15   8  14  ar  
 16   8  20  1   
 17   9  21  1   
 18   9  22  1   
 19   9  23  1   
 20  10  24  1   
 21  10  25  1   
 22  10  26  1   
 23  11  27  1   
 24  11  28  1   
 25  11  29  1   
 26  12  15  2   
 27  12  16  am  
 28  13  17  ar  
 29  13  30  1   
 30  14  17  ar  
 31  14  31  1   
 32  16  32  1   
 33  16  33  1   
 34  17  34  1   
@<TRIPOS>SUBSTRUCTURE
  1 ****   3 GROUP 4 **** **** 0

# MOE 2024.06 (io_trps.svl 2023.06)
