@<TRIPOS>MOLECULE
NONAME
48 49 1 0 0 
SMALL
USER_CHARGES


@<TRIPOS>ATOM
  1 O       -0.1480    -3.9480    -1.5230 O.2   1 <1>  -0.5700 
  2 C        0.0920    -3.0210    -0.7950 C.2   1 <1>   0.6590 
  3 O       -0.5960    -1.8890    -0.8320 O.3   1 <1>  -0.4300 
  4 C        1.2260    -3.0660     0.2260 C.3   1 <1>  -0.0190 
  5 C       -1.6650    -1.7080    -1.7310 C.3   1 <1>   0.1200 
  6 C        2.4590    -2.3100    -0.3000 C.3   1 <1>  -0.1600 
  7 C        1.6170    -4.5080     0.6120 C.3   1 <1>  -0.1600 
  8 C       -2.2280    -0.3060    -1.5210 C.3   1 <1>  -0.2400 
  9 C        3.6330    -2.3840     0.6730 C.3   1 <1>   0.3430 
 10 C        2.8050    -4.5420     1.5720 C.3   1 <1>   0.3430 
 11 N        3.9520    -3.8140     0.9660 N.4   1 <1>  -0.9590 
 12 C        5.1810    -3.9430     1.7950 C.3   1 <1>   0.4860 
 13 C        6.3470    -3.3960     0.9980 C.ar  1 <1>  -0.1440 
 14 C        6.8780    -4.1230    -0.0560 C.ar  1 <1>  -0.1500 
 15 C        6.8830    -2.1550     1.3020 C.ar  1 <1>  -0.1500 
 16 C        7.9230    -3.6140    -0.8090 C.ar  1 <1>   0.0820 
 17 C        7.9260    -1.6330     0.5550 C.ar  1 <1>   0.0820 
 18 O        8.3630    -4.3980    -1.8230 O.3   1 <1>  -0.3620 
 19 C        8.4510    -2.3630    -0.5060 C.ar  1 <1>  -0.1500 
 20 O        8.3670    -0.4070     0.9240 O.3   1 <1>  -0.3630 
 21 C        9.4670    -4.0240    -2.6190 C.3   1 <1>   0.0400 
 22 C        9.4760     0.1990     0.2950 C.3   1 <1>   0.0400 
 23 H        0.8700    -2.5670     1.1110 H     1 <1>   0.0800 
 24 H       -2.4120    -2.4580    -1.5310 H     1 <1>   0.0800 
 25 H       -1.2940    -1.8290    -2.7350 H     1 <1>   0.0800 
 26 H        2.2030    -1.2750    -0.4570 H     1 <1>   0.0800 
 27 H        2.7590    -2.7130    -1.2520 H     1 <1>   0.0800 
 28 H        1.8630    -5.0740    -0.2700 H     1 <1>   0.0800 
 29 H        0.7750    -4.9930     1.0760 H     1 <1>   0.0800 
 30 H       -2.5880    -0.1960    -0.5140 H     1 <1>   0.0800 
 31 H       -3.0480    -0.1420    -2.1960 H     1 <1>   0.0800 
 32 H       -1.4710     0.4320    -1.7180 H     1 <1>   0.0800 
 33 H        3.3830    -1.8690     1.5860 H     1 <1>   0.0800 
 34 H        4.4880    -1.8950     0.2320 H     1 <1>   0.0800 
 35 H        3.0760    -5.5680     1.7670 H     1 <1>   0.0800 
 36 H        2.5280    -4.0800     2.5060 H     1 <1>   0.0800 
 37 H        4.1730    -4.2530     0.0620 H     1 <1>   0.4500 
 38 H        5.3680    -4.9780     2.0290 H     1 <1>   0.0800 
 39 H        5.0740    -3.3950     2.7170 H     1 <1>   0.0800 
 40 H        6.5010    -5.0960    -0.3160 H     1 <1>   0.1500 
 41 H        6.5070    -1.5650     2.1200 H     1 <1>   0.1500 
 42 H        9.2560    -1.9640    -1.0870 H     1 <1>   0.1500 
 43 H        9.6470    -4.8100    -3.3310 H     1 <1>   0.0800 
 44 H       10.3290    -3.9010    -1.9870 H     1 <1>   0.0800 
 45 H        9.2340    -3.1110    -3.1370 H     1 <1>   0.0800 
 46 H        9.6580     1.1430     0.7760 H     1 <1>   0.0800 
 47 H        9.2480     0.3570    -0.7440 H     1 <1>   0.0800 
 48 H       10.3350    -0.4390     0.4100 H     1 <1>   0.0800 
@<TRIPOS>BOND
  1   1   2  2   
  2   2   3  1   
  3   2   4  1   
  4   3   5  1   
  5   4   6  1   
  6   4   7  1   
  7   4  23  1   
  8   5   8  1   
  9   5  24  1   
 10   5  25  1   
 11   6   9  1   
 12   6  26  1   
 13   6  27  1   
 14   7  10  1   
 15   7  28  1   
 16   7  29  1   
 17   8  30  1   
 18   8  31  1   
 19   8  32  1   
 20   9  11  1   
 21   9  33  1   
 22   9  34  1   
 23  10  11  1   
 24  10  35  1   
 25  10  36  1   
 26  11  12  1   
 27  11  37  1   
 28  12  13  1   
 29  12  38  1   
 30  12  39  1   
 31  13  14  ar  
 32  13  15  ar  
 33  14  16  ar  
 34  14  40  1   
 35  15  17  ar  
 36  15  41  1   
 37  16  18  1   
 38  16  19  ar  
 39  17  19  ar  
 40  17  20  1   
 41  18  21  1   
 42  19  42  1   
 43  20  22  1   
 44  21  43  1   
 45  21  44  1   
 46  21  45  1   
 47  22  46  1   
 48  22  47  1   
 49  22  48  1   
@<TRIPOS>SUBSTRUCTURE
  1 ****   9 GROUP 4 **** **** 0

# MOE 2024.06 (io_trps.svl 2023.06)
