@<TRIPOS>MOLECULE
NONAME
53 54 1 0 0 
SMALL
USER_CHARGES


@<TRIPOS>ATOM
  1 O       -5.3210     1.5320     0.6020 O.3   1 <1>  -0.3630 
  2 C       -6.6490     1.8270     0.5620 C.ar  1 <1>   0.0830 
  3 C       -4.7090     0.5980    -0.2610 C.3   1 <1>   0.2000 
  4 C       -7.0950     2.7750     1.4690 C.ar  1 <1>  -0.1500 
  5 C       -7.5590     1.2420    -0.3160 C.ar  1 <1>  -0.1500 
  6 C       -3.4250     0.1280     0.4370 C.3   1 <1>  -0.1600 
  7 C       -4.4320     1.2890    -1.6020 C.3   1 <1>  -0.2400 
  8 C       -8.4290     3.1380     1.5060 C.ar  1 <1>  -0.1500 
  9 C       -8.8950     1.6050    -0.2790 C.ar  1 <1>  -0.1500 
 10 C       -2.7060    -1.0080    -0.3070 C.3   1 <1>  -0.2400 
 11 C       -9.3370     2.5580     0.6350 C.ar  1 <1>   0.0830 
 12 O      -10.6280     2.9710     0.7370 O.3   1 <1>  -0.3630 
 13 C      -11.6290     2.4420    -0.1000 C.3   1 <1>   0.1200 
 14 C      -12.9540     3.1090     0.2680 C.3   1 <1>  -0.1600 
 15 C      -14.0820     2.6180    -0.6440 C.3   1 <1>   0.1100 
 16 N      -15.3880     3.1020    -0.1650 N.3   1 <1>  -0.8100 
 17 C      -16.4910     2.3050    -0.7390 C.3   1 <1>   0.1100 
 18 C      -15.5900     4.5480    -0.4030 C.3   1 <1>   0.1100 
 19 C      -17.8610     2.7580    -0.1920 C.3   1 <1>   0.3430 
 20 C      -16.9510     5.0260     0.1440 C.3   1 <1>   0.3430 
 21 N      -18.0940     4.2270    -0.4220 N.4   1 <1>  -0.9590 
 22 C      -19.3990     4.6640     0.1570 C.3   1 <1>   0.2630 
 23 H       -5.3670    -0.2440    -0.3790 H     1 <1>   0.0800 
 24 H       -6.3900     3.2240     2.1440 H     1 <1>   0.1500 
 25 H       -7.2500     0.5070    -1.0320 H     1 <1>   0.1500 
 26 H       -3.6850    -0.2250     1.4200 H     1 <1>   0.0800 
 27 H       -2.7530     0.9610     0.5490 H     1 <1>   0.0800 
 28 H       -3.7340     2.0950    -1.4660 H     1 <1>   0.0800 
 29 H       -5.3400     1.6810    -2.0210 H     1 <1>   0.0800 
 30 H       -4.0180     0.5900    -2.3040 H     1 <1>   0.0800 
 31 H       -8.7720     3.8730     2.2110 H     1 <1>   0.1500 
 32 H       -9.5710     1.1360    -0.9670 H     1 <1>   0.1500 
 33 H       -3.3710    -1.8400    -0.4580 H     1 <1>   0.0800 
 34 H       -1.8650    -1.3460     0.2720 H     1 <1>   0.0800 
 35 H       -2.3410    -0.6730    -1.2620 H     1 <1>   0.0800 
 36 H      -11.6780     1.3780     0.0610 H     1 <1>   0.0800 
 37 H      -11.3620     2.6560    -1.1200 H     1 <1>   0.0800 
 38 H      -12.8320     4.1710     0.1710 H     1 <1>   0.0800 
 39 H      -13.1910     2.8660     1.2880 H     1 <1>   0.0800 
 40 H      -14.0790     1.5410    -0.6260 H     1 <1>   0.0800 
 41 H      -13.9120     2.9370    -1.6590 H     1 <1>   0.0800 
 42 H      -16.3480     1.2690    -0.4820 H     1 <1>   0.0800 
 43 H      -16.4840     2.3830    -1.8130 H     1 <1>   0.0800 
 44 H      -15.5240     4.7630    -1.4560 H     1 <1>   0.0800 
 45 H      -14.8190     5.1080     0.0970 H     1 <1>   0.0800 
 46 H      -17.8870     2.5480     0.8640 H     1 <1>   0.0800 
 47 H      -18.6390     2.1830    -0.6660 H     1 <1>   0.0800 
 48 H      -17.0800     6.0690    -0.0910 H     1 <1>   0.0800 
 49 H      -16.9350     4.9260     1.2170 H     1 <1>   0.0800 
 50 H      -18.1030     4.3810    -1.4390 H     1 <1>   0.4500 
 51 H      -19.4050     4.5090     1.2240 H     1 <1>   0.0800 
 52 H      -20.2090     4.1020    -0.2780 H     1 <1>   0.0800 
 53 H      -19.5640     5.7110    -0.0400 H     1 <1>   0.0800 
@<TRIPOS>BOND
  1   1   2  1   
  2   1   3  1   
  3   2   4  ar  
  4   2   5  ar  
  5   3   6  1   
  6   3   7  1   
  7   3  23  1   
  8   4   8  ar  
  9   4  24  1   
 10   5   9  ar  
 11   5  25  1   
 12   6  10  1   
 13   6  26  1   
 14   6  27  1   
 15   7  28  1   
 16   7  29  1   
 17   7  30  1   
 18   8  11  ar  
 19   8  31  1   
 20   9  11  ar  
 21   9  32  1   
 22  10  33  1   
 23  10  34  1   
 24  10  35  1   
 25  11  12  1   
 26  12  13  1   
 27  13  14  1   
 28  13  36  1   
 29  13  37  1   
 30  14  15  1   
 31  14  38  1   
 32  14  39  1   
 33  15  16  1   
 34  15  40  1   
 35  15  41  1   
 36  16  17  1   
 37  16  18  1   
 38  17  19  1   
 39  17  42  1   
 40  17  43  1   
 41  18  20  1   
 42  18  44  1   
 43  18  45  1   
 44  19  21  1   
 45  19  46  1   
 46  19  47  1   
 47  20  21  1   
 48  20  48  1   
 49  20  49  1   
 50  21  22  1   
 51  21  50  1   
 52  22  51  1   
 53  22  52  1   
 54  22  53  1   
@<TRIPOS>SUBSTRUCTURE
  1 ****  13 GROUP 4 **** **** 0

# MOE 2024.06 (io_trps.svl 2023.06)
