@<TRIPOS>MOLECULE
NONAME
39 40 1 0 0 
SMALL
USER_CHARGES


@<TRIPOS>ATOM
  1 S        0.4120     0.3710    -0.5270 S.3   1 <1>  -0.3320 
  2 C       -1.0610    -0.6560    -0.3760 C.ar  1 <1>   0.1020 
  3 C        1.7430    -0.4740     0.4350 C.3   1 <1>   0.0700 
  4 C       -1.0830    -1.8090     0.3930 C.ar  1 <1>  -0.1500 
  5 C       -2.1870    -0.2450    -1.0650 C.ar  1 <1>  -0.1500 
  6 C        3.0150     0.3630     0.3140 C.3   1 <1>  -0.0990 
  7 C       -2.2490    -2.5540     0.4640 C.ar  1 <1>  -0.1500 
  8 C       -3.3480    -0.9950    -0.9900 C.ar  1 <1>  -0.1500 
  9 C        4.1680    -0.3330     0.9980 C.2   1 <1>   0.5690 
 10 C       -3.3830    -2.1530    -0.2270 C.ar  1 <1>  -0.1440 
 11 O        4.0850    -0.5780     2.1760 O.2   1 <1>  -0.5700 
 12 N        5.2540    -0.6670     0.2610 N.am  1 <1>  -0.7300 
 13 C       -4.6580    -2.9730    -0.1440 C.3   1 <1>  -0.0970 
 14 C        6.4530    -1.3490     0.7730 C.3   1 <1>   0.2200 
 15 C        7.6780    -0.5110     0.4300 C.3   1 <1>  -0.1600 
 16 C        6.6680    -2.6280    -0.0260 C.3   1 <1>  -0.1600 
 17 C        8.0150    -0.8410    -1.0300 C.3   1 <1>  -0.1600 
 18 C        7.3630    -2.1980    -1.3240 C.3   1 <1>  -0.1600 
 19 H        1.8750    -1.4540     0.0120 H     1 <1>   0.0800 
 20 H        1.4170    -0.5430     1.4580 H     1 <1>   0.0800 
 21 H       -0.2200    -2.1370     0.9360 H     1 <1>   0.1500 
 22 H       -2.1520     0.6530    -1.6540 H     1 <1>   0.1500 
 23 H        2.8630     1.3180     0.7830 H     1 <1>   0.0800 
 24 H        3.2450     0.5220    -0.7230 H     1 <1>   0.0800 
 25 H       -2.2700    -3.4490     1.0610 H     1 <1>   0.1500 
 26 H       -4.2230    -0.6730    -1.5260 H     1 <1>   0.1500 
 27 H        5.2950    -0.4460    -0.7330 H     1 <1>   0.3700 
 28 H       -4.4280    -4.0120     0.0100 H     1 <1>   0.0800 
 29 H       -5.2230    -2.8820    -1.0540 H     1 <1>   0.0800 
 30 H       -5.2610    -2.6250     0.6750 H     1 <1>   0.0800 
 31 H        6.3660    -1.5360     1.8320 H     1 <1>   0.0800 
 32 H        8.4930    -0.8310     1.0560 H     1 <1>   0.0800 
 33 H        7.5120     0.5390     0.5940 H     1 <1>   0.0800 
 34 H        5.7480    -3.1590    -0.2000 H     1 <1>   0.0800 
 35 H        7.3320    -3.2670     0.5290 H     1 <1>   0.0800 
 36 H        9.0810    -0.8770    -1.1770 H     1 <1>   0.0800 
 37 H        7.6020    -0.0900    -1.6810 H     1 <1>   0.0800 
 38 H        6.6360    -2.0890    -2.1100 H     1 <1>   0.0800 
 39 H        8.0940    -2.9290    -1.6270 H     1 <1>   0.0800 
@<TRIPOS>BOND
  1   1   2  1   
  2   1   3  1   
  3   2   4  ar  
  4   2   5  ar  
  5   3   6  1   
  6   3  19  1   
  7   3  20  1   
  8   4   7  ar  
  9   4  21  1   
 10   5   8  ar  
 11   5  22  1   
 12   6   9  1   
 13   6  23  1   
 14   6  24  1   
 15   7  10  ar  
 16   7  25  1   
 17   8  10  ar  
 18   8  26  1   
 19   9  11  2   
 20   9  12  am  
 21  10  13  1   
 22  12  14  1   
 23  12  27  1   
 24  13  28  1   
 25  13  29  1   
 26  13  30  1   
 27  14  15  1   
 28  14  16  1   
 29  14  31  1   
 30  15  17  1   
 31  15  32  1   
 32  15  33  1   
 33  16  18  1   
 34  16  34  1   
 35  16  35  1   
 36  17  18  1   
 37  17  36  1   
 38  17  37  1   
 39  18  38  1   
 40  18  39  1   
@<TRIPOS>SUBSTRUCTURE
  1 ****   3 GROUP 4 **** **** 0

# MOE 2024.06 (io_trps.svl 2023.06)
