@<TRIPOS>MOLECULE
NONAME
32 33 1 0 0 
SMALL
USER_CHARGES


@<TRIPOS>ATOM
  1 BR       1.5920     1.9840    -1.2210 Br    1 <1>  -0.0580 
  2 C        0.0670     2.5910    -0.2300 C.2   1 <1>   0.0980 
  3 S       -1.4220     2.7440    -1.1240 S.3   1 <1>  -0.0800 
  4 C       -0.0640     2.9300     1.0630 C.2   1 <1>  -0.1500 
  5 C       -2.2760     3.2920     0.3330 C.2   1 <1>  -0.0450 
  6 C       -1.3970     3.3290     1.3740 C.2   1 <1>  -0.1500 
  7 C       -3.6750     3.6260     0.2590 C.2   1 <1>   0.7150 
  8 O       -4.2380     4.1760     1.1910 O.2   1 <1>  -0.5700 
  9 N       -4.4710     3.3010    -0.8150 N.am  1 <1>  -0.6600 
 10 C       -5.4420     4.3090    -1.3430 C.3   1 <1>   0.1400 
 11 C       -4.7700     1.8810    -1.1220 C.3   1 <1>   0.1400 
 12 C       -6.8640     4.1680    -0.7570 C.3   1 <1>   0.3430 
 13 C       -5.6120     1.2640     0.0040 C.3   1 <1>  -0.1600 
 14 N       -6.8900     3.3640     0.5070 N.4   1 <1>  -0.9590 
 15 C       -6.9870     1.9010     0.2370 C.3   1 <1>   0.3430 
 16 C       -7.9550     3.8320     1.4400 C.3   1 <1>   0.2630 
 17 H        0.7210     2.9140     1.7990 H     1 <1>   0.1500 
 18 H       -1.6580     3.6380     2.3730 H     1 <1>   0.1500 
 19 H       -5.4840     4.2430    -2.4170 H     1 <1>   0.0800 
 20 H       -5.0770     5.2950    -1.1060 H     1 <1>   0.0800 
 21 H       -3.8480     1.3320    -1.2160 H     1 <1>   0.0800 
 22 H       -5.2880     1.8090    -2.0640 H     1 <1>   0.0800 
 23 H       -7.5080     3.7120    -1.4900 H     1 <1>   0.0800 
 24 H       -7.2450     5.1580    -0.5690 H     1 <1>   0.0800 
 25 H       -5.0530     1.2780     0.9240 H     1 <1>   0.0800 
 26 H       -5.7710     0.2280    -0.2360 H     1 <1>   0.0800 
 27 H       -5.9620     3.5420     0.9550 H     1 <1>   0.4500 
 28 H       -7.4420     1.4120     1.0830 H     1 <1>   0.0800 
 29 H       -7.6190     1.7300    -0.6190 H     1 <1>   0.0800 
 30 H       -8.9300     3.6890     1.0030 H     1 <1>   0.0800 
 31 H       -7.8220     4.8790     1.6610 H     1 <1>   0.0800 
 32 H       -7.9060     3.2820     2.3660 H     1 <1>   0.0800 
@<TRIPOS>BOND
  1   1   2  1   
  2   2   3  1   
  3   2   4  2   
  4   3   5  1   
  5   4   6  1   
  6   4  17  1   
  7   5   6  2   
  8   5   7  1   
  9   6  18  1   
 10   7   8  2   
 11   7   9  am  
 12   9  10  1   
 13   9  11  1   
 14  10  12  1   
 15  10  19  1   
 16  10  20  1   
 17  11  13  1   
 18  11  21  1   
 19  11  22  1   
 20  12  14  1   
 21  12  23  1   
 22  12  24  1   
 23  13  15  1   
 24  13  25  1   
 25  13  26  1   
 26  14  15  1   
 27  14  16  1   
 28  14  27  1   
 29  15  28  1   
 30  15  29  1   
 31  16  30  1   
 32  16  31  1   
 33  16  32  1   
@<TRIPOS>SUBSTRUCTURE
  1 ****   7 GROUP 4 **** **** 0

# MOE 2024.06 (io_trps.svl 2023.06)
