@<TRIPOS>MOLECULE
NONAME
40 41 1 0 0 
SMALL
USER_CHARGES


@<TRIPOS>ATOM
  1 O        0.5150     0.7880     0.7770 O.2   1 <1>  -0.5700 
  2 C        1.6910     0.5310     0.7270 C.2   1 <1>   0.5690 
  3 N        2.3120    -0.0420     1.7760 N.am  1 <1>  -0.8000 
  4 C        2.4990     0.8480    -0.5380 C.3   1 <1>   0.1710 
  5 N        3.9510     1.0930    -0.3000 N.3   1 <1>  -0.8100 
  6 C        4.7000     1.0810    -1.5790 C.3   1 <1>   0.1100 
  7 C        4.1630     2.3960     0.3830 C.3   1 <1>   0.1100 
  8 C        6.1990     1.3800    -1.3850 C.3   1 <1>   0.2090 
  9 C        5.6550     2.7120     0.5980 C.3   1 <1>   0.2090 
 10 N        6.3900     2.6900    -0.6990 N.pl3 1 <1>  -0.8380 
 11 C        7.7060     3.1700    -0.6580 C.ar  1 <1>   0.1000 
 12 C        8.7600     2.5520     0.0410 C.ar  1 <1>   0.0820 
 13 C        7.9700     4.3360    -1.3620 C.ar  1 <1>  -0.1500 
 14 O        8.4960     1.4000     0.7330 O.3   1 <1>  -0.3630 
 15 C       10.0310     3.1200     0.0130 C.ar  1 <1>  -0.1500 
 16 C        9.2350     4.8940    -1.3870 C.ar  1 <1>  -0.1500 
 17 C        9.5220     0.6530     1.3400 C.3   1 <1>   0.1200 
 18 C       10.2670     4.2850    -0.6980 C.ar  1 <1>  -0.1500 
 19 C        8.8960    -0.6020     1.9410 C.3   1 <1>  -0.2400 
 20 H        1.8080    -0.2600     2.6350 H     1 <1>   0.3700 
 21 H        3.3220    -0.1980     1.7450 H     1 <1>   0.3700 
 22 H        2.0590     1.7020    -1.0220 H     1 <1>   0.0800 
 23 H        2.3880     0.0050    -1.1960 H     1 <1>   0.0800 
 24 H        4.2910     1.8180    -2.2490 H     1 <1>   0.0800 
 25 H        4.6000     0.1140    -2.0400 H     1 <1>   0.0800 
 26 H        3.6740     2.3870     1.3410 H     1 <1>   0.0800 
 27 H        3.7310     3.1900    -0.2020 H     1 <1>   0.0800 
 28 H        6.6900     1.4090    -2.3420 H     1 <1>   0.0800 
 29 H        6.6440     0.5940    -0.8010 H     1 <1>   0.0800 
 30 H        6.0780     1.9870     1.2700 H     1 <1>   0.0800 
 31 H        5.7580     3.6850     1.0450 H     1 <1>   0.0800 
 32 H        7.1620     4.8040    -1.8940 H     1 <1>   0.1500 
 33 H       10.8550     2.6780     0.5370 H     1 <1>   0.1500 
 34 H        9.4120     5.7980    -1.9410 H     1 <1>   0.1500 
 35 H        9.9760     1.2560     2.1070 H     1 <1>   0.0800 
 36 H       10.2470     0.3930     0.5870 H     1 <1>   0.0800 
 37 H       11.2520     4.7170    -0.7150 H     1 <1>   0.1500 
 38 H        8.1630    -0.3300     2.6790 H     1 <1>   0.0800 
 39 H        9.6550    -1.1980     2.4130 H     1 <1>   0.0800 
 40 H        8.4290    -1.1860     1.1680 H     1 <1>   0.0800 
@<TRIPOS>BOND
  1   1   2  2   
  2   2   3  am  
  3   2   4  1   
  4   3  20  1   
  5   3  21  1   
  6   4   5  1   
  7   4  22  1   
  8   4  23  1   
  9   5   6  1   
 10   5   7  1   
 11   6   8  1   
 12   6  24  1   
 13   6  25  1   
 14   7   9  1   
 15   7  26  1   
 16   7  27  1   
 17   8  10  1   
 18   8  28  1   
 19   8  29  1   
 20   9  10  1   
 21   9  30  1   
 22   9  31  1   
 23  10  11  1   
 24  11  12  ar  
 25  11  13  ar  
 26  12  14  1   
 27  12  15  ar  
 28  13  16  ar  
 29  13  32  1   
 30  14  17  1   
 31  15  18  ar  
 32  15  33  1   
 33  16  18  ar  
 34  16  34  1   
 35  17  19  1   
 36  17  35  1   
 37  17  36  1   
 38  18  37  1   
 39  19  38  1   
 40  19  39  1   
 41  19  40  1   
@<TRIPOS>SUBSTRUCTURE
  1 ****  10 GROUP 4 **** **** 0

# MOE 2024.06 (io_trps.svl 2023.06)
