@<TRIPOS>MOLECULE
NONAME
35 35 1 0 0 
SMALL
USER_CHARGES


@<TRIPOS>ATOM
  1 CL       0.2830     0.3530     0.1140 Cl    1 <1>  -0.1770 
  2 C       -1.3210     1.0280     0.2440 C.ar  1 <1>   0.1770 
  3 C       -1.4710     2.3770     0.4980 C.ar  1 <1>  -0.1500 
  4 C       -2.4180     0.2020     0.0910 C.ar  1 <1>  -0.1500 
  5 C       -2.7410     2.9240     0.6050 C.ar  1 <1>  -0.1440 
  6 C       -3.6890     0.7390     0.1910 C.ar  1 <1>  -0.1500 
  7 C       -3.8580     2.1020     0.4440 C.ar  1 <1>   0.0830 
  8 C       -2.8790     4.4150     0.8880 C.3   1 <1>   0.1220 
  9 O       -5.0850     2.6810     0.5380 O.3   1 <1>  -0.3620 
 10 C       -3.0110     5.1890    -0.4120 C.2   1 <1>  -0.2880 
 11 C       -6.2600     1.9940     0.1870 C.3   1 <1>   0.1200 
 12 C       -2.2080     6.1830    -0.8040 C.2   1 <1>  -0.3000 
 13 C       -7.4080     3.0020     0.2710 C.3   1 <1>   0.3430 
 14 N       -8.7220     2.3880    -0.0940 N.4   1 <1>  -0.9060 
 15 C       -9.8300     3.3660    -0.0160 C.3   1 <1>   0.3430 
 16 C      -11.1170     2.6520    -0.4010 C.3   1 <1>  -0.2400 
 17 H       -0.5930     2.9890     0.6060 H     1 <1>   0.1500 
 18 H       -2.2690    -0.8450    -0.1030 H     1 <1>   0.1500 
 19 H       -4.5240     0.0760     0.0720 H     1 <1>   0.1500 
 20 H       -2.0180     4.7630     1.4320 H     1 <1>   0.0800 
 21 H       -3.7390     4.6000     1.5070 H     1 <1>   0.0800 
 22 H       -3.8370     4.8460    -1.0100 H     1 <1>   0.1500 
 23 H       -6.3960     1.1880     0.8870 H     1 <1>   0.0800 
 24 H       -6.1420     1.6230    -0.8170 H     1 <1>   0.0800 
 25 H       -2.3200     6.7140    -1.7340 H     1 <1>   0.1500 
 26 H       -1.3710     6.5500    -0.2340 H     1 <1>   0.1500 
 27 H       -7.1950     3.8220    -0.3960 H     1 <1>   0.0800 
 28 H       -7.4560     3.3860     1.2780 H     1 <1>   0.0800 
 29 H       -8.9340     1.6010     0.5330 H     1 <1>   0.4500 
 30 H       -8.6840     2.0110    -1.0500 H     1 <1>   0.4500 
 31 H       -9.6520     4.1880    -0.6920 H     1 <1>   0.0800 
 32 H       -9.9140     3.7560     0.9870 H     1 <1>   0.0800 
 33 H      -11.0660     2.2780    -1.4080 H     1 <1>   0.0800 
 34 H      -11.9360     3.3490    -0.3500 H     1 <1>   0.0800 
 35 H      -11.3300     1.8450     0.2770 H     1 <1>   0.0800 
@<TRIPOS>BOND
  1   1   2  1   
  2   2   3  ar  
  3   2   4  ar  
  4   3   5  ar  
  5   3  17  1   
  6   4   6  ar  
  7   4  18  1   
  8   5   7  ar  
  9   5   8  1   
 10   6   7  ar  
 11   6  19  1   
 12   7   9  1   
 13   8  10  1   
 14   8  20  1   
 15   8  21  1   
 16   9  11  1   
 17  10  12  2   
 18  10  22  1   
 19  11  13  1   
 20  11  23  1   
 21  11  24  1   
 22  12  25  1   
 23  12  26  1   
 24  13  14  1   
 25  13  27  1   
 26  13  28  1   
 27  14  15  1   
 28  14  29  1   
 29  14  30  1   
 30  15  16  1   
 31  15  31  1   
 32  15  32  1   
 33  16  33  1   
 34  16  34  1   
 35  16  35  1   
@<TRIPOS>SUBSTRUCTURE
  1 ****   9 GROUP 4 **** **** 0

# MOE 2024.06 (io_trps.svl 2023.06)
