@<TRIPOS>MOLECULE
NONAME
46 47 1 0 0 
SMALL
USER_CHARGES


@<TRIPOS>ATOM
  1 S        0.1230    -0.6060     0.8230 S.o2  1 <1>   1.3330 
  2 O       -0.4030    -0.3720     2.1460 O.2   1 <1>  -0.6500 
  3 O        0.7030    -1.8800     0.4720 O.2   1 <1>  -0.6500 
  4 N        1.3720     0.5240     0.6020 N.am  1 <1>  -0.8490 
  5 C       -1.1480    -0.2290    -0.3970 C.3   1 <1>  -0.0550 
  6 C        1.2680     1.8190     1.2900 C.3   1 <1>   0.1960 
  7 C        2.0480     0.5320    -0.7000 C.3   1 <1>   0.1960 
  8 C       -1.7800     1.1710    -0.3070 C.3   1 <1>  -0.1600 
  9 C        2.6510     2.4990     1.3840 C.3   1 <1>   0.3430 
 10 C        3.4260     1.2230    -0.5970 C.3   1 <1>   0.3430 
 11 C       -2.9610     1.3040    -1.2730 C.3   1 <1>  -0.2400 
 12 N        3.3460     2.5880     0.0440 N.4   1 <1>  -0.9590 
 13 C        4.7010     3.1990     0.1790 C.3   1 <1>   0.3430 
 14 C        4.7130     4.6490    -0.3250 C.3   1 <1>  -0.0800 
 15 C        6.1570     5.1880    -0.2570 C.3   1 <1>  -0.0220 
 16 C        3.7510     5.5850     0.4430 C.3   1 <1>  -0.1600 
 17 C        6.2050     6.6790    -0.5290 C.2   1 <1>  -0.2880 
 18 C        3.7340     7.0000    -0.1590 C.3   1 <1>  -0.0220 
 19 C        5.1350     7.4750    -0.4950 C.2   1 <1>  -0.2880 
 20 H       -1.9320    -0.9540    -0.2790 H     1 <1>   0.0800 
 21 H       -0.7450    -0.3680    -1.3810 H     1 <1>   0.0800 
 22 H        0.9000     1.6720     2.2920 H     1 <1>   0.0800 
 23 H        0.5800     2.4670     0.7790 H     1 <1>   0.0800 
 24 H        1.4360     1.0330    -1.4300 H     1 <1>   0.0800 
 25 H        2.2010    -0.4820    -1.0330 H     1 <1>   0.0800 
 26 H       -1.0510     1.9200    -0.5520 H     1 <1>   0.0800 
 27 H       -2.1270     1.3440     0.6990 H     1 <1>   0.0800 
 28 H        3.2560     1.9210     2.0630 H     1 <1>   0.0800 
 29 H        2.5330     3.4820     1.8070 H     1 <1>   0.0800 
 30 H        3.8540     1.3040    -1.5830 H     1 <1>   0.0800 
 31 H        4.0700     0.5890    -0.0110 H     1 <1>   0.0800 
 32 H       -2.6440     1.1470    -2.2900 H     1 <1>   0.0800 
 33 H       -3.3910     2.2880    -1.1990 H     1 <1>   0.0800 
 34 H       -3.7270     0.5850    -1.0360 H     1 <1>   0.0800 
 35 H        2.7890     3.1970    -0.5690 H     1 <1>   0.4500 
 36 H        5.4130     2.6330    -0.4010 H     1 <1>   0.0800 
 37 H        5.0210     3.1700     1.2090 H     1 <1>   0.0800 
 38 H        4.4270     4.6500    -1.3640 H     1 <1>   0.0800 
 39 H        6.7650     4.6820    -0.9880 H     1 <1>   0.0800 
 40 H        6.5850     5.0120     0.7150 H     1 <1>   0.0800 
 41 H        4.0740     5.6580     1.4690 H     1 <1>   0.0800 
 42 H        2.7440     5.2130     0.4340 H     1 <1>   0.0800 
 43 H        7.1960     7.0440    -0.7510 H     1 <1>   0.1500 
 44 H        3.2840     7.6810     0.5440 H     1 <1>   0.0800 
 45 H        3.1430     7.0150    -1.0590 H     1 <1>   0.0800 
 46 H        5.1860     8.5310    -0.7070 H     1 <1>   0.1500 
@<TRIPOS>BOND
  1   1   2  2   
  2   1   3  2   
  3   1   4  am  
  4   1   5  1   
  5   4   6  1   
  6   4   7  1   
  7   5   8  1   
  8   5  20  1   
  9   5  21  1   
 10   6   9  1   
 11   6  22  1   
 12   6  23  1   
 13   7  10  1   
 14   7  24  1   
 15   7  25  1   
 16   8  11  1   
 17   8  26  1   
 18   8  27  1   
 19   9  12  1   
 20   9  28  1   
 21   9  29  1   
 22  10  12  1   
 23  10  30  1   
 24  10  31  1   
 25  11  32  1   
 26  11  33  1   
 27  11  34  1   
 28  12  13  1   
 29  12  35  1   
 30  13  14  1   
 31  13  36  1   
 32  13  37  1   
 33  14  15  1   
 34  14  16  1   
 35  14  38  1   
 36  15  17  1   
 37  15  39  1   
 38  15  40  1   
 39  16  18  1   
 40  16  41  1   
 41  16  42  1   
 42  17  19  2   
 43  17  43  1   
 44  18  19  1   
 45  18  44  1   
 46  18  45  1   
 47  19  46  1   
@<TRIPOS>SUBSTRUCTURE
  1 ****  12 GROUP 4 **** **** 0

# MOE 2024.06 (io_trps.svl 2023.06)
