@<TRIPOS>MOLECULE
NONAME
45 48 1 0 0 
SMALL
USER_CHARGES


@<TRIPOS>ATOM
  1 O       -3.8210    -4.1490     0.5990 O.2   1 <1>  -0.5700 
  2 C       -3.8030    -3.0090     0.9810 C.2   1 <1>   0.6590 
  3 O       -4.8120    -2.1730     0.8000 O.3   1 <1>  -0.4300 
  4 C       -2.5770    -2.4370     1.6660 C.3   1 <1>   0.3890 
  5 C       -6.0050    -2.5750     0.1470 C.3   1 <1>   0.1200 
  6 N       -1.5720    -1.9860     0.6570 N.ar  1 <1>  -0.2100 
  7 C       -6.9690    -1.3820     0.0020 C.3   1 <1>   0.0000 
  8 C       -1.3180    -0.6680     0.4800 C.ar  1 <1>   0.2110 
  9 C       -0.9270    -2.9060    -0.0990 C.ar  1 <1>   0.2110 
 10 C       -8.2540    -1.8560    -0.7160 C.3   1 <1>  -0.1600 
 11 C       -6.3300    -0.2500    -0.8390 C.3   1 <1>  -0.1600 
 12 C       -7.3640    -0.8130     1.3860 C.3   1 <1>  -0.1600 
 13 C       -0.3960    -0.2450    -0.4580 C.ar  1 <1>  -0.1500 
 14 C        0.0020    -2.5200    -1.0460 C.ar  1 <1>  -0.1500 
 15 C       -9.2480    -0.6910    -0.8830 C.3   1 <1>  -0.0800 
 16 C       -7.3130     0.9240    -1.0030 C.3   1 <1>  -0.0800 
 17 C       -8.3510     0.3590     1.2280 C.3   1 <1>  -0.0800 
 18 C        0.2770    -1.1750    -1.2330 C.ar  1 <1>  -0.1500 
 19 C       -8.5850     0.4240    -1.7130 C.3   1 <1>  -0.1600 
 20 C       -9.6170    -0.1380     0.5060 C.3   1 <1>  -0.1600 
 21 C       -7.6910     1.4680     0.3880 C.3   1 <1>  -0.1600 
 22 H       -2.1410    -3.1980     2.2870 H     1 <1>   0.0800 
 23 H       -2.8750    -1.6160     2.2930 H     1 <1>   0.0800 
 24 H       -6.4600    -3.3580     0.7300 H     1 <1>   0.0800 
 25 H       -5.7460    -2.9660    -0.8220 H     1 <1>   0.0800 
 26 H       -1.8430     0.0620     1.0770 H     1 <1>   0.1500 
 27 H       -1.1440    -3.9560     0.0390 H     1 <1>   0.1500 
 28 H       -8.7230    -2.6420    -0.1500 H     1 <1>   0.0800 
 29 H       -8.0100    -2.2540    -1.6860 H     1 <1>   0.0800 
 30 H       -6.0560    -0.6240    -1.8100 H     1 <1>   0.0800 
 31 H       -5.4360     0.1070    -0.3610 H     1 <1>   0.0800 
 32 H       -7.8190    -1.5850     1.9830 H     1 <1>   0.0800 
 33 H       -6.4910    -0.4680     1.9090 H     1 <1>   0.0800 
 34 H       -0.1980     0.8060    -0.5920 H     1 <1>   0.1500 
 35 H        0.5110    -3.2600    -1.6410 H     1 <1>   0.1500 
 36 H      -10.1360    -1.0370    -1.3840 H     1 <1>   0.0800 
 37 H       -6.8570     1.7050    -1.5870 H     1 <1>   0.0800 
 38 H       -8.6160     0.7460     2.1980 H     1 <1>   0.0800 
 39 H        1.0010    -0.8590    -1.9700 H     1 <1>   0.1500 
 40 H       -9.2750     1.2400    -1.8420 H     1 <1>   0.0800 
 41 H       -8.3350     0.0520    -2.6910 H     1 <1>   0.0800 
 42 H      -10.0930    -0.9060     1.0900 H     1 <1>   0.0800 
 43 H      -10.3170     0.6720     0.4010 H     1 <1>   0.0800 
 44 H       -8.3720     2.2950     0.2810 H     1 <1>   0.0800 
 45 H       -6.8120     1.8330     0.8890 H     1 <1>   0.0800 
@<TRIPOS>BOND
  1   1   2  2   
  2   2   3  1   
  3   2   4  1   
  4   3   5  1   
  5   4   6  1   
  6   4  22  1   
  7   4  23  1   
  8   5   7  1   
  9   5  24  1   
 10   5  25  1   
 11   6   8  ar  
 12   6   9  ar  
 13   7  10  1   
 14   7  11  1   
 15   7  12  1   
 16   8  13  ar  
 17   8  26  1   
 18   9  14  ar  
 19   9  27  1   
 20  10  15  1   
 21  10  28  1   
 22  10  29  1   
 23  11  16  1   
 24  11  30  1   
 25  11  31  1   
 26  12  17  1   
 27  12  32  1   
 28  12  33  1   
 29  13  18  ar  
 30  13  34  1   
 31  14  18  ar  
 32  14  35  1   
 33  15  19  1   
 34  15  20  1   
 35  15  36  1   
 36  16  19  1   
 37  16  21  1   
 38  16  37  1   
 39  17  20  1   
 40  17  21  1   
 41  17  38  1   
 42  18  39  1   
 43  19  40  1   
 44  19  41  1   
 45  20  42  1   
 46  20  43  1   
 47  21  44  1   
 48  21  45  1   
@<TRIPOS>SUBSTRUCTURE
  1 ****   3 GROUP 4 **** **** 0

# MOE 2024.06 (io_trps.svl 2023.06)
