@<TRIPOS>MOLECULE
NONAME
47 49 1 0 0 
SMALL
USER_CHARGES


@<TRIPOS>ATOM
  1 O        2.0590     2.3690    -0.8260 O.3   1 <1>  -0.5600 
  2 C        2.4220     3.7330    -0.8710 C.3   1 <1>   0.3440 
  3 C        3.0160     1.4880    -1.3360 C.3   1 <1>   0.1200 
  4 C        3.8510     3.9700    -0.3780 C.ar  1 <1>  -0.1440 
  5 C        1.4150     4.4840     0.0260 C.3   1 <1>   0.3430 
  6 C        4.2240     1.4800    -0.3980 C.3   1 <1>  -0.0160 
  7 C        4.7020     2.8980    -0.1410 C.ar  1 <1>  -0.1440 
  8 C        4.3190     5.2630    -0.1750 C.ar  1 <1>  -0.1500 
  9 N        0.0780     3.8150     0.0150 N.4   1 <1>  -0.9060 
 10 C        5.9890     3.1190     0.3210 C.ar  1 <1>  -0.1500 
 11 C        5.6060     5.4800     0.2840 C.ar  1 <1>  -0.1500 
 12 C       -0.7390     4.0160     1.2230 C.3   1 <1>   0.4860 
 13 C        6.4400     4.4070     0.5360 C.ar  1 <1>  -0.1500 
 14 C       -2.0230     3.2560     0.9900 C.ar  1 <1>  -0.1430 
 15 C       -3.0580     3.8500     0.2880 C.ar  1 <1>  -0.1500 
 16 C       -2.1760     1.9610     1.4550 C.ar  1 <1>  -0.1500 
 17 C       -4.2370     3.1730     0.0290 C.ar  1 <1>   0.0830 
 18 C       -3.3490     1.2690     1.2080 C.ar  1 <1>  -0.1500 
 19 O       -5.1420     3.9080    -0.6810 O.3   1 <1>  -0.3630 
 20 C       -4.3910     1.8530     0.4900 C.ar  1 <1>   0.0830 
 21 C       -6.4910     3.5310    -0.8410 C.3   1 <1>   0.0400 
 22 O       -5.5370     1.1600     0.2280 O.3   1 <1>  -0.3630 
 23 C       -5.7450    -0.1660     0.6660 C.3   1 <1>   0.0400 
 24 H        2.3330     4.0630    -1.8920 H     1 <1>   0.0800 
 25 H        3.2970     1.8090    -2.3260 H     1 <1>   0.0800 
 26 H        2.5770     0.5070    -1.3940 H     1 <1>   0.0800 
 27 H        1.3380     5.5130    -0.2840 H     1 <1>   0.0800 
 28 H        1.8130     4.4700     1.0270 H     1 <1>   0.0800 
 29 H        5.0130     0.9010    -0.8450 H     1 <1>   0.0800 
 30 H        3.9560     1.0130     0.5330 H     1 <1>   0.0800 
 31 H        3.7020     6.1220    -0.3730 H     1 <1>   0.1500 
 32 H        0.2830     2.8050    -0.0840 H     1 <1>   0.4500 
 33 H       -0.4740     4.0510    -0.8170 H     1 <1>   0.4500 
 34 H        6.6490     2.2890     0.5120 H     1 <1>   0.1500 
 35 H        5.9650     6.4830     0.4430 H     1 <1>   0.1500 
 36 H       -0.9530     5.0630     1.3680 H     1 <1>   0.0800 
 37 H       -0.2310     3.6340     2.0940 H     1 <1>   0.0800 
 38 H        7.4420     4.5750     0.8940 H     1 <1>   0.1500 
 39 H       -2.9750     4.8590    -0.0760 H     1 <1>   0.1500 
 40 H       -1.3930     1.4740     2.0120 H     1 <1>   0.1500 
 41 H       -3.4270     0.2670     1.5850 H     1 <1>   0.1500 
 42 H       -7.0160     4.3480    -1.3030 H     1 <1>   0.0800 
 43 H       -6.9140     3.3230     0.1260 H     1 <1>   0.0800 
 44 H       -6.5370     2.6640    -1.4750 H     1 <1>   0.0800 
 45 H       -6.7200    -0.4770     0.3350 H     1 <1>   0.0800 
 46 H       -5.7000    -0.1920     1.7400 H     1 <1>   0.0800 
 47 H       -4.9950    -0.8010     0.2290 H     1 <1>   0.0800 
@<TRIPOS>BOND
  1   1   2  1   
  2   1   3  1   
  3   2   4  1   
  4   2   5  1   
  5   2  24  1   
  6   3   6  1   
  7   3  25  1   
  8   3  26  1   
  9   4   7  ar  
 10   4   8  ar  
 11   5   9  1   
 12   5  27  1   
 13   5  28  1   
 14   6   7  1   
 15   6  29  1   
 16   6  30  1   
 17   7  10  ar  
 18   8  11  ar  
 19   8  31  1   
 20   9  12  1   
 21   9  32  1   
 22   9  33  1   
 23  10  13  ar  
 24  10  34  1   
 25  11  13  ar  
 26  11  35  1   
 27  12  14  1   
 28  12  36  1   
 29  12  37  1   
 30  13  38  1   
 31  14  15  ar  
 32  14  16  ar  
 33  15  17  ar  
 34  15  39  1   
 35  16  18  ar  
 36  16  40  1   
 37  17  19  1   
 38  17  20  ar  
 39  18  20  ar  
 40  18  41  1   
 41  19  21  1   
 42  20  22  1   
 43  21  42  1   
 44  21  43  1   
 45  21  44  1   
 46  22  23  1   
 47  23  45  1   
 48  23  46  1   
 49  23  47  1   
@<TRIPOS>SUBSTRUCTURE
  1 ****   9 GROUP 4 **** **** 0

# MOE 2024.06 (io_trps.svl 2023.06)
