@<TRIPOS>MOLECULE
NONAME
40 41 1 0 0 
SMALL
USER_CHARGES


@<TRIPOS>ATOM
  1 CL      -2.4580     0.1020     3.6000 Cl    1 <1>  -0.1770 
  2 C       -3.5330     0.7670     2.3950 C.ar  1 <1>   0.1770 
  3 C       -3.0160     1.2090     1.1930 C.ar  1 <1>  -0.1500 
  4 C       -4.8870     0.8420     2.6590 C.ar  1 <1>  -0.1500 
  5 C       -3.8710     1.7350     0.2400 C.ar  1 <1>  -0.1500 
  6 C       -5.7360     1.3710     1.7010 C.ar  1 <1>  -0.1500 
  7 C       -5.2410     1.8210     0.4780 C.ar  1 <1>   0.1170 
  8 N       -6.0600     2.3750    -0.5180 N.am  1 <1>  -0.5470 
  9 C       -7.3760     2.1700    -0.7950 C.2   1 <1>   0.6900 
 10 O       -8.0570     1.3730    -0.1820 O.2   1 <1>  -0.5700 
 11 N       -7.9500     2.9020    -1.7830 N.am  1 <1>  -0.7300 
 12 C       -9.2580     2.5980    -2.4410 C.3   1 <1>   0.1400 
 13 C      -10.4660     3.1270    -1.6380 C.3   1 <1>   0.3430 
 14 N      -10.5840     2.4540    -0.3120 N.4   1 <1>  -0.9590 
 15 C      -11.3320     1.1680    -0.3810 C.3   1 <1>   0.3430 
 16 C      -11.0950     3.3630     0.7490 C.3   1 <1>   0.3430 
 17 C      -11.2360     0.4440     0.9640 C.3   1 <1>  -0.1600 
 18 C      -10.9850     2.6720     2.1100 C.3   1 <1>  -0.1600 
 19 C      -11.7180     1.3250     2.1240 C.3   1 <1>  -0.1600 
 20 H       -1.9580     1.1400     1.0110 H     1 <1>   0.1500 
 21 H       -5.2670     0.4920     3.6020 H     1 <1>   0.1500 
 22 H       -3.4670     2.0760    -0.6950 H     1 <1>   0.1500 
 23 H       -6.7860     1.4330     1.9160 H     1 <1>   0.1500 
 24 H       -5.5620     2.9320    -1.2060 H     1 <1>   0.3700 
 25 H       -7.3580     3.5700    -2.2800 H     1 <1>   0.3700 
 26 H       -9.3510     1.5330    -2.5770 H     1 <1>   0.0800 
 27 H       -9.2640     3.0500    -3.4180 H     1 <1>   0.0800 
 28 H      -11.3720     2.9780    -2.2020 H     1 <1>   0.0800 
 29 H      -10.3350     4.1880    -1.4990 H     1 <1>   0.0800 
 30 H       -9.6150     2.1820    -0.0420 H     1 <1>   0.4500 
 31 H      -10.9130     0.5390    -1.1490 H     1 <1>   0.0800 
 32 H      -12.3670     1.3570    -0.6160 H     1 <1>   0.0800 
 33 H      -12.1250     3.6120     0.5530 H     1 <1>   0.0800 
 34 H      -10.5180     4.2730     0.7640 H     1 <1>   0.0800 
 35 H      -10.2140     0.1470     1.1310 H     1 <1>   0.0800 
 36 H      -11.8280    -0.4530     0.9250 H     1 <1>   0.0800 
 37 H      -11.4010     3.3140     2.8670 H     1 <1>   0.0800 
 38 H       -9.9450     2.5250     2.3480 H     1 <1>   0.0800 
 39 H      -11.5410     0.8230     3.0610 H     1 <1>   0.0800 
 40 H      -12.7790     1.4900     2.0360 H     1 <1>   0.0800 
@<TRIPOS>BOND
  1   1   2  1   
  2   2   3  ar  
  3   2   4  ar  
  4   3   5  ar  
  5   3  20  1   
  6   4   6  ar  
  7   4  21  1   
  8   5   7  ar  
  9   5  22  1   
 10   6   7  ar  
 11   6  23  1   
 12   7   8  1   
 13   8   9  am  
 14   8  24  1   
 15   9  10  2   
 16   9  11  am  
 17  11  12  1   
 18  11  25  1   
 19  12  13  1   
 20  12  26  1   
 21  12  27  1   
 22  13  14  1   
 23  13  28  1   
 24  13  29  1   
 25  14  15  1   
 26  14  16  1   
 27  14  30  1   
 28  15  17  1   
 29  15  31  1   
 30  15  32  1   
 31  16  18  1   
 32  16  33  1   
 33  16  34  1   
 34  17  19  1   
 35  17  35  1   
 36  17  36  1   
 37  18  19  1   
 38  18  37  1   
 39  18  38  1   
 40  19  39  1   
 41  19  40  1   
@<TRIPOS>SUBSTRUCTURE
  1 ****  10 GROUP 4 **** **** 0

# MOE 2024.06 (io_trps.svl 2023.06)
