@<TRIPOS>MOLECULE
NONAME
37 38 1 0 0 
SMALL
USER_CHARGES


@<TRIPOS>ATOM
  1 F        1.2140    -1.3600    -2.3860 F     1 <1>  -0.1900 
  2 C        0.7330    -2.0680    -1.3920 C.ar  1 <1>   0.1900 
  3 C        1.5630    -2.3610    -0.3100 C.ar  1 <1>   0.1170 
  4 C       -0.5810    -2.4850    -1.4750 C.ar  1 <1>  -0.1500 
  5 N        2.8930    -1.8960    -0.3030 N.am  1 <1>  -0.5470 
  6 C        1.0010    -3.1110     0.7210 C.ar  1 <1>  -0.1500 
  7 C       -1.1100    -3.2310    -0.4360 C.ar  1 <1>  -0.1500 
  8 C        3.9590    -2.1100     0.5140 C.2   1 <1>   0.6900 
  9 C       -0.3160    -3.5400     0.6580 C.ar  1 <1>  -0.1500 
 10 O        3.9100    -2.8360     1.4890 O.2   1 <1>  -0.5700 
 11 N        5.1050    -1.4430     0.2060 N.am  1 <1>  -0.6600 
 12 C        6.4080    -2.1710     0.0850 C.3   1 <1>   0.2200 
 13 C        5.2080    -0.0670     0.7550 C.3   1 <1>   0.1400 
 14 C        7.4000    -1.3080    -0.7230 C.3   1 <1>  -0.1600 
 15 C        6.2150    -3.5540    -0.5810 C.3   1 <1>  -0.1600 
 16 C        6.1530     0.7800    -0.0970 C.3   1 <1>  -0.1600 
 17 C        7.5320     0.1220    -0.1850 C.3   1 <1>  -0.1600 
 18 C        7.5100    -4.3630    -0.7520 C.3   1 <1>  -0.2400 
 19 H       -1.1760    -2.2310    -2.3340 H     1 <1>   0.1500 
 20 H        3.1500    -1.3300    -1.1090 H     1 <1>   0.3700 
 21 H        1.5870    -3.3670     1.5840 H     1 <1>   0.1500 
 22 H       -2.1310    -3.5690    -0.4750 H     1 <1>   0.1500 
 23 H       -0.7240    -4.1200     1.4690 H     1 <1>   0.1500 
 24 H        6.8000    -2.3180     1.0780 H     1 <1>   0.0800 
 25 H        5.5770    -0.1240     1.7650 H     1 <1>   0.0800 
 26 H        4.2330     0.3900     0.7800 H     1 <1>   0.0800 
 27 H        7.0760    -1.2730    -1.7480 H     1 <1>   0.0800 
 28 H        8.3740    -1.7620    -0.7030 H     1 <1>   0.0800 
 29 H        5.7520    -3.4250    -1.5440 H     1 <1>   0.0800 
 30 H        5.5560    -4.1480     0.0270 H     1 <1>   0.0800 
 31 H        6.2460     1.7580     0.3400 H     1 <1>   0.0800 
 32 H        5.7350     0.8950    -1.0810 H     1 <1>   0.0800 
 33 H        8.1720     0.6980    -0.8310 H     1 <1>   0.0800 
 34 H        7.9810     0.0960     0.7940 H     1 <1>   0.0800 
 35 H        8.1600    -3.9100    -1.4790 H     1 <1>   0.0800 
 36 H        7.2730    -5.3560    -1.0920 H     1 <1>   0.0800 
 37 H        8.0300    -4.4420     0.1870 H     1 <1>   0.0800 
@<TRIPOS>BOND
  1   1   2  1   
  2   2   3  ar  
  3   2   4  ar  
  4   3   5  1   
  5   3   6  ar  
  6   4   7  ar  
  7   4  19  1   
  8   5   8  am  
  9   5  20  1   
 10   6   9  ar  
 11   6  21  1   
 12   7   9  ar  
 13   7  22  1   
 14   8  10  2   
 15   8  11  am  
 16   9  23  1   
 17  11  12  1   
 18  11  13  1   
 19  12  14  1   
 20  12  15  1   
 21  12  24  1   
 22  13  16  1   
 23  13  25  1   
 24  13  26  1   
 25  14  17  1   
 26  14  27  1   
 27  14  28  1   
 28  15  18  1   
 29  15  29  1   
 30  15  30  1   
 31  16  17  1   
 32  16  31  1   
 33  16  32  1   
 34  17  33  1   
 35  17  34  1   
 36  18  35  1   
 37  18  36  1   
 38  18  37  1   
@<TRIPOS>SUBSTRUCTURE
  1 ****   5 GROUP 4 **** **** 0

# MOE 2024.06 (io_trps.svl 2023.06)
