@<TRIPOS>MOLECULE
NONAME
57 60 1 0 0 
SMALL
USER_CHARGES


@<TRIPOS>ATOM
  1 O        1.3670    -0.8460    -2.1180 O.2   1 <1>  -0.5700 
  2 C        1.5540    -1.4080    -1.0560 C.2   1 <1>   0.7160 
  3 N        2.5520    -0.9530    -0.2210 N.am  1 <1>  -0.6600 
  4 C        0.7350    -2.5320    -0.6890 C.2   1 <1>  -0.0860 
  5 C        3.4880     0.1410    -0.6220 C.3   1 <1>   0.1400 
  6 C        2.8010    -1.4650     1.1600 C.3   1 <1>   0.1400 
  7 C       -0.6290    -2.4970    -0.3570 C.2   1 <1>   0.2350 
  8 C        1.0650    -3.8460    -0.5920 C.2   1 <1>  -0.3020 
  9 C        4.9420    -0.2490    -0.3090 C.3   1 <1>   0.1200 
 10 C        4.2940    -1.7700     1.3600 C.3   1 <1>   0.1200 
 11 N       -1.0740    -3.6940    -0.0820 N.2   1 <1>  -0.7070 
 12 C       -1.4700    -1.3170    -0.3110 C.ar  1 <1>   0.0540 
 13 N       -0.0300    -4.5390    -0.2270 N.pl3 1 <1>   0.5930 
 14 O        5.0710    -0.6560     1.0250 O.3   1 <1>  -0.5600 
 15 C       -2.7720    -1.3650    -0.8050 C.ar  1 <1>  -0.1500 
 16 C       -1.0340    -0.1040     0.2260 C.ar  1 <1>  -0.1500 
 17 C       -0.1230    -5.9470    -0.0120 C.ar  1 <1>  -0.0230 
 18 C       -3.5970    -0.2570    -0.7780 C.ar  1 <1>  -0.1500 
 19 C       -1.8520     1.0110     0.2560 C.ar  1 <1>  -0.1500 
 20 C        0.9760    -6.6880     0.4220 C.ar  1 <1>  -0.1500 
 21 C       -1.3240    -6.6180    -0.2320 C.ar  1 <1>  -0.1500 
 22 C       -3.1460     0.9410    -0.2510 C.ar  1 <1>   0.0820 
 23 C        0.8780    -8.0540     0.6200 C.ar  1 <1>  -0.1500 
 24 C       -1.4240    -7.9840    -0.0330 C.ar  1 <1>  -0.1500 
 25 O       -4.0130     1.9820    -0.2640 O.3   1 <1>  -0.3620 
 26 C       -0.3220    -8.7040     0.3920 C.ar  1 <1>  -0.1500 
 27 C       -3.6410     3.2550     0.2200 C.3   1 <1>   0.1200 
 28 C       -4.8230     4.2250     0.0700 C.3   1 <1>  -0.0800 
 29 C       -4.4100     5.6360     0.5090 C.3   1 <1>  -0.2400 
 30 C       -6.0430     3.7670     0.8830 C.3   1 <1>  -0.2400 
 31 H        3.2370     1.0370    -0.0830 H     1 <1>   0.0800 
 32 H        3.4000     0.3520    -1.6740 H     1 <1>   0.0800 
 33 H        2.2290    -2.3540     1.3570 H     1 <1>   0.0800 
 34 H        2.5000    -0.7160     1.8720 H     1 <1>   0.0800 
 35 H        2.0120    -4.3130    -0.7800 H     1 <1>   0.1500 
 36 H        5.5930     0.5940    -0.4600 H     1 <1>   0.0800 
 37 H        5.2640    -1.0520    -0.9480 H     1 <1>   0.0800 
 38 H        4.6000    -2.6000     0.7470 H     1 <1>   0.0800 
 39 H        4.4910    -2.0080     2.3900 H     1 <1>   0.0800 
 40 H       -3.1360    -2.2910    -1.2140 H     1 <1>   0.1500 
 41 H       -0.0430    -0.0300     0.6320 H     1 <1>   0.1500 
 42 H       -4.5980    -0.3130    -1.1660 H     1 <1>   0.1500 
 43 H       -1.4670     1.9210     0.6750 H     1 <1>   0.1500 
 44 H        1.9160    -6.2030     0.6120 H     1 <1>   0.1500 
 45 H       -2.1890    -6.0650    -0.5600 H     1 <1>   0.1500 
 46 H        1.7340    -8.6140     0.9540 H     1 <1>   0.1500 
 47 H       -2.3600    -8.4850    -0.2090 H     1 <1>   0.1500 
 48 H       -0.3990    -9.7660     0.5470 H     1 <1>   0.1500 
 49 H       -2.7990     3.5970    -0.3570 H     1 <1>   0.0800 
 50 H       -3.3640     3.1560     1.2550 H     1 <1>   0.0800 
 51 H       -5.0930     4.2640    -0.9730 H     1 <1>   0.0800 
 52 H       -4.1300     5.6440     1.5480 H     1 <1>   0.0800 
 53 H       -5.2250     6.3230     0.3680 H     1 <1>   0.0800 
 54 H       -3.5750     5.9800    -0.0760 H     1 <1>   0.0800 
 55 H       -5.8000     3.7030     1.9290 H     1 <1>   0.0800 
 56 H       -6.3700     2.7970     0.5500 H     1 <1>   0.0800 
 57 H       -6.8580     4.4570     0.7580 H     1 <1>   0.0800 
@<TRIPOS>BOND
  1   1   2  2   
  2   2   3  am  
  3   2   4  1   
  4   3   5  1   
  5   3   6  1   
  6   4   7  1   
  7   4   8  2   
  8   5   9  1   
  9   5  31  1   
 10   5  32  1   
 11   6  10  1   
 12   6  33  1   
 13   6  34  1   
 14   7  11  2   
 15   7  12  1   
 16   8  13  1   
 17   8  35  1   
 18   9  14  1   
 19   9  36  1   
 20   9  37  1   
 21  10  14  1   
 22  10  38  1   
 23  10  39  1   
 24  11  13  1   
 25  12  15  ar  
 26  12  16  ar  
 27  13  17  1   
 28  15  18  ar  
 29  15  40  1   
 30  16  19  ar  
 31  16  41  1   
 32  17  20  ar  
 33  17  21  ar  
 34  18  22  ar  
 35  18  42  1   
 36  19  22  ar  
 37  19  43  1   
 38  20  23  ar  
 39  20  44  1   
 40  21  24  ar  
 41  21  45  1   
 42  22  25  1   
 43  23  26  ar  
 44  23  46  1   
 45  24  26  ar  
 46  24  47  1   
 47  25  27  1   
 48  26  48  1   
 49  27  28  1   
 50  27  49  1   
 51  27  50  1   
 52  28  29  1   
 53  28  30  1   
 54  28  51  1   
 55  29  52  1   
 56  29  53  1   
 57  29  54  1   
 58  30  55  1   
 59  30  56  1   
 60  30  57  1   
@<TRIPOS>SUBSTRUCTURE
  1 ****   7 GROUP 4 **** **** 0

# MOE 2024.06 (io_trps.svl 2023.06)
