@<TRIPOS>MOLECULE
NONAME
51 54 1 0 0 
SMALL
USER_CHARGES


@<TRIPOS>ATOM
  1 CL      -0.4320    -1.9120     0.8220 Cl    1 <1>  -0.1770 
  2 C        0.5480    -0.4720     1.0120 C.ar  1 <1>   0.1770 
  3 C        0.0930     0.5770     1.8110 C.ar  1 <1>   0.0820 
  4 C        1.7550    -0.4130     0.3520 C.ar  1 <1>  -0.1500 
  5 O       -1.1100     0.4340     2.4230 O.3   1 <1>  -0.3630 
  6 C        0.8900     1.7080     1.9360 C.ar  1 <1>  -0.1500 
  7 C        2.5600     0.7180     0.4720 C.ar  1 <1>   0.0280 
  8 C       -1.8040     1.5170     3.0310 C.3   1 <1>   0.1810 
  9 C        2.1090     1.7780     1.2770 C.ar  1 <1>   0.0830 
 10 C        3.8250     0.8800    -0.1700 C.2   1 <1>  -0.1670 
 11 C       -2.2340     2.5950     2.0320 C.2   1 <1>   0.5690 
 12 O        2.8610     2.9000     1.4270 O.3   1 <1>  -0.2330 
 13 C        4.5260     2.0050     0.0080 C.2   1 <1>  -0.1240 
 14 C        4.5250    -0.0950    -1.0850 C.3   1 <1>  -0.0220 
 15 O       -1.7080     3.6730     2.1860 O.2   1 <1>  -0.5700 
 16 N       -3.1710     2.3420     1.0440 N.am  1 <1>  -0.6600 
 17 C        4.0500     3.0710     0.8340 C.2   1 <1>   0.7060 
 18 C        5.8290     1.9960    -0.7530 C.3   1 <1>  -0.0220 
 19 C        5.8870     0.5770    -1.3520 C.3   1 <1>  -0.1600 
 20 C       -3.6480     3.3130     0.0020 C.3   1 <1>   0.2200 
 21 C       -3.6000     0.9560     0.6910 C.3   1 <1>   0.1400 
 22 O        4.6580     4.1040     1.0270 O.2   1 <1>  -0.5700 
 23 C       -2.9130     2.9850    -1.3080 C.3   1 <1>  -0.1600 
 24 C       -3.5580     4.8020     0.3900 C.3   1 <1>  -0.1600 
 25 C       -2.9020     0.5440    -0.6100 C.3   1 <1>  -0.1600 
 26 C       -3.1830     1.5360    -1.7490 C.3   1 <1>  -0.1600 
 27 C       -4.4170     5.7130    -0.5000 C.3   1 <1>  -0.2400 
 28 H        2.0680    -1.2410    -0.2550 H     1 <1>   0.1500 
 29 H        0.5950     2.5480     2.5370 H     1 <1>   0.1500 
 30 H       -1.1730     1.9420     3.7890 H     1 <1>   0.0800 
 31 H       -2.6770     1.1140     3.5090 H     1 <1>   0.0800 
 32 H        3.9680    -0.2120    -1.9980 H     1 <1>   0.0800 
 33 H        4.6530    -1.0520    -0.6080 H     1 <1>   0.0800 
 34 H        6.6600     2.1810    -0.0950 H     1 <1>   0.0800 
 35 H        5.8060     2.7450    -1.5260 H     1 <1>   0.0800 
 36 H        6.1000     0.6120    -2.4070 H     1 <1>   0.0800 
 37 H        6.6640     0.0160    -0.8620 H     1 <1>   0.0800 
 38 H       -4.6950     3.1130    -0.1520 H     1 <1>   0.0800 
 39 H       -4.6680     0.9400     0.5520 H     1 <1>   0.0800 
 40 H       -3.3690     0.2510     1.4680 H     1 <1>   0.0800 
 41 H       -1.8570     3.1350    -1.1600 H     1 <1>   0.0800 
 42 H       -3.2320     3.6490    -2.0890 H     1 <1>   0.0800 
 43 H       -2.5350     5.1310     0.3350 H     1 <1>   0.0800 
 44 H       -3.8970     4.9150     1.4040 H     1 <1>   0.0800 
 45 H       -3.2280    -0.4400    -0.8960 H     1 <1>   0.0800 
 46 H       -1.8420     0.4960    -0.4340 H     1 <1>   0.0800 
 47 H       -2.5720     1.2950    -2.6010 H     1 <1>   0.0800 
 48 H       -4.2140     1.4470    -2.0460 H     1 <1>   0.0800 
 49 H       -4.0680     5.7040    -1.5170 H     1 <1>   0.0800 
 50 H       -4.3630     6.7250    -0.1380 H     1 <1>   0.0800 
 51 H       -5.4460     5.4000    -0.4800 H     1 <1>   0.0800 
@<TRIPOS>BOND
  1   1   2  1   
  2   2   3  ar  
  3   2   4  ar  
  4   3   5  1   
  5   3   6  ar  
  6   4   7  ar  
  7   4  28  1   
  8   5   8  1   
  9   6   9  ar  
 10   6  29  1   
 11   7   9  ar  
 12   7  10  1   
 13   8  11  1   
 14   8  30  1   
 15   8  31  1   
 16   9  12  1   
 17  10  13  2   
 18  10  14  1   
 19  11  15  2   
 20  11  16  am  
 21  12  17  1   
 22  13  17  1   
 23  13  18  1   
 24  14  19  1   
 25  14  32  1   
 26  14  33  1   
 27  16  20  1   
 28  16  21  1   
 29  17  22  2   
 30  18  19  1   
 31  18  34  1   
 32  18  35  1   
 33  19  36  1   
 34  19  37  1   
 35  20  23  1   
 36  20  24  1   
 37  20  38  1   
 38  21  25  1   
 39  21  39  1   
 40  21  40  1   
 41  23  26  1   
 42  23  41  1   
 43  23  42  1   
 44  24  27  1   
 45  24  43  1   
 46  24  44  1   
 47  25  26  1   
 48  25  45  1   
 49  25  46  1   
 50  26  47  1   
 51  26  48  1   
 52  27  49  1   
 53  27  50  1   
 54  27  51  1   
@<TRIPOS>SUBSTRUCTURE
  1 ****   6 GROUP 4 **** **** 0

# MOE 2024.06 (io_trps.svl 2023.06)
