@<TRIPOS>MOLECULE
NONAME
42 43 1 0 0 
SMALL
USER_CHARGES


@<TRIPOS>ATOM
  1 S       -1.5650     1.7320    -0.8500 S.3   1 <1>  -0.2860 
  2 C       -0.7720     0.8750     0.5180 C.2   1 <1>   0.2420 
  3 C       -3.3270     1.9540    -0.3020 C.3   1 <1>   0.1310 
  4 N       -1.3790     0.6180     1.6310 N.2   1 <1>  -0.5650 
  5 N        0.5090     0.4520     0.4390 N.pl3 1 <1>   0.0480 
  6 C       -4.1050     0.6620    -0.4840 C.2   1 <1>   0.5690 
  7 C       -0.4260    -0.0150     2.3440 C.2   1 <1>   0.0770 
  8 C        0.7230    -0.1290     1.6390 C.2   1 <1>  -0.3020 
  9 C        1.4560     0.5680    -0.6890 C.3   1 <1>   0.2390 
 10 O       -4.9980     0.6240    -1.2980 O.2   1 <1>  -0.5700 
 11 N       -3.7790    -0.4090     0.2820 N.am  1 <1>  -0.7300 
 12 C        2.4800     1.6580    -0.4140 C.ar  1 <1>  -0.1430 
 13 C       -4.3470    -1.7630     0.1820 C.3   1 <1>   0.1400 
 14 C        3.7720     1.3310    -0.0310 C.ar  1 <1>  -0.1500 
 15 C        2.1260     2.9930    -0.5450 C.ar  1 <1>  -0.1500 
 16 C       -3.2010    -2.7590     0.0070 C.3   1 <1>  -0.1600 
 17 C        4.7000     2.3280     0.2170 C.ar  1 <1>  -0.1500 
 18 C        3.0540     3.9900    -0.2970 C.ar  1 <1>  -0.1500 
 19 C       -3.7220    -4.1980    -0.0920 C.3   1 <1>  -0.1600 
 20 C        4.3410     3.6580     0.0840 C.ar  1 <1>  -0.1500 
 21 C       -2.5700    -5.1900    -0.2680 C.3   1 <1>  -0.2400 
 22 H       -3.3140     2.2560     0.7280 H     1 <1>   0.0800 
 23 H       -3.7500     2.7320    -0.9090 H     1 <1>   0.0800 
 24 H       -0.6160    -0.3610     3.3470 H     1 <1>   0.1500 
 25 H        1.6610    -0.5730     1.9200 H     1 <1>   0.1500 
 26 H        0.9170     0.7930    -1.5910 H     1 <1>   0.0800 
 27 H        1.9460    -0.3780    -0.8220 H     1 <1>   0.0800 
 28 H       -2.9830    -0.3010     0.9310 H     1 <1>   0.3700 
 29 H       -5.0200    -1.8180    -0.6580 H     1 <1>   0.0800 
 30 H       -4.8990    -1.9820     1.0800 H     1 <1>   0.0800 
 31 H        4.0670     0.3020     0.0790 H     1 <1>   0.1500 
 32 H        1.1260     3.2650    -0.8370 H     1 <1>   0.1500 
 33 H       -2.5300    -2.6790     0.8450 H     1 <1>   0.0800 
 34 H       -2.6610    -2.5130    -0.8920 H     1 <1>   0.0800 
 35 H        5.7020     2.0700     0.5140 H     1 <1>   0.1500 
 36 H        2.7720     5.0230    -0.3990 H     1 <1>   0.1500 
 37 H       -4.3930    -4.2820    -0.9310 H     1 <1>   0.0800 
 38 H       -4.2710    -4.4470     0.8010 H     1 <1>   0.0800 
 39 H        5.0630     4.4330     0.2770 H     1 <1>   0.1500 
 40 H       -2.0210    -4.9730    -1.1680 H     1 <1>   0.0800 
 41 H       -2.9540    -6.1920    -0.3350 H     1 <1>   0.0800 
 42 H       -1.8970    -5.1380     0.5700 H     1 <1>   0.0800 
@<TRIPOS>BOND
  1   1   2  1   
  2   1   3  1   
  3   2   4  2   
  4   2   5  1   
  5   3   6  1   
  6   3  22  1   
  7   3  23  1   
  8   4   7  1   
  9   5   8  1   
 10   5   9  1   
 11   6  10  2   
 12   6  11  am  
 13   7   8  2   
 14   7  24  1   
 15   8  25  1   
 16   9  12  1   
 17   9  26  1   
 18   9  27  1   
 19  11  13  1   
 20  11  28  1   
 21  12  14  ar  
 22  12  15  ar  
 23  13  16  1   
 24  13  29  1   
 25  13  30  1   
 26  14  17  ar  
 27  14  31  1   
 28  15  18  ar  
 29  15  32  1   
 30  16  19  1   
 31  16  33  1   
 32  16  34  1   
 33  17  20  ar  
 34  17  35  1   
 35  18  20  ar  
 36  18  36  1   
 37  19  21  1   
 38  19  37  1   
 39  19  38  1   
 40  20  39  1   
 41  21  40  1   
 42  21  41  1   
 43  21  42  1   
@<TRIPOS>SUBSTRUCTURE
  1 ****   2 GROUP 4 **** **** 0

# MOE 2024.06 (io_trps.svl 2023.06)
