@<TRIPOS>MOLECULE
NONAME
41 43 1 0 0 
SMALL
USER_CHARGES


@<TRIPOS>ATOM
  1 O        0.1540    -0.7970    -1.3990 O.2   1 <1>  -0.5700 
  2 C        0.1290    -1.5160    -0.4210 C.2   1 <1>   0.5440 
  3 N       -1.0590    -1.7080     0.2270 N.am  1 <1>  -0.7300 
  4 C        1.3500    -2.1430     0.0610 C.ar  1 <1>   0.0860 
  5 C       -2.3600    -1.1390    -0.1700 C.3   1 <1>   0.2200 
  6 C        2.5960    -1.5860    -0.2280 C.ar  1 <1>  -0.1500 
  7 C        1.3350    -3.3150     0.8190 C.ar  1 <1>  -0.1500 
  8 C       -2.8030    -0.1640     0.9300 C.3   1 <1>  -0.1600 
  9 C       -3.3190    -2.3080    -0.4210 C.3   1 <1>  -0.1600 
 10 C        3.7830    -2.1490     0.2230 C.ar  1 <1>  -0.0230 
 11 C        2.5060    -3.8900     1.2780 C.ar  1 <1>  -0.1500 
 12 C       -3.9720     0.7280     0.4840 C.3   1 <1>  -0.1600 
 13 C       -4.7620    -1.9050    -0.7660 C.3   1 <1>  -0.1600 
 14 N        5.0330    -1.5500    -0.0880 N.pl3 1 <1>   0.3260 
 15 C        3.7250    -3.3100     0.9850 C.ar  1 <1>  -0.1500 
 16 C       -5.3690     0.1310     0.7150 C.3   1 <1>  -0.1600 
 17 C       -5.5300    -1.3740     0.4530 C.3   1 <1>  -0.1600 
 18 C        6.1760    -2.1280    -0.4810 C.2   1 <1>   0.0360 
 19 C        5.3890    -0.2590    -0.0480 C.2   1 <1>   0.0370 
 20 N        7.1270    -1.2770    -0.6570 N.2   1 <1>  -0.3380 
 21 N        6.6200    -0.0750    -0.3790 N.2   1 <1>  -0.3380 
 22 H       -1.0740    -2.2190     1.1070 H     1 <1>   0.3700 
 23 H       -2.2400    -0.5900    -1.0900 H     1 <1>   0.0800 
 24 H        2.6240    -0.6900    -0.8260 H     1 <1>   0.1500 
 25 H        0.3980    -3.7910     1.0470 H     1 <1>   0.1500 
 26 H       -1.9710     0.4840     1.1420 H     1 <1>   0.0800 
 27 H       -3.0540    -0.6910     1.8330 H     1 <1>   0.0800 
 28 H       -3.3320    -2.9560     0.4380 H     1 <1>   0.0800 
 29 H       -2.9280    -2.8730    -1.2490 H     1 <1>   0.0800 
 30 H        2.4680    -4.7940     1.8650 H     1 <1>   0.1500 
 31 H       -3.8560     0.9730    -0.5580 H     1 <1>   0.0800 
 32 H       -3.9200     1.6580     1.0250 H     1 <1>   0.0800 
 33 H       -5.2690    -2.7870    -1.1160 H     1 <1>   0.0800 
 34 H       -4.7780    -1.1890    -1.5700 H     1 <1>   0.0800 
 35 H        4.6290    -3.7650     1.3550 H     1 <1>   0.1500 
 36 H       -6.0620     0.6660     0.0890 H     1 <1>   0.0800 
 37 H       -5.6610     0.3210     1.7340 H     1 <1>   0.0800 
 38 H       -5.2350    -1.9240     1.3310 H     1 <1>   0.0800 
 39 H       -6.5790    -1.5690     0.3090 H     1 <1>   0.0800 
 40 H        6.2650    -3.1880    -0.6290 H     1 <1>   0.1500 
 41 H        4.7050     0.5190     0.2350 H     1 <1>   0.1500 
@<TRIPOS>BOND
  1   1   2  2   
  2   2   3  am  
  3   2   4  1   
  4   3   5  1   
  5   3  22  1   
  6   4   6  ar  
  7   4   7  ar  
  8   5   8  1   
  9   5   9  1   
 10   5  23  1   
 11   6  10  ar  
 12   6  24  1   
 13   7  11  ar  
 14   7  25  1   
 15   8  12  1   
 16   8  26  1   
 17   8  27  1   
 18   9  13  1   
 19   9  28  1   
 20   9  29  1   
 21  10  14  1   
 22  10  15  ar  
 23  11  15  ar  
 24  11  30  1   
 25  12  16  1   
 26  12  31  1   
 27  12  32  1   
 28  13  17  1   
 29  13  33  1   
 30  13  34  1   
 31  14  18  1   
 32  14  19  1   
 33  15  35  1   
 34  16  17  1   
 35  16  36  1   
 36  16  37  1   
 37  17  38  1   
 38  17  39  1   
 39  18  20  2   
 40  18  40  1   
 41  19  21  2   
 42  19  41  1   
 43  20  21  1   
@<TRIPOS>SUBSTRUCTURE
  1 ****   2 GROUP 4 **** **** 0

# MOE 2024.06 (io_trps.svl 2023.06)
