@<TRIPOS>MOLECULE
NONAME
46 47 1 0 0 
SMALL
USER_CHARGES


@<TRIPOS>ATOM
  1 S       -0.7520     0.0050    -0.1360 S.3   1 <1>  -0.3320 
  2 C       -0.9140     1.5500     0.7940 C.ar  1 <1>   0.1020 
  3 C        1.0390    -0.4560    -0.1740 C.3   1 <1>   0.0700 
  4 C       -2.1870     2.0380     1.1360 C.ar  1 <1>   0.0860 
  5 C        0.2410     2.2250     1.1630 C.ar  1 <1>  -0.1500 
  6 C        1.1570    -1.8260    -0.8440 C.3   1 <1>  -0.1600 
  7 C       -3.4490     1.4110     0.7730 C.2   1 <1>   0.5440 
  8 C       -2.2240     3.2180     1.8850 C.ar  1 <1>  -0.1500 
  9 C        0.1610     3.3950     1.8940 C.ar  1 <1>  -0.1500 
 10 C        2.6170    -2.2830    -0.9150 C.3   1 <1>  -0.2400 
 11 O       -4.4190     1.4940     1.5050 O.2   1 <1>  -0.5700 
 12 N       -3.6360     0.7700    -0.4210 N.am  1 <1>  -0.7300 
 13 C       -1.0760     3.8900     2.2580 C.ar  1 <1>  -0.1500 
 14 C       -4.6900    -0.2460    -0.7190 C.3   1 <1>   0.1400 
 15 C       -5.9960     0.3960    -1.2270 C.3   1 <1>   0.3430 
 16 N       -6.5520     1.3330    -0.2120 N.4   1 <1>  -0.9590 
 17 C       -7.3640     0.6520     0.8490 C.3   1 <1>   0.3430 
 18 C       -7.2810     2.5020    -0.8010 C.3   1 <1>   0.3430 
 19 C       -7.9090     1.6710     1.8670 C.3   1 <1>   0.1200 
 20 C       -7.8380     3.4230     0.3010 C.3   1 <1>   0.1200 
 21 O       -8.6090     2.6880     1.2080 O.3   1 <1>  -0.5600 
 22 H        1.3880    -0.4840     0.8430 H     1 <1>   0.0800 
 23 H        1.5580     0.3010    -0.7360 H     1 <1>   0.0800 
 24 H        1.2150     1.8660     0.8950 H     1 <1>   0.1500 
 25 H        0.7520    -1.7730    -1.8400 H     1 <1>   0.0800 
 26 H        0.5850    -2.5460    -0.2840 H     1 <1>   0.0800 
 27 H       -3.1770     3.6210     2.1840 H     1 <1>   0.1500 
 28 H        1.0570     3.9190     2.1810 H     1 <1>   0.1500 
 29 H        3.2040    -1.5870    -1.4870 H     1 <1>   0.0800 
 30 H        2.6770    -3.2480    -1.3880 H     1 <1>   0.0800 
 31 H        3.0360    -2.3630     0.0730 H     1 <1>   0.0800 
 32 H       -2.7690     0.6280    -0.9580 H     1 <1>   0.3700 
 33 H       -1.1420     4.7980     2.8340 H     1 <1>   0.1500 
 34 H       -4.8880    -0.8270     0.1670 H     1 <1>   0.0800 
 35 H       -4.3150    -0.9200    -1.4700 H     1 <1>   0.0800 
 36 H       -6.7180    -0.3690    -1.4580 H     1 <1>   0.0800 
 37 H       -5.7730     0.9320    -2.1350 H     1 <1>   0.0800 
 38 H       -5.7180     1.6970     0.2990 H     1 <1>   0.4500 
 39 H       -6.7550    -0.0690     1.3690 H     1 <1>   0.0800 
 40 H       -8.1960     0.1340     0.4020 H     1 <1>   0.0800 
 41 H       -8.1040     2.1530    -1.4020 H     1 <1>   0.0800 
 42 H       -6.6190     3.0670    -1.4360 H     1 <1>   0.0800 
 43 H       -7.1080     2.1090     2.4370 H     1 <1>   0.0800 
 44 H       -8.5900     1.1900     2.5470 H     1 <1>   0.0800 
 45 H       -8.4710     4.1790    -0.1300 H     1 <1>   0.0800 
 46 H       -7.0410     3.9090     0.8380 H     1 <1>   0.0800 
@<TRIPOS>BOND
  1   1   2  1   
  2   1   3  1   
  3   2   4  ar  
  4   2   5  ar  
  5   3   6  1   
  6   3  22  1   
  7   3  23  1   
  8   4   7  1   
  9   4   8  ar  
 10   5   9  ar  
 11   5  24  1   
 12   6  10  1   
 13   6  25  1   
 14   6  26  1   
 15   7  11  2   
 16   7  12  am  
 17   8  13  ar  
 18   8  27  1   
 19   9  13  ar  
 20   9  28  1   
 21  10  29  1   
 22  10  30  1   
 23  10  31  1   
 24  12  14  1   
 25  12  32  1   
 26  13  33  1   
 27  14  15  1   
 28  14  34  1   
 29  14  35  1   
 30  15  16  1   
 31  15  36  1   
 32  15  37  1   
 33  16  17  1   
 34  16  18  1   
 35  16  38  1   
 36  17  19  1   
 37  17  39  1   
 38  17  40  1   
 39  18  20  1   
 40  18  41  1   
 41  18  42  1   
 42  19  21  1   
 43  19  43  1   
 44  19  44  1   
 45  20  21  1   
 46  20  45  1   
 47  20  46  1   
@<TRIPOS>SUBSTRUCTURE
  1 ****   7 GROUP 4 **** **** 0

# MOE 2024.06 (io_trps.svl 2023.06)
