@<TRIPOS>MOLECULE
NONAME
47 48 1 0 0 
SMALL
USER_CHARGES


@<TRIPOS>ATOM
  1 O      -13.6200     0.3750    -0.4300 O.3   1 <1>  -0.3630 
  2 C      -14.8300    -0.2160    -0.2690 C.ar  1 <1>   0.0830 
  3 C      -12.4320    -0.2770    -0.0370 C.3   1 <1>   0.1200 
  4 C      -15.9380     0.5040    -0.6850 C.ar  1 <1>  -0.1500 
  5 C      -15.0090    -1.4830     0.2810 C.ar  1 <1>  -0.1500 
  6 C      -11.2550     0.6410    -0.3490 C.3   1 <1>   0.1200 
  7 C      -17.2100    -0.0260    -0.5560 C.ar  1 <1>  -0.1500 
  8 C      -16.2830    -2.0100     0.4080 C.ar  1 <1>  -0.1500 
  9 O      -10.0790     0.0040     0.0450 O.3   1 <1>  -0.5600 
 10 C      -17.3890    -1.2860    -0.0070 C.ar  1 <1>  -0.1430 
 11 C       -8.9280     0.7450    -0.1980 C.3   1 <1>   0.1200 
 12 C      -18.7840    -1.8680     0.1330 C.3   1 <1>  -0.0970 
 13 C       -7.7240    -0.0990     0.2290 C.3   1 <1>   0.1100 
 14 N       -6.4430     0.6010    -0.0120 N.3   1 <1>  -0.8100 
 15 C       -6.1930     1.6740     0.9860 C.3   1 <1>   0.1100 
 16 C       -5.3160    -0.3640    -0.0140 C.3   1 <1>   0.1100 
 17 C       -4.8180     2.3620     0.7910 C.3   1 <1>   0.3430 
 18 C       -3.9490     0.3170    -0.2730 C.3   1 <1>   0.3430 
 19 N       -4.0990     1.8050    -0.4020 N.4   1 <1>  -0.9590 
 20 C       -2.8210     2.5070    -0.7110 C.3   1 <1>   0.2630 
 21 H      -12.3470    -1.1940    -0.5930 H     1 <1>   0.0800 
 22 H      -12.4850    -0.4700     1.0200 H     1 <1>   0.0800 
 23 H      -15.7980     1.4810    -1.1100 H     1 <1>   0.1500 
 24 H      -14.1750    -2.0710     0.6140 H     1 <1>   0.1500 
 25 H      -11.3500     1.5630     0.1990 H     1 <1>   0.0800 
 26 H      -11.2080     0.8330    -1.4070 H     1 <1>   0.0800 
 27 H      -18.0580     0.5470    -0.8860 H     1 <1>   0.1500 
 28 H      -16.4100    -2.9900     0.8330 H     1 <1>   0.1500 
 29 H       -8.9860     1.6550     0.3730 H     1 <1>   0.0800 
 30 H       -8.8720     0.9620    -1.2510 H     1 <1>   0.0800 
 31 H      -19.5060    -1.0850     0.2750 H     1 <1>   0.0800 
 32 H      -18.8310    -2.5300     0.9790 H     1 <1>   0.0800 
 33 H      -19.0380    -2.4190    -0.7550 H     1 <1>   0.0800 
 34 H       -7.7490    -1.0060    -0.3510 H     1 <1>   0.0800 
 35 H       -7.8170    -0.3600     1.2700 H     1 <1>   0.0800 
 36 H       -6.2420     1.2680     1.9820 H     1 <1>   0.0800 
 37 H       -6.9610     2.4240     0.9080 H     1 <1>   0.0800 
 38 H       -5.4820    -1.1040    -0.7790 H     1 <1>   0.0800 
 39 H       -5.2780    -0.8820     0.9300 H     1 <1>   0.0800 
 40 H       -4.2230     2.2210     1.6780 H     1 <1>   0.0800 
 41 H       -4.9730     3.4210     0.6650 H     1 <1>   0.0800 
 42 H       -3.5270    -0.0860    -1.1790 H     1 <1>   0.0800 
 43 H       -3.2780     0.0810     0.5350 H     1 <1>   0.0800 
 44 H       -4.7790     1.9160    -1.1730 H     1 <1>   0.4500 
 45 H       -2.1200     2.3830     0.0990 H     1 <1>   0.0800 
 46 H       -2.9990     3.5600    -0.8570 H     1 <1>   0.0800 
 47 H       -2.3840     2.1060    -1.6110 H     1 <1>   0.0800 
@<TRIPOS>BOND
  1   1   2  1   
  2   1   3  1   
  3   2   4  ar  
  4   2   5  ar  
  5   3   6  1   
  6   3  21  1   
  7   3  22  1   
  8   4   7  ar  
  9   4  23  1   
 10   5   8  ar  
 11   5  24  1   
 12   6   9  1   
 13   6  25  1   
 14   6  26  1   
 15   7  10  ar  
 16   7  27  1   
 17   8  10  ar  
 18   8  28  1   
 19   9  11  1   
 20  10  12  1   
 21  11  13  1   
 22  11  29  1   
 23  11  30  1   
 24  12  31  1   
 25  12  32  1   
 26  12  33  1   
 27  13  14  1   
 28  13  34  1   
 29  13  35  1   
 30  14  15  1   
 31  14  16  1   
 32  15  17  1   
 33  15  36  1   
 34  15  37  1   
 35  16  18  1   
 36  16  38  1   
 37  16  39  1   
 38  17  19  1   
 39  17  40  1   
 40  17  41  1   
 41  18  19  1   
 42  18  42  1   
 43  18  43  1   
 44  19  20  1   
 45  19  44  1   
 46  20  45  1   
 47  20  46  1   
 48  20  47  1   
@<TRIPOS>SUBSTRUCTURE
  1 ****   9 GROUP 4 **** **** 0

# MOE 2024.06 (io_trps.svl 2023.06)
