@<TRIPOS>MOLECULE
NONAME
33 35 1 0 0 
SMALL
USER_CHARGES


@<TRIPOS>ATOM
  1 O        1.4490    -0.0310    -0.3780 O.3   1 <1>  -0.5600 
  2 C        2.4850     0.3830    -1.2290 C.3   1 <1>   0.1200 
  3 C        0.5400     0.9840    -0.0460 C.3   1 <1>   0.1200 
  4 C        3.2770     1.5590    -0.6150 C.3   1 <1>   0.3430 
  5 C        1.2510     2.1580     0.6690 C.3   1 <1>   0.3430 
  6 N        2.7360     1.9380     0.7430 N.4   1 <1>  -0.9590 
  7 C        3.4790     3.0430     1.4470 C.3   1 <1>   0.4230 
  8 C        3.5770     4.3160     0.5770 C.3   1 <1>  -0.0170 
  9 C        4.9430     2.6250     1.6990 C.3   1 <1>  -0.0170 
 10 C        4.9070     4.1540    -0.1180 C.ar  1 <1>  -0.1440 
 11 C        5.6740     3.2040     0.5120 C.ar  1 <1>  -0.1440 
 12 C        5.3750     4.8120    -1.2400 C.ar  1 <1>  -0.1500 
 13 C        6.9320     2.8820     0.0400 C.ar  1 <1>  -0.1500 
 14 C        6.6350     4.4940    -1.7220 C.ar  1 <1>  -0.1500 
 15 C        7.4090     3.5340    -1.0860 C.ar  1 <1>  -0.1500 
 16 H        2.0620     0.6630    -2.1790 H     1 <1>   0.0800 
 17 H        3.1360    -0.4590    -1.3870 H     1 <1>   0.0800 
 18 H       -0.2090     0.5570     0.5980 H     1 <1>   0.0800 
 19 H        0.0560     1.3210    -0.9460 H     1 <1>   0.0800 
 20 H        3.2280     2.4030    -1.2830 H     1 <1>   0.0800 
 21 H        4.3150     1.2790    -0.5380 H     1 <1>   0.0800 
 22 H        0.8440     2.2590     1.6610 H     1 <1>   0.0800 
 23 H        1.0360     3.0680     0.1350 H     1 <1>   0.0800 
 24 H        2.8360     1.0740     1.2960 H     1 <1>   0.4500 
 25 H        2.9920     3.2630     2.3830 H     1 <1>   0.0800 
 26 H        3.6280     5.1860     1.2080 H     1 <1>   0.0800 
 27 H        2.7640     4.4270    -0.1160 H     1 <1>   0.0800 
 28 H        5.0680     1.5610     1.7840 H     1 <1>   0.0800 
 29 H        5.3100     3.1000     2.5920 H     1 <1>   0.0800 
 30 H        4.7810     5.5620    -1.7330 H     1 <1>   0.1500 
 31 H        7.5380     2.1410     0.5340 H     1 <1>   0.1500 
 32 H        7.0190     4.9980    -2.5940 H     1 <1>   0.1500 
 33 H        8.3880     3.2990    -1.4680 H     1 <1>   0.1500 
@<TRIPOS>BOND
  1   1   2  1   
  2   1   3  1   
  3   2   4  1   
  4   2  16  1   
  5   2  17  1   
  6   3   5  1   
  7   3  18  1   
  8   3  19  1   
  9   4   6  1   
 10   4  20  1   
 11   4  21  1   
 12   5   6  1   
 13   5  22  1   
 14   5  23  1   
 15   6   7  1   
 16   6  24  1   
 17   7   8  1   
 18   7   9  1   
 19   7  25  1   
 20   8  10  1   
 21   8  26  1   
 22   8  27  1   
 23   9  11  1   
 24   9  28  1   
 25   9  29  1   
 26  10  11  ar  
 27  10  12  ar  
 28  11  13  ar  
 29  12  14  ar  
 30  12  30  1   
 31  13  15  ar  
 32  13  31  1   
 33  14  15  ar  
 34  14  32  1   
 35  15  33  1   
@<TRIPOS>SUBSTRUCTURE
  1 ****   4 GROUP 4 **** **** 0

# MOE 2024.06 (io_trps.svl 2023.06)
