@<TRIPOS>MOLECULE
NONAME
37 38 1 0 0 
SMALL
USER_CHARGES


@<TRIPOS>ATOM
  1 BR      -0.7880    -2.0690    -0.4660 Br    1 <1>  -0.1110 
  2 C       -2.3880    -1.0090    -0.2950 C.ar  1 <1>   0.1110 
  3 C       -3.6070    -1.5470    -0.6650 C.ar  1 <1>   0.1600 
  4 C       -2.2950     0.2740     0.1940 C.ar  1 <1>  -0.1500 
  5 N       -4.7550    -0.8880    -0.5800 N.ar  1 <1>  -0.6200 
  6 C       -3.4860     0.9600     0.2830 C.ar  1 <1>  -0.1500 
  7 C       -4.6830     0.3510    -0.1080 C.ar  1 <1>   0.4270 
  8 N       -5.9170     0.9630    -0.0530 N.am  1 <1>  -0.5470 
  9 C       -6.3460     2.1780     0.4000 C.2   1 <1>   0.5690 
 10 O       -5.6100     3.0000     0.8850 O.2   1 <1>  -0.5700 
 11 C       -7.8220     2.5260     0.2780 C.3   1 <1>   0.1310 
 12 S       -8.8780     1.0000     0.1490 S.3   1 <1>  -0.2860 
 13 C      -10.5260     1.6830    -0.0590 C.2   1 <1>   0.2430 
 14 N      -10.7670     2.9440    -0.1150 N.2   1 <1>  -0.3380 
 15 N      -11.6160     0.9240    -0.1720 N.pl3 1 <1>   0.0480 
 16 N      -12.0890     3.0520    -0.2750 N.2   1 <1>  -0.3380 
 17 C      -12.5750     1.8540    -0.3050 C.2   1 <1>   0.0060 
 18 C      -11.7120    -0.5530    -0.1570 C.3   1 <1>   0.0960 
 19 C      -14.0560     1.5540    -0.4740 C.3   1 <1>   0.0200 
 20 C      -11.5210    -1.1210    -1.5670 C.3   1 <1>  -0.2400 
 21 C      -14.7280     1.3000     0.8800 C.3   1 <1>  -0.2400 
 22 H       -3.6340    -2.5540    -1.0430 H     1 <1>   0.1500 
 23 H       -1.3520     0.7030     0.4850 H     1 <1>   0.1500 
 24 H       -3.4840     1.9660     0.6560 H     1 <1>   0.1500 
 25 H       -6.6470     0.3380    -0.3910 H     1 <1>   0.3700 
 26 H       -7.9970     3.1120    -0.6050 H     1 <1>   0.0800 
 27 H       -8.1530     3.0680     1.1450 H     1 <1>   0.0800 
 28 H      -12.6740    -0.8390     0.2270 H     1 <1>   0.0800 
 29 H      -10.9580    -0.9450     0.5030 H     1 <1>   0.0800 
 30 H      -14.1900     0.7060    -1.1210 H     1 <1>   0.0800 
 31 H      -14.5260     2.4010    -0.9440 H     1 <1>   0.0800 
 32 H      -12.2760    -0.7420    -2.2330 H     1 <1>   0.0800 
 33 H      -11.5970    -2.1930    -1.5410 H     1 <1>   0.0800 
 34 H      -10.5490    -0.8610    -1.9470 H     1 <1>   0.0800 
 35 H      -14.2890     0.4530     1.3730 H     1 <1>   0.0800 
 36 H      -15.7780     1.1170     0.7420 H     1 <1>   0.0800 
 37 H      -14.6100     2.1640     1.5110 H     1 <1>   0.0800 
@<TRIPOS>BOND
  1   1   2  1   
  2   2   3  ar  
  3   2   4  ar  
  4   3   5  ar  
  5   3  22  1   
  6   4   6  ar  
  7   4  23  1   
  8   5   7  ar  
  9   6   7  ar  
 10   6  24  1   
 11   7   8  1   
 12   8   9  am  
 13   8  25  1   
 14   9  10  2   
 15   9  11  1   
 16  11  12  1   
 17  11  26  1   
 18  11  27  1   
 19  12  13  1   
 20  13  14  2   
 21  13  15  1   
 22  14  16  1   
 23  15  17  1   
 24  15  18  1   
 25  16  17  2   
 26  17  19  1   
 27  18  20  1   
 28  18  28  1   
 29  18  29  1   
 30  19  21  1   
 31  19  30  1   
 32  19  31  1   
 33  20  32  1   
 34  20  33  1   
 35  20  34  1   
 36  21  35  1   
 37  21  36  1   
 38  21  37  1   
@<TRIPOS>SUBSTRUCTURE
  1 ****  12 GROUP 4 **** **** 0

# MOE 2024.06 (io_trps.svl 2023.06)
