@<TRIPOS>MOLECULE
NONAME
46 47 1 0 0 
SMALL
USER_CHARGES


@<TRIPOS>ATOM
  1 CL       0.2970     1.1750    -1.9310 Cl    1 <1>  -0.1770 
  2 C        0.9460     2.4330    -0.9030 C.ar  1 <1>   0.1770 
  3 C        0.1640     3.5250    -0.5580 C.ar  1 <1>   0.0830 
  4 C        2.2450     2.2970    -0.4520 C.ar  1 <1>  -0.1500 
  5 O       -1.0980     3.5770    -1.0640 O.3   1 <1>  -0.3630 
  6 C        0.7120     4.5140     0.2680 C.ar  1 <1>   0.0830 
  7 C        2.7950     3.2750     0.3630 C.ar  1 <1>  -0.1440 
  8 C       -2.1920     3.8770    -0.2020 C.3   1 <1>   0.1810 
  9 O       -0.0510     5.5960     0.5890 O.3   1 <1>  -0.3630 
 10 C        2.0240     4.3750     0.7220 C.ar  1 <1>  -0.1500 
 11 C        4.2250     3.1460     0.8420 C.3   1 <1>   0.4870 
 12 C       -3.4420     3.1070    -0.6110 C.2   1 <1>   0.5690 
 13 C        0.3660     6.5890     1.5020 C.3   1 <1>   0.0400 
 14 N        5.0850     3.6930    -0.2280 N.4   1 <1>  -0.9060 
 15 O       -4.4960     3.3650    -0.0880 O.2   1 <1>  -0.5700 
 16 N       -3.3730     2.1320    -1.5420 N.am  1 <1>  -0.8000 
 17 C        6.5270     3.6890     0.0760 C.3   1 <1>   0.4230 
 18 C        7.2370     4.5420    -0.9800 C.3   1 <1>  -0.1600 
 19 C        7.0640     2.2500     0.0760 C.3   1 <1>  -0.1600 
 20 C        8.7590     4.5260    -0.7740 C.3   1 <1>  -0.1600 
 21 C        8.5860     2.2270     0.2800 C.3   1 <1>  -0.1600 
 22 C        9.3010     3.0910    -0.7660 C.3   1 <1>  -0.1600 
 23 H        2.7990     1.4220    -0.7480 H     1 <1>   0.1500 
 24 H       -2.3840     4.9330    -0.2590 H     1 <1>   0.0800 
 25 H       -1.9300     3.6110     0.8050 H     1 <1>   0.0800 
 26 H        2.4520     5.1280     1.3590 H     1 <1>   0.1500 
 27 H        4.4580     2.1090     1.0240 H     1 <1>   0.0800 
 28 H        4.3610     3.6990     1.7570 H     1 <1>   0.0800 
 29 H       -0.4390     7.2940     1.6170 H     1 <1>   0.0800 
 30 H        1.2310     7.0910     1.1060 H     1 <1>   0.0800 
 31 H        0.5800     6.1280     2.4500 H     1 <1>   0.0800 
 32 H        4.7810     4.6530    -0.4250 H     1 <1>   0.4500 
 33 H        4.9210     3.1650    -1.0910 H     1 <1>   0.4500 
 34 H       -4.2090     1.6210    -1.8210 H     1 <1>   0.3700 
 35 H       -2.4960     1.9030    -2.0170 H     1 <1>   0.3700 
 36 H        6.7020     4.1300     1.0460 H     1 <1>   0.0800 
 37 H        6.8960     5.5610    -0.9220 H     1 <1>   0.0800 
 38 H        7.0240     4.1630    -1.9650 H     1 <1>   0.0800 
 39 H        6.8400     1.7740    -0.8640 H     1 <1>   0.0800 
 40 H        6.6130     1.6780     0.8670 H     1 <1>   0.0800 
 41 H        9.0080     5.0060     0.1580 H     1 <1>   0.0800 
 42 H        9.2380     5.0830    -1.5630 H     1 <1>   0.0800 
 43 H        8.9470     1.2140     0.2110 H     1 <1>   0.0800 
 44 H        8.8280     2.5900     1.2650 H     1 <1>   0.0800 
 45 H       10.3580     3.1090    -0.5550 H     1 <1>   0.0800 
 46 H        9.1750     2.6530    -1.7420 H     1 <1>   0.0800 
@<TRIPOS>BOND
  1   1   2  1   
  2   2   3  ar  
  3   2   4  ar  
  4   3   5  1   
  5   3   6  ar  
  6   4   7  ar  
  7   4  23  1   
  8   5   8  1   
  9   6   9  1   
 10   6  10  ar  
 11   7  10  ar  
 12   7  11  1   
 13   8  12  1   
 14   8  24  1   
 15   8  25  1   
 16   9  13  1   
 17  10  26  1   
 18  11  14  1   
 19  11  27  1   
 20  11  28  1   
 21  12  15  2   
 22  12  16  am  
 23  13  29  1   
 24  13  30  1   
 25  13  31  1   
 26  14  17  1   
 27  14  32  1   
 28  14  33  1   
 29  16  34  1   
 30  16  35  1   
 31  17  18  1   
 32  17  19  1   
 33  17  36  1   
 34  18  20  1   
 35  18  37  1   
 36  18  38  1   
 37  19  21  1   
 38  19  39  1   
 39  19  40  1   
 40  20  22  1   
 41  20  41  1   
 42  20  42  1   
 43  21  22  1   
 44  21  43  1   
 45  21  44  1   
 46  22  45  1   
 47  22  46  1   
@<TRIPOS>SUBSTRUCTURE
  1 ****   7 GROUP 4 **** **** 0

# MOE 2024.06 (io_trps.svl 2023.06)
