@<TRIPOS>MOLECULE
NONAME
36 37 1 0 0 
SMALL
USER_CHARGES


@<TRIPOS>ATOM
  1 CL      -0.3980     0.7800    -1.3660 Cl    1 <1>  -0.1770 
  2 C       -2.0350     0.4870    -0.8300 C.ar  1 <1>   0.1770 
  3 C       -3.0910     0.9820    -1.5740 C.ar  1 <1>  -0.1500 
  4 C       -2.2510    -0.2360     0.3290 C.ar  1 <1>  -0.1500 
  5 C       -4.3860     0.7480    -1.1470 C.ar  1 <1>  -0.1500 
  6 C       -3.5500    -0.4640     0.7480 C.ar  1 <1>  -0.1500 
  7 C       -4.6270     0.0230     0.0170 C.ar  1 <1>   0.1000 
  8 N       -5.9190    -0.2250     0.4620 N.pl3 1 <1>  -0.8380 
  9 C       -6.7250    -1.1650    -0.3750 C.3   1 <1>   0.2090 
 10 C       -6.7120     0.9780     0.8690 C.3   1 <1>   0.2090 
 11 C       -8.0300    -1.5740     0.3320 C.3   1 <1>   0.1400 
 12 C       -8.0070     0.5690     1.5910 C.3   1 <1>   0.1400 
 13 N       -8.8110    -0.3740     0.7570 N.am  1 <1>  -0.6600 
 14 C       -9.8220     0.1050    -0.0340 C.2   1 <1>   0.6900 
 15 O       -9.8260     1.2830    -0.3510 O.2   1 <1>  -0.5700 
 16 N      -10.8160    -0.7320    -0.4860 N.am  1 <1>  -0.6600 
 17 C      -11.7170    -0.3130    -1.5930 C.3   1 <1>   0.0600 
 18 C      -11.2960    -1.9010     0.2980 C.3   1 <1>   0.0600 
 19 H       -2.8970     1.5410    -2.4720 H     1 <1>   0.1500 
 20 H       -1.4140    -0.6100     0.8910 H     1 <1>   0.1500 
 21 H       -5.2170     1.1260    -1.7130 H     1 <1>   0.1500 
 22 H       -3.7470    -1.0220     1.6450 H     1 <1>   0.1500 
 23 H       -6.1390    -2.0440    -0.5830 H     1 <1>   0.0800 
 24 H       -6.9660    -0.6940    -1.3120 H     1 <1>   0.0800 
 25 H       -6.9660     1.5590    -0.0010 H     1 <1>   0.0800 
 26 H       -6.1170     1.5930     1.5220 H     1 <1>   0.0800 
 27 H       -7.7920    -2.1660     1.1970 H     1 <1>   0.0800 
 28 H       -8.6120    -2.1790    -0.3390 H     1 <1>   0.0800 
 29 H       -8.5870     1.4490     1.8120 H     1 <1>   0.0800 
 30 H       -7.7570     0.0940     2.5220 H     1 <1>   0.0800 
 31 H      -11.2350     0.4300    -2.2060 H     1 <1>   0.0800 
 32 H      -12.6190     0.1070    -1.1850 H     1 <1>   0.0800 
 33 H      -11.9610    -1.1610    -2.2080 H     1 <1>   0.0800 
 34 H      -10.7730    -1.9700     1.2370 H     1 <1>   0.0800 
 35 H      -11.1350    -2.8040    -0.2620 H     1 <1>   0.0800 
 36 H      -12.3470    -1.7950     0.5040 H     1 <1>   0.0800 
@<TRIPOS>BOND
  1   1   2  1   
  2   2   3  ar  
  3   2   4  ar  
  4   3   5  ar  
  5   3  19  1   
  6   4   6  ar  
  7   4  20  1   
  8   5   7  ar  
  9   5  21  1   
 10   6   7  ar  
 11   6  22  1   
 12   7   8  1   
 13   8   9  1   
 14   8  10  1   
 15   9  11  1   
 16   9  23  1   
 17   9  24  1   
 18  10  12  1   
 19  10  25  1   
 20  10  26  1   
 21  11  13  1   
 22  11  27  1   
 23  11  28  1   
 24  12  13  1   
 25  12  29  1   
 26  12  30  1   
 27  13  14  am  
 28  14  15  2   
 29  14  16  am  
 30  16  17  1   
 31  16  18  1   
 32  17  31  1   
 33  17  32  1   
 34  17  33  1   
 35  18  34  1   
 36  18  35  1   
 37  18  36  1   
@<TRIPOS>SUBSTRUCTURE
  1 ****   8 GROUP 4 **** **** 0

# MOE 2024.06 (io_trps.svl 2023.06)
