@<TRIPOS>MOLECULE
NONAME
43 45 1 0 0 
SMALL
USER_CHARGES


@<TRIPOS>ATOM
  1 O       -0.6010    -0.8420     1.2380 O.2   1 <1>  -0.5700 
  2 C       -0.2710    -1.7400     0.5060 C.2   1 <1>   0.4950 
  3 C        1.0770    -2.1320     0.2700 C.2   1 <1>  -0.1240 
  4 C       -1.3340    -2.5190    -0.2600 C.3   1 <1>  -0.0990 
  5 C        1.4430    -3.1640    -0.4860 C.2   1 <1>  -0.0620 
  6 C        2.3130    -1.4700     0.8110 C.3   1 <1>  -0.0220 
  7 C       -0.9340    -3.9950    -0.5490 C.3   1 <1>   0.0000 
  8 O        2.7510    -3.3350    -0.5910 O.3   1 <1>  -0.3570 
  9 C        0.4760    -4.0880    -1.1970 C.3   1 <1>  -0.0220 
 10 C        3.4440    -2.3100     0.1410 C.3   1 <1>   0.4020 
 11 C       -0.9470    -4.7900     0.7700 C.3   1 <1>  -0.2400 
 12 C       -1.9700    -4.6250    -1.4930 C.3   1 <1>  -0.2400 
 13 C        4.3990    -2.9870     1.1240 C.2   1 <1>   0.4480 
 14 C        4.2860    -1.4830    -0.8400 C.2   1 <1>   0.4480 
 15 O        4.3640    -2.8230     2.3090 O.2   1 <1>  -0.5700 
 16 C        5.4850    -3.8600     0.5100 C.3   1 <1>  -0.0990 
 17 O        3.8150    -0.6550    -1.5650 O.2   1 <1>  -0.5700 
 18 C        5.7900    -1.7320    -0.8650 C.3   1 <1>  -0.0990 
 19 C        6.1580    -3.2260    -0.7360 C.3   1 <1>   0.0000 
 20 C        7.6860    -3.3500    -0.6150 C.3   1 <1>  -0.2400 
 21 C        5.7340    -3.9760    -2.0130 C.3   1 <1>  -0.2400 
 22 H       -1.4990    -2.0020    -1.1880 H     1 <1>   0.0800 
 23 H       -2.2530    -2.4880     0.2960 H     1 <1>   0.0800 
 24 H        2.3240    -1.5300     1.8840 H     1 <1>   0.0800 
 25 H        2.3500    -0.4350     0.5250 H     1 <1>   0.0800 
 26 H        0.8390    -5.1000    -1.1500 H     1 <1>   0.0800 
 27 H        0.4360    -3.7970    -2.2310 H     1 <1>   0.0800 
 28 H       -0.2250    -4.4030     1.4670 H     1 <1>   0.0800 
 29 H       -0.7130    -5.8250     0.5920 H     1 <1>   0.0800 
 30 H       -1.9170    -4.7420     1.2330 H     1 <1>   0.0800 
 31 H       -2.0040    -4.0950    -2.4290 H     1 <1>   0.0800 
 32 H       -2.9520    -4.5940    -1.0530 H     1 <1>   0.0800 
 33 H       -1.7230    -5.6520    -1.6950 H     1 <1>   0.0800 
 34 H        5.0540    -4.8150     0.2660 H     1 <1>   0.0800 
 35 H        6.2180    -4.0420     1.2770 H     1 <1>   0.0800 
 36 H        6.2300    -1.1760    -0.0560 H     1 <1>   0.0800 
 37 H        6.1910    -1.3310    -1.7800 H     1 <1>   0.0800 
 38 H        8.0460    -2.8310     0.2560 H     1 <1>   0.0800 
 39 H        8.1720    -2.9300    -1.4790 H     1 <1>   0.0800 
 40 H        7.9790    -4.3830    -0.5360 H     1 <1>   0.0800 
 41 H        4.6720    -3.9360    -2.1680 H     1 <1>   0.0800 
 42 H        6.0230    -5.0120    -1.9570 H     1 <1>   0.0800 
 43 H        6.2090    -3.5470    -2.8790 H     1 <1>   0.0800 
@<TRIPOS>BOND
  1   1   2  2   
  2   2   3  1   
  3   2   4  1   
  4   3   5  2   
  5   3   6  1   
  6   4   7  1   
  7   4  22  1   
  8   4  23  1   
  9   5   8  1   
 10   5   9  1   
 11   6  10  1   
 12   6  24  1   
 13   6  25  1   
 14   7   9  1   
 15   7  11  1   
 16   7  12  1   
 17   8  10  1   
 18   9  26  1   
 19   9  27  1   
 20  10  13  1   
 21  10  14  1   
 22  11  28  1   
 23  11  29  1   
 24  11  30  1   
 25  12  31  1   
 26  12  32  1   
 27  12  33  1   
 28  13  15  2   
 29  13  16  1   
 30  14  17  2   
 31  14  18  1   
 32  16  19  1   
 33  16  34  1   
 34  16  35  1   
 35  18  19  1   
 36  18  36  1   
 37  18  37  1   
 38  19  20  1   
 39  19  21  1   
 40  20  38  1   
 41  20  39  1   
 42  20  40  1   
 43  21  41  1   
 44  21  42  1   
 45  21  43  1   
@<TRIPOS>SUBSTRUCTURE
  1 ****   8 GROUP 4 **** **** 0

# MOE 2024.06 (io_trps.svl 2023.06)
