@<TRIPOS>MOLECULE
NONAME
29 29 1 0 0 
SMALL
USER_CHARGES


@<TRIPOS>ATOM
  1 O        1.3960     0.1790     0.8500 O.co2 1 <1>  -0.9000 
  2 C        1.3700     0.9290    -0.1390 C.2   1 <1>   0.9060 
  3 O        1.3680     0.4500    -1.2860 O.co2 1 <1>  -0.9000 
  4 C        1.3460     2.4550     0.0740 C.3   1 <1>  -0.0430 
  5 C       -0.0620     3.0690    -0.0240 C.ar  1 <1>  -0.1440 
  6 C        2.3410     3.2060    -0.8510 C.3   1 <1>  -0.2660 
  7 C       -0.3840     4.1670     0.7580 C.ar  1 <1>  -0.1500 
  8 C       -1.0250     2.5550    -0.8820 C.ar  1 <1>  -0.1500 
  9 C        2.6420     4.6350    -0.4530 C.2   1 <1>   0.9060 
 10 C       -1.6470     4.7310     0.6980 C.ar  1 <1>  -0.1500 
 11 C       -2.2900     3.1130    -0.9450 C.ar  1 <1>  -0.1500 
 12 O        2.6920     5.5000    -1.3370 O.co2 1 <1>  -0.9000 
 13 O        2.9030     4.9040     0.7270 O.co2 1 <1>  -0.9000 
 14 C       -2.6110     4.2090    -0.1480 C.ar  1 <1>   0.0830 
 15 O       -3.8290     4.8120    -0.1460 O.3   1 <1>  -0.3620 
 16 C       -4.8490     4.3780    -1.0120 C.3   1 <1>   0.1200 
 17 C       -6.0700     5.2640    -0.7880 C.3   1 <1>  -0.2400 
 18 H        1.6900     2.5940     1.0820 H     1 <1>   0.0800 
 19 H        1.9610     3.2020    -1.8540 H     1 <1>   0.0800 
 20 H        3.2750     2.6810    -0.8520 H     1 <1>   0.0800 
 21 H        0.3660     4.5870     1.4080 H     1 <1>   0.1500 
 22 H       -0.7830     1.7110    -1.5060 H     1 <1>   0.1500 
 23 H       -1.8810     5.5830     1.3070 H     1 <1>   0.1500 
 24 H       -2.9980     2.6770    -1.6200 H     1 <1>   0.1500 
 25 H       -5.0740     3.3500    -0.7820 H     1 <1>   0.0800 
 26 H       -4.4930     4.4650    -2.0250 H     1 <1>   0.0800 
 27 H       -6.4040     5.1800     0.2300 H     1 <1>   0.0800 
 28 H       -6.8680     4.9570    -1.4390 H     1 <1>   0.0800 
 29 H       -5.8250     6.2890    -1.0030 H     1 <1>   0.0800 
@<TRIPOS>BOND
  1   1   2  ar  
  2   2   3  ar  
  3   2   4  1   
  4   4   5  1   
  5   4   6  1   
  6   4  18  1   
  7   5   7  ar  
  8   5   8  ar  
  9   6   9  1   
 10   6  19  1   
 11   6  20  1   
 12   7  10  ar  
 13   7  21  1   
 14   8  11  ar  
 15   8  22  1   
 16   9  12  ar  
 17   9  13  ar  
 18  10  14  ar  
 19  10  23  1   
 20  11  14  ar  
 21  11  24  1   
 22  14  15  1   
 23  15  16  1   
 24  16  17  1   
 25  16  25  1   
 26  16  26  1   
 27  17  27  1   
 28  17  28  1   
 29  17  29  1   
@<TRIPOS>SUBSTRUCTURE
  1 ****   5 GROUP 4 **** **** 0

# MOE 2024.06 (io_trps.svl 2023.06)
