@<TRIPOS>MOLECULE
NONAME
38 39 1 0 0 
SMALL
USER_CHARGES


@<TRIPOS>ATOM
  1 F        0.9340     0.4840    -1.9340 F     1 <1>  -0.1900 
  2 C        1.8500     1.1490    -1.2770 C.ar  1 <1>   0.1900 
  3 C        2.0280     2.4910    -1.5560 C.ar  1 <1>  -0.1500 
  4 C        2.6040     0.4850    -0.3280 C.ar  1 <1>  -0.1500 
  5 C        3.0010     3.1860    -0.8580 C.ar  1 <1>  -0.1500 
  6 C        3.5730     1.1940     0.3610 C.ar  1 <1>  -0.1500 
  7 C        3.7860     2.5450     0.0980 C.ar  1 <1>   0.1000 
  8 N        4.7670     3.2360     0.7950 N.pl3 1 <1>  -0.8690 
  9 C        5.8650     3.8600     0.0380 C.3   1 <1>   0.2890 
 10 C        7.0060     2.8540    -0.1110 C.3   1 <1>  -0.1600 
 11 C        6.3270     5.1080     0.7870 C.3   1 <1>  -0.1600 
 12 C        8.2040     3.4960    -0.8130 C.3   1 <1>   0.1400 
 13 C        7.5300     5.7450     0.0900 C.3   1 <1>   0.1400 
 14 N        8.6040     4.7300    -0.0840 N.am  1 <1>  -0.6600 
 15 C        9.8770     4.9490     0.3810 C.2   1 <1>   0.7800 
 16 O       10.1950     5.9720     0.9570 O.2   1 <1>  -0.5700 
 17 O       10.7870     3.9910     0.1800 O.3   1 <1>  -0.4300 
 18 C       12.1310     4.1270     0.5890 C.3   1 <1>   0.1200 
 19 C       12.9100     4.8610    -0.5020 C.3   1 <1>  -0.2400 
 20 H        1.4170     2.9740    -2.2960 H     1 <1>   0.1500 
 21 H        2.4320    -0.5580    -0.1360 H     1 <1>   0.1500 
 22 H        3.1520     4.2330    -1.0430 H     1 <1>   0.1500 
 23 H        4.1700     0.7000     1.1050 H     1 <1>   0.1500 
 24 H        5.1310     2.7360     1.6100 H     1 <1>   0.4000 
 25 H        5.5170     4.1460    -0.9410 H     1 <1>   0.0800 
 26 H        6.6690     2.0130    -0.6900 H     1 <1>   0.0800 
 27 H        7.3200     2.5020     0.8550 H     1 <1>   0.0800 
 28 H        6.6060     4.8520     1.7930 H     1 <1>   0.0800 
 29 H        5.5220     5.8190     0.8270 H     1 <1>   0.0800 
 30 H        7.9410     3.7580    -1.8240 H     1 <1>   0.0800 
 31 H        9.0150     2.7890    -0.8540 H     1 <1>   0.0800 
 32 H        7.8830     6.5780     0.6750 H     1 <1>   0.0800 
 33 H        7.2420     6.1180    -0.8780 H     1 <1>   0.0800 
 34 H       12.5280     3.1370     0.7290 H     1 <1>   0.0800 
 35 H       12.1700     4.6540     1.5270 H     1 <1>   0.0800 
 36 H       12.8440     4.3240    -1.4310 H     1 <1>   0.0800 
 37 H       13.9440     4.9350    -0.2200 H     1 <1>   0.0800 
 38 H       12.5220     5.8550    -0.6310 H     1 <1>   0.0800 
@<TRIPOS>BOND
  1   1   2  1   
  2   2   3  ar  
  3   2   4  ar  
  4   3   5  ar  
  5   3  20  1   
  6   4   6  ar  
  7   4  21  1   
  8   5   7  ar  
  9   5  22  1   
 10   6   7  ar  
 11   6  23  1   
 12   7   8  1   
 13   8   9  1   
 14   8  24  1   
 15   9  10  1   
 16   9  11  1   
 17   9  25  1   
 18  10  12  1   
 19  10  26  1   
 20  10  27  1   
 21  11  13  1   
 22  11  28  1   
 23  11  29  1   
 24  12  14  1   
 25  12  30  1   
 26  12  31  1   
 27  13  14  1   
 28  13  32  1   
 29  13  33  1   
 30  14  15  am  
 31  15  16  2   
 32  15  17  1   
 33  17  18  1   
 34  18  19  1   
 35  18  34  1   
 36  18  35  1   
 37  19  36  1   
 38  19  37  1   
 39  19  38  1   
@<TRIPOS>SUBSTRUCTURE
  1 ****   9 GROUP 4 **** **** 0

# MOE 2024.06 (io_trps.svl 2023.06)
