@<TRIPOS>MOLECULE
NONAME
28 28 1 0 0 
SMALL
USER_CHARGES


@<TRIPOS>ATOM
  1 F       -3.6630     3.1070     2.2040 F     1 <1>  -0.3400 
  2 C       -2.7770     3.4520     1.2840 C.3   1 <1>   1.1640 
  3 F       -2.6150     2.4040     0.4890 F     1 <1>  -0.3400 
  4 F       -1.6140     3.6080     1.9130 F     1 <1>  -0.3400 
  5 C       -3.1250     4.7220     0.4840 C.ar  1 <1>  -0.1440 
  6 C       -2.2830     5.2160    -0.5220 C.ar  1 <1>  -0.1440 
  7 C       -4.3030     5.4110     0.7650 C.ar  1 <1>  -0.1500 
  8 C       -2.6360     6.3670    -1.2140 C.ar  1 <1>  -0.1500 
  9 C       -0.9710     4.5480    -0.9090 C.3   1 <1>   0.4870 
 10 C       -4.6420     6.5570     0.0710 C.ar  1 <1>  -0.1500 
 11 C       -3.8080     7.0350    -0.9190 C.ar  1 <1>  -0.1500 
 12 N        0.0600     5.0160     0.0430 N.4   1 <1>  -0.9060 
 13 C        1.4230     4.5120    -0.2940 C.3   1 <1>   0.3430 
 14 C        2.4690     4.9740     0.7270 C.3   1 <1>   0.1200 
 15 O        3.6920     4.4840     0.3130 O.3   1 <1>  -0.6800 
 16 H       -4.9810     5.0660     1.5300 H     1 <1>   0.1500 
 17 H       -2.0100     6.7620    -1.9980 H     1 <1>   0.1500 
 18 H       -0.7050     4.8320    -1.9140 H     1 <1>   0.0800 
 19 H       -1.0630     3.4740    -0.8740 H     1 <1>   0.0800 
 20 H       -5.5580     7.0770     0.3010 H     1 <1>   0.1500 
 21 H       -4.0780     7.9280    -1.4600 H     1 <1>   0.1500 
 22 H       -0.2070     4.7030     0.9880 H     1 <1>   0.4500 
 23 H        0.0400     6.0430     0.0550 H     1 <1>   0.4500 
 24 H        1.7130     4.8700    -1.2690 H     1 <1>   0.0800 
 25 H        1.4180     3.4330    -0.3130 H     1 <1>   0.0800 
 26 H        2.2640     4.5750     1.7060 H     1 <1>   0.0800 
 27 H        2.5360     6.0480     0.7620 H     1 <1>   0.0800 
 28 H        4.4150     4.7330     0.9300 H     1 <1>   0.4000 
@<TRIPOS>BOND
  1   1   2  1   
  2   2   3  1   
  3   2   4  1   
  4   2   5  1   
  5   5   6  ar  
  6   5   7  ar  
  7   6   8  ar  
  8   6   9  1   
  9   7  10  ar  
 10   7  16  1   
 11   8  11  ar  
 12   8  17  1   
 13   9  12  1   
 14   9  18  1   
 15   9  19  1   
 16  10  11  ar  
 17  10  20  1   
 18  11  21  1   
 19  12  13  1   
 20  12  22  1   
 21  12  23  1   
 22  13  14  1   
 23  13  24  1   
 24  13  25  1   
 25  14  15  1   
 26  14  26  1   
 27  14  27  1   
 28  15  28  1   
@<TRIPOS>SUBSTRUCTURE
  1 ****   6 GROUP 4 **** **** 0

# MOE 2024.06 (io_trps.svl 2023.06)
