@<TRIPOS>MOLECULE
NONAME
41 41 1 0 0 
SMALL
USER_CHARGES


@<TRIPOS>ATOM
  1 O       -0.5400    -1.0330     1.5070 O.2   1 <1>  -0.5700 
  2 C       -0.2130    -1.1360     0.3500 C.2   1 <1>   0.6590 
  3 O        0.8620    -0.5100    -0.1220 O.3   1 <1>  -0.4300 
  4 C       -0.9850    -1.9840    -0.6700 C.3   1 <1>   0.1190 
  5 C        1.6760     0.2940     0.7060 C.3   1 <1>   0.0400 
  6 C       -2.3310    -1.3360    -1.0320 C.2   1 <1>  -0.2760 
  7 C       -1.1780    -3.4680    -0.2420 C.3   1 <1>  -0.0800 
  8 C       -3.5100    -1.8550    -0.6710 C.2   1 <1>  -0.2880 
  9 C       -2.2170    -0.0470    -1.8330 C.3   1 <1>  -0.1020 
 10 C       -2.3660    -3.6190     0.7320 C.3   1 <1>  -0.1600 
 11 C        0.0850    -4.1260     0.3570 C.3   1 <1>  -0.1600 
 12 C       -3.6880    -3.1210     0.1380 C.3   1 <1>   0.3380 
 13 C        1.2850    -4.1280    -0.6030 C.3   1 <1>  -0.1600 
 14 O       -4.1470    -4.0570    -0.7530 O.3   1 <1>  -0.6800 
 15 C        2.4770    -4.8690     0.0120 C.3   1 <1>  -0.1600 
 16 C        3.6800    -4.8670    -0.9380 C.3   1 <1>  -0.1600 
 17 C        4.8700    -5.6050    -0.3220 C.3   1 <1>  -0.2400 
 18 H       -0.3930    -2.0020    -1.5670 H     1 <1>   0.0800 
 19 H        2.4760     0.6960     0.1120 H     1 <1>   0.0800 
 20 H        2.0710    -0.3150     1.5010 H     1 <1>   0.0800 
 21 H        1.0770     1.0910     1.1130 H     1 <1>   0.0800 
 22 H       -1.4290    -4.0210    -1.1300 H     1 <1>   0.0800 
 23 H       -4.4550    -1.4100    -0.9300 H     1 <1>   0.1500 
 24 H       -1.6980    -0.2250    -2.7580 H     1 <1>   0.0800 
 25 H       -1.6820     0.6990    -1.2720 H     1 <1>   0.0800 
 26 H       -3.1930     0.3420    -2.0630 H     1 <1>   0.0800 
 27 H       -2.1650    -3.0450     1.6190 H     1 <1>   0.0800 
 28 H       -2.4840    -4.6440     1.0380 H     1 <1>   0.0800 
 29 H       -0.1510    -5.1470     0.6050 H     1 <1>   0.0800 
 30 H        0.3580    -3.6340     1.2760 H     1 <1>   0.0800 
 31 H       -4.4280    -2.9990     0.9110 H     1 <1>   0.0800 
 32 H        1.5850    -3.1200    -0.8270 H     1 <1>   0.0800 
 33 H        1.0050    -4.6090    -1.5250 H     1 <1>   0.0800 
 34 H       -3.6420    -3.9450    -1.5780 H     1 <1>   0.4000 
 35 H        2.1960    -5.8860     0.2300 H     1 <1>   0.0800 
 36 H        2.7540    -4.3940     0.9390 H     1 <1>   0.0800 
 37 H        3.9670    -3.8520    -1.1560 H     1 <1>   0.0800 
 38 H        3.4090    -5.3430    -1.8650 H     1 <1>   0.0800 
 39 H        5.1720    -5.1320     0.5960 H     1 <1>   0.0800 
 40 H        5.7030    -5.5930    -1.0020 H     1 <1>   0.0800 
 41 H        4.6120    -6.6290    -0.1160 H     1 <1>   0.0800 
@<TRIPOS>BOND
  1   1   2  2   
  2   2   3  1   
  3   2   4  1   
  4   3   5  1   
  5   4   6  1   
  6   4   7  1   
  7   4  18  1   
  8   5  19  1   
  9   5  20  1   
 10   5  21  1   
 11   6   8  2   
 12   6   9  1   
 13   7  10  1   
 14   7  11  1   
 15   7  22  1   
 16   8  12  1   
 17   8  23  1   
 18   9  24  1   
 19   9  25  1   
 20   9  26  1   
 21  10  12  1   
 22  10  27  1   
 23  10  28  1   
 24  11  13  1   
 25  11  29  1   
 26  11  30  1   
 27  12  14  1   
 28  12  31  1   
 29  13  15  1   
 30  13  32  1   
 31  13  33  1   
 32  14  34  1   
 33  15  16  1   
 34  15  35  1   
 35  15  36  1   
 36  16  17  1   
 37  16  37  1   
 38  16  38  1   
 39  17  39  1   
 40  17  40  1   
 41  17  41  1   
@<TRIPOS>SUBSTRUCTURE
  1 ****   4 GROUP 4 **** **** 0

# MOE 2024.06 (io_trps.svl 2023.06)
