@<TRIPOS>MOLECULE
NONAME
40 42 1 0 0 
SMALL
USER_CHARGES


@<TRIPOS>ATOM
  1 CL      -0.4610     0.9130    -0.8080 Cl    1 <1>  -0.1770 
  2 C       -1.8360    -0.0940    -0.4400 C.ar  1 <1>   0.1770 
  3 C       -2.2780    -0.1890     0.8650 C.ar  1 <1>  -0.1500 
  4 C       -2.4640    -0.7830    -1.4600 C.ar  1 <1>  -0.1500 
  5 C       -3.3730    -0.9860     1.1550 C.ar  1 <1>  -0.1500 
  6 C       -3.5590    -1.5790    -1.1680 C.ar  1 <1>  -0.1500 
  7 C       -4.0220    -1.6790     0.1390 C.ar  1 <1>  -0.1430 
  8 C       -5.2320    -2.5380     0.4590 C.3   1 <1>   0.4870 
  9 N       -6.4540    -1.8350    -0.0150 N.4   1 <1>  -0.9590 
 10 C       -6.6580    -0.5190     0.7000 C.3   1 <1>   0.3430 
 11 C       -7.6820    -2.7040     0.1010 C.3   1 <1>   0.3430 
 12 C       -7.9300     0.2170     0.2300 C.3   1 <1>   0.2090 
 13 C       -8.9620    -1.9850    -0.3740 C.3   1 <1>   0.2090 
 14 N       -9.1280    -0.6710     0.3170 N.pl3 1 <1>  -0.8380 
 15 C      -10.3550    -0.0320     0.0870 C.ar  1 <1>   0.1000 
 16 C      -10.7580     0.4920    -1.1480 C.ar  1 <1>   0.1900 
 17 C      -11.2460     0.0990     1.1440 C.ar  1 <1>  -0.1500 
 18 F       -9.9560     0.3960    -2.1830 F     1 <1>  -0.1900 
 19 C      -11.9760     1.1150    -1.3370 C.ar  1 <1>  -0.1500 
 20 C      -12.4730     0.7210     0.9750 C.ar  1 <1>  -0.1500 
 21 C      -12.8410     1.2290    -0.2620 C.ar  1 <1>  -0.1500 
 22 H       -1.7630     0.3540     1.6390 H     1 <1>   0.1500 
 23 H       -2.0920    -0.6940    -2.4660 H     1 <1>   0.1500 
 24 H       -3.7030    -1.0580     2.1780 H     1 <1>   0.1500 
 25 H       -4.0330    -2.1180    -1.9710 H     1 <1>   0.1500 
 26 H       -5.2900    -2.7130     1.5210 H     1 <1>   0.0800 
 27 H       -5.1330    -3.4890    -0.0400 H     1 <1>   0.0800 
 28 H       -6.3110    -1.6100    -1.0070 H     1 <1>   0.4500 
 29 H       -5.8070     0.1230     0.5390 H     1 <1>   0.0800 
 30 H       -6.7460    -0.6920     1.7590 H     1 <1>   0.0800 
 31 H       -7.8260    -2.9890     1.1300 H     1 <1>   0.0800 
 32 H       -7.5530    -3.6040    -0.4770 H     1 <1>   0.0800 
 33 H       -7.7980     0.5580    -0.7820 H     1 <1>   0.0800 
 34 H       -8.0880     1.0840     0.8500 H     1 <1>   0.0800 
 35 H       -9.8180    -2.6040    -0.1620 H     1 <1>   0.0800 
 36 H       -8.9200    -1.8350    -1.4390 H     1 <1>   0.0800 
 37 H      -10.9720    -0.2910     2.1070 H     1 <1>   0.1500 
 38 H      -12.2430     1.5020    -2.3040 H     1 <1>   0.1500 
 39 H      -13.1470     0.8110     1.8100 H     1 <1>   0.1500 
 40 H      -13.7960     1.7110    -0.3850 H     1 <1>   0.1500 
@<TRIPOS>BOND
  1   1   2  1   
  2   2   3  ar  
  3   2   4  ar  
  4   3   5  ar  
  5   3  22  1   
  6   4   6  ar  
  7   4  23  1   
  8   5   7  ar  
  9   5  24  1   
 10   6   7  ar  
 11   6  25  1   
 12   7   8  1   
 13   8   9  1   
 14   8  26  1   
 15   8  27  1   
 16   9  10  1   
 17   9  11  1   
 18   9  28  1   
 19  10  12  1   
 20  10  29  1   
 21  10  30  1   
 22  11  13  1   
 23  11  31  1   
 24  11  32  1   
 25  12  14  1   
 26  12  33  1   
 27  12  34  1   
 28  13  14  1   
 29  13  35  1   
 30  13  36  1   
 31  14  15  1   
 32  15  16  ar  
 33  15  17  ar  
 34  16  18  1   
 35  16  19  ar  
 36  17  20  ar  
 37  17  37  1   
 38  19  21  ar  
 39  19  38  1   
 40  20  21  ar  
 41  20  39  1   
 42  21  40  1   
@<TRIPOS>SUBSTRUCTURE
  1 ****  10 GROUP 4 **** **** 0

# MOE 2024.06 (io_trps.svl 2023.06)
