@<TRIPOS>MOLECULE
NONAME
44 45 1 0 0 
SMALL
USER_CHARGES


@<TRIPOS>ATOM
  1 CL      -1.8810     1.4220     2.1930 Cl    1 <1>  -0.1770 
  2 C       -0.9640     2.4590     1.1260 C.ar  1 <1>   0.1770 
  3 C       -1.3800     2.6310    -0.1890 C.ar  1 <1>  -0.1440 
  4 C        0.1550     3.0970     1.6240 C.ar  1 <1>  -0.1500 
  5 C       -0.6450     3.4670    -1.0220 C.ar  1 <1>  -0.1500 
  6 C       -2.6120     1.9110    -0.7050 C.3   1 <1>   0.4870 
  7 C        0.8680     3.9240     0.7790 C.ar  1 <1>   0.1770 
  8 C        0.4800     4.1150    -0.5350 C.ar  1 <1>  -0.1500 
  9 N       -3.8260     2.4690    -0.0540 N.4   1 <1>  -0.9590 
 10 CL       2.2820     4.7460     1.3810 Cl    1 <1>  -0.1770 
 11 C       -5.0540     1.6730    -0.3940 C.3   1 <1>   0.3430 
 12 C       -4.0280     3.9270    -0.3690 C.3   1 <1>   0.3430 
 13 C       -6.3180     2.2620     0.2660 C.3   1 <1>   0.1100 
 14 C       -5.3080     4.4790     0.2900 C.3   1 <1>   0.1100 
 15 N       -6.4960     3.6870    -0.0870 N.3   1 <1>  -0.8100 
 16 C       -7.7150     4.2630     0.5250 C.3   1 <1>   0.1100 
 17 C       -8.9850     3.8210    -0.2080 C.3   1 <1>   0.1200 
 18 O      -10.0740     4.4120     0.4270 O.3   1 <1>  -0.5600 
 19 C      -11.3000     4.1350    -0.1750 C.3   1 <1>   0.1200 
 20 C      -12.4040     4.7990     0.6470 C.3   1 <1>   0.1200 
 21 O      -13.6260     4.6080     0.0170 O.3   1 <1>  -0.6800 
 22 H        0.4690     2.9560     2.6430 H     1 <1>   0.1500 
 23 H       -0.9290     3.6200    -2.0510 H     1 <1>   0.1500 
 24 H       -2.5250     0.8600    -0.4790 H     1 <1>   0.0800 
 25 H       -2.6820     2.0220    -1.7750 H     1 <1>   0.0800 
 26 H        1.0620     4.7650    -1.1670 H     1 <1>   0.1500 
 27 H       -3.6800     2.3940     0.9620 H     1 <1>   0.4500 
 28 H       -4.9310     0.6520    -0.0710 H     1 <1>   0.0800 
 29 H       -5.2020     1.6710    -1.4610 H     1 <1>   0.0800 
 30 H       -4.1140     4.0610    -1.4350 H     1 <1>   0.0800 
 31 H       -3.1810     4.5000    -0.0280 H     1 <1>   0.0800 
 32 H       -6.2530     2.1510     1.3360 H     1 <1>   0.0800 
 33 H       -7.1690     1.6980    -0.0720 H     1 <1>   0.0800 
 34 H       -5.4450     5.4980    -0.0320 H     1 <1>   0.0800 
 35 H       -5.1910     4.4850     1.3610 H     1 <1>   0.0800 
 36 H       -7.6720     5.3370     0.4660 H     1 <1>   0.0800 
 37 H       -7.7800     3.9820     1.5630 H     1 <1>   0.0800 
 38 H       -9.1090     2.7540    -0.1630 H     1 <1>   0.0800 
 39 H       -8.9570     4.1560    -1.2310 H     1 <1>   0.0800 
 40 H      -11.4450     3.0680    -0.1920 H     1 <1>   0.0800 
 41 H      -11.2850     4.5310    -1.1750 H     1 <1>   0.0800 
 42 H      -12.2320     5.8570     0.7400 H     1 <1>   0.0800 
 43 H      -12.4620     4.3510     1.6240 H     1 <1>   0.0800 
 44 H      -13.6780     5.1360    -0.8040 H     1 <1>   0.4000 
@<TRIPOS>BOND
  1   1   2  1   
  2   2   3  ar  
  3   2   4  ar  
  4   3   5  ar  
  5   3   6  1   
  6   4   7  ar  
  7   4  22  1   
  8   5   8  ar  
  9   5  23  1   
 10   6   9  1   
 11   6  24  1   
 12   6  25  1   
 13   7   8  ar  
 14   7  10  1   
 15   8  26  1   
 16   9  11  1   
 17   9  12  1   
 18   9  27  1   
 19  11  13  1   
 20  11  28  1   
 21  11  29  1   
 22  12  14  1   
 23  12  30  1   
 24  12  31  1   
 25  13  15  1   
 26  13  32  1   
 27  13  33  1   
 28  14  15  1   
 29  14  34  1   
 30  14  35  1   
 31  15  16  1   
 32  16  17  1   
 33  16  36  1   
 34  16  37  1   
 35  17  18  1   
 36  17  38  1   
 37  17  39  1   
 38  18  19  1   
 39  19  20  1   
 40  19  40  1   
 41  19  41  1   
 42  20  21  1   
 43  20  42  1   
 44  20  43  1   
 45  21  44  1   
@<TRIPOS>SUBSTRUCTURE
  1 ****  12 GROUP 4 **** **** 0

# MOE 2024.06 (io_trps.svl 2023.06)
