@<TRIPOS>MOLECULE
NONAME
37 38 1 0 0 
SMALL
USER_CHARGES


@<TRIPOS>ATOM
  1 S       -0.1930    -0.0230    -0.9800 S.3   1 <1>  -0.3610 
  2 C       -1.2210    -1.0090     0.0200 C.cat 1 <1>   0.8400 
  3 C        1.2040    -1.2160    -0.9670 C.3   1 <1>   0.1310 
  4 N       -2.4230    -0.6110     0.3340 N.pl3 1 <1>  -0.7940 
  5 N       -0.6340    -2.1440     0.3650 N.pl3 1 <1>  -0.7250 
  6 C        0.6530    -2.3420    -0.1110 C.2   1 <1>   0.8900 
  7 C       -3.1490     0.5850    -0.1350 C.3   1 <1>   0.4100 
  8 C       -1.2680    -3.2050     1.1830 C.3   1 <1>   0.3300 
  9 O        1.2960    -3.3250     0.1260 O.2   1 <1>  -0.5700 
 10 C       -4.6670     0.3350    -0.0330 C.3   1 <1>  -0.0160 
 11 C       -2.7310     1.7880     0.7090 C.3   1 <1>  -0.2400 
 12 C       -2.0310    -4.1570     0.2660 C.3   1 <1>  -0.2400 
 13 C       -5.0390    -1.1130    -0.3350 C.ar  1 <1>  -0.1440 
 14 C       -5.4710    -1.9500     0.6840 C.ar  1 <1>  -0.1500 
 15 C       -4.9310    -1.6090    -1.6250 C.ar  1 <1>  -0.1500 
 16 C       -5.7790    -3.2720     0.4170 C.ar  1 <1>  -0.1500 
 17 C       -5.2400    -2.9310    -1.8910 C.ar  1 <1>  -0.1500 
 18 C       -5.6610    -3.7640    -0.8710 C.ar  1 <1>  -0.1500 
 19 H        1.4000    -1.5330    -1.9740 H     1 <1>   0.0800 
 20 H        2.0580    -0.7470    -0.5160 H     1 <1>   0.0800 
 21 H       -3.0470    -1.2350     0.8470 H     1 <1>   0.4500 
 22 H       -2.9010     0.7670    -1.1690 H     1 <1>   0.0800 
 23 H       -0.5220    -3.7520     1.7380 H     1 <1>   0.0800 
 24 H       -1.9450    -2.7690     1.8990 H     1 <1>   0.0800 
 25 H       -5.0100     0.5920     0.9540 H     1 <1>   0.0800 
 26 H       -5.1790     0.9890    -0.7170 H     1 <1>   0.0800 
 27 H       -2.9370     1.6180     1.7510 H     1 <1>   0.0800 
 28 H       -3.2750     2.6620     0.3940 H     1 <1>   0.0800 
 29 H       -1.6830     1.9940     0.5870 H     1 <1>   0.0800 
 30 H       -1.3550    -4.6500    -0.4100 H     1 <1>   0.0800 
 31 H       -2.7810    -3.6310    -0.2960 H     1 <1>   0.0800 
 32 H       -2.5200    -4.9110     0.8560 H     1 <1>   0.0800 
 33 H       -5.5840    -1.5830     1.6910 H     1 <1>   0.1500 
 34 H       -4.6130    -0.9740    -2.4340 H     1 <1>   0.1500 
 35 H       -6.1210    -3.9190     1.2070 H     1 <1>   0.1500 
 36 H       -5.1600    -3.3130    -2.8950 H     1 <1>   0.1500 
 37 H       -5.9070    -4.7920    -1.0800 H     1 <1>   0.1500 
@<TRIPOS>BOND
  1   1   2  1   
  2   1   3  1   
  3   2   4  ar  
  4   2   5  ar  
  5   3   6  1   
  6   3  19  1   
  7   3  20  1   
  8   4   7  1   
  9   4  21  1   
 10   5   6  1   
 11   5   8  1   
 12   6   9  2   
 13   7  10  1   
 14   7  11  1   
 15   7  22  1   
 16   8  12  1   
 17   8  23  1   
 18   8  24  1   
 19  10  13  1   
 20  10  25  1   
 21  10  26  1   
 22  11  27  1   
 23  11  28  1   
 24  11  29  1   
 25  12  30  1   
 26  12  31  1   
 27  12  32  1   
 28  13  14  ar  
 29  13  15  ar  
 30  14  16  ar  
 31  14  33  1   
 32  15  17  ar  
 33  15  34  1   
 34  16  18  ar  
 35  16  35  1   
 36  17  18  ar  
 37  17  36  1   
 38  18  37  1   
@<TRIPOS>SUBSTRUCTURE
  1 ****   4 GROUP 4 **** **** 0

# MOE 2024.06 (io_trps.svl 2023.06)
