@<TRIPOS>MOLECULE
NONAME
39 40 1 0 0 
SMALL
USER_CHARGES


@<TRIPOS>ATOM
  1 O       -0.2540    -0.2030     0.9620 O.2   1 <1>  -0.5700 
  2 C       -0.9550    -1.1330     0.6420 C.2   1 <1>   0.5770 
  3 N       -2.1980    -0.9410     0.1360 N.am  1 <1>  -0.7300 
  4 C       -0.4480    -2.5580     0.8290 C.3   1 <1>   0.0530 
  5 C       -2.8490     0.3620    -0.0060 C.3   1 <1>   0.3640 
  6 C        1.0550    -2.7760     0.5020 C.3   1 <1>   0.0000 
  7 C       -0.7560    -3.5330    -0.3410 C.3   1 <1>   0.0000 
  8 C       -4.3540     0.1570     0.1370 C.ar  1 <1>  -0.1440 
  9 C       -2.4730     0.9620    -1.3580 C.3   1 <1>  -0.2400 
 10 C        0.6440    -4.1480    -0.0910 C.3   1 <1>   0.0000 
 11 C       -5.0790    -0.5850    -0.7880 C.ar  1 <1>  -0.1500 
 12 C       -5.0210     0.7150     1.2190 C.ar  1 <1>  -0.1500 
 13 C       -6.4440    -0.7640    -0.6390 C.ar  1 <1>  -0.1500 
 14 C       -6.3840     0.5380     1.3700 C.ar  1 <1>  -0.1500 
 15 C       -7.1060    -0.1990     0.4460 C.ar  1 <1>   0.0830 
 16 O       -8.4380    -0.3210     0.6690 O.3   1 <1>  -0.3630 
 17 C       -9.2710    -1.0230    -0.2230 C.3   1 <1>   0.1200 
 18 C      -10.6990    -0.9560     0.3110 C.3   1 <1>  -0.2400 
 19 H       -2.8140    -1.7320    -0.0450 H     1 <1>   0.3700 
 20 H       -0.7170    -2.9770     1.7840 H     1 <1>   0.0000 
 21 H       -2.4970     1.0180     0.7740 H     1 <1>   0.0800 
 22 H        1.6840    -2.8480     1.3710 H     1 <1>   0.0000 
 23 H        1.4300    -2.1010    -0.2490 H     1 <1>   0.0000 
 24 H       -0.8230    -3.0430    -1.2980 H     1 <1>   0.0000 
 25 H       -1.5700    -4.2070    -0.1440 H     1 <1>   0.0000 
 26 H       -2.7300     0.3000    -2.1630 H     1 <1>   0.0800 
 27 H       -1.4160     1.1580    -1.3850 H     1 <1>   0.0800 
 28 H       -2.9930     1.8920    -1.4950 H     1 <1>   0.0800 
 29 H        0.6290    -4.9330     0.6460 H     1 <1>   0.0000 
 30 H        1.1720    -4.4100    -0.9910 H     1 <1>   0.0000 
 31 H       -4.5840    -1.0290    -1.6340 H     1 <1>   0.1500 
 32 H       -4.4820     1.2900     1.9520 H     1 <1>   0.1500 
 33 H       -6.9710    -1.3410    -1.3740 H     1 <1>   0.1500 
 34 H       -6.9000     0.9710     2.2080 H     1 <1>   0.1500 
 35 H       -8.9320    -2.0430    -0.2750 H     1 <1>   0.0800 
 36 H       -9.2050    -0.5560    -1.1910 H     1 <1>   0.0800 
 37 H      -10.7490    -1.4100     1.2850 H     1 <1>   0.0800 
 38 H      -11.3610    -1.4850    -0.3500 H     1 <1>   0.0800 
 39 H      -11.0210     0.0680     0.3750 H     1 <1>   0.0800 
@<TRIPOS>BOND
  1   1   2  2   
  2   2   3  am  
  3   2   4  1   
  4   3   5  1   
  5   3  19  1   
  6   4   6  1   
  7   4   7  1   
  8   4  20  1   
  9   5   8  1   
 10   5   9  1   
 11   5  21  1   
 12   6  10  1   
 13   6  22  1   
 14   6  23  1   
 15   7  10  1   
 16   7  24  1   
 17   7  25  1   
 18   8  11  ar  
 19   8  12  ar  
 20   9  26  1   
 21   9  27  1   
 22   9  28  1   
 23  10  29  1   
 24  10  30  1   
 25  11  13  ar  
 26  11  31  1   
 27  12  14  ar  
 28  12  32  1   
 29  13  15  ar  
 30  13  33  1   
 31  14  15  ar  
 32  14  34  1   
 33  15  16  1   
 34  16  17  1   
 35  17  18  1   
 36  17  35  1   
 37  17  36  1   
 38  18  37  1   
 39  18  38  1   
 40  18  39  1   
@<TRIPOS>SUBSTRUCTURE
  1 ****   8 GROUP 4 **** **** 0

# MOE 2024.06 (io_trps.svl 2023.06)
