@<TRIPOS>MOLECULE
NONAME
44 46 1 0 0 
SMALL
USER_CHARGES


@<TRIPOS>ATOM
  1 S       -0.1800     0.4070    -1.3530 S.o2  1 <1>   1.4470 
  2 O       -0.0770     1.6960    -2.0000 O.2   1 <1>  -0.6500 
  3 O       -0.8180    -0.6890    -2.0520 O.2   1 <1>  -0.6500 
  4 N       -1.0430     0.6510     0.0820 N.am  1 <1>  -0.8490 
  5 C        1.4620    -0.0960    -0.7590 C.ar  1 <1>  -0.0090 
  6 C       -1.3730    -0.5640     0.8080 C.3   1 <1>   0.1960 
  7 C       -2.3080     1.3300    -0.1300 C.3   1 <1>   0.1960 
  8 C        2.1750     0.7020     0.1270 C.ar  1 <1>  -0.1500 
  9 C        2.0490    -1.2890    -1.1650 C.ar  1 <1>  -0.1500 
 10 C       -2.4430    -0.1270     1.8000 C.3   1 <1>  -0.1600 
 11 C       -3.0890     1.1020     1.1590 C.3   1 <1>  -0.1600 
 12 C        3.4240     0.3260     0.5880 C.ar  1 <1>  -0.1500 
 13 C        3.2980    -1.6660    -0.7040 C.ar  1 <1>  -0.1500 
 14 C        4.0200    -0.8650     0.1770 C.ar  1 <1>   0.0860 
 15 C        5.3330    -1.2690     0.6480 C.2   1 <1>   0.5440 
 16 O        5.4700    -2.3770     1.1310 O.2   1 <1>  -0.5700 
 17 N        6.4300    -0.4380     0.5560 N.am  1 <1>  -0.6600 
 18 C        7.7110    -0.8190     1.2260 C.3   1 <1>   0.1400 
 19 C        6.4580     0.7640    -0.3320 C.3   1 <1>   0.1400 
 20 C        8.5910     0.4140     1.4560 C.3   1 <1>  -0.1600 
 21 C        7.8530     0.9570    -0.9350 C.3   1 <1>  -0.1600 
 22 C        8.9350     1.1400     0.1440 C.3   1 <1>  -0.1600 
 23 H       -0.5070    -0.9710     1.3030 H     1 <1>   0.0800 
 24 H       -1.7870    -1.3020     0.1390 H     1 <1>   0.0800 
 25 H       -2.8320     0.8810    -0.9600 H     1 <1>   0.0800 
 26 H       -2.1550     2.3780    -0.3310 H     1 <1>   0.0800 
 27 H        1.7380     1.6290     0.4600 H     1 <1>   0.1500 
 28 H        1.5200    -1.9320    -1.8490 H     1 <1>   0.1500 
 29 H       -1.9780     0.1420     2.7330 H     1 <1>   0.0800 
 30 H       -3.1520    -0.9160     1.9740 H     1 <1>   0.0800 
 31 H       -4.1320     0.9460     0.9470 H     1 <1>   0.0800 
 32 H       -2.9860     1.9580     1.8030 H     1 <1>   0.0800 
 33 H        3.9500     0.9580     1.2830 H     1 <1>   0.1500 
 34 H        3.7320    -2.5980    -1.0260 H     1 <1>   0.1500 
 35 H        8.2300    -1.5320     0.6080 H     1 <1>   0.0800 
 36 H        7.4950    -1.2910     2.1710 H     1 <1>   0.0800 
 37 H        6.1920     1.6330     0.2450 H     1 <1>   0.0800 
 38 H        5.7420     0.6510    -1.1280 H     1 <1>   0.0800 
 39 H        9.4970     0.1210     1.9560 H     1 <1>   0.0800 
 40 H        8.0630     1.0830     2.1130 H     1 <1>   0.0800 
 41 H        7.8500     1.8090    -1.5910 H     1 <1>   0.0800 
 42 H        8.0820     0.0910    -1.5310 H     1 <1>   0.0800 
 43 H        9.8690     0.7690    -0.2410 H     1 <1>   0.0800 
 44 H        9.0640     2.1880     0.3550 H     1 <1>   0.0800 
@<TRIPOS>BOND
  1   1   2  2   
  2   1   3  2   
  3   1   4  am  
  4   1   5  1   
  5   4   6  1   
  6   4   7  1   
  7   5   8  ar  
  8   5   9  ar  
  9   6  10  1   
 10   6  23  1   
 11   6  24  1   
 12   7  11  1   
 13   7  25  1   
 14   7  26  1   
 15   8  12  ar  
 16   8  27  1   
 17   9  13  ar  
 18   9  28  1   
 19  10  11  1   
 20  10  29  1   
 21  10  30  1   
 22  11  31  1   
 23  11  32  1   
 24  12  14  ar  
 25  12  33  1   
 26  13  14  ar  
 27  13  34  1   
 28  14  15  1   
 29  15  16  2   
 30  15  17  am  
 31  17  18  1   
 32  17  19  1   
 33  18  20  1   
 34  18  35  1   
 35  18  36  1   
 36  19  21  1   
 37  19  37  1   
 38  19  38  1   
 39  20  22  1   
 40  20  39  1   
 41  20  40  1   
 42  21  22  1   
 43  21  41  1   
 44  21  42  1   
 45  22  43  1   
 46  22  44  1   
@<TRIPOS>SUBSTRUCTURE
  1 ****  12 GROUP 4 **** **** 0

# MOE 2024.06 (io_trps.svl 2023.06)
