@<TRIPOS>MOLECULE
NONAME
49 51 1 0 0 
SMALL
USER_CHARGES


@<TRIPOS>ATOM
  1 O        0.1900     0.1420    -0.3220 O.2   1 <1>  -0.5700 
  2 C        0.0540     1.3490    -0.2780 C.2   1 <1>   0.5440 
  3 N       -1.1830     1.8940    -0.0580 N.am  1 <1>  -0.5470 
  4 C        1.1960     2.2340    -0.4470 C.ar  1 <1>   0.0860 
  5 C       -2.4880     1.4040     0.0840 C.ar  1 <1>   0.1170 
  6 C        1.0460     3.5810    -0.7840 C.ar  1 <1>  -0.1500 
  7 C        2.4990     1.7690    -0.2740 C.ar  1 <1>  -0.1500 
  8 C       -3.4860     2.3780     0.2260 C.ar  1 <1>   0.1000 
  9 C       -2.8330     0.0600     0.0890 C.ar  1 <1>  -0.1500 
 10 C        2.1310     4.4260    -0.9260 C.ar  1 <1>   0.0830 
 11 C        3.5990     2.5970    -0.4150 C.ar  1 <1>   0.0830 
 12 N       -3.1350     3.7410     0.2210 N.pl3 1 <1>  -0.8380 
 13 C       -4.8080     1.9780     0.3680 C.ar  1 <1>  -0.1500 
 14 C       -4.1560    -0.3250     0.2320 C.ar  1 <1>  -0.1500 
 15 O        1.8520     5.7150    -1.2460 O.3   1 <1>  -0.3620 
 16 C        3.4180     3.9360    -0.7410 C.ar  1 <1>  -0.1500 
 17 O        4.8150     2.0270    -0.2180 O.3   1 <1>  -0.3620 
 18 C       -3.6110     4.5440    -0.9330 C.3   1 <1>   0.2090 
 19 C       -3.1680     4.4380     1.5410 C.3   1 <1>   0.2090 
 20 C       -5.1440     0.6350     0.3710 C.ar  1 <1>  -0.1500 
 21 C        2.8750     6.6670    -1.4350 C.3   1 <1>   0.0400 
 22 C        6.0100     2.7630    -0.3560 C.3   1 <1>   0.0400 
 23 C       -2.6980     5.7650    -1.1190 C.3   1 <1>  -0.1600 
 24 C       -3.0890     5.9660     1.3820 C.3   1 <1>  -0.1600 
 25 C       -2.1870     6.3680     0.2050 C.3   1 <1>  -0.1600 
 26 H       -1.2280     2.9150    -0.0020 H     1 <1>   0.3700 
 27 H        0.0680     3.9950    -0.9490 H     1 <1>   0.1500 
 28 H        2.6590     0.7350    -0.0210 H     1 <1>   0.1500 
 29 H       -2.0710    -0.6900    -0.0190 H     1 <1>   0.1500 
 30 H       -5.5720     2.7240     0.4760 H     1 <1>   0.1500 
 31 H       -4.4120    -1.3700     0.2340 H     1 <1>   0.1500 
 32 H        4.2630     4.5830    -0.8490 H     1 <1>   0.1500 
 33 H       -4.6200     4.8660    -0.7400 H     1 <1>   0.0800 
 34 H       -3.6130     3.9410    -1.8260 H     1 <1>   0.0800 
 35 H       -2.3210     4.0990     2.1140 H     1 <1>   0.0800 
 36 H       -4.0610     4.1680     2.0780 H     1 <1>   0.0800 
 37 H       -6.1710     0.3370     0.4820 H     1 <1>   0.1500 
 38 H        2.4150     7.6060    -1.6860 H     1 <1>   0.0800 
 39 H        3.5080     6.3450    -2.2420 H     1 <1>   0.0800 
 40 H        3.4330     6.7670    -0.5210 H     1 <1>   0.0800 
 41 H        6.8340     2.1000    -0.1620 H     1 <1>   0.0800 
 42 H        6.0110     3.5660     0.3600 H     1 <1>   0.0800 
 43 H        6.0740     3.1400    -1.3620 H     1 <1>   0.0800 
 44 H       -3.2490     6.5100    -1.6650 H     1 <1>   0.0800 
 45 H       -1.8560     5.4850    -1.7270 H     1 <1>   0.0800 
 46 H       -2.7180     6.3950     2.2950 H     1 <1>   0.0800 
 47 H       -4.0800     6.3540     1.2240 H     1 <1>   0.0800 
 48 H       -2.1290     7.4400     0.1250 H     1 <1>   0.0800 
 49 H       -1.1930     5.9990     0.3950 H     1 <1>   0.0800 
@<TRIPOS>BOND
  1   1   2  2   
  2   2   3  am  
  3   2   4  1   
  4   3   5  1   
  5   3  26  1   
  6   4   6  ar  
  7   4   7  ar  
  8   5   8  ar  
  9   5   9  ar  
 10   6  10  ar  
 11   6  27  1   
 12   7  11  ar  
 13   7  28  1   
 14   8  12  1   
 15   8  13  ar  
 16   9  14  ar  
 17   9  29  1   
 18  10  15  1   
 19  10  16  ar  
 20  11  16  ar  
 21  11  17  1   
 22  12  18  1   
 23  12  19  1   
 24  13  20  ar  
 25  13  30  1   
 26  14  20  ar  
 27  14  31  1   
 28  15  21  1   
 29  16  32  1   
 30  17  22  1   
 31  18  23  1   
 32  18  33  1   
 33  18  34  1   
 34  19  24  1   
 35  19  35  1   
 36  19  36  1   
 37  20  37  1   
 38  21  38  1   
 39  21  39  1   
 40  21  40  1   
 41  22  41  1   
 42  22  42  1   
 43  22  43  1   
 44  23  25  1   
 45  23  44  1   
 46  23  45  1   
 47  24  25  1   
 48  24  46  1   
 49  24  47  1   
 50  25  48  1   
 51  25  49  1   
@<TRIPOS>SUBSTRUCTURE
  1 ****   3 GROUP 4 **** **** 0

# MOE 2024.06 (io_trps.svl 2023.06)
