@<TRIPOS>MOLECULE
NONAME
46 48 1 0 0 
SMALL
USER_CHARGES


@<TRIPOS>ATOM
  1 O        3.5560     3.3000    -0.4040 O.3   1 <1>  -0.3630 
  2 C        4.7530     3.9180    -0.2400 C.ar  1 <1>   0.0830 
  3 C        2.3510     3.9300    -0.0300 C.3   1 <1>   0.1200 
  4 C        5.8770     3.2130    -0.6400 C.ar  1 <1>  -0.1500 
  5 C        4.9000     5.1940     0.2980 C.ar  1 <1>  -0.1500 
  6 C        1.2050     2.9740    -0.3450 C.3   1 <1>   0.1200 
  7 C        7.1380     3.7690    -0.5080 C.ar  1 <1>  -0.1500 
  8 C        6.1620     5.7480     0.4290 C.ar  1 <1>  -0.1500 
  9 O       -0.0010     3.5780     0.0220 O.3   1 <1>  -0.5600 
 10 C        7.2800     5.0370     0.0270 C.ar  1 <1>  -0.1500 
 11 C       -1.1250     2.8000    -0.2210 C.3   1 <1>   0.1200 
 12 C       -2.3480     3.6180     0.2110 C.3   1 <1>   0.3430 
 13 N       -3.6420     2.9030    -0.0270 N.4   1 <1>  -0.9590 
 14 C       -4.7930     3.8360     0.1360 C.3   1 <1>   0.4860 
 15 C       -3.8400     1.7170     0.8630 C.3   1 <1>   0.3430 
 16 C       -6.0950     3.1160    -0.1720 C.ar  1 <1>  -0.1430 
 17 C       -5.0220     0.8790     0.3690 C.3   1 <1>  -0.0170 
 18 C       -6.2090     1.7340    -0.0510 C.ar  1 <1>  -0.1430 
 19 C       -7.1960     3.8600    -0.5720 C.ar  1 <1>  -0.1500 
 20 C       -7.4170     1.1160    -0.3300 C.ar  1 <1>  -0.1500 
 21 C       -8.3990     3.2370    -0.8490 C.ar  1 <1>  -0.1500 
 22 C       -8.5100     1.8650    -0.7280 C.ar  1 <1>  -0.1500 
 23 H        2.2530     4.8370    -0.5990 H     1 <1>   0.0800 
 24 H        2.3910     4.1370     1.0250 H     1 <1>   0.0800 
 25 H        5.7600     2.2290    -1.0550 H     1 <1>   0.1500 
 26 H        4.0530     5.7690     0.6180 H     1 <1>   0.1500 
 27 H        1.3240     2.0630     0.2170 H     1 <1>   0.0800 
 28 H        1.1830     2.7650    -1.4010 H     1 <1>   0.0800 
 29 H        8.0060     3.2150    -0.8210 H     1 <1>   0.1500 
 30 H        6.2760     6.7340     0.8450 H     1 <1>   0.1500 
 31 H        8.2600     5.4710     0.1300 H     1 <1>   0.1500 
 32 H       -1.0360     1.8950     0.3540 H     1 <1>   0.0800 
 33 H       -1.1640     2.5800    -1.2740 H     1 <1>   0.0800 
 34 H       -2.3410     4.5390    -0.3500 H     1 <1>   0.0800 
 35 H       -2.2520     3.8590     1.2570 H     1 <1>   0.0800 
 36 H       -3.6930     2.5790    -1.0020 H     1 <1>   0.4500 
 37 H       -4.6850     4.6740    -0.5350 H     1 <1>   0.0800 
 38 H       -4.8270     4.2110     1.1460 H     1 <1>   0.0800 
 39 H       -4.0390     2.0520     1.8690 H     1 <1>   0.0800 
 40 H       -2.9550     1.1020     0.8810 H     1 <1>   0.0800 
 41 H       -5.3220     0.2040     1.1510 H     1 <1>   0.0800 
 42 H       -4.7080     0.2820    -0.4690 H     1 <1>   0.0800 
 43 H       -7.1360     4.9310    -0.6720 H     1 <1>   0.1500 
 44 H       -7.5200     0.0480    -0.2430 H     1 <1>   0.1500 
 45 H       -9.2520     3.8170    -1.1590 H     1 <1>   0.1500 
 46 H       -9.4470     1.3790    -0.9430 H     1 <1>   0.1500 
@<TRIPOS>BOND
  1   1   2  1   
  2   1   3  1   
  3   2   4  ar  
  4   2   5  ar  
  5   3   6  1   
  6   3  23  1   
  7   3  24  1   
  8   4   7  ar  
  9   4  25  1   
 10   5   8  ar  
 11   5  26  1   
 12   6   9  1   
 13   6  27  1   
 14   6  28  1   
 15   7  10  ar  
 16   7  29  1   
 17   8  10  ar  
 18   8  30  1   
 19   9  11  1   
 20  10  31  1   
 21  11  12  1   
 22  11  32  1   
 23  11  33  1   
 24  12  13  1   
 25  12  34  1   
 26  12  35  1   
 27  13  14  1   
 28  13  15  1   
 29  13  36  1   
 30  14  16  1   
 31  14  37  1   
 32  14  38  1   
 33  15  17  1   
 34  15  39  1   
 35  15  40  1   
 36  16  18  ar  
 37  16  19  ar  
 38  17  18  1   
 39  17  41  1   
 40  17  42  1   
 41  18  20  ar  
 42  19  21  ar  
 43  19  43  1   
 44  20  22  ar  
 45  20  44  1   
 46  21  22  ar  
 47  21  45  1   
 48  22  46  1   
@<TRIPOS>SUBSTRUCTURE
  1 ****  11 GROUP 4 **** **** 0

# MOE 2024.06 (io_trps.svl 2023.06)
