@<TRIPOS>MOLECULE
NONAME
34 34 1 0 0 
SMALL
USER_CHARGES


@<TRIPOS>ATOM
  1 S       -0.5640    -0.1870    -0.9030 S.o2  1 <1>   1.3330 
  2 O        0.7970    -0.2790    -1.3840 O.2   1 <1>  -0.6500 
  3 O       -0.9610     1.0320    -0.2410 O.2   1 <1>  -0.6500 
  4 N       -0.8240    -1.5400     0.1590 N.am  1 <1>  -0.6930 
  5 C       -1.6220    -0.4800    -2.3060 C.3   1 <1>  -0.1350 
  6 C       -0.0610    -2.6950     0.0070 C.ar  1 <1>   0.1990 
  7 C       -2.1450    -1.6660     0.8880 C.3   1 <1>   0.1700 
  8 C        1.2650    -2.7140     0.4220 C.ar  1 <1>  -0.1500 
  9 C       -0.5960    -3.8500    -0.5520 C.ar  1 <1>  -0.1500 
 10 C       -3.4170    -1.5320     0.0070 C.2   1 <1>   0.9060 
 11 C       -2.1230    -0.7550     2.1260 C.3   1 <1>  -0.2400 
 12 C        2.0410    -3.8530     0.2930 C.ar  1 <1>  -0.1440 
 13 C        0.1640    -4.9990    -0.6850 C.ar  1 <1>  -0.1440 
 14 O       -4.1980    -0.5850     0.1580 O.co2 1 <1>  -0.9000 
 15 O       -3.6180    -2.3810    -0.8740 O.co2 1 <1>  -0.9000 
 16 C        1.4830    -4.9960    -0.2590 C.ar  1 <1>  -0.1500 
 17 C        3.4880    -3.8530     0.7490 C.3   1 <1>  -0.0970 
 18 C       -0.4360    -6.2520    -1.2940 C.3   1 <1>  -0.0970 
 19 H       -1.3320     0.1510    -3.1210 H     1 <1>   0.0800 
 20 H       -2.6430    -0.2610    -2.0640 H     1 <1>   0.0800 
 21 H       -1.5540    -1.5040    -2.6150 H     1 <1>   0.0800 
 22 H       -2.1990    -2.6690     1.2680 H     1 <1>   0.0800 
 23 H        1.6750    -1.8150     0.8430 H     1 <1>   0.1500 
 24 H       -1.6180    -3.8370    -0.8860 H     1 <1>   0.1500 
 25 H       -2.1800     0.2780     1.8340 H     1 <1>   0.0800 
 26 H       -1.2300    -0.9220     2.7000 H     1 <1>   0.0800 
 27 H       -2.9800    -0.9680     2.7380 H     1 <1>   0.0800 
 28 H        2.0780    -5.8860    -0.3610 H     1 <1>   0.1500 
 29 H        3.8630    -2.8470     0.8110 H     1 <1>   0.0800 
 30 H        4.0970    -4.3990     0.0510 H     1 <1>   0.0800 
 31 H        3.5640    -4.3130     1.7170 H     1 <1>   0.0800 
 32 H       -1.4830    -6.1130    -1.4970 H     1 <1>   0.0800 
 33 H       -0.3260    -7.0790    -0.6150 H     1 <1>   0.0800 
 34 H        0.0640    -6.4850    -2.2160 H     1 <1>   0.0800 
@<TRIPOS>BOND
  1   1   2  2   
  2   1   3  2   
  3   1   4  am  
  4   1   5  1   
  5   4   6  1   
  6   4   7  1   
  7   5  19  1   
  8   5  20  1   
  9   5  21  1   
 10   6   8  ar  
 11   6   9  ar  
 12   7  10  1   
 13   7  11  1   
 14   7  22  1   
 15   8  12  ar  
 16   8  23  1   
 17   9  13  ar  
 18   9  24  1   
 19  10  14  ar  
 20  10  15  ar  
 21  11  25  1   
 22  11  26  1   
 23  11  27  1   
 24  12  16  ar  
 25  12  17  1   
 26  13  16  ar  
 27  13  18  1   
 28  16  28  1   
 29  17  29  1   
 30  17  30  1   
 31  17  31  1   
 32  18  32  1   
 33  18  33  1   
 34  18  34  1   
@<TRIPOS>SUBSTRUCTURE
  1 ****   6 GROUP 4 **** **** 0

# MOE 2024.06 (io_trps.svl 2023.06)
