@<TRIPOS>MOLECULE
NONAME
48 49 1 0 0 
SMALL
USER_CHARGES


@<TRIPOS>ATOM
  1 S       -0.0980    -0.0450     0.5290 S.o2  1 <1>   1.4470 
  2 O        0.0440    -0.4360     1.9160 O.2   1 <1>  -0.6500 
  3 O        0.0080    -1.0490    -0.5070 O.2   1 <1>  -0.6500 
  4 N       -1.6380     0.6540     0.3850 N.am  1 <1>  -0.8490 
  5 C        1.0160     1.3340     0.1440 C.ar  1 <1>  -0.0090 
  6 C       -1.9060     1.6120     1.4610 C.3   1 <1>   0.1960 
  7 C       -2.6800    -0.3760     0.3270 C.3   1 <1>   0.1960 
  8 C        0.9570     1.9740    -1.0890 C.ar  1 <1>  -0.1500 
  9 C        1.9470     1.7960     1.0700 C.ar  1 <1>  -0.1500 
 10 C       -3.2220     2.3440     1.1900 C.3   1 <1>  -0.1600 
 11 C       -4.0340     0.2670     0.0190 C.3   1 <1>  -0.1600 
 12 C        1.7900     3.0380    -1.3860 C.ar  1 <1>  -0.1500 
 13 C        2.7850     2.8600     0.7830 C.ar  1 <1>  -0.1500 
 14 C       -4.3890     1.3500     1.0530 C.3   1 <1>  -0.0190 
 15 C        2.7080     3.4910    -0.4550 C.ar  1 <1>   0.0830 
 16 C       -5.7030     2.0530     0.7270 C.2   1 <1>   0.5690 
 17 O        3.4830     4.5400    -0.8200 O.3   1 <1>  -0.3630 
 18 O       -6.6150     1.9790     1.5130 O.2   1 <1>  -0.5700 
 19 N       -5.8230     2.7410    -0.4380 N.am  1 <1>  -0.7300 
 20 C        4.4690     5.0630     0.0400 C.3   1 <1>   0.1200 
 21 C       -7.0330     3.5010    -0.8380 C.3   1 <1>   0.1400 
 22 C        5.1610     6.2160    -0.6810 C.3   1 <1>  -0.2400 
 23 C       -8.0510     2.5700    -1.5030 C.3   1 <1>   0.1200 
 24 O       -9.1810     3.2970    -1.8480 O.3   1 <1>  -0.6800 
 25 H       -1.1110     2.3370     1.5130 H     1 <1>   0.0800 
 26 H       -1.9580     1.1010     2.4100 H     1 <1>   0.0800 
 27 H       -2.7210    -0.9100     1.2640 H     1 <1>   0.0800 
 28 H       -2.4520    -1.0850    -0.4520 H     1 <1>   0.0800 
 29 H        0.2480     1.6310    -1.8240 H     1 <1>   0.1500 
 30 H        2.0160     1.3140     2.0310 H     1 <1>   0.1500 
 31 H       -3.1140     2.9230     0.2900 H     1 <1>   0.0800 
 32 H       -3.4240     3.0240     1.9980 H     1 <1>   0.0800 
 33 H       -4.7960    -0.4930     0.0200 H     1 <1>   0.0800 
 34 H       -3.9930     0.6900    -0.9690 H     1 <1>   0.0800 
 35 H        1.7350     3.5240    -2.3440 H     1 <1>   0.1500 
 36 H        3.4870     3.1800     1.5290 H     1 <1>   0.1500 
 37 H       -4.5180     0.8640     2.0050 H     1 <1>   0.0800 
 38 H       -5.0390     2.7590    -1.0940 H     1 <1>   0.3700 
 39 H        5.1720     4.2800     0.2680 H     1 <1>   0.0800 
 40 H        3.9880     5.4090     0.9380 H     1 <1>   0.0800 
 41 H       -6.7520     4.2830    -1.5220 H     1 <1>   0.0800 
 42 H       -7.4730     3.9430     0.0390 H     1 <1>   0.0800 
 43 H        5.6240     5.8620    -1.5850 H     1 <1>   0.0800 
 44 H        5.9210     6.6370    -0.0490 H     1 <1>   0.0800 
 45 H        4.4480     6.9840    -0.9190 H     1 <1>   0.0800 
 46 H       -8.3470     1.7830    -0.8300 H     1 <1>   0.0800 
 47 H       -7.6440     2.1480    -2.4050 H     1 <1>   0.0800 
 48 H       -9.6800     3.5510    -1.0470 H     1 <1>   0.4000 
@<TRIPOS>BOND
  1   1   2  2   
  2   1   3  2   
  3   1   4  am  
  4   1   5  1   
  5   4   6  1   
  6   4   7  1   
  7   5   8  ar  
  8   5   9  ar  
  9   6  10  1   
 10   6  25  1   
 11   6  26  1   
 12   7  11  1   
 13   7  27  1   
 14   7  28  1   
 15   8  12  ar  
 16   8  29  1   
 17   9  13  ar  
 18   9  30  1   
 19  10  14  1   
 20  10  31  1   
 21  10  32  1   
 22  11  14  1   
 23  11  33  1   
 24  11  34  1   
 25  12  15  ar  
 26  12  35  1   
 27  13  15  ar  
 28  13  36  1   
 29  14  16  1   
 30  14  37  1   
 31  15  17  1   
 32  16  18  2   
 33  16  19  am  
 34  17  20  1   
 35  19  21  1   
 36  19  38  1   
 37  20  22  1   
 38  20  39  1   
 39  20  40  1   
 40  21  23  1   
 41  21  41  1   
 42  21  42  1   
 43  22  43  1   
 44  22  44  1   
 45  22  45  1   
 46  23  24  1   
 47  23  46  1   
 48  23  47  1   
 49  24  48  1   
@<TRIPOS>SUBSTRUCTURE
  1 ****   4 GROUP 4 **** **** 0

# MOE 2024.06 (io_trps.svl 2023.06)
