@<TRIPOS>MOLECULE
NONAME
38 40 1 0 0 
SMALL
USER_CHARGES


@<TRIPOS>ATOM
  1 F       -0.6910     0.0690    -0.7740 F     1 <1>  -0.1900 
  2 C       -0.2920    -1.0010    -0.1330 C.ar  1 <1>   0.1900 
  3 C       -1.1900    -1.6630     0.7050 C.ar  1 <1>   0.1170 
  4 C        1.0090    -1.4240    -0.3220 C.ar  1 <1>  -0.1500 
  5 N       -2.5090    -1.2070     0.8770 N.am  1 <1>  -0.5470 
  6 C       -0.7160    -2.7810     1.3840 C.ar  1 <1>  -0.1500 
  7 C        1.4490    -2.5500     0.3540 C.ar  1 <1>  -0.1500 
  8 C       -3.7110    -1.8350     0.7640 C.2   1 <1>   0.5690 
  9 C        0.5860    -3.2230     1.2060 C.ar  1 <1>  -0.1500 
 10 O       -4.7140    -1.2170     1.0140 O.2   1 <1>  -0.5700 
 11 C       -3.8260    -3.2950     0.3030 C.3   1 <1>  -0.0190 
 12 C       -4.7010    -3.4150    -0.9710 C.3   1 <1>  -0.1600 
 13 C       -4.3280    -4.2030     1.4530 C.3   1 <1>  -0.1600 
 14 C       -5.1070    -4.8580    -1.3430 C.3   1 <1>  -0.0190 
 15 C       -4.7490    -5.6260     1.0210 C.3   1 <1>  -0.0190 
 16 C       -5.7260    -5.5190    -0.1300 C.2   1 <1>   0.4480 
 17 C       -3.9480    -5.7460    -1.8500 C.3   1 <1>  -0.1600 
 18 C       -3.5810    -6.5420     0.5920 C.3   1 <1>  -0.1600 
 19 O       -6.8510    -5.9180    -0.0880 O.2   1 <1>  -0.5700 
 20 C       -2.9400    -6.1970    -0.7700 C.3   1 <1>  -0.1600 
 21 H        1.6620    -0.8830    -0.9830 H     1 <1>   0.1500 
 22 H       -2.6150    -0.1990     1.0020 H     1 <1>   0.3700 
 23 H       -1.3650    -3.3050     2.0610 H     1 <1>   0.1500 
 24 H        2.4600    -2.8980     0.2210 H     1 <1>   0.1500 
 25 H        0.9350    -4.0930     1.7370 H     1 <1>   0.1500 
 26 H       -2.8440    -3.6070     0.0320 H     1 <1>   0.0800 
 27 H       -4.1950    -2.9520    -1.8010 H     1 <1>   0.0800 
 28 H       -5.6110    -2.8610    -0.8070 H     1 <1>   0.0800 
 29 H       -3.5820    -4.2640     2.2250 H     1 <1>   0.0800 
 30 H       -5.1940    -3.7330     1.8900 H     1 <1>   0.0800 
 31 H       -5.8540    -4.8070    -2.1160 H     1 <1>   0.0800 
 32 H       -5.2550    -6.0910     1.8490 H     1 <1>   0.0800 
 33 H       -4.3900    -6.6350    -2.2690 H     1 <1>   0.0800 
 34 H       -3.4270    -5.2490    -2.6500 H     1 <1>   0.0800 
 35 H       -3.9740    -7.5420     0.5190 H     1 <1>   0.0800 
 36 H       -2.8250    -6.5580     1.3580 H     1 <1>   0.0800 
 37 H       -2.1840    -5.4470    -0.6390 H     1 <1>   0.0800 
 38 H       -2.4160    -7.0660    -1.1320 H     1 <1>   0.0800 
@<TRIPOS>BOND
  1   1   2  1   
  2   2   3  ar  
  3   2   4  ar  
  4   3   5  1   
  5   3   6  ar  
  6   4   7  ar  
  7   4  21  1   
  8   5   8  am  
  9   5  22  1   
 10   6   9  ar  
 11   6  23  1   
 12   7   9  ar  
 13   7  24  1   
 14   8  10  2   
 15   8  11  1   
 16   9  25  1   
 17  11  12  1   
 18  11  13  1   
 19  11  26  1   
 20  12  14  1   
 21  12  27  1   
 22  12  28  1   
 23  13  15  1   
 24  13  29  1   
 25  13  30  1   
 26  14  16  1   
 27  14  17  1   
 28  14  31  1   
 29  15  16  1   
 30  15  18  1   
 31  15  32  1   
 32  16  19  2   
 33  17  20  1   
 34  17  33  1   
 35  17  34  1   
 36  18  20  1   
 37  18  35  1   
 38  18  36  1   
 39  20  37  1   
 40  20  38  1   
@<TRIPOS>SUBSTRUCTURE
  1 ****  11 GROUP 4 **** **** 0

# MOE 2024.06 (io_trps.svl 2023.06)
