@<TRIPOS>MOLECULE
NONAME
40 42 1 0 0 
SMALL
USER_CHARGES


@<TRIPOS>ATOM
  1 O       -0.8350     0.4640    -1.2000 O.2   1 <1>  -0.5700 
  2 C       -1.8160     0.5370    -0.5060 C.2   1 <1>   0.5690 
  3 N       -2.5450     1.6790    -0.5640 N.am  1 <1>  -0.7300 
  4 C       -2.1520    -0.6680     0.3460 C.3   1 <1>  -0.0990 
  5 C       -3.7940     2.2240     0.0110 C.3   1 <1>   0.3000 
  6 C       -3.2330    -1.5080    -0.3240 C.3   1 <1>   0.1200 
  7 C       -4.2380     1.5740     1.3370 C.3   1 <1>  -0.1600 
  8 C       -4.9190     2.0770    -1.0300 C.3   1 <1>  -0.1600 
  9 C       -3.5430     3.7240     0.2580 C.3   1 <1>  -0.1600 
 10 O       -3.6310    -2.4910     0.5740 O.3   1 <1>  -0.5600 
 11 C       -5.5200     2.2500     1.8610 C.3   1 <1>  -0.0800 
 12 C       -6.2100     2.7480    -0.5180 C.3   1 <1>  -0.0800 
 13 C       -4.8210     4.4130     0.7730 C.3   1 <1>  -0.0800 
 14 C       -4.6000    -3.3530     0.0710 C.3   1 <1>   0.0400 
 15 C       -6.6350     2.0900     0.8090 C.3   1 <1>  -0.1600 
 16 C       -5.2520     3.7480     2.0920 C.3   1 <1>  -0.1600 
 17 C       -5.9400     4.2440    -0.2720 C.3   1 <1>  -0.1600 
 18 H       -2.1290     2.3450    -1.2140 H     1 <1>   0.3700 
 19 H       -2.4420    -0.3640     1.3300 H     1 <1>   0.0800 
 20 H       -1.2670    -1.2700     0.4450 H     1 <1>   0.0800 
 21 H       -2.8450    -1.9760    -1.2130 H     1 <1>   0.0800 
 22 H       -4.0890    -0.9060    -0.5730 H     1 <1>   0.0800 
 23 H       -4.4620     0.5360     1.1910 H     1 <1>   0.0800 
 24 H       -3.4580     1.6670     2.0710 H     1 <1>   0.0800 
 25 H       -5.1100     1.0370    -1.2180 H     1 <1>   0.0800 
 26 H       -4.6230     2.5360    -1.9560 H     1 <1>   0.0800 
 27 H       -3.2320     4.2010    -0.6540 H     1 <1>   0.0800 
 28 H       -2.7570     3.8430     0.9840 H     1 <1>   0.0800 
 29 H       -5.8230     1.7880     2.7850 H     1 <1>   0.0800 
 30 H       -6.9940     2.6350    -1.2480 H     1 <1>   0.0800 
 31 H       -4.6310     5.4600     0.9380 H     1 <1>   0.0800 
 32 H       -4.8380    -4.0710     0.8360 H     1 <1>   0.0800 
 33 H       -4.2090    -3.8610    -0.7940 H     1 <1>   0.0800 
 34 H       -5.4800    -2.7890    -0.1850 H     1 <1>   0.0800 
 35 H       -6.8410     1.0450     0.6500 H     1 <1>   0.0800 
 36 H       -7.5410     2.5470     1.1680 H     1 <1>   0.0800 
 37 H       -4.4810     3.8710     2.8330 H     1 <1>   0.0800 
 38 H       -6.1420     4.2240     2.4660 H     1 <1>   0.0800 
 39 H       -5.6540     4.7200    -1.1940 H     1 <1>   0.0800 
 40 H       -6.8380     4.7240     0.0760 H     1 <1>   0.0800 
@<TRIPOS>BOND
  1   1   2  2   
  2   2   3  am  
  3   2   4  1   
  4   3   5  1   
  5   3  18  1   
  6   4   6  1   
  7   4  19  1   
  8   4  20  1   
  9   5   7  1   
 10   5   8  1   
 11   5   9  1   
 12   6  10  1   
 13   6  21  1   
 14   6  22  1   
 15   7  11  1   
 16   7  23  1   
 17   7  24  1   
 18   8  12  1   
 19   8  25  1   
 20   8  26  1   
 21   9  13  1   
 22   9  27  1   
 23   9  28  1   
 24  10  14  1   
 25  11  15  1   
 26  11  16  1   
 27  11  29  1   
 28  12  15  1   
 29  12  17  1   
 30  12  30  1   
 31  13  16  1   
 32  13  17  1   
 33  13  31  1   
 34  14  32  1   
 35  14  33  1   
 36  14  34  1   
 37  15  35  1   
 38  15  36  1   
 39  16  37  1   
 40  16  38  1   
 41  17  39  1   
 42  17  40  1   
@<TRIPOS>SUBSTRUCTURE
  1 ****   5 GROUP 4 **** **** 0

# MOE 2024.06 (io_trps.svl 2023.06)
