@<TRIPOS>MOLECULE
NONAME
37 38 1 0 0 
SMALL
USER_CHARGES


@<TRIPOS>ATOM
  1 S        0.6060    -0.1680     0.0320 S.3   1 <1>  -0.2860 
  2 C       -1.1630    -0.4730    -0.0480 C.2   1 <1>   0.2420 
  3 C        1.3020    -1.4740    -1.0970 C.3   1 <1>   0.1310 
  4 N       -1.7020    -1.4160    -0.7150 N.2   1 <1>  -0.3380 
  5 N       -2.0620     0.2560     0.5810 N.pl3 1 <1>   0.3140 
  6 C        2.8210    -1.4210    -1.1510 C.2   1 <1>   0.5690 
  7 N       -3.0070    -1.2690    -0.4910 N.2   1 <1>   0.0000 
  8 N       -3.2360    -0.2660     0.2880 N.2   1 <1>  -0.4180 
  9 C       -1.8810     1.4290     1.4490 C.3   1 <1>   0.0160 
 10 O        3.3760    -1.9010    -2.1100 O.2   1 <1>  -0.5700 
 11 N        3.5140    -0.8550    -0.1280 N.am  1 <1>  -0.7300 
 12 C        4.9780    -0.7280    -0.0450 C.3   1 <1>   0.2200 
 13 C        5.4420    -1.5230     1.1810 C.3   1 <1>  -0.1600 
 14 C        5.3190     0.7680    -0.0140 C.3   1 <1>  -0.1600 
 15 C        6.9480    -1.4350     1.4830 C.3   1 <1>  -0.1600 
 16 C        6.8140     1.0330    -0.2540 C.3   1 <1>  -0.1600 
 17 C        7.3520    -0.0700     2.0580 C.3   1 <1>  -0.1600 
 18 C        7.6890     1.0010     1.0090 C.3   1 <1>  -0.1600 
 19 H        0.8890    -1.3040    -2.0740 H     1 <1>   0.0800 
 20 H        0.9770    -2.4280    -0.7260 H     1 <1>   0.0800 
 21 H       -1.4120     2.2150     0.8880 H     1 <1>   0.0800 
 22 H       -1.2620     1.1590     2.2850 H     1 <1>   0.0800 
 23 H       -2.8400     1.7610     1.8040 H     1 <1>   0.0800 
 24 H        2.9960    -0.4250     0.6400 H     1 <1>   0.3700 
 25 H        5.4170    -1.1650    -0.9270 H     1 <1>   0.0800 
 26 H        5.2010    -2.5570     1.0050 H     1 <1>   0.0800 
 27 H        4.8920    -1.2030     2.0480 H     1 <1>   0.0800 
 28 H        5.0000     1.2170     0.9100 H     1 <1>   0.0800 
 29 H        4.7800     1.2400    -0.8170 H     1 <1>   0.0800 
 30 H        7.5280    -1.6680     0.6070 H     1 <1>   0.0800 
 31 H        7.1730    -2.1840     2.2220 H     1 <1>   0.0800 
 32 H        6.9240     2.0050    -0.7040 H     1 <1>   0.0800 
 33 H        7.1910     0.3200    -0.9680 H     1 <1>   0.0800 
 34 H        8.2220    -0.2040     2.6780 H     1 <1>   0.0800 
 35 H        6.5700     0.2930     2.7030 H     1 <1>   0.0800 
 36 H        7.6330     1.9620     1.4910 H     1 <1>   0.0800 
 37 H        8.7110     0.8690     0.6970 H     1 <1>   0.0800 
@<TRIPOS>BOND
  1   1   2  1   
  2   1   3  1   
  3   2   4  2   
  4   2   5  1   
  5   3   6  1   
  6   3  19  1   
  7   3  20  1   
  8   4   7  1   
  9   5   8  1   
 10   5   9  1   
 11   6  10  2   
 12   6  11  am  
 13   7   8  2   
 14   9  21  1   
 15   9  22  1   
 16   9  23  1   
 17  11  12  1   
 18  11  24  1   
 19  12  13  1   
 20  12  14  1   
 21  12  25  1   
 22  13  15  1   
 23  13  26  1   
 24  13  27  1   
 25  14  16  1   
 26  14  28  1   
 27  14  29  1   
 28  15  17  1   
 29  15  30  1   
 30  15  31  1   
 31  16  18  1   
 32  16  32  1   
 33  16  33  1   
 34  17  18  1   
 35  17  34  1   
 36  17  35  1   
 37  18  36  1   
 38  18  37  1   
@<TRIPOS>SUBSTRUCTURE
  1 ****  11 GROUP 4 **** **** 0

# MOE 2024.06 (io_trps.svl 2023.06)
