@<TRIPOS>MOLECULE
NONAME
32 32 1 0 0 
SMALL
USER_CHARGES


@<TRIPOS>ATOM
  1 BR      -2.4870    -0.3680     1.7270 Br    1 <1>  -0.1110 
  2 C       -1.4400    -1.8900     1.1580 C.ar  1 <1>   0.1110 
  3 C       -1.8650    -2.6670     0.0820 C.ar  1 <1>   0.0820 
  4 C       -0.2750    -2.1610     1.8480 C.ar  1 <1>  -0.1500 
  5 O       -3.0110    -2.3770    -0.5800 O.3   1 <1>  -0.3630 
  6 C       -1.0820    -3.7430    -0.3300 C.ar  1 <1>  -0.1440 
  7 C        0.4790    -3.2410     1.4320 C.ar  1 <1>   0.1770 
  8 C       -4.2230    -2.6980     0.0600 C.3   1 <1>   0.1200 
  9 C        0.0910    -4.0260     0.3580 C.ar  1 <1>  -0.1500 
 10 C       -1.4890    -4.6040    -1.5180 C.3   1 <1>  -0.0960 
 11 CL       1.9570    -3.6230     2.2770 Cl    1 <1>  -0.1770 
 12 C       -5.2250    -1.5980    -0.3000 C.3   1 <1>   0.3430 
 13 N       -6.5130    -1.7560     0.4380 N.4   1 <1>  -0.9060 
 14 C       -7.4850    -0.7020     0.1140 C.3   1 <1>   0.4810 
 15 C       -8.7460    -1.0760     0.8500 C.2   1 <1>  -0.2880 
 16 C       -9.8620    -1.5440     0.2800 C.2   1 <1>  -0.3000 
 17 H        0.0420    -1.5560     2.6770 H     1 <1>   0.1500 
 18 H       -4.0600    -2.7400     1.1230 H     1 <1>   0.0800 
 19 H       -4.5400    -3.6590    -0.3040 H     1 <1>   0.0800 
 20 H        0.7160    -4.8530     0.0690 H     1 <1>   0.1500 
 21 H       -1.6960    -3.9810    -2.3700 H     1 <1>   0.0800 
 22 H       -2.3690    -5.1720    -1.2780 H     1 <1>   0.0800 
 23 H       -0.7030    -5.2880    -1.7850 H     1 <1>   0.0800 
 24 H       -5.4060    -1.6270    -1.3620 H     1 <1>   0.0800 
 25 H       -4.7860    -0.6450    -0.0530 H     1 <1>   0.0800 
 26 H       -6.3580    -1.7450     1.4530 H     1 <1>   0.4500 
 27 H       -6.9630    -2.6530     0.2170 H     1 <1>   0.4500 
 28 H       -7.6740    -0.6820    -0.9480 H     1 <1>   0.0800 
 29 H       -7.1330     0.2680     0.4280 H     1 <1>   0.0800 
 30 H       -8.6740    -0.9210     1.9140 H     1 <1>   0.1500 
 31 H      -10.7530    -1.7990     0.8320 H     1 <1>   0.1500 
 32 H      -10.0000    -1.7130    -0.7760 H     1 <1>   0.1500 
@<TRIPOS>BOND
  1   1   2  1   
  2   2   3  ar  
  3   2   4  ar  
  4   3   5  1   
  5   3   6  ar  
  6   4   7  ar  
  7   4  17  1   
  8   5   8  1   
  9   6   9  ar  
 10   6  10  1   
 11   7   9  ar  
 12   7  11  1   
 13   8  12  1   
 14   8  18  1   
 15   8  19  1   
 16   9  20  1   
 17  10  21  1   
 18  10  22  1   
 19  10  23  1   
 20  12  13  1   
 21  12  24  1   
 22  12  25  1   
 23  13  14  1   
 24  13  26  1   
 25  13  27  1   
 26  14  15  1   
 27  14  28  1   
 28  14  29  1   
 29  15  16  2   
 30  15  30  1   
 31  16  31  1   
 32  16  32  1   
@<TRIPOS>SUBSTRUCTURE
  1 ****   5 GROUP 4 **** **** 0

# MOE 2024.06 (io_trps.svl 2023.06)
