@<TRIPOS>MOLECULE
NONAME
38 38 1 0 0 
SMALL
USER_CHARGES


@<TRIPOS>ATOM
  1 CL       0.8540    -0.5350    -3.1150 Cl    1 <1>  -0.1770 
  2 C        2.0680    -1.2850    -2.1250 C.ar  1 <1>   0.7970 
  3 N        3.1710    -0.6130    -1.9820 N.ar  1 <1>  -0.6200 
  4 N        1.7530    -2.4420    -1.6270 N.ar  1 <1>  -0.6200 
  5 C        4.0350    -1.2340    -1.2290 C.ar  1 <1>   0.7200 
  6 C        2.7090    -2.9470    -0.8980 C.ar  1 <1>   0.7200 
  7 N        3.8690    -2.3960    -0.6640 N.ar  1 <1>  -0.6200 
  8 N        5.1940    -0.5620    -1.0590 N.pl3 1 <1>  -0.8690 
  9 N        2.4060    -4.1500    -0.3610 N.pl3 1 <1>  -0.8690 
 10 C        6.2150    -0.7060    -0.0090 C.3   1 <1>   0.3690 
 11 C        3.2210    -5.1300     0.3540 C.3   1 <1>   0.3690 
 12 C        6.8750    -2.1110    -0.0650 C.3   1 <1>   0.1200 
 13 C        5.5650    -0.4340     1.3510 C.3   1 <1>  -0.2400 
 14 C        7.2410     0.3930    -0.3040 C.3   1 <1>  -0.2400 
 15 C        2.3090    -6.3270     0.6100 C.3   1 <1>  -0.2400 
 16 C        3.6830    -4.5510     1.6910 C.3   1 <1>  -0.2400 
 17 C        4.3990    -5.5670    -0.5160 C.3   1 <1>  -0.2400 
 18 O        8.0040    -2.2080     0.7550 O.3   1 <1>  -0.6800 
 19 H        5.1730     0.3620    -1.4850 H     1 <1>   0.4000 
 20 H        1.4880    -4.4910    -0.6300 H     1 <1>   0.4000 
 21 H        7.1770    -2.3390    -1.0710 H     1 <1>   0.0800 
 22 H        6.1830    -2.8600     0.2700 H     1 <1>   0.0800 
 23 H        4.8390    -1.1910     1.5810 H     1 <1>   0.0800 
 24 H        5.0850     0.5280     1.3580 H     1 <1>   0.0800 
 25 H        6.3120    -0.4500     2.1240 H     1 <1>   0.0800 
 26 H        7.7170     0.2140    -1.2520 H     1 <1>   0.0800 
 27 H        7.9970     0.4160     0.4590 H     1 <1>   0.0800 
 28 H        6.7670     1.3580    -0.3240 H     1 <1>   0.0800 
 29 H        1.4630    -6.0340     1.2070 H     1 <1>   0.0800 
 30 H        2.8450    -7.0930     1.1410 H     1 <1>   0.0800 
 31 H        1.9620    -6.7420    -0.3190 H     1 <1>   0.0800 
 32 H        2.8400    -4.2000     2.2570 H     1 <1>   0.0800 
 33 H        4.3660    -3.7370     1.5420 H     1 <1>   0.0800 
 34 H        4.1910    -5.3050     2.2640 H     1 <1>   0.0800 
 35 H        4.0490    -5.9300    -1.4650 H     1 <1>   0.0800 
 36 H        4.9450    -6.3540    -0.0290 H     1 <1>   0.0800 
 37 H        5.0760    -4.7520    -0.6840 H     1 <1>   0.0800 
 38 H        8.7150    -1.6260     0.4250 H     1 <1>   0.4000 
@<TRIPOS>BOND
  1   1   2  1   
  2   2   3  ar  
  3   2   4  ar  
  4   3   5  ar  
  5   4   6  ar  
  6   5   7  ar  
  7   5   8  1   
  8   6   7  ar  
  9   6   9  1   
 10   8  10  1   
 11   8  19  1   
 12   9  11  1   
 13   9  20  1   
 14  10  12  1   
 15  10  13  1   
 16  10  14  1   
 17  11  15  1   
 18  11  16  1   
 19  11  17  1   
 20  12  18  1   
 21  12  21  1   
 22  12  22  1   
 23  13  23  1   
 24  13  24  1   
 25  13  25  1   
 26  14  26  1   
 27  14  27  1   
 28  14  28  1   
 29  15  29  1   
 30  15  30  1   
 31  15  31  1   
 32  16  32  1   
 33  16  33  1   
 34  16  34  1   
 35  17  35  1   
 36  17  36  1   
 37  17  37  1   
 38  18  38  1   
@<TRIPOS>SUBSTRUCTURE
  1 ****   7 GROUP 4 **** **** 0

# MOE 2024.06 (io_trps.svl 2023.06)
