@<TRIPOS>MOLECULE
NONAME
40 41 1 0 0 
SMALL
USER_CHARGES


@<TRIPOS>ATOM
  1 S       -0.1320    -0.3590    -0.2070 S.o2  1 <1>   1.4470 
  2 O       -0.6760    -0.8300     1.0460 O.2   1 <1>  -0.6500 
  3 O       -0.4330    -1.0590    -1.4340 O.2   1 <1>  -0.6500 
  4 N       -0.7200     1.1850    -0.4870 N.am  1 <1>  -0.9140 
  5 C        1.6570    -0.1090    -0.0550 C.ar  1 <1>  -0.0090 
  6 C       -2.1220     1.3320    -0.1990 C.3   1 <1>   0.2760 
  7 C        2.5600    -0.8990    -0.7570 C.ar  1 <1>  -0.1500 
  8 C        2.1780     0.8730     0.7800 C.ar  1 <1>  -0.1500 
  9 C       -2.7090     2.2460    -1.2680 C.3   1 <1>  -0.2400 
 10 C       -2.2730     1.9620     1.1820 C.3   1 <1>  -0.2400 
 11 C        3.9250    -0.7110    -0.6370 C.ar  1 <1>  -0.1500 
 12 C        3.5430     1.0640     0.9040 C.ar  1 <1>  -0.1500 
 13 C        4.4420     0.2760     0.1930 C.ar  1 <1>   0.1170 
 14 N        5.8330     0.4190     0.2840 N.am  1 <1>  -0.5470 
 15 C        6.6130     1.4490     0.7290 C.2   1 <1>   0.6300 
 16 O        6.1830     2.4960     1.1430 O.2   1 <1>  -0.5700 
 17 C        8.1190     1.2360     0.6920 C.3   1 <1>  -0.1000 
 18 C        8.9850     2.0500    -0.2210 C.3   1 <1>  -0.1950 
 19 C        8.8010     0.5940    -0.4930 C.3   1 <1>  -0.2000 
 20 C       10.3360     2.5870     0.2530 C.3   1 <1>  -0.1450 
 21 H       -0.6380     1.2690    -1.4960 H     1 <1>   0.4200 
 22 H       -2.6280     0.3770    -0.2330 H     1 <1>   0.0800 
 23 H        2.1860    -1.6720    -1.4090 H     1 <1>   0.1500 
 24 H        1.5030     1.4970     1.3410 H     1 <1>   0.1500 
 25 H       -2.2110     3.2000    -1.2680 H     1 <1>   0.0800 
 26 H       -3.7540     2.4080    -1.0730 H     1 <1>   0.0800 
 27 H       -2.6200     1.7920    -2.2390 H     1 <1>   0.0800 
 28 H       -1.7650     2.9080     1.2240 H     1 <1>   0.0800 
 29 H       -1.8710     1.3120     1.9380 H     1 <1>   0.0800 
 30 H       -3.3140     2.1200     1.4010 H     1 <1>   0.0800 
 31 H        4.5940    -1.3390    -1.1980 H     1 <1>   0.1500 
 32 H        3.9020     1.8320     1.5630 H     1 <1>   0.1500 
 33 H        6.3710    -0.3640    -0.0790 H     1 <1>   0.3700 
 34 H        8.5060     1.0280     1.6720 H     1 <1>   0.1000 
 35 H        8.4760     2.7450    -0.8700 H     1 <1>   0.1000 
 36 H        8.2410     0.3280    -1.3720 H     1 <1>   0.1000 
 37 H        9.6240    -0.0770    -0.3120 H     1 <1>   0.1000 
 38 H       10.8220     1.8840     0.9050 H     1 <1>   0.0800 
 39 H       10.1930     3.5100     0.7880 H     1 <1>   0.0800 
 40 H       10.9740     2.7740    -0.5920 H     1 <1>   0.0800 
@<TRIPOS>BOND
  1   1   2  2   
  2   1   3  2   
  3   1   4  am  
  4   1   5  1   
  5   4   6  1   
  6   4  21  1   
  7   5   7  ar  
  8   5   8  ar  
  9   6   9  1   
 10   6  10  1   
 11   6  22  1   
 12   7  11  ar  
 13   7  23  1   
 14   8  12  ar  
 15   8  24  1   
 16   9  25  1   
 17   9  26  1   
 18   9  27  1   
 19  10  28  1   
 20  10  29  1   
 21  10  30  1   
 22  11  13  ar  
 23  11  31  1   
 24  12  13  ar  
 25  12  32  1   
 26  13  14  1   
 27  14  15  am  
 28  14  33  1   
 29  15  16  2   
 30  15  17  1   
 31  17  18  1   
 32  17  19  1   
 33  17  34  1   
 34  18  19  1   
 35  18  20  1   
 36  18  35  1   
 37  19  36  1   
 38  19  37  1   
 39  20  38  1   
 40  20  39  1   
 41  20  40  1   
@<TRIPOS>SUBSTRUCTURE
  1 ****  12 GROUP 4 **** **** 0

# MOE 2024.06 (io_trps.svl 2023.06)
