@<TRIPOS>MOLECULE
NONAME
52 55 1 0 0 
SMALL
USER_CHARGES


@<TRIPOS>ATOM
  1 O       -0.2970     0.0720     0.1570 O.2   1 <1>  -0.5700 
  2 C       -1.3260     0.7350     0.1030 C.2   1 <1>   0.6160 
  3 N       -2.5570     0.0650     0.0880 N.am  1 <1>  -0.2860 
  4 C       -1.3120     2.1690     0.0500 C.2   1 <1>   0.0290 
  5 C       -2.5510    -1.3510     0.0490 C.ar  1 <1>   0.1170 
  6 C       -3.7420     0.7710     0.0680 C.2   1 <1>  -0.0290 
  7 C       -0.0660     2.9060     0.0530 C.2   1 <1>   0.6160 
  8 C       -2.5150     2.8240    -0.0110 C.2   1 <1>  -0.1500 
  9 C       -2.6840    -2.0220    -1.1600 C.ar  1 <1>  -0.1500 
 10 C       -2.4310    -2.0920     1.2170 C.ar  1 <1>  -0.1500 
 11 C       -3.7620     2.1470    -0.0090 C.2   1 <1>   0.0140 
 12 C       -5.0580    -0.0190     0.1170 C.3   1 <1>  -0.0220 
 13 O       -0.0580     4.0750    -0.2880 O.2   1 <1>  -0.5700 
 14 N        1.1240     2.3630     0.4400 N.am  1 <1>  -0.7300 
 15 C       -2.7120    -3.4050    -1.1980 C.ar  1 <1>  -0.1500 
 16 C       -2.4590    -3.4740     1.1800 C.ar  1 <1>  -0.1500 
 17 C       -4.9840     2.9060    -0.0960 C.2   1 <1>   0.4950 
 18 C       -6.2450     0.8350     0.5780 C.3   1 <1>  -0.1600 
 19 C        2.4560     3.0150     0.4000 C.3   1 <1>   0.1400 
 20 C       -2.6040    -4.1390    -0.0270 C.ar  1 <1>  -0.1430 
 21 O       -5.0310     4.1100    -0.1140 O.2   1 <1>  -0.5700 
 22 C       -6.3020     2.1600    -0.1870 C.3   1 <1>  -0.0990 
 23 C        3.4410     2.1640    -0.4130 C.3   1 <1>   0.2000 
 24 C       -2.6300    -5.6560    -0.0670 C.3   1 <1>  -0.0970 
 25 O        3.5110     0.8780     0.1100 O.3   1 <1>  -0.5600 
 26 C        4.8800     2.6580    -0.3780 C.3   1 <1>  -0.1600 
 27 C        4.6850     0.2590    -0.3020 C.3   1 <1>   0.1200 
 28 C        5.6810     1.3820    -0.5930 C.3   1 <1>  -0.1600 
 29 H       -2.5380     3.9020    -0.0620 H     1 <1>   0.1500 
 30 H       -2.7620    -1.4580    -2.0710 H     1 <1>   0.1500 
 31 H       -2.3110    -1.5810     2.1550 H     1 <1>   0.1500 
 32 H       -4.9750    -0.8480     0.7990 H     1 <1>   0.0800 
 33 H       -5.2590    -0.4190    -0.8620 H     1 <1>   0.0800 
 34 H        1.1730     1.3360     0.5450 H     1 <1>   0.3700 
 35 H       -2.8130    -3.9080    -2.1430 H     1 <1>   0.1500 
 36 H       -2.3620    -4.0320     2.0950 H     1 <1>   0.1500 
 37 H       -6.1390     1.0430     1.6300 H     1 <1>   0.0800 
 38 H       -7.1630     0.2890     0.4400 H     1 <1>   0.0800 
 39 H        2.8220     3.1260     1.4050 H     1 <1>   0.0800 
 40 H        2.3780     3.9940    -0.0410 H     1 <1>   0.0800 
 41 H       -6.5210     1.9810    -1.2240 H     1 <1>   0.0800 
 42 H       -7.0850     2.7770     0.2170 H     1 <1>   0.0800 
 43 H        3.1020     2.0830    -1.4330 H     1 <1>   0.0800 
 44 H       -3.2020    -6.0020    -0.9090 H     1 <1>   0.0800 
 45 H       -3.0760    -6.0480     0.8290 H     1 <1>   0.0800 
 46 H       -1.6270    -6.0330    -0.1500 H     1 <1>   0.0800 
 47 H        5.1010     3.0730     0.5900 H     1 <1>   0.0800 
 48 H        5.0660     3.3980    -1.1360 H     1 <1>   0.0800 
 49 H        4.4690    -0.3130    -1.1880 H     1 <1>   0.0800 
 50 H        5.0220    -0.3920     0.4850 H     1 <1>   0.0800 
 51 H        6.5270     1.3300     0.0690 H     1 <1>   0.0800 
 52 H        6.0250     1.3050    -1.6090 H     1 <1>   0.0800 
@<TRIPOS>BOND
  1   1   2  2   
  2   2   3  am  
  3   2   4  1   
  4   3   5  1   
  5   3   6  1   
  6   4   7  1   
  7   4   8  2   
  8   5   9  ar  
  9   5  10  ar  
 10   6  11  2   
 11   6  12  1   
 12   7  13  2   
 13   7  14  am  
 14   8  11  1   
 15   8  29  1   
 16   9  15  ar  
 17   9  30  1   
 18  10  16  ar  
 19  10  31  1   
 20  11  17  1   
 21  12  18  1   
 22  12  32  1   
 23  12  33  1   
 24  14  19  1   
 25  14  34  1   
 26  15  20  ar  
 27  15  35  1   
 28  16  20  ar  
 29  16  36  1   
 30  17  21  2   
 31  17  22  1   
 32  18  22  1   
 33  18  37  1   
 34  18  38  1   
 35  19  23  1   
 36  19  39  1   
 37  19  40  1   
 38  20  24  1   
 39  22  41  1   
 40  22  42  1   
 41  23  25  1   
 42  23  26  1   
 43  23  43  1   
 44  24  44  1   
 45  24  45  1   
 46  24  46  1   
 47  25  27  1   
 48  26  28  1   
 49  26  47  1   
 50  26  48  1   
 51  27  28  1   
 52  27  49  1   
 53  27  50  1   
 54  28  51  1   
 55  28  52  1   
@<TRIPOS>SUBSTRUCTURE
  1 ****   2 GROUP 4 **** **** 0

# MOE 2024.06 (io_trps.svl 2023.06)
