@<TRIPOS>MOLECULE
NONAME
48 50 1 0 0 
SMALL
USER_CHARGES


@<TRIPOS>ATOM
  1 CL      -0.2880    -2.1100    -2.1270 Cl    1 <1>  -0.1770 
  2 C       -1.3140    -2.0180    -0.7070 C.ar  1 <1>   0.1770 
  3 C       -0.9440    -2.6620     0.4790 C.ar  1 <1>   0.1000 
  4 C       -2.4860    -1.2930    -0.8080 C.ar  1 <1>  -0.1500 
  5 N        0.2290    -3.4100     0.6410 N.pl3 1 <1>  -0.8380 
  6 C       -1.8040    -2.5480     1.5650 C.ar  1 <1>  -0.1500 
  7 C       -3.3250    -1.1950     0.2900 C.ar  1 <1>  -0.1500 
  8 C        0.2880    -4.7870     0.0640 C.3   1 <1>   0.2090 
  9 C        1.5230    -2.6840     0.8240 C.3   1 <1>   0.2090 
 10 C       -2.9800    -1.8240     1.4750 C.ar  1 <1>  -0.1500 
 11 C        1.2540    -4.8790    -1.1380 C.3   1 <1>   0.3430 
 12 C        2.4560    -2.8320    -0.3970 C.3   1 <1>   0.3430 
 13 N        2.5990    -4.2630    -0.8580 N.4   1 <1>  -0.9590 
 14 C        3.5060    -4.3650    -2.0310 C.3   1 <1>   0.4860 
 15 C        4.8860    -3.9000    -1.6110 C.ar  1 <1>  -0.1430 
 16 C        5.6130    -4.6350    -0.6860 C.ar  1 <1>  -0.1500 
 17 C        5.4320    -2.7370    -2.1330 C.ar  1 <1>  -0.1500 
 18 C        6.8630    -4.2240    -0.2560 C.ar  1 <1>   0.0830 
 19 C        6.6850    -2.3140    -1.7230 C.ar  1 <1>  -0.1500 
 20 O        7.4260    -5.0510     0.6690 O.3   1 <1>  -0.3630 
 21 C        7.4050    -3.0410    -0.7880 C.ar  1 <1>   0.0830 
 22 C        8.7340    -4.8820     1.1620 C.3   1 <1>   0.1200 
 23 O        8.6130    -2.5540    -0.4360 O.3   1 <1>  -0.5330 
 24 C        9.0350    -6.0400     2.1090 C.3   1 <1>  -0.2400 
 25 H       -2.7420    -0.8090    -1.7330 H     1 <1>   0.1500 
 26 H       -1.5420    -3.0340     2.4880 H     1 <1>   0.1500 
 27 H       -4.2410    -0.6330     0.2230 H     1 <1>   0.1500 
 28 H       -0.6980    -5.0860    -0.2510 H     1 <1>   0.0800 
 29 H        0.6030    -5.4720     0.8320 H     1 <1>   0.0800 
 30 H        2.0160    -3.0670     1.7010 H     1 <1>   0.0800 
 31 H        1.3270    -1.6390     0.9950 H     1 <1>   0.0800 
 32 H       -3.6310    -1.7490     2.3290 H     1 <1>   0.1500 
 33 H        0.7960    -4.3770    -1.9730 H     1 <1>   0.0800 
 34 H        1.3720    -5.9150    -1.4070 H     1 <1>   0.0800 
 35 H        3.4230    -2.4300    -0.1410 H     1 <1>   0.0800 
 36 H        2.0580    -2.2340    -1.1980 H     1 <1>   0.0800 
 37 H        3.0410    -4.7760    -0.0860 H     1 <1>   0.4500 
 38 H        3.1390    -3.7560    -2.8410 H     1 <1>   0.0800 
 39 H        3.5640    -5.3870    -2.3690 H     1 <1>   0.0800 
 40 H        5.2270    -5.5510    -0.2760 H     1 <1>   0.1500 
 41 H        4.8970    -2.1510    -2.8610 H     1 <1>   0.1500 
 42 H        7.0970    -1.4110    -2.1380 H     1 <1>   0.1500 
 43 H        8.7830    -3.9420     1.6850 H     1 <1>   0.0800 
 44 H        9.4170    -4.8820     0.3300 H     1 <1>   0.0800 
 45 H        8.8610    -1.7450    -0.9170 H     1 <1>   0.4500 
 46 H        8.3380    -6.0400     2.9270 H     1 <1>   0.0800 
 47 H       10.0280    -5.9350     2.5040 H     1 <1>   0.0800 
 48 H        8.9730    -6.9740     1.5810 H     1 <1>   0.0800 
@<TRIPOS>BOND
  1   1   2  1   
  2   2   3  ar  
  3   2   4  ar  
  4   3   5  1   
  5   3   6  ar  
  6   4   7  ar  
  7   4  25  1   
  8   5   8  1   
  9   5   9  1   
 10   6  10  ar  
 11   6  26  1   
 12   7  10  ar  
 13   7  27  1   
 14   8  11  1   
 15   8  28  1   
 16   8  29  1   
 17   9  12  1   
 18   9  30  1   
 19   9  31  1   
 20  10  32  1   
 21  11  13  1   
 22  11  33  1   
 23  11  34  1   
 24  12  13  1   
 25  12  35  1   
 26  12  36  1   
 27  13  14  1   
 28  13  37  1   
 29  14  15  1   
 30  14  38  1   
 31  14  39  1   
 32  15  16  ar  
 33  15  17  ar  
 34  16  18  ar  
 35  16  40  1   
 36  17  19  ar  
 37  17  41  1   
 38  18  20  1   
 39  18  21  ar  
 40  19  21  ar  
 41  19  42  1   
 42  20  22  1   
 43  21  23  1   
 44  22  24  1   
 45  22  43  1   
 46  22  44  1   
 47  23  45  1   
 48  24  46  1   
 49  24  47  1   
 50  24  48  1   
@<TRIPOS>SUBSTRUCTURE
  1 ****  12 GROUP 4 **** **** 0

# MOE 2024.06 (io_trps.svl 2023.06)
