@<TRIPOS>MOLECULE
NONAME
48 50 1 0 0 
SMALL
USER_CHARGES


@<TRIPOS>ATOM
  1 F       -2.0830    -0.4990     1.9680 F     1 <1>  -0.1900 
  2 C       -2.8830     0.4530     1.5660 C.ar  1 <1>   0.1900 
  3 C       -4.0920     0.1110     0.9920 C.ar  1 <1>  -0.1500 
  4 C       -2.4910     1.7680     1.7280 C.ar  1 <1>  -0.1500 
  5 C       -4.9340     1.1250     0.5680 C.ar  1 <1>  -0.1500 
  6 C       -3.3430     2.7710     1.2980 C.ar  1 <1>  -0.1500 
  7 C       -4.5730     2.4630     0.7170 C.ar  1 <1>   0.1170 
  8 N       -5.4590     3.4470     0.2570 N.am  1 <1>  -0.5470 
  9 C       -5.6560     4.7470     0.6490 C.2   1 <1>   0.5690 
 10 O       -5.0200     5.2450     1.5490 O.2   1 <1>  -0.5700 
 11 C       -6.7320     5.5720    -0.1060 C.3   1 <1>   0.2040 
 12 C       -7.8090     4.5870    -0.6350 C.ar  1 <1>  -0.1430 
 13 C       -6.0440     6.3550    -1.2510 C.3   1 <1>  -0.1600 
 14 C       -7.4330     6.6130     0.8080 C.3   1 <1>  -0.1600 
 15 C       -8.5770     3.8790     0.2870 C.ar  1 <1>  -0.1500 
 16 C       -8.0340     4.3440    -1.9890 C.ar  1 <1>  -0.1500 
 17 C       -5.2000     7.5190    -0.7260 C.3   1 <1>   0.1200 
 18 C       -6.5550     7.8250     1.1520 C.3   1 <1>   0.1200 
 19 C       -9.5390     2.9690    -0.1150 C.ar  1 <1>   0.0830 
 20 C       -8.9850     3.4250    -2.4010 C.ar  1 <1>  -0.1500 
 21 O       -6.0370     8.3720    -0.0170 O.3   1 <1>  -0.5600 
 22 O      -10.2570     2.3540     0.8550 O.3   1 <1>  -0.3620 
 23 C       -9.7320     2.7210    -1.4760 C.ar  1 <1>   0.0830 
 24 C      -11.6280     2.6820     0.9160 C.3   1 <1>   0.0400 
 25 O      -10.6210     1.8130    -1.9490 O.3   1 <1>  -0.3630 
 26 C      -10.3930     0.4620    -1.6140 C.3   1 <1>   0.0400 
 27 H       -4.3630    -0.9240     0.8840 H     1 <1>   0.1500 
 28 H       -1.5430     1.9980     2.1790 H     1 <1>   0.1500 
 29 H       -5.8810     0.8760     0.1240 H     1 <1>   0.1500 
 30 H       -3.0470     3.7970     1.4160 H     1 <1>   0.1500 
 31 H       -6.1680     3.1120    -0.3990 H     1 <1>   0.3700 
 32 H       -6.7840     6.7800    -1.9050 H     1 <1>   0.0800 
 33 H       -5.4190     5.6970    -1.8280 H     1 <1>   0.0800 
 34 H       -7.7440     6.1520     1.7270 H     1 <1>   0.0800 
 35 H       -8.3160     6.9780     0.3140 H     1 <1>   0.0800 
 36 H       -8.4400     4.0200     1.3440 H     1 <1>   0.1500 
 37 H       -7.4820     4.8510    -2.7590 H     1 <1>   0.1500 
 38 H       -4.7790     8.0790    -1.5430 H     1 <1>   0.0800 
 39 H       -4.4030     7.1890    -0.0800 H     1 <1>   0.0800 
 40 H       -5.7370     7.5630     1.8020 H     1 <1>   0.0800 
 41 H       -7.1420     8.5860     1.6360 H     1 <1>   0.0800 
 42 H       -9.1510     3.2470    -3.4490 H     1 <1>   0.1500 
 43 H      -12.0540     2.1910     1.7720 H     1 <1>   0.0800 
 44 H      -12.1160     2.3460     0.0190 H     1 <1>   0.0800 
 45 H      -11.7260     3.7490     1.0160 H     1 <1>   0.0800 
 46 H      -11.0940    -0.1420    -2.1610 H     1 <1>   0.0800 
 47 H      -10.5390     0.3240    -0.5580 H     1 <1>   0.0800 
 48 H       -9.3870     0.1990    -1.8910 H     1 <1>   0.0800 
@<TRIPOS>BOND
  1   1   2  1   
  2   2   3  ar  
  3   2   4  ar  
  4   3   5  ar  
  5   3  27  1   
  6   4   6  ar  
  7   4  28  1   
  8   5   7  ar  
  9   5  29  1   
 10   6   7  ar  
 11   6  30  1   
 12   7   8  1   
 13   8   9  am  
 14   8  31  1   
 15   9  10  2   
 16   9  11  1   
 17  11  12  1   
 18  11  13  1   
 19  11  14  1   
 20  12  15  ar  
 21  12  16  ar  
 22  13  17  1   
 23  13  32  1   
 24  13  33  1   
 25  14  18  1   
 26  14  34  1   
 27  14  35  1   
 28  15  19  ar  
 29  15  36  1   
 30  16  20  ar  
 31  16  37  1   
 32  17  21  1   
 33  17  38  1   
 34  17  39  1   
 35  18  21  1   
 36  18  40  1   
 37  18  41  1   
 38  19  22  1   
 39  19  23  ar  
 40  20  23  ar  
 41  20  42  1   
 42  22  24  1   
 43  23  25  1   
 44  24  43  1   
 45  24  44  1   
 46  24  45  1   
 47  25  26  1   
 48  26  46  1   
 49  26  47  1   
 50  26  48  1   
@<TRIPOS>SUBSTRUCTURE
  1 ****   8 GROUP 4 **** **** 0

# MOE 2024.06 (io_trps.svl 2023.06)
