@<TRIPOS>MOLECULE
NONAME
49 51 1 0 0 
SMALL
USER_CHARGES


@<TRIPOS>ATOM
  1 S        0.4350    -1.1410     0.6330 S.3   1 <1>  -0.0800 
  2 C        2.0220    -0.8010    -0.0380 C.2   1 <1>   0.1040 
  3 C        0.4940    -2.7980     0.0430 C.2   1 <1>  -0.1100 
  4 N        2.6020     0.4560     0.0830 N.am  1 <1>  -0.4940 
  5 C        2.5340    -1.9010    -0.6450 C.2   1 <1>   0.0190 
  6 C        1.6530    -3.0320    -0.6010 C.2   1 <1>  -0.1500 
  7 C        2.7270     1.2980     1.1450 C.2   1 <1>   0.5690 
  8 C        3.8420    -1.8980    -1.2230 C.1   1 <1>   0.5380 
  9 O        2.0280     1.2870     2.1260 O.2   1 <1>  -0.5700 
 10 C        3.9380     2.2280     1.0450 C.3   1 <1>   0.1710 
 11 N        4.9090    -1.7400    -1.6030 N.1   1 <1>  -0.5570 
 12 N        5.0820     1.5420     0.3510 N.3   1 <1>  -0.8100 
 13 C        6.0690     2.4570    -0.2500 C.3   1 <1>   0.1100 
 14 C        5.7510     0.5620     1.2540 C.3   1 <1>   0.1100 
 15 C        7.0820     1.6840    -1.1380 C.3   1 <1>   0.3430 
 16 C        7.0720    -0.0110     0.6830 C.3   1 <1>   0.3430 
 17 N        7.1790     0.2190    -0.7970 N.4   1 <1>  -0.9590 
 18 C        8.3620    -0.4290    -1.4080 C.3   1 <1>   0.4810 
 19 C        8.3210    -1.9020    -1.0830 C.2   1 <1>  -0.2880 
 20 C        9.1830    -2.5410    -0.2720 C.2   1 <1>  -0.1780 
 21 C        9.1860    -3.9400     0.0970 C.ar  1 <1>   0.0280 
 22 C       10.2320    -4.4540     0.8600 C.ar  1 <1>  -0.1500 
 23 C        8.1700    -4.8190    -0.2760 C.ar  1 <1>  -0.1500 
 24 C       10.2650    -5.7840     1.2380 C.ar  1 <1>  -0.1500 
 25 C        8.1960    -6.1500     0.0980 C.ar  1 <1>  -0.1500 
 26 C        9.2450    -6.6360     0.8570 C.ar  1 <1>  -0.1500 
 27 H       -0.3590    -3.4220     0.2480 H     1 <1>   0.1500 
 28 H        3.3650     0.6430    -0.5740 H     1 <1>   0.3700 
 29 H        1.9290    -3.9700    -1.0520 H     1 <1>   0.1500 
 30 H        4.2260     2.5510     2.0310 H     1 <1>   0.0800 
 31 H        3.6340     3.0950     0.4850 H     1 <1>   0.0800 
 32 H        5.5690     3.1940    -0.8560 H     1 <1>   0.0800 
 33 H        6.5980     2.9810     0.5280 H     1 <1>   0.0800 
 34 H        5.9650     1.0220     2.2050 H     1 <1>   0.0800 
 35 H        5.0780    -0.2570     1.4450 H     1 <1>   0.0800 
 36 H        8.0470     2.1520    -1.0370 H     1 <1>   0.0800 
 37 H        6.7820     1.7850    -2.1680 H     1 <1>   0.0800 
 38 H        7.1190    -1.0650     0.9040 H     1 <1>   0.0800 
 39 H        7.9020     0.4620     1.1800 H     1 <1>   0.0800 
 40 H        6.3410    -0.2470    -1.1910 H     1 <1>   0.4500 
 41 H        8.3560    -0.2930    -2.4770 H     1 <1>   0.0800 
 42 H        9.2650     0.0060    -1.0100 H     1 <1>   0.0800 
 43 H        7.5090    -2.4020    -1.5810 H     1 <1>   0.1500 
 44 H        9.9870    -1.9880     0.1850 H     1 <1>   0.1500 
 45 H       11.0370    -3.8100     1.1660 H     1 <1>   0.1500 
 46 H        7.3430    -4.4710    -0.8650 H     1 <1>   0.1500 
 47 H       11.0840    -6.1590     1.8270 H     1 <1>   0.1500 
 48 H        7.4020    -6.8110    -0.2020 H     1 <1>   0.1500 
 49 H        9.2680    -7.6720     1.1480 H     1 <1>   0.1500 
@<TRIPOS>BOND
  1   1   2  1   
  2   1   3  1   
  3   2   4  1   
  4   2   5  2   
  5   3   6  2   
  6   3  27  1   
  7   4   7  am  
  8   4  28  1   
  9   5   6  1   
 10   5   8  1   
 11   6  29  1   
 12   7   9  2   
 13   7  10  1   
 14   8  11  3   
 15  10  12  1   
 16  10  30  1   
 17  10  31  1   
 18  12  13  1   
 19  12  14  1   
 20  13  15  1   
 21  13  32  1   
 22  13  33  1   
 23  14  16  1   
 24  14  34  1   
 25  14  35  1   
 26  15  17  1   
 27  15  36  1   
 28  15  37  1   
 29  16  17  1   
 30  16  38  1   
 31  16  39  1   
 32  17  18  1   
 33  17  40  1   
 34  18  19  1   
 35  18  41  1   
 36  18  42  1   
 37  19  20  2   
 38  19  43  1   
 39  20  21  1   
 40  20  44  1   
 41  21  22  ar  
 42  21  23  ar  
 43  22  24  ar  
 44  22  45  1   
 45  23  25  ar  
 46  23  46  1   
 47  24  26  ar  
 48  24  47  1   
 49  25  26  ar  
 50  25  48  1   
 51  26  49  1   
@<TRIPOS>SUBSTRUCTURE
  1 ****  11 GROUP 4 **** **** 0

# MOE 2024.06 (io_trps.svl 2023.06)
