@<TRIPOS>MOLECULE
NONAME
27 27 1 0 0 
SMALL
USER_CHARGES


@<TRIPOS>ATOM
  1 CL       0.1430     0.1900     0.6970 Cl    1 <1>  -0.1770 
  2 C        0.7600    -1.4260     0.4260 C.ar  1 <1>   0.1770 
  3 C       -0.0370    -2.5450     0.1910 C.ar  1 <1>   0.3960 
  4 C        2.1260    -1.5770     0.4330 C.ar  1 <1>   0.1600 
  5 N        0.5600    -3.7220    -0.0450 N.ar  1 <1>  -0.6200 
  6 C       -1.5000    -2.5070     0.1780 C.2   1 <1>   0.5440 
  7 N        2.7130    -2.7340     0.2160 N.ar  1 <1>  -0.6200 
  8 C        1.8750    -3.7320    -0.0120 C.ar  1 <1>   0.7220 
  9 O       -2.1340    -1.5920     0.6670 O.2   1 <1>  -0.5700 
 10 N       -2.2050    -3.5420    -0.3830 N.am  1 <1>  -0.7300 
 11 S        2.6170    -5.3240    -0.3250 S.3   1 <1>  -0.3310 
 12 C       -3.6750    -3.6780    -0.4440 C.3   1 <1>   0.1400 
 13 C        4.4420    -5.0420    -0.2120 C.3   1 <1>  -0.0100 
 14 C       -4.0820    -4.9850     0.2360 C.3   1 <1>  -0.1600 
 15 C       -5.6010    -5.1840     0.1970 C.3   1 <1>  -0.2400 
 16 H        2.7480    -0.7180     0.6180 H     1 <1>   0.1500 
 17 H       -1.6650    -4.3470    -0.7150 H     1 <1>   0.3700 
 18 H       -3.9870    -3.6800    -1.4740 H     1 <1>   0.0800 
 19 H       -4.1460    -2.8440     0.0520 H     1 <1>   0.0800 
 20 H        4.9310    -5.9810    -0.3940 H     1 <1>   0.0800 
 21 H        4.6600    -4.6780     0.7760 H     1 <1>   0.0800 
 22 H        4.7110    -4.3160    -0.9580 H     1 <1>   0.0800 
 23 H       -3.7560    -4.9650     1.2620 H     1 <1>   0.0800 
 24 H       -3.6060    -5.8130    -0.2610 H     1 <1>   0.0800 
 25 H       -6.0990    -4.3770     0.7050 H     1 <1>   0.0800 
 26 H       -5.8640    -6.1070     0.6850 H     1 <1>   0.0800 
 27 H       -5.9510    -5.2230    -0.8200 H     1 <1>   0.0800 
@<TRIPOS>BOND
  1   1   2  1   
  2   2   3  ar  
  3   2   4  ar  
  4   3   5  ar  
  5   3   6  1   
  6   4   7  ar  
  7   4  16  1   
  8   5   8  ar  
  9   6   9  2   
 10   6  10  am  
 11   7   8  ar  
 12   8  11  1   
 13  10  12  1   
 14  10  17  1   
 15  11  13  1   
 16  12  14  1   
 17  12  18  1   
 18  12  19  1   
 19  13  20  1   
 20  13  21  1   
 21  13  22  1   
 22  14  15  1   
 23  14  23  1   
 24  14  24  1   
 25  15  25  1   
 26  15  26  1   
 27  15  27  1   
@<TRIPOS>SUBSTRUCTURE
  1 ****   3 GROUP 4 **** **** 0

# MOE 2024.06 (io_trps.svl 2023.06)
