@<TRIPOS>MOLECULE
NONAME
68 71 1 0 0 
SMALL
USER_CHARGES


@<TRIPOS>ATOM
  1 O       -0.8270    -2.4940     2.6190 O.2   1 <1>  -0.5700 
  2 C       -1.2560    -2.4330     1.4820 C.2   1 <1>   0.5440 
  3 N       -0.3550    -2.5860     0.4480 N.am  1 <1>  -0.6600 
  4 C       -2.6790    -2.2610     1.2440 C.ar  1 <1>   0.0860 
  5 C       -0.6500    -3.4630    -0.7090 C.3   1 <1>   0.1400 
  6 C        1.0810    -2.2870     0.6570 C.3   1 <1>   0.1400 
  7 C       -3.6260    -2.8210     2.1020 C.ar  1 <1>  -0.1500 
  8 C       -3.1590    -1.5320     0.1550 C.ar  1 <1>  -0.1500 
  9 C        0.0510    -4.8010    -0.4600 C.3   1 <1>  -0.1600 
 10 C        1.8020    -3.6110     0.9180 C.3   1 <1>  -0.1600 
 11 C       -4.9830    -2.6810     1.8700 C.ar  1 <1>  -0.1500 
 12 C       -4.5150    -1.3930    -0.0770 C.ar  1 <1>  -0.1500 
 13 C        1.5760    -4.6170    -0.2380 C.3   1 <1>   0.5640 
 14 C       -5.4470    -1.9680     0.7740 C.ar  1 <1>   0.0730 
 15 N        2.1980    -5.9540     0.1580 N.4   1 <1>  -0.9590 
 16 C        2.2450    -4.0670    -1.5570 C.2   1 <1>   0.5690 
 17 C       -6.8480    -1.8240     0.5240 C.1   1 <1>  -0.0730 
 18 C        2.1860    -6.9330    -0.9810 C.3   1 <1>   0.3430 
 19 C        1.6390    -6.5860     1.4000 C.3   1 <1>   0.3430 
 20 O        1.7950    -4.3960    -2.6260 O.2   1 <1>  -0.5700 
 21 N        3.3600    -3.2930    -1.5590 N.am  1 <1>  -0.8000 
 22 C       -8.0070    -1.6910     0.2880 C.1   1 <1>  -0.2000 
 23 C        3.0420    -8.1520    -0.6320 C.3   1 <1>  -0.1600 
 24 C        2.4880    -7.7950     1.7970 C.3   1 <1>  -0.1600 
 25 C       -9.4520    -1.5130    -0.0290 C.3   1 <1>   0.4800 
 26 C        2.5760    -8.8230     0.6640 C.3   1 <1>  -0.1600 
 27 O       -9.5260    -0.9790    -1.2920 O.3   1 <1>  -0.6800 
 28 C      -10.1210    -0.5240     0.9360 C.3   1 <1>  -0.1600 
 29 C      -10.1930    -2.8580    -0.0470 C.3   1 <1>  -0.1600 
 30 C      -11.6350    -0.3700     0.6950 C.3   1 <1>  -0.1600 
 31 C      -11.7070    -2.7130    -0.2930 C.3   1 <1>  -0.1600 
 32 C      -12.3400    -1.7340     0.7060 C.3   1 <1>  -0.1600 
 33 H       -0.3020    -2.9980    -1.6170 H     1 <1>   0.0800 
 34 H       -1.7110    -3.6240    -0.8040 H     1 <1>   0.0800 
 35 H        1.1990    -1.6280     1.5030 H     1 <1>   0.0800 
 36 H        1.4700    -1.7800    -0.2100 H     1 <1>   0.0800 
 37 H       -3.2880    -3.3720     2.9630 H     1 <1>   0.1500 
 38 H       -2.4600    -1.0660    -0.5160 H     1 <1>   0.1500 
 39 H       -0.1390    -5.4380    -1.3040 H     1 <1>   0.0800 
 40 H       -0.4150    -5.2430     0.4010 H     1 <1>   0.0800 
 41 H        1.4050    -3.9830     1.8440 H     1 <1>   0.0800 
 42 H        2.8480    -3.4200     1.0660 H     1 <1>   0.0800 
 43 H       -5.6920    -3.1250     2.5460 H     1 <1>   0.1500 
 44 H       -4.8620    -0.8300    -0.9270 H     1 <1>   0.1500 
 45 H        3.1880    -5.7650     0.3470 H     1 <1>   0.4500 
 46 H        2.5780    -6.4810    -1.8780 H     1 <1>   0.0800 
 47 H        1.1750    -7.2500    -1.1810 H     1 <1>   0.0800 
 48 H        0.6250    -6.9070     1.2240 H     1 <1>   0.0800 
 49 H        1.6340    -5.8860     2.2180 H     1 <1>   0.0800 
 50 H        3.7350    -2.9850    -2.4620 H     1 <1>   0.3700 
 51 H        3.8420    -2.9070    -0.7450 H     1 <1>   0.3700 
 52 H        4.0720    -7.8530    -0.5440 H     1 <1>   0.0800 
 53 H        2.9840    -8.8620    -1.4400 H     1 <1>   0.0800 
 54 H        2.0510    -8.2600     2.6640 H     1 <1>   0.0800 
 55 H        3.4750    -7.4660     2.0740 H     1 <1>   0.0800 
 56 H        3.2590    -9.6110     0.9350 H     1 <1>   0.0800 
 57 H        1.6070    -9.2710     0.5090 H     1 <1>   0.0800 
 58 H      -10.4670    -0.8610    -1.5050 H     1 <1>   0.4000 
 59 H       -9.6340     0.4330     0.8610 H     1 <1>   0.0800 
 60 H       -9.9700    -0.8800     1.9400 H     1 <1>   0.0800 
 61 H      -10.0460    -3.3360     0.9060 H     1 <1>   0.0800 
 62 H       -9.7550    -3.4970    -0.7940 H     1 <1>   0.0800 
 63 H      -11.8050     0.1170    -0.2500 H     1 <1>   0.0800 
 64 H      -12.0560     0.2570     1.4610 H     1 <1>   0.0800 
 65 H      -12.1780    -3.6770    -0.1960 H     1 <1>   0.0800 
 66 H      -11.8820    -2.3680    -1.2970 H     1 <1>   0.0800 
 67 H      -13.3830    -1.6020     0.4700 H     1 <1>   0.0800 
 68 H      -12.2810    -2.1530     1.6970 H     1 <1>   0.0800 
@<TRIPOS>BOND
  1   1   2  2   
  2   2   3  am  
  3   2   4  1   
  4   3   5  1   
  5   3   6  1   
  6   4   7  ar  
  7   4   8  ar  
  8   5   9  1   
  9   5  33  1   
 10   5  34  1   
 11   6  10  1   
 12   6  35  1   
 13   6  36  1   
 14   7  11  ar  
 15   7  37  1   
 16   8  12  ar  
 17   8  38  1   
 18   9  13  1   
 19   9  39  1   
 20   9  40  1   
 21  10  13  1   
 22  10  41  1   
 23  10  42  1   
 24  11  14  ar  
 25  11  43  1   
 26  12  14  ar  
 27  12  44  1   
 28  13  15  1   
 29  13  16  1   
 30  14  17  1   
 31  15  18  1   
 32  15  19  1   
 33  15  45  1   
 34  16  20  2   
 35  16  21  am  
 36  17  22  3   
 37  18  23  1   
 38  18  46  1   
 39  18  47  1   
 40  19  24  1   
 41  19  48  1   
 42  19  49  1   
 43  21  50  1   
 44  21  51  1   
 45  22  25  1   
 46  23  26  1   
 47  23  52  1   
 48  23  53  1   
 49  24  26  1   
 50  24  54  1   
 51  24  55  1   
 52  25  27  1   
 53  25  28  1   
 54  25  29  1   
 55  26  56  1   
 56  26  57  1   
 57  27  58  1   
 58  28  30  1   
 59  28  59  1   
 60  28  60  1   
 61  29  31  1   
 62  29  61  1   
 63  29  62  1   
 64  30  32  1   
 65  30  63  1   
 66  30  64  1   
 67  31  32  1   
 68  31  65  1   
 69  31  66  1   
 70  32  67  1   
 71  32  68  1   
@<TRIPOS>SUBSTRUCTURE
  1 ****   4 GROUP 4 **** **** 0

# MOE 2024.06 (io_trps.svl 2023.06)
