@<TRIPOS>MOLECULE
NONAME
50 51 1 0 0 
SMALL
USER_CHARGES


@<TRIPOS>ATOM
  1 O        0.2490    -3.2350    -2.0070 O.2   1 <1>  -0.5700 
  2 C        0.1550    -2.6940    -0.9360 C.2   1 <1>   0.6590 
  3 O       -0.8990    -1.9740    -0.5870 O.3   1 <1>  -0.4300 
  4 C        1.2660    -2.8000     0.1040 C.3   1 <1>  -0.0190 
  5 C       -1.9900    -1.7970    -1.4620 C.3   1 <1>   0.1200 
  6 C        2.5150    -2.0210    -0.3510 C.3   1 <1>  -0.1600 
  7 C        1.6290    -4.2720     0.3860 C.3   1 <1>  -0.1600 
  8 C       -3.0230    -0.9210    -0.7590 C.3   1 <1>  -0.2400 
  9 C        3.6860    -2.1940     0.6150 C.3   1 <1>   0.3430 
 10 C        2.8140    -4.3990     1.3400 C.3   1 <1>   0.3430 
 11 N        3.9740    -3.6480     0.7910 N.4   1 <1>  -0.9590 
 12 C        5.2070    -3.8740     1.5930 C.3   1 <1>   0.4860 
 13 C        6.3860    -3.2930     0.8360 C.ar  1 <1>  -0.1430 
 14 C        6.9320    -3.9240    -0.2790 C.ar  1 <1>  -0.1430 
 15 C        6.9180    -2.0880     1.2740 C.ar  1 <1>  -0.1500 
 16 C        7.9860    -3.3210    -0.9470 C.ar  1 <1>  -0.1500 
 17 C        6.4230    -5.2640    -0.8000 C.3   1 <1>  -0.0970 
 18 C        7.9710    -1.4900     0.6070 C.ar  1 <1>  -0.1430 
 19 C        8.5090    -2.1060    -0.5160 C.ar  1 <1>   0.0820 
 20 C        8.5380    -0.1670     1.1070 C.3   1 <1>  -0.0970 
 21 O        9.5370    -1.4780    -1.1460 O.3   1 <1>  -0.3630 
 22 C       10.2010    -2.0510    -2.2510 C.3   1 <1>   0.0400 
 23 H        0.9020    -2.3600     1.0160 H     1 <1>   0.0800 
 24 H       -2.4010    -2.7640    -1.6980 H     1 <1>   0.0800 
 25 H       -1.6340    -1.3270    -2.3630 H     1 <1>   0.0800 
 26 H        2.2750    -0.9740    -0.4250 H     1 <1>   0.0800 
 27 H        2.8160    -2.3490    -1.3320 H     1 <1>   0.0800 
 28 H        1.8630    -4.7770    -0.5360 H     1 <1>   0.0800 
 29 H        0.7770    -4.7720     0.8140 H     1 <1>   0.0800 
 30 H       -3.3640    -1.3980     0.1420 H     1 <1>   0.0800 
 31 H       -3.8680    -0.7700    -1.4060 H     1 <1>   0.0800 
 32 H       -2.5990     0.0380    -0.5220 H     1 <1>   0.0800 
 33 H        3.4430    -1.7490     1.5660 H     1 <1>   0.0800 
 34 H        4.5510    -1.6890     0.2140 H     1 <1>   0.0800 
 35 H        3.0670    -5.4410     1.4580 H     1 <1>   0.0800 
 36 H        2.5450    -4.0020     2.3060 H     1 <1>   0.0800 
 37 H        4.1880    -4.0100    -0.1470 H     1 <1>   0.4500 
 38 H        5.3670    -4.9290     1.7450 H     1 <1>   0.0800 
 39 H        5.1190    -3.4010     2.5570 H     1 <1>   0.0800 
 40 H        6.5160    -1.6010     2.1460 H     1 <1>   0.1500 
 41 H        8.3990    -3.8080    -1.8100 H     1 <1>   0.1500 
 42 H        5.5310    -5.1260    -1.3830 H     1 <1>   0.0800 
 43 H        6.2260    -5.9450     0.0070 H     1 <1>   0.0800 
 44 H        7.1620    -5.7250    -1.4320 H     1 <1>   0.0800 
 45 H        8.0280     0.1760     1.9880 H     1 <1>   0.0800 
 46 H        8.4440     0.5820     0.3400 H     1 <1>   0.0800 
 47 H        9.5810    -0.2860     1.3400 H     1 <1>   0.0800 
 48 H       10.9870    -1.3810    -2.5500 H     1 <1>   0.0800 
 49 H        9.4990    -2.1710    -3.0560 H     1 <1>   0.0800 
 50 H       10.6190    -2.9960    -1.9550 H     1 <1>   0.0800 
@<TRIPOS>BOND
  1   1   2  2   
  2   2   3  1   
  3   2   4  1   
  4   3   5  1   
  5   4   6  1   
  6   4   7  1   
  7   4  23  1   
  8   5   8  1   
  9   5  24  1   
 10   5  25  1   
 11   6   9  1   
 12   6  26  1   
 13   6  27  1   
 14   7  10  1   
 15   7  28  1   
 16   7  29  1   
 17   8  30  1   
 18   8  31  1   
 19   8  32  1   
 20   9  11  1   
 21   9  33  1   
 22   9  34  1   
 23  10  11  1   
 24  10  35  1   
 25  10  36  1   
 26  11  12  1   
 27  11  37  1   
 28  12  13  1   
 29  12  38  1   
 30  12  39  1   
 31  13  14  ar  
 32  13  15  ar  
 33  14  16  ar  
 34  14  17  1   
 35  15  18  ar  
 36  15  40  1   
 37  16  19  ar  
 38  16  41  1   
 39  17  42  1   
 40  17  43  1   
 41  17  44  1   
 42  18  19  ar  
 43  18  20  1   
 44  19  21  1   
 45  20  45  1   
 46  20  46  1   
 47  20  47  1   
 48  21  22  1   
 49  22  48  1   
 50  22  49  1   
 51  22  50  1   
@<TRIPOS>SUBSTRUCTURE
  1 ****   9 GROUP 4 **** **** 0

# MOE 2024.06 (io_trps.svl 2023.06)
