@<TRIPOS>MOLECULE
NONAME
32 33 1 0 0 
SMALL
USER_CHARGES


@<TRIPOS>ATOM
  1 BR       0.5200    -0.3850    -0.6130 Br    1 <1>  -0.1110 
  2 C       -0.6880    -1.8490    -0.2420 C.ar  1 <1>   0.1110 
  3 C       -0.1480    -3.0930     0.1140 C.ar  1 <1>   0.1170 
  4 C       -2.0420    -1.5970    -0.3460 C.ar  1 <1>  -0.1500 
  5 N        1.2540    -3.2400     0.1930 N.am  1 <1>  -0.5470 
  6 C       -1.0420    -4.1250     0.3810 C.ar  1 <1>  -0.1500 
  7 C       -2.9040    -2.6490    -0.0780 C.ar  1 <1>   0.1170 
  8 C        2.0520    -4.3410     0.3170 C.2   1 <1>   0.5690 
  9 C       -2.4080    -3.8930     0.2800 C.ar  1 <1>   0.1170 
 10 N       -4.2930    -2.7300    -0.0910 N.am  1 <1>  -0.4770 
 11 O        1.6380    -5.4700     0.3880 O.2   1 <1>  -0.5700 
 12 C        3.5530    -4.1140     0.3640 C.3   1 <1>  -0.0990 
 13 N       -3.4920    -4.7380     0.4850 N.am  1 <1>  -0.4770 
 14 C       -4.6290    -4.0110     0.2530 C.2   1 <1>   0.6900 
 15 C       -5.2350    -1.6400    -0.4240 C.3   1 <1>   0.0600 
 16 C        4.1190    -3.5490    -0.9500 C.3   1 <1>  -0.2400 
 17 C       -3.4250    -6.1680     0.8560 C.3   1 <1>   0.0600 
 18 O       -5.7700    -4.4410     0.3370 O.2   1 <1>  -0.5700 
 19 H       -2.4160    -0.6290    -0.6230 H     1 <1>   0.1500 
 20 H        1.7650    -2.3630     0.0860 H     1 <1>   0.3700 
 21 H       -0.7030    -5.1020     0.6660 H     1 <1>   0.1500 
 22 H        4.0320    -5.0540     0.5760 H     1 <1>   0.0800 
 23 H        3.7780    -3.4470     1.1760 H     1 <1>   0.0800 
 24 H       -5.0990    -0.8240     0.2620 H     1 <1>   0.0800 
 25 H       -6.2480    -1.9970    -0.3490 H     1 <1>   0.0800 
 26 H       -5.0550    -1.3020    -1.4280 H     1 <1>   0.0800 
 27 H        3.8940    -4.2160    -1.7640 H     1 <1>   0.0800 
 28 H        5.1880    -3.4500    -0.8770 H     1 <1>   0.0800 
 29 H        3.7000    -2.5830    -1.1670 H     1 <1>   0.0800 
 30 H       -2.9350    -6.2710     1.8080 H     1 <1>   0.0800 
 31 H       -2.8720    -6.7080     0.1080 H     1 <1>   0.0800 
 32 H       -4.4190    -6.5760     0.9250 H     1 <1>   0.0800 
@<TRIPOS>BOND
  1   1   2  1   
  2   2   3  ar  
  3   2   4  ar  
  4   3   5  1   
  5   3   6  ar  
  6   4   7  ar  
  7   4  19  1   
  8   5   8  am  
  9   5  20  1   
 10   6   9  ar  
 11   6  21  1   
 12   7   9  ar  
 13   7  10  1   
 14   8  11  2   
 15   8  12  1   
 16   9  13  1   
 17  10  14  am  
 18  10  15  1   
 19  12  16  1   
 20  12  22  1   
 21  12  23  1   
 22  13  14  am  
 23  13  17  1   
 24  14  18  2   
 25  15  24  1   
 26  15  25  1   
 27  15  26  1   
 28  16  27  1   
 29  16  28  1   
 30  16  29  1   
 31  17  30  1   
 32  17  31  1   
 33  17  32  1   
@<TRIPOS>SUBSTRUCTURE
  1 ****   6 GROUP 4 **** **** 0

# MOE 2024.06 (io_trps.svl 2023.06)
