@<TRIPOS>MOLECULE
NONAME
42 44 1 0 0 
SMALL
USER_CHARGES


@<TRIPOS>ATOM
  1 S       -0.6740     1.0990    -1.3420 S.o2  1 <1>   1.4470 
  2 O       -1.7870     1.9180    -1.7740 O.2   1 <1>  -0.6500 
  3 O       -0.6130    -0.2910    -1.7370 O.2   1 <1>  -0.6500 
  4 N       -0.6820     1.1240     0.3510 N.am  1 <1>  -0.8490 
  5 C        0.9030     1.9050    -1.7320 C.ar  1 <1>  -0.0090 
  6 C       -1.5310     0.0650     0.9260 C.3   1 <1>   0.1960 
  7 C       -1.0280     2.4300     0.9220 C.3   1 <1>   0.1960 
  8 C        2.0580     1.5610    -1.0430 C.ar  1 <1>  -0.1500 
  9 C        1.0000     2.8740    -2.7220 C.ar  1 <1>  -0.1500 
 10 C       -1.9170     0.3150     2.4030 C.3   1 <1>   0.1200 
 11 C       -0.8740     2.4320     2.4620 C.3   1 <1>   0.1200 
 12 C        3.2850     2.1580    -1.3020 C.ar  1 <1>   0.1170 
 13 C        2.2100     3.4840    -3.0020 C.ar  1 <1>  -0.1500 
 14 O       -0.9970     1.1560     3.0370 O.3   1 <1>  -0.5600 
 15 N        4.3890     1.7590    -0.5350 N.am  1 <1>  -0.5470 
 16 C        3.3430     3.1310    -2.2940 C.ar  1 <1>  -0.1500 
 17 C        5.7410     1.9060    -0.7020 C.2   1 <1>   0.7150 
 18 O        6.1880     2.4090    -1.7140 O.2   1 <1>  -0.5700 
 19 C        6.6000     1.4350     0.3470 C.2   1 <1>  -0.2370 
 20 N        7.9570     1.3310     0.2680 N.pl3 1 <1>   0.3140 
 21 C        6.2870     1.0030     1.6040 C.2   1 <1>  -0.1500 
 22 N        8.4950     0.8540     1.4000 N.2   1 <1>  -0.7070 
 23 C        8.8320     1.6630    -0.8710 C.3   1 <1>   0.0160 
 24 C        7.4880     0.6620     2.1950 C.2   1 <1>   0.1390 
 25 H       -1.0040    -0.8720     0.8560 H     1 <1>   0.0800 
 26 H       -2.4370    -0.0360     0.3520 H     1 <1>   0.0800 
 27 H       -2.0470     2.6760     0.6720 H     1 <1>   0.0800 
 28 H       -0.3990     3.1990     0.5060 H     1 <1>   0.0800 
 29 H        1.9920     0.8040    -0.2810 H     1 <1>   0.1500 
 30 H        0.1200     3.1560    -3.2790 H     1 <1>   0.1500 
 31 H       -1.9490    -0.6140     2.9420 H     1 <1>   0.0800 
 32 H       -2.8880     0.7760     2.4630 H     1 <1>   0.0800 
 33 H       -1.6110     3.0760     2.9070 H     1 <1>   0.0800 
 34 H        0.1000     2.8030     2.7270 H     1 <1>   0.0800 
 35 H        2.2710     4.2350    -3.7710 H     1 <1>   0.1500 
 36 H        4.1590     1.2040     0.2840 H     1 <1>   0.3700 
 37 H        4.2720     3.6220    -2.5210 H     1 <1>   0.1500 
 38 H        5.3270     0.9300     2.0800 H     1 <1>   0.1500 
 39 H        8.5270     1.0950    -1.7300 H     1 <1>   0.0800 
 40 H        9.8480     1.4210    -0.6210 H     1 <1>   0.0800 
 41 H        8.7540     2.7130    -1.0820 H     1 <1>   0.0800 
 42 H        7.5950     0.2810     3.1970 H     1 <1>   0.1500 
@<TRIPOS>BOND
  1   1   2  2   
  2   1   3  2   
  3   1   4  am  
  4   1   5  1   
  5   4   6  1   
  6   4   7  1   
  7   5   8  ar  
  8   5   9  ar  
  9   6  10  1   
 10   6  25  1   
 11   6  26  1   
 12   7  11  1   
 13   7  27  1   
 14   7  28  1   
 15   8  12  ar  
 16   8  29  1   
 17   9  13  ar  
 18   9  30  1   
 19  10  14  1   
 20  10  31  1   
 21  10  32  1   
 22  11  14  1   
 23  11  33  1   
 24  11  34  1   
 25  12  15  1   
 26  12  16  ar  
 27  13  16  ar  
 28  13  35  1   
 29  15  17  am  
 30  15  36  1   
 31  16  37  1   
 32  17  18  2   
 33  17  19  1   
 34  19  20  1   
 35  19  21  2   
 36  20  22  1   
 37  20  23  1   
 38  21  24  1   
 39  21  38  1   
 40  22  24  2   
 41  23  39  1   
 42  23  40  1   
 43  23  41  1   
 44  24  42  1   
@<TRIPOS>SUBSTRUCTURE
  1 ****   8 GROUP 4 **** **** 0

# MOE 2024.06 (io_trps.svl 2023.06)
