@<TRIPOS>MOLECULE
NONAME
44 45 1 0 0 
SMALL
USER_CHARGES


@<TRIPOS>ATOM
  1 BR       0.1860    -0.4560     2.0170 Br    1 <1>  -0.1110 
  2 C       -1.4940    -1.3230     1.6280 C.ar  1 <1>   0.1110 
  3 C       -1.6170    -2.1170     0.4960 C.ar  1 <1>   0.0830 
  4 C       -2.5410    -1.1230     2.5040 C.ar  1 <1>  -0.1500 
  5 O       -0.5370    -2.2650    -0.3150 O.3   1 <1>  -0.3630 
  6 C       -2.8480    -2.7220     0.2550 C.ar  1 <1>  -0.1500 
  7 C       -3.7540    -1.7370     2.2410 C.ar  1 <1>  -0.1500 
  8 C       -0.5700    -3.1000    -1.4510 C.3   1 <1>   0.0400 
  9 C       -3.9270    -2.5420     1.1180 C.ar  1 <1>  -0.0090 
 10 S       -5.5280    -3.3260     0.7820 S.o2  1 <1>   1.4470 
 11 O       -6.0820    -3.9040     1.9840 O.2   1 <1>  -0.6500 
 12 O       -5.4890    -4.0840    -0.4460 O.2   1 <1>  -0.6500 
 13 N       -6.5290    -2.0390     0.3780 N.am  1 <1>  -0.9140 
 14 C       -7.9310    -2.3970     0.4580 C.3   1 <1>   0.1960 
 15 C       -8.7700    -1.1880     0.0500 C.3   1 <1>  -0.1600 
 16 C      -10.2550    -1.4900     0.2510 C.3   1 <1>   0.3430 
 17 N      -11.0800    -0.2760    -0.0030 N.4   1 <1>  -0.9590 
 18 C      -12.4850    -0.4730     0.5030 C.3   1 <1>   0.3430 
 19 C      -11.1070     0.1190    -1.4600 C.3   1 <1>   0.3430 
 20 C      -13.3890     0.7270     0.1580 C.3   1 <1>   0.1200 
 21 C      -12.0760     1.2900    -1.7150 C.3   1 <1>   0.1200 
 22 O      -13.3440     0.9850    -1.2140 O.3   1 <1>  -0.5600 
 23 H       -2.4070    -0.5020     3.3730 H     1 <1>   0.1500 
 24 H       -2.9880    -3.3460    -0.6090 H     1 <1>   0.1500 
 25 H       -4.5790    -1.5920     2.9190 H     1 <1>   0.1500 
 26 H        0.4010    -3.0720    -1.9130 H     1 <1>   0.0800 
 27 H       -1.3100    -2.7300    -2.1380 H     1 <1>   0.0800 
 28 H       -0.7960    -4.1050    -1.1410 H     1 <1>   0.0800 
 29 H       -6.3000    -1.8840    -0.6030 H     1 <1>   0.4200 
 30 H       -8.1690    -2.6760     1.4730 H     1 <1>   0.0800 
 31 H       -8.1330    -3.2400    -0.1860 H     1 <1>   0.0800 
 32 H       -8.5700    -0.9600    -0.9810 H     1 <1>   0.0800 
 33 H       -8.4870    -0.3540     0.6690 H     1 <1>   0.0800 
 34 H      -10.4050    -1.8160     1.2690 H     1 <1>   0.0800 
 35 H      -10.5620    -2.2900    -0.4050 H     1 <1>   0.0800 
 36 H      -10.6740     0.5100     0.5240 H     1 <1>   0.4500 
 37 H      -12.4780    -0.6150     1.5710 H     1 <1>   0.0800 
 38 H      -12.9140    -1.3550     0.0540 H     1 <1>   0.0800 
 39 H      -11.4270    -0.7190    -2.0580 H     1 <1>   0.0800 
 40 H      -10.1200     0.4010    -1.7860 H     1 <1>   0.0800 
 41 H      -13.0860     1.6120     0.6900 H     1 <1>   0.0800 
 42 H      -14.4110     0.5070     0.4150 H     1 <1>   0.0800 
 43 H      -12.1760     1.4640    -2.7730 H     1 <1>   0.0800 
 44 H      -11.7260     2.1960    -1.2510 H     1 <1>   0.0800 
@<TRIPOS>BOND
  1   1   2  1   
  2   2   3  ar  
  3   2   4  ar  
  4   3   5  1   
  5   3   6  ar  
  6   4   7  ar  
  7   4  23  1   
  8   5   8  1   
  9   6   9  ar  
 10   6  24  1   
 11   7   9  ar  
 12   7  25  1   
 13   8  26  1   
 14   8  27  1   
 15   8  28  1   
 16   9  10  1   
 17  10  11  2   
 18  10  12  2   
 19  10  13  am  
 20  13  14  1   
 21  13  29  1   
 22  14  15  1   
 23  14  30  1   
 24  14  31  1   
 25  15  16  1   
 26  15  32  1   
 27  15  33  1   
 28  16  17  1   
 29  16  34  1   
 30  16  35  1   
 31  17  18  1   
 32  17  19  1   
 33  17  36  1   
 34  18  20  1   
 35  18  37  1   
 36  18  38  1   
 37  19  21  1   
 38  19  39  1   
 39  19  40  1   
 40  20  22  1   
 41  20  41  1   
 42  20  42  1   
 43  21  22  1   
 44  21  43  1   
 45  21  44  1   
@<TRIPOS>SUBSTRUCTURE
  1 ****  13 GROUP 4 **** **** 0

# MOE 2024.06 (io_trps.svl 2023.06)
