@<TRIPOS>MOLECULE
NONAME
48 51 1 0 0 
SMALL
USER_CHARGES


@<TRIPOS>ATOM
  1 O       -0.6250     1.3220    -1.0640 O.2   1 <1>  -0.5700 
  2 C       -1.2650     1.6710    -0.0930 C.2   1 <1>   0.7150 
  3 N       -2.2360     0.8140     0.3860 N.am  1 <1>  -0.6600 
  4 C       -1.0290     2.9610     0.4860 C.2   1 <1>  -0.2370 
  5 C       -2.7650    -0.3160    -0.4500 C.3   1 <1>   0.1400 
  6 C       -3.0340     1.0370     1.6370 C.3   1 <1>   0.1400 
  7 N        0.2120     3.4340     0.7700 N.pl3 1 <1>   0.3140 
  8 C       -1.8820     3.9660     0.8380 C.2   1 <1>  -0.1500 
  9 C       -4.2510    -0.0830    -0.8220 C.3   1 <1>   0.3430 
 10 C       -4.5430     1.1680     1.3190 C.3   1 <1>   0.3430 
 11 N        0.1760     4.6630     1.3030 N.2   1 <1>  -0.7070 
 12 C        1.5000     2.7550     0.5470 C.3   1 <1>   0.0160 
 13 C       -1.0820     4.9780     1.3330 C.2   1 <1>   0.1390 
 14 N       -4.7870     1.1610    -0.1690 N.4   1 <1>  -0.9590 
 15 C       -6.1680     1.5470    -0.5650 C.3   1 <1>   0.4860 
 16 C       -6.4030     2.9470    -0.0360 C.ar  1 <1>  -0.1440 
 17 C       -5.6270     4.0320    -0.5240 C.ar  1 <1>   0.0000 
 18 C       -7.3310     3.1360     0.9550 C.ar  1 <1>  -0.1500 
 19 C       -5.7630     5.2870     0.1130 C.ar  1 <1>   0.0000 
 20 C       -4.7120     3.9390    -1.6020 C.ar  1 <1>  -0.1500 
 21 C       -7.5020     4.3950     1.5360 C.ar  1 <1>  -0.1500 
 22 C       -6.7260     5.4410     1.1280 C.ar  1 <1>  -0.1500 
 23 C       -4.9330     6.3550    -0.2830 C.ar  1 <1>  -0.1500 
 24 C       -3.9230     4.9940    -1.9680 C.ar  1 <1>  -0.1500 
 25 C       -4.0260     6.2130    -1.2940 C.ar  1 <1>  -0.1500 
 26 H       -2.6720    -1.2360     0.1020 H     1 <1>   0.0800 
 27 H       -2.1910    -0.4350    -1.3540 H     1 <1>   0.0800 
 28 H       -2.6960     1.9110     2.1650 H     1 <1>   0.0800 
 29 H       -2.8850     0.2020     2.3000 H     1 <1>   0.0800 
 30 H       -2.9510     4.0180     0.7550 H     1 <1>   0.1500 
 31 H       -4.8290    -0.9410    -0.5210 H     1 <1>   0.0800 
 32 H       -4.3280     0.0040    -1.8930 H     1 <1>   0.0800 
 33 H       -4.9060     2.0870     1.7510 H     1 <1>   0.0800 
 34 H       -5.0780     0.3560     1.7840 H     1 <1>   0.0800 
 35 H        1.4790     1.7870     1.0100 H     1 <1>   0.0800 
 36 H        2.2890     3.3440     0.9750 H     1 <1>   0.0800 
 37 H        1.6640     2.6510    -0.5100 H     1 <1>   0.0800 
 38 H       -1.4420     5.9240     1.7030 H     1 <1>   0.1500 
 39 H       -4.1820     1.9240    -0.5080 H     1 <1>   0.4500 
 40 H       -6.8860     0.8610    -0.1460 H     1 <1>   0.0800 
 41 H       -6.2700     1.5450    -1.6380 H     1 <1>   0.0800 
 42 H       -7.9460     2.3300     1.3230 H     1 <1>   0.1500 
 43 H       -4.6280     3.0320    -2.1690 H     1 <1>   0.1500 
 44 H       -8.2430     4.5270     2.3070 H     1 <1>   0.1500 
 45 H       -6.8430     6.4110     1.5810 H     1 <1>   0.1500 
 46 H       -5.0290     7.2970     0.2270 H     1 <1>   0.1500 
 47 H       -3.2200     4.9120    -2.7800 H     1 <1>   0.1500 
 48 H       -3.3920     7.0320    -1.5910 H     1 <1>   0.1500 
@<TRIPOS>BOND
  1   1   2  2   
  2   2   3  am  
  3   2   4  1   
  4   3   5  1   
  5   3   6  1   
  6   4   7  1   
  7   4   8  2   
  8   5   9  1   
  9   5  26  1   
 10   5  27  1   
 11   6  10  1   
 12   6  28  1   
 13   6  29  1   
 14   7  11  1   
 15   7  12  1   
 16   8  13  1   
 17   8  30  1   
 18   9  14  1   
 19   9  31  1   
 20   9  32  1   
 21  10  14  1   
 22  10  33  1   
 23  10  34  1   
 24  11  13  2   
 25  12  35  1   
 26  12  36  1   
 27  12  37  1   
 28  13  38  1   
 29  14  15  1   
 30  14  39  1   
 31  15  16  1   
 32  15  40  1   
 33  15  41  1   
 34  16  17  ar  
 35  16  18  ar  
 36  17  19  ar  
 37  17  20  ar  
 38  18  21  ar  
 39  18  42  1   
 40  19  22  ar  
 41  19  23  ar  
 42  20  24  ar  
 43  20  43  1   
 44  21  22  ar  
 45  21  44  1   
 46  22  45  1   
 47  23  25  ar  
 48  23  46  1   
 49  24  25  ar  
 50  24  47  1   
 51  25  48  1   
@<TRIPOS>SUBSTRUCTURE
  1 ****   8 GROUP 4 **** **** 0

# MOE 2024.06 (io_trps.svl 2023.06)
