@<TRIPOS>MOLECULE
NONAME
35 36 1 0 0 
SMALL
USER_CHARGES


@<TRIPOS>ATOM
  1 F       -1.3350     0.3050    -1.5620 F     1 <1>  -0.1900 
  2 C       -1.8780    -0.5380    -0.7200 C.ar  1 <1>   0.1900 
  3 C       -2.3460    -0.1320     0.5340 C.ar  1 <1>   0.0820 
  4 C       -1.9460    -1.8550    -1.1370 C.ar  1 <1>  -0.1500 
  5 O       -2.3280     1.1290     1.0500 O.3   1 <1>  -0.3630 
  6 C       -2.8920    -1.1050     1.3570 C.ar  1 <1>  -0.1500 
  7 C       -2.4850    -2.8150    -0.2920 C.ar  1 <1>  -0.1430 
  8 C       -1.9970     2.2650     0.2830 C.3   1 <1>   0.0400 
  9 C       -2.9630    -2.4280     0.9520 C.ar  1 <1>  -0.1500 
 10 C       -2.5400    -4.2750    -0.7150 C.3   1 <1>  -0.0160 
 11 C       -1.4920    -5.1050     0.0490 C.3   1 <1>  -0.0800 
 12 C       -0.1020    -4.4530    -0.0470 C.3   1 <1>   0.3430 
 13 C       -1.4620    -6.5540    -0.4680 C.3   1 <1>  -0.1600 
 14 N        0.9130    -5.2870     0.6590 N.4   1 <1>  -0.9060 
 15 C       -0.3520    -7.3590     0.2250 C.3   1 <1>  -0.1600 
 16 C        1.0100    -6.6680     0.1130 C.3   1 <1>   0.3430 
 17 H       -1.5800    -2.1100    -2.1150 H     1 <1>   0.1500 
 18 H       -3.2660    -0.8140     2.3230 H     1 <1>   0.1500 
 19 H       -2.1630     3.1380     0.8890 H     1 <1>   0.0800 
 20 H       -2.6300     2.2990    -0.5860 H     1 <1>   0.0800 
 21 H       -0.9600     2.2100     0.0040 H     1 <1>   0.0800 
 22 H       -3.4020    -3.1520     1.6170 H     1 <1>   0.1500 
 23 H       -2.3740    -4.3500    -1.7760 H     1 <1>   0.0800 
 24 H       -3.5260    -4.6620    -0.5180 H     1 <1>   0.0800 
 25 H       -1.7820    -5.1150     1.0860 H     1 <1>   0.0800 
 26 H       -0.1370    -3.4680     0.3920 H     1 <1>   0.0800 
 27 H        0.1710    -4.3480    -1.0850 H     1 <1>   0.0800 
 28 H       -1.2910    -6.5600    -1.5320 H     1 <1>   0.0800 
 29 H       -2.4140    -7.0280    -0.2890 H     1 <1>   0.0800 
 30 H        0.6580    -5.3400     1.6530 H     1 <1>   0.4500 
 31 H        1.8300    -4.8270     0.6100 H     1 <1>   0.4500 
 32 H       -0.2870    -8.3350    -0.2260 H     1 <1>   0.0800 
 33 H       -0.5960    -7.5040     1.2630 H     1 <1>   0.0800 
 34 H        1.7500    -7.2330     0.6580 H     1 <1>   0.0800 
 35 H        1.3080    -6.6300    -0.9230 H     1 <1>   0.0800 
@<TRIPOS>BOND
  1   1   2  1   
  2   2   3  ar  
  3   2   4  ar  
  4   3   5  1   
  5   3   6  ar  
  6   4   7  ar  
  7   4  17  1   
  8   5   8  1   
  9   6   9  ar  
 10   6  18  1   
 11   7   9  ar  
 12   7  10  1   
 13   8  19  1   
 14   8  20  1   
 15   8  21  1   
 16   9  22  1   
 17  10  11  1   
 18  10  23  1   
 19  10  24  1   
 20  11  12  1   
 21  11  13  1   
 22  11  25  1   
 23  12  14  1   
 24  12  26  1   
 25  12  27  1   
 26  13  15  1   
 27  13  28  1   
 28  13  29  1   
 29  14  16  1   
 30  14  30  1   
 31  14  31  1   
 32  15  16  1   
 33  15  32  1   
 34  15  33  1   
 35  16  34  1   
 36  16  35  1   
@<TRIPOS>SUBSTRUCTURE
  1 ****   7 GROUP 4 **** **** 0

# MOE 2024.06 (io_trps.svl 2023.06)
