@<TRIPOS>MOLECULE
NONAME
44 45 1 0 0 
SMALL
USER_CHARGES


@<TRIPOS>ATOM
  1 S       -0.1980     0.2370     0.2260 S.o2  1 <1>   1.3330 
  2 O        1.1040    -0.1960     0.6730 O.2   1 <1>  -0.6500 
  3 O       -0.9170     1.2800     0.9120 O.2   1 <1>  -0.6500 
  4 N       -1.2020    -1.1720     0.1460 N.am  1 <1>  -0.6930 
  5 C       -0.0740     0.6870    -1.4920 C.3   1 <1>  -0.1350 
  6 C       -2.5440    -1.1490     0.5290 C.ar  1 <1>   0.1990 
  7 C       -0.4670    -2.4480     0.0030 C.3   1 <1>   0.3340 
  8 C       -3.0550    -2.0520     1.4580 C.ar  1 <1>  -0.1500 
  9 C       -3.4290    -0.2180    -0.0070 C.ar  1 <1>  -0.1500 
 10 C       -1.2830    -3.4320    -0.8170 C.2   1 <1>  -0.2880 
 11 C       -4.3890    -2.0360     1.8160 C.ar  1 <1>  -0.1500 
 12 C       -4.7630    -0.2000     0.3550 C.ar  1 <1>  -0.1500 
 13 C       -1.6470    -4.6580    -0.4260 C.2   1 <1>  -0.3000 
 14 C       -5.2870    -1.1170     1.2700 C.ar  1 <1>   0.0860 
 15 C       -6.6890    -1.1290     1.6470 C.2   1 <1>   0.5440 
 16 O       -7.0490    -1.6390     2.6920 O.2   1 <1>  -0.5700 
 17 N       -7.6400    -0.5870     0.8280 N.am  1 <1>  -0.7300 
 18 C       -9.0890    -0.5530     1.0940 C.3   1 <1>   0.2200 
 19 C       -9.8030    -1.3650     0.0210 C.3   1 <1>  -0.1600 
 20 C       -9.5990     0.8630     0.8600 C.3   1 <1>  -0.1600 
 21 C       -9.9170    -0.4390    -1.1950 C.3   1 <1>  -0.1600 
 22 C       -9.7990     0.9930    -0.6550 C.3   1 <1>  -0.1600 
 23 H        0.5470     1.5540    -1.5980 H     1 <1>   0.0800 
 24 H       -1.0430     0.9080    -1.8910 H     1 <1>   0.0800 
 25 H        0.3590    -0.1150    -2.0570 H     1 <1>   0.0800 
 26 H       -0.2480    -2.8480     0.9780 H     1 <1>   0.0800 
 27 H        0.4680    -2.2810    -0.5040 H     1 <1>   0.0800 
 28 H       -2.4020    -2.7740     1.9090 H     1 <1>   0.1500 
 29 H       -3.0680     0.5060    -0.7120 H     1 <1>   0.1500 
 30 H       -1.5530    -3.0300    -1.7780 H     1 <1>   0.1500 
 31 H       -4.7530    -2.7480     2.5370 H     1 <1>   0.1500 
 32 H       -5.4060     0.5460    -0.0730 H     1 <1>   0.1500 
 33 H       -2.2300    -5.3310    -1.0320 H     1 <1>   0.1500 
 34 H       -1.3990    -5.0940     0.5270 H     1 <1>   0.1500 
 35 H       -7.3830    -0.2570    -0.1000 H     1 <1>   0.3700 
 36 H       -9.3060    -0.9070     2.0900 H     1 <1>   0.0800 
 37 H      -10.7920    -1.5980     0.3760 H     1 <1>   0.0800 
 38 H       -9.2920    -2.2850    -0.1990 H     1 <1>   0.0800 
 39 H       -8.9310     1.6060     1.2600 H     1 <1>   0.0800 
 40 H      -10.5530     0.9630     1.3480 H     1 <1>   0.0800 
 41 H      -10.8510    -0.5920    -1.7080 H     1 <1>   0.0800 
 42 H       -9.1100    -0.6350    -1.8800 H     1 <1>   0.0800 
 43 H       -8.9480     1.4800    -1.0980 H     1 <1>   0.0800 
 44 H      -10.6820     1.5690    -0.8750 H     1 <1>   0.0800 
@<TRIPOS>BOND
  1   1   2  2   
  2   1   3  2   
  3   1   4  am  
  4   1   5  1   
  5   4   6  1   
  6   4   7  1   
  7   5  23  1   
  8   5  24  1   
  9   5  25  1   
 10   6   8  ar  
 11   6   9  ar  
 12   7  10  1   
 13   7  26  1   
 14   7  27  1   
 15   8  11  ar  
 16   8  28  1   
 17   9  12  ar  
 18   9  29  1   
 19  10  13  2   
 20  10  30  1   
 21  11  14  ar  
 22  11  31  1   
 23  12  14  ar  
 24  12  32  1   
 25  13  33  1   
 26  13  34  1   
 27  14  15  1   
 28  15  16  2   
 29  15  17  am  
 30  17  18  1   
 31  17  35  1   
 32  18  19  1   
 33  18  20  1   
 34  18  36  1   
 35  19  21  1   
 36  19  37  1   
 37  19  38  1   
 38  20  22  1   
 39  20  39  1   
 40  20  40  1   
 41  21  22  1   
 42  21  41  1   
 43  21  42  1   
 44  22  43  1   
 45  22  44  1   
@<TRIPOS>SUBSTRUCTURE
  1 ****  12 GROUP 4 **** **** 0

# MOE 2024.06 (io_trps.svl 2023.06)
