@<TRIPOS>MOLECULE
NONAME
43 44 1 0 0 
SMALL
USER_CHARGES


@<TRIPOS>ATOM
  1 O       -7.3830     3.2980     0.0580 O.co2 1 <1>  -0.9000 
  2 C       -7.9730     2.4610    -0.6480 C.2   1 <1>   1.0330 
  3 O       -8.2900     2.7940    -1.7950 O.co2 1 <1>  -0.9000 
  4 C       -7.8010     1.0690    -0.3180 C.2   1 <1>  -0.2330 
  5 C       -6.7080     0.3220    -0.8080 C.2   1 <1>  -0.1810 
  6 C       -8.4840     0.2050     0.4700 C.2   1 <1>  -0.0400 
  7 C       -6.8210    -0.9210    -0.2810 C.2   1 <1>  -0.0400 
  8 C       -5.7210     1.0020    -1.7390 C.3   1 <1>   0.5240 
  9 O       -7.8970    -0.9680     0.4860 O.3   1 <1>  -0.2800 
 10 C       -9.7420     0.4110     1.2820 C.3   1 <1>  -0.0600 
 11 C       -5.9930    -2.2100    -0.3930 C.3   1 <1>   0.1800 
 12 N       -5.1230     2.1520    -1.0170 N.4   1 <1>  -0.9590 
 13 C       -6.8790    -3.3290    -0.9570 C.3   1 <1>  -0.2400 
 14 C       -4.7750    -2.0470    -1.3130 C.3   1 <1>  -0.2400 
 15 C       -5.4960    -2.6120     1.0020 C.3   1 <1>  -0.2400 
 16 C       -4.5140     3.1880    -1.8920 C.3   1 <1>   0.3430 
 17 C       -4.3040     1.7940     0.1730 C.3   1 <1>   0.3430 
 18 C       -4.0220     4.3760    -1.0440 C.3   1 <1>   0.1200 
 19 C       -3.8250     3.0680     0.8920 C.3   1 <1>   0.1200 
 20 O       -3.1840     3.9270    -0.0130 O.3   1 <1>  -0.5600 
 21 H       -6.2640     1.3600    -2.6000 H     1 <1>   0.0800 
 22 H       -4.9550     0.3240    -2.0670 H     1 <1>   0.0800 
 23 H      -10.0930     1.4210     1.1720 H     1 <1>   0.0800 
 24 H       -9.5390     0.2220     2.3200 H     1 <1>   0.0800 
 25 H      -10.5050    -0.2640     0.9430 H     1 <1>   0.0800 
 26 H       -5.9510     2.6490    -0.6040 H     1 <1>   0.4500 
 27 H       -7.7200    -3.5020    -0.3080 H     1 <1>   0.0800 
 28 H       -6.3270    -4.2470    -1.0500 H     1 <1>   0.0800 
 29 H       -7.2570    -3.0500    -1.9250 H     1 <1>   0.0800 
 30 H       -5.0900    -1.7910    -2.3080 H     1 <1>   0.0800 
 31 H       -4.2250    -2.9700    -1.3670 H     1 <1>   0.0800 
 32 H       -4.1150    -1.2880    -0.9350 H     1 <1>   0.0800 
 33 H       -6.3310    -2.7800     1.6600 H     1 <1>   0.0800 
 34 H       -4.8910    -1.8300     1.4230 H     1 <1>   0.0800 
 35 H       -4.9150    -3.5150     0.9570 H     1 <1>   0.0800 
 36 H       -5.2480     3.5390    -2.6000 H     1 <1>   0.0800 
 37 H       -3.6820     2.7740    -2.4350 H     1 <1>   0.0800 
 38 H       -3.4480     1.2150    -0.1280 H     1 <1>   0.0800 
 39 H       -4.8950     1.2020     0.8540 H     1 <1>   0.0800 
 40 H       -4.8590     4.9010    -0.6120 H     1 <1>   0.0800 
 41 H       -3.4620     5.0630    -1.6530 H     1 <1>   0.0800 
 42 H       -3.1230     2.8180     1.6670 H     1 <1>   0.0800 
 43 H       -4.6600     3.5870     1.3340 H     1 <1>   0.0800 
@<TRIPOS>BOND
  1   1   2  ar  
  2   2   3  ar  
  3   2   4  1   
  4   4   5  1   
  5   4   6  2   
  6   5   7  2   
  7   5   8  1   
  8   6   9  1   
  9   6  10  1   
 10   7   9  1   
 11   7  11  1   
 12   8  12  1   
 13   8  21  1   
 14   8  22  1   
 15  10  23  1   
 16  10  24  1   
 17  10  25  1   
 18  11  13  1   
 19  11  14  1   
 20  11  15  1   
 21  12  16  1   
 22  12  17  1   
 23  12  26  1   
 24  13  27  1   
 25  13  28  1   
 26  13  29  1   
 27  14  30  1   
 28  14  31  1   
 29  14  32  1   
 30  15  33  1   
 31  15  34  1   
 32  15  35  1   
 33  16  18  1   
 34  16  36  1   
 35  16  37  1   
 36  17  19  1   
 37  17  38  1   
 38  17  39  1   
 39  18  20  1   
 40  18  40  1   
 41  18  41  1   
 42  19  20  1   
 43  19  42  1   
 44  19  43  1   
@<TRIPOS>SUBSTRUCTURE
  1 ****   5 GROUP 4 **** **** 0

# MOE 2024.06 (io_trps.svl 2023.06)
