@<TRIPOS>MOLECULE
NONAME
43 45 1 0 0 
SMALL
USER_CHARGES


@<TRIPOS>ATOM
  1 O      -10.3640     1.8220    -0.7030 O.3   1 <1>  -0.3630 
  2 C       -9.2250     1.1850    -0.3410 C.ar  1 <1>   0.0830 
  3 C      -11.3250     2.0140     0.3130 C.3   1 <1>   0.0400 
  4 C       -9.1870    -0.1560     0.0390 C.ar  1 <1>   0.0830 
  5 C       -8.0550     1.9210    -0.3490 C.ar  1 <1>  -0.1500 
  6 O      -10.2740    -0.9650     0.0440 O.3   1 <1>  -0.3630 
  7 C       -7.9860    -0.7140     0.4340 C.ar  1 <1>  -0.1500 
  8 C       -6.8420     1.3670     0.0480 C.ar  1 <1>  -0.1430 
  9 C      -10.9240    -1.1780    -1.1920 C.3   1 <1>   0.0400 
 10 C       -6.8030     0.0200     0.4290 C.ar  1 <1>  -0.1430 
 11 C       -5.5750     2.2430     0.0490 C.3   1 <1>   0.1430 
 12 C       -5.4970    -0.6650     0.8510 C.3   1 <1>   0.5660 
 13 C       -4.4050     1.5060     0.7340 C.3   1 <1>   0.3430 
 14 C       -5.7400     3.5990     0.7530 C.3   1 <1>  -0.1600 
 15 C       -5.1660     2.6550    -1.3720 C.3   1 <1>  -0.1600 
 16 N       -4.3540     0.0820     0.3140 N.4   1 <1>  -0.9060 
 17 C       -5.3470    -2.0880     0.3180 C.3   1 <1>  -0.2400 
 18 C       -4.6500     4.5000     0.1640 C.3   1 <1>  -0.1600 
 19 C       -4.3100     3.9170    -1.2130 C.3   1 <1>  -0.1600 
 20 H      -10.8700     2.5530     1.1250 H     1 <1>   0.0800 
 21 H      -11.6820     1.0590     0.6530 H     1 <1>   0.0800 
 22 H      -12.1380     2.5840    -0.0980 H     1 <1>   0.0800 
 23 H       -8.1270     2.9430    -0.6750 H     1 <1>   0.1500 
 24 H       -8.0180    -1.7430     0.7410 H     1 <1>   0.1500 
 25 H      -11.6470    -1.9620    -1.0610 H     1 <1>   0.0800 
 26 H      -10.1930    -1.4700    -1.9260 H     1 <1>   0.0800 
 27 H      -11.4190    -0.2750    -1.4980 H     1 <1>   0.0800 
 28 H       -5.4440    -0.6810     1.9280 H     1 <1>   0.0800 
 29 H       -4.5350     1.5590     1.8030 H     1 <1>   0.0800 
 30 H       -3.4820     2.0030     0.4840 H     1 <1>   0.0800 
 31 H       -5.6700     3.5270     1.8240 H     1 <1>   0.0800 
 32 H       -6.6910     4.0410     0.5170 H     1 <1>   0.0800 
 33 H       -6.0460     2.9160    -1.9370 H     1 <1>   0.0800 
 34 H       -4.6460     1.8820    -1.9090 H     1 <1>   0.0800 
 35 H       -4.4250     0.0340    -0.7070 H     1 <1>   0.4500 
 36 H       -3.4800    -0.3660     0.6040 H     1 <1>   0.4500 
 37 H       -5.5280    -2.1200    -0.7420 H     1 <1>   0.0800 
 38 H       -6.0560    -2.7390     0.7970 H     1 <1>   0.0800 
 39 H       -4.3690    -2.4800     0.5300 H     1 <1>   0.0800 
 40 H       -3.7750     4.4910     0.7920 H     1 <1>   0.0800 
 41 H       -4.9970     5.5170     0.0820 H     1 <1>   0.0800 
 42 H       -4.5330     4.6240    -1.9960 H     1 <1>   0.0800 
 43 H       -3.2620     3.6760    -1.2620 H     1 <1>   0.0800 
@<TRIPOS>BOND
  1   1   2  1   
  2   1   3  1   
  3   2   4  ar  
  4   2   5  ar  
  5   3  20  1   
  6   3  21  1   
  7   3  22  1   
  8   4   6  1   
  9   4   7  ar  
 10   5   8  ar  
 11   5  23  1   
 12   6   9  1   
 13   7  10  ar  
 14   7  24  1   
 15   8  10  ar  
 16   8  11  1   
 17   9  25  1   
 18   9  26  1   
 19   9  27  1   
 20  10  12  1   
 21  11  13  1   
 22  11  14  1   
 23  11  15  1   
 24  12  16  1   
 25  12  17  1   
 26  12  28  1   
 27  13  16  1   
 28  13  29  1   
 29  13  30  1   
 30  14  18  1   
 31  14  31  1   
 32  14  32  1   
 33  15  19  1   
 34  15  33  1   
 35  15  34  1   
 36  16  35  1   
 37  16  36  1   
 38  17  37  1   
 39  17  38  1   
 40  17  39  1   
 41  18  19  1   
 42  18  40  1   
 43  18  41  1   
 44  19  42  1   
 45  19  43  1   
@<TRIPOS>SUBSTRUCTURE
  1 ****   8 GROUP 4 **** **** 0

# MOE 2024.06 (io_trps.svl 2023.06)
