@<TRIPOS>MOLECULE
NONAME
37 38 1 0 0 
SMALL
USER_CHARGES


@<TRIPOS>ATOM
  1 CL       0.0810    -0.0840     0.4900 Cl    1 <1>  -0.1770 
  2 C       -1.6390    -0.0190     0.1990 C.ar  1 <1>   0.1770 
  3 C       -2.1840     1.1140    -0.3790 C.ar  1 <1>  -0.1500 
  4 C       -2.4260    -1.1010     0.5520 C.ar  1 <1>  -0.1500 
  5 C       -3.5500     1.1630    -0.6090 C.ar  1 <1>  -0.1500 
  6 C       -3.7920    -1.0540     0.3230 C.ar  1 <1>  -0.1500 
  7 C       -4.3420     0.0820    -0.2570 C.ar  1 <1>   0.1020 
  8 S       -6.1070     0.2300    -0.5910 S.3   1 <1>  -0.3320 
  9 C       -6.8970    -1.3370    -0.0310 C.3   1 <1>   0.0700 
 10 C       -8.3940    -1.1990    -0.3160 C.3   1 <1>  -0.1600 
 11 C       -9.1550    -2.4500     0.1190 C.3   1 <1>   0.3430 
 12 N      -10.5900    -2.3410    -0.2600 N.4   1 <1>  -0.9590 
 13 C      -11.3290    -1.3100     0.5590 C.3   1 <1>   0.3430 
 14 C      -11.2760    -3.6790    -0.1480 C.3   1 <1>   0.3430 
 15 C      -12.8280    -1.2510     0.1930 C.3   1 <1>   0.1100 
 16 C      -12.7740    -3.5900    -0.5080 C.3   1 <1>   0.1100 
 17 N      -13.4580    -2.5740     0.3060 N.3   1 <1>  -0.9000 
 18 H       -1.5490     1.9400    -0.6430 H     1 <1>   0.1500 
 19 H       -1.9700    -1.9660     0.9990 H     1 <1>   0.1500 
 20 H       -3.9980     2.0320    -1.0570 H     1 <1>   0.1500 
 21 H       -4.3960    -1.8950     0.5980 H     1 <1>   0.1500 
 22 H       -6.6910    -1.4390     1.0210 H     1 <1>   0.0800 
 23 H       -6.4470    -2.1390    -0.5910 H     1 <1>   0.0800 
 24 H       -8.5250    -1.0430    -1.3730 H     1 <1>   0.0800 
 25 H       -8.7560    -0.3370     0.2150 H     1 <1>   0.0800 
 26 H       -9.0650    -2.5870     1.1850 H     1 <1>   0.0800 
 27 H       -8.7200    -3.3090    -0.3680 H     1 <1>   0.0800 
 28 H      -10.6510    -2.0510    -1.2440 H     1 <1>   0.4500 
 29 H      -10.8940    -0.3360     0.4080 H     1 <1>   0.0800 
 30 H      -11.2470    -1.5520     1.6050 H     1 <1>   0.0800 
 31 H      -11.1950    -4.0430     0.8630 H     1 <1>   0.0800 
 32 H      -10.7980    -4.3930    -0.7980 H     1 <1>   0.0800 
 33 H      -12.9450    -0.8720    -0.8090 H     1 <1>   0.0800 
 34 H      -13.3260    -0.5690     0.8620 H     1 <1>   0.0800 
 35 H      -13.2360    -4.5470    -0.3320 H     1 <1>   0.0800 
 36 H      -12.8860    -3.3590    -1.5540 H     1 <1>   0.0800 
 37 H      -14.4520    -2.5150     0.0320 H     1 <1>   0.3600 
@<TRIPOS>BOND
  1   1   2  1   
  2   2   3  ar  
  3   2   4  ar  
  4   3   5  ar  
  5   3  18  1   
  6   4   6  ar  
  7   4  19  1   
  8   5   7  ar  
  9   5  20  1   
 10   6   7  ar  
 11   6  21  1   
 12   7   8  1   
 13   8   9  1   
 14   9  10  1   
 15   9  22  1   
 16   9  23  1   
 17  10  11  1   
 18  10  24  1   
 19  10  25  1   
 20  11  12  1   
 21  11  26  1   
 22  11  27  1   
 23  12  13  1   
 24  12  14  1   
 25  12  28  1   
 26  13  15  1   
 27  13  29  1   
 28  13  30  1   
 29  14  16  1   
 30  14  31  1   
 31  14  32  1   
 32  15  17  1   
 33  15  33  1   
 34  15  34  1   
 35  16  17  1   
 36  16  35  1   
 37  16  36  1   
 38  17  37  1   
@<TRIPOS>SUBSTRUCTURE
  1 ****   9 GROUP 4 **** **** 0

# MOE 2024.06 (io_trps.svl 2023.06)
