@<TRIPOS>MOLECULE
NONAME
52 54 1 0 0 
SMALL
USER_CHARGES


@<TRIPOS>ATOM
  1 O       -0.7770    -0.1200     0.6550 O.2   1 <1>  -0.5700 
  2 C       -0.9790    -0.7580    -0.3610 C.2   1 <1>   0.6900 
  3 N       -2.1520    -0.6280    -1.0500 N.am  1 <1>  -0.6600 
  4 N       -0.0330    -1.6040    -0.8350 N.am  1 <1>  -0.7300 
  5 C       -2.8140    -1.7790    -1.7410 C.3   1 <1>   0.1400 
  6 C       -3.1100     0.4730    -0.7180 C.3   1 <1>   0.1400 
  7 C        1.2800    -1.8390    -0.2050 C.3   1 <1>   0.1400 
  8 C       -4.0130    -2.2980    -0.9260 C.3   1 <1>   0.2090 
  9 C       -4.2980    -0.0570     0.1010 C.3   1 <1>   0.2090 
 10 C        1.6670    -3.3090    -0.3920 C.3   1 <1>  -0.1600 
 11 N       -4.9670    -1.1970    -0.6010 N.pl3 1 <1>  -0.8380 
 12 C        3.0730    -3.6360     0.1440 C.3   1 <1>  -0.0800 
 13 C       -6.1970    -1.5930    -0.0890 C.ar  1 <1>   0.1000 
 14 C        3.4490    -5.0800    -0.2350 C.3   1 <1>  -0.1600 
 15 C        3.1710    -3.4440     1.6710 C.3   1 <1>  -0.1600 
 16 C       -6.3160    -2.1360     1.1860 C.ar  1 <1>  -0.1500 
 17 C       -7.3400    -1.4500    -0.8630 C.ar  1 <1>  -0.1500 
 18 C        4.8370    -5.4650     0.2940 C.3   1 <1>  -0.1600 
 19 C        4.5570    -3.8350     2.2040 C.3   1 <1>  -0.1600 
 20 C       -7.5490    -2.5270     1.6750 C.ar  1 <1>  -0.1500 
 21 C       -8.5760    -1.8390    -0.3790 C.ar  1 <1>  -0.1500 
 22 C        4.9210    -5.2720     1.8120 C.3   1 <1>  -0.1600 
 23 C       -8.6830    -2.3790     0.8920 C.ar  1 <1>  -0.1500 
 24 H       -0.1260    -1.8880    -1.8060 H     1 <1>   0.3700 
 25 H       -2.1200    -2.5860    -1.8890 H     1 <1>   0.0800 
 26 H       -3.1620    -1.4560    -2.7060 H     1 <1>   0.0800 
 27 H       -3.4790     0.9060    -1.6310 H     1 <1>   0.0800 
 28 H       -2.6120     1.2490    -0.1640 H     1 <1>   0.0800 
 29 H        1.2220    -1.5970     0.8430 H     1 <1>   0.0800 
 30 H        2.0130    -1.1980    -0.6640 H     1 <1>   0.0800 
 31 H       -3.6550    -2.7430    -0.0140 H     1 <1>   0.0800 
 32 H       -4.5280    -3.0570    -1.4890 H     1 <1>   0.0800 
 33 H       -5.0110     0.7340     0.2520 H     1 <1>   0.0800 
 34 H       -3.9440    -0.3800     1.0640 H     1 <1>   0.0800 
 35 H        1.6390    -3.5360    -1.4430 H     1 <1>   0.0800 
 36 H        0.9410    -3.9270     0.1070 H     1 <1>   0.0800 
 37 H        3.7810    -2.9740    -0.3270 H     1 <1>   0.0800 
 38 H        3.4410    -5.1890    -1.3060 H     1 <1>   0.0800 
 39 H        2.7190    -5.7600     0.1710 H     1 <1>   0.0800 
 40 H        2.4240    -4.0480     2.1570 H     1 <1>   0.0800 
 41 H        2.9860    -2.4180     1.9320 H     1 <1>   0.0800 
 42 H       -5.4360    -2.2500     1.7910 H     1 <1>   0.1500 
 43 H       -7.2450    -1.0300    -1.8460 H     1 <1>   0.1500 
 44 H        5.5830    -4.8540    -0.1850 H     1 <1>   0.0800 
 45 H        5.0440    -6.4920     0.0500 H     1 <1>   0.0800 
 46 H        4.5690    -3.7400     3.2760 H     1 <1>   0.0800 
 47 H        5.2940    -3.1600     1.8050 H     1 <1>   0.0800 
 48 H       -7.6290    -2.9450     2.6620 H     1 <1>   0.1500 
 49 H       -9.4540    -1.7220    -0.9900 H     1 <1>   0.1500 
 50 H        5.9180    -5.4970     2.1510 H     1 <1>   0.0800 
 51 H        4.2450    -5.9560     2.2970 H     1 <1>   0.0800 
 52 H       -9.6430    -2.6820     1.2700 H     1 <1>   0.1500 
@<TRIPOS>BOND
  1   1   2  2   
  2   2   3  am  
  3   2   4  am  
  4   3   5  1   
  5   3   6  1   
  6   4   7  1   
  7   4  24  1   
  8   5   8  1   
  9   5  25  1   
 10   5  26  1   
 11   6   9  1   
 12   6  27  1   
 13   6  28  1   
 14   7  10  1   
 15   7  29  1   
 16   7  30  1   
 17   8  11  1   
 18   8  31  1   
 19   8  32  1   
 20   9  11  1   
 21   9  33  1   
 22   9  34  1   
 23  10  12  1   
 24  10  35  1   
 25  10  36  1   
 26  11  13  1   
 27  12  14  1   
 28  12  15  1   
 29  12  37  1   
 30  13  16  ar  
 31  13  17  ar  
 32  14  18  1   
 33  14  38  1   
 34  14  39  1   
 35  15  19  1   
 36  15  40  1   
 37  15  41  1   
 38  16  20  ar  
 39  16  42  1   
 40  17  21  ar  
 41  17  43  1   
 42  18  22  1   
 43  18  44  1   
 44  18  45  1   
 45  19  22  1   
 46  19  46  1   
 47  19  47  1   
 48  20  23  ar  
 49  20  48  1   
 50  21  23  ar  
 51  21  49  1   
 52  22  50  1   
 53  22  51  1   
 54  23  52  1   
@<TRIPOS>SUBSTRUCTURE
  1 ****   2 GROUP 4 **** **** 0

# MOE 2024.06 (io_trps.svl 2023.06)
