@<TRIPOS>MOLECULE
NONAME
28 29 1 0 0 
SMALL
USER_CHARGES


@<TRIPOS>ATOM
  1 CL      -0.6270     0.9900    -2.4680 Cl    1 <1>  -0.1770 
  2 C       -0.3410     2.1270    -1.1720 C.ar  1 <1>   0.1770 
  3 C        0.9110     2.2460    -0.5950 C.ar  1 <1>   0.1770 
  4 C       -1.3930     2.9100    -0.7310 C.ar  1 <1>  -0.1500 
  5 CL       2.2490     1.2630    -1.1410 Cl    1 <1>  -0.1770 
  6 C        1.1210     3.1520     0.4290 C.ar  1 <1>  -0.1500 
  7 C       -1.1940     3.8240     0.2990 C.ar  1 <1>  -0.1440 
  8 C        0.0690     3.9370     0.8720 C.ar  1 <1>  -0.1500 
  9 C       -2.3310     4.7110     0.8000 C.3   1 <1>   0.3640 
 10 N       -3.5530     3.8950     0.9610 N.am  1 <1>  -0.7300 
 11 C       -2.5790     5.8930    -0.1520 C.3   1 <1>   0.1600 
 12 C       -4.8210     4.2900     0.7120 C.2   1 <1>   0.5690 
 13 N       -1.4190     6.8060    -0.1010 N.pl3 1 <1>   0.8000 
 14 C       -3.8980     6.6200     0.1900 C.3   1 <1>  -0.1600 
 15 O       -5.7440     3.5680     0.9740 O.2   1 <1>  -0.5700 
 16 C       -5.0870     5.6450     0.0780 C.3   1 <1>  -0.0990 
 17 O       -0.8920     7.1430    -1.1660 O.2   1 <1>  -0.5200 
 18 O       -1.0190     7.2080     1.0010 O.2   1 <1>  -0.5200 
 19 H       -2.3560     2.7930    -1.1990 H     1 <1>   0.1500 
 20 H        2.0990     3.2400     0.8700 H     1 <1>   0.1500 
 21 H        0.2480     4.6430     1.6690 H     1 <1>   0.1500 
 22 H       -2.0820     5.0900     1.7790 H     1 <1>   0.0800 
 23 H       -3.4350     2.9780     1.3990 H     1 <1>   0.3700 
 24 H       -2.6390     5.5150    -1.1560 H     1 <1>   0.0800 
 25 H       -4.0520     7.4500    -0.4790 H     1 <1>   0.0800 
 26 H       -3.8490     6.9970     1.1980 H     1 <1>   0.0800 
 27 H       -5.9560     6.0790     0.5400 H     1 <1>   0.0800 
 28 H       -5.3200     5.4760    -0.9580 H     1 <1>   0.0800 
@<TRIPOS>BOND
  1   1   2  1   
  2   2   3  ar  
  3   2   4  ar  
  4   3   5  1   
  5   3   6  ar  
  6   4   7  ar  
  7   4  19  1   
  8   6   8  ar  
  9   6  20  1   
 10   7   8  ar  
 11   7   9  1   
 12   8  21  1   
 13   9  10  1   
 14   9  11  1   
 15   9  22  1   
 16  10  12  am  
 17  10  23  1   
 18  11  13  1   
 19  11  14  1   
 20  11  24  1   
 21  12  15  2   
 22  12  16  1   
 23  13  17  2   
 24  13  18  2   
 25  14  16  1   
 26  14  25  1   
 27  14  26  1   
 28  16  27  1   
 29  16  28  1   
@<TRIPOS>SUBSTRUCTURE
  1 ****   7 GROUP 4 **** **** 0

# MOE 2024.06 (io_trps.svl 2023.06)
