@<TRIPOS>MOLECULE
NONAME
40 41 1 0 0 
SMALL
USER_CHARGES


@<TRIPOS>ATOM
  1 O        1.1620    -0.9320     1.9390 O.2   1 <1>  -0.5700 
  2 C        1.3790    -1.5080     0.9010 C.2   1 <1>   0.5690 
  3 N        0.5430    -2.3420     0.2220 N.am  1 <1>  -0.0840 
  4 C        2.6780    -1.3480     0.1390 C.3   1 <1>  -0.0990 
  5 O       -0.6890    -2.7860     0.7240 O.3   1 <1>  -0.3160 
  6 C        1.0760    -2.7710    -0.9580 C.2   1 <1>   0.5690 
  7 C        2.4710    -2.2070    -1.1270 C.3   1 <1>  -0.0990 
  8 C       -1.7200    -1.9180     0.3120 C.3   1 <1>   0.1200 
  9 O        0.5530    -3.4690    -1.7920 O.2   1 <1>  -0.5700 
 10 C       -3.0390    -2.4390     0.8790 C.3   1 <1>  -0.1600 
 11 C       -4.1940    -1.5280     0.4690 C.3   1 <1>   0.1200 
 12 O       -5.3830    -2.0480     1.0140 O.3   1 <1>  -0.3630 
 13 C       -6.5980    -1.7260     0.4860 C.ar  1 <1>   0.0820 
 14 C       -6.9340    -0.5000    -0.1120 C.ar  1 <1>   0.0820 
 15 C       -7.5540    -2.7240     0.5750 C.ar  1 <1>  -0.1500 
 16 O       -6.0140     0.5080    -0.1670 O.3   1 <1>  -0.3630 
 17 C       -8.2190    -0.3320    -0.6270 C.ar  1 <1>  -0.1500 
 18 C       -8.8270    -2.5390     0.0680 C.ar  1 <1>  -0.1500 
 19 C       -6.3850     1.8370    -0.4640 C.3   1 <1>   0.0400 
 20 C       -9.1640    -1.3420    -0.5380 C.ar  1 <1>  -0.1430 
 21 C      -10.5580    -1.1370    -1.1050 C.3   1 <1>  -0.0970 
 22 H        3.4970    -1.7110     0.7340 H     1 <1>   0.0800 
 23 H        2.8330    -0.3120    -0.1060 H     1 <1>   0.0800 
 24 H        3.1840    -3.0100    -1.1810 H     1 <1>   0.0800 
 25 H        2.5190    -1.6130    -2.0220 H     1 <1>   0.0800 
 26 H       -1.7480    -1.9060    -0.7640 H     1 <1>   0.0800 
 27 H       -1.5080    -0.9320     0.6910 H     1 <1>   0.0800 
 28 H       -2.9770    -2.4680     1.9520 H     1 <1>   0.0800 
 29 H       -3.2200    -3.4300     0.5010 H     1 <1>   0.0800 
 30 H       -4.2960    -1.4940    -0.6020 H     1 <1>   0.0800 
 31 H       -4.0520    -0.5360     0.8610 H     1 <1>   0.0800 
 32 H       -7.2920    -3.6550     1.0450 H     1 <1>   0.1500 
 33 H       -8.5050     0.5830    -1.1050 H     1 <1>   0.1500 
 34 H       -9.5490    -3.3330     0.1460 H     1 <1>   0.1500 
 35 H       -5.5250     2.4640    -0.3150 H     1 <1>   0.0800 
 36 H       -7.1750     2.1360     0.2020 H     1 <1>   0.0800 
 37 H       -6.7010     1.8910    -1.4900 H     1 <1>   0.0800 
 38 H      -10.8740    -0.1190    -0.9630 H     1 <1>   0.0800 
 39 H      -11.2640    -1.7820    -0.6150 H     1 <1>   0.0800 
 40 H      -10.5580    -1.3590    -2.1570 H     1 <1>   0.0800 
@<TRIPOS>BOND
  1   1   2  2   
  2   2   3  am  
  3   2   4  1   
  4   3   5  1   
  5   3   6  am  
  6   4   7  1   
  7   4  22  1   
  8   4  23  1   
  9   5   8  1   
 10   6   7  1   
 11   6   9  2   
 12   7  24  1   
 13   7  25  1   
 14   8  10  1   
 15   8  26  1   
 16   8  27  1   
 17  10  11  1   
 18  10  28  1   
 19  10  29  1   
 20  11  12  1   
 21  11  30  1   
 22  11  31  1   
 23  12  13  1   
 24  13  14  ar  
 25  13  15  ar  
 26  14  16  1   
 27  14  17  ar  
 28  15  18  ar  
 29  15  32  1   
 30  16  19  1   
 31  17  20  ar  
 32  17  33  1   
 33  18  20  ar  
 34  18  34  1   
 35  19  35  1   
 36  19  36  1   
 37  19  37  1   
 38  20  21  1   
 39  21  38  1   
 40  21  39  1   
 41  21  40  1   
@<TRIPOS>SUBSTRUCTURE
  1 ****  11 GROUP 4 **** **** 0

# MOE 2024.06 (io_trps.svl 2023.06)
