@<TRIPOS>MOLECULE
NONAME
36 36 1 0 0 
SMALL
USER_CHARGES


@<TRIPOS>ATOM
  1 O       -0.2020     0.4920    -0.8140 O.2   1 <1>  -0.5700 
  2 C       -0.0390     1.5310    -0.1960 C.2   1 <1>   0.6900 
  3 N       -1.0820     2.4120    -0.0440 N.am  1 <1>  -0.6600 
  4 N        1.1920     1.8060     0.3370 N.am  1 <1>  -0.6600 
  5 C       -2.4900     1.9380    -0.0880 C.3   1 <1>   0.1400 
  6 C       -0.8790     3.8780    -0.1800 C.3   1 <1>   0.1400 
  7 C        2.4060     1.1940    -0.2590 C.3   1 <1>   0.2840 
  8 C        1.3530     2.3730     1.7040 C.3   1 <1>   0.0600 
  9 C       -3.0890     2.0110     1.3140 C.3   1 <1>  -0.2400 
 10 C       -0.9180     4.2710    -1.6560 C.3   1 <1>  -0.2400 
 11 C        3.5350     2.2150    -0.3170 C.ar  1 <1>  -0.1440 
 12 C        3.4140     3.3350    -1.1250 C.ar  1 <1>  -0.1500 
 13 C        4.6880     2.0400     0.4340 C.ar  1 <1>  -0.1500 
 14 C        4.4330     4.2700    -1.1840 C.ar  1 <1>  -0.1500 
 15 C        5.7080     2.9750     0.3770 C.ar  1 <1>  -0.1500 
 16 C        5.5800     4.0910    -0.4330 C.ar  1 <1>  -0.1500 
 17 H       -2.5300     0.9210    -0.4390 H     1 <1>   0.0800 
 18 H       -3.0610     2.5440    -0.7700 H     1 <1>   0.0800 
 19 H        0.0740     4.1610     0.2300 H     1 <1>   0.0800 
 20 H       -1.6440     4.4040     0.3650 H     1 <1>   0.0800 
 21 H        2.1930     0.8530    -1.2580 H     1 <1>   0.0800 
 22 H        2.6950     0.3410     0.3280 H     1 <1>   0.0800 
 23 H        0.3910     2.5480     2.1540 H     1 <1>   0.0800 
 24 H        1.8910     3.3040     1.6490 H     1 <1>   0.0800 
 25 H        1.9020     1.6850     2.3220 H     1 <1>   0.0800 
 26 H       -2.5170     1.3970     1.9870 H     1 <1>   0.0800 
 27 H       -4.0990     1.6470     1.2930 H     1 <1>   0.0800 
 28 H       -3.0970     3.0240     1.6710 H     1 <1>   0.0800 
 29 H       -0.1550     3.7410    -2.1980 H     1 <1>   0.0800 
 30 H       -0.7370     5.3250    -1.7540 H     1 <1>   0.0800 
 31 H       -1.8780     4.0480    -2.0850 H     1 <1>   0.0800 
 32 H        2.5200     3.4770    -1.7080 H     1 <1>   0.1500 
 33 H        4.7980     1.1770     1.0670 H     1 <1>   0.1500 
 34 H        4.3310     5.1360    -1.8150 H     1 <1>   0.1500 
 35 H        6.6000     2.8350     0.9610 H     1 <1>   0.1500 
 36 H        6.3730     4.8170    -0.4780 H     1 <1>   0.1500 
@<TRIPOS>BOND
  1   1   2  2   
  2   2   3  am  
  3   2   4  am  
  4   3   5  1   
  5   3   6  1   
  6   4   7  1   
  7   4   8  1   
  8   5   9  1   
  9   5  17  1   
 10   5  18  1   
 11   6  10  1   
 12   6  19  1   
 13   6  20  1   
 14   7  11  1   
 15   7  21  1   
 16   7  22  1   
 17   8  23  1   
 18   8  24  1   
 19   8  25  1   
 20   9  26  1   
 21   9  27  1   
 22   9  28  1   
 23  10  29  1   
 24  10  30  1   
 25  10  31  1   
 26  11  12  ar  
 27  11  13  ar  
 28  12  14  ar  
 29  12  32  1   
 30  13  15  ar  
 31  13  33  1   
 32  14  16  ar  
 33  14  34  1   
 34  15  16  ar  
 35  15  35  1   
 36  16  36  1   
@<TRIPOS>SUBSTRUCTURE
  1 ****   4 GROUP 4 **** **** 0

# MOE 2024.06 (io_trps.svl 2023.06)
