@<TRIPOS>MOLECULE
NONAME
44 45 1 0 0 
SMALL
USER_CHARGES


@<TRIPOS>ATOM
  1 F       -1.4500     1.2940     2.1630 F     1 <1>  -0.1900 
  2 C       -0.8060     2.0600     1.3220 C.ar  1 <1>   0.1900 
  3 C       -0.0100     3.0740     1.8210 C.ar  1 <1>  -0.1500 
  4 C       -0.9450     1.8260    -0.0320 C.ar  1 <1>  -0.1500 
  5 C        0.6730     3.8850     0.9280 C.ar  1 <1>  -0.1500 
  6 C       -0.2590     2.6430    -0.9150 C.ar  1 <1>  -0.1500 
  7 C        0.5510     3.6690    -0.4460 C.ar  1 <1>   0.0830 
  8 O        1.1830     4.4130    -1.3910 O.3   1 <1>  -0.3630 
  9 C        2.1570     5.3880    -1.0860 C.3   1 <1>   0.1200 
 10 C        3.4910     4.6930    -0.7850 C.3   1 <1>  -0.1600 
 11 C        4.6150     5.7110    -0.5420 C.3   1 <1>  -0.1600 
 12 C        5.9480     5.0000    -0.2700 C.3   1 <1>  -0.1600 
 13 C        7.0740     6.0120    -0.0470 C.3   1 <1>   0.3430 
 14 N        8.3390     5.3170     0.3180 N.4   1 <1>  -0.9590 
 15 C        9.3090     6.2810     0.9170 C.3   1 <1>   0.3430 
 16 C        8.9430     4.5880    -0.8390 C.3   1 <1>   0.3430 
 17 C       10.5400     5.5280     1.4240 C.3   1 <1>  -0.1600 
 18 C       10.1680     3.7990    -0.3710 C.3   1 <1>  -0.1600 
 19 C       11.2010     4.7050     0.3120 C.3   1 <1>  -0.1600 
 20 H        0.0680     3.2220     2.8820 H     1 <1>   0.1500 
 21 H       -1.5740     1.0280    -0.3820 H     1 <1>   0.1500 
 22 H        1.2850     4.6730     1.3200 H     1 <1>   0.1500 
 23 H       -0.3460     2.4890    -1.9760 H     1 <1>   0.1500 
 24 H        1.8110     5.9980    -0.2720 H     1 <1>   0.0800 
 25 H        2.2560     6.0100    -1.9580 H     1 <1>   0.0800 
 26 H        3.7460     4.0690    -1.6250 H     1 <1>   0.0800 
 27 H        3.3810     4.0660     0.0820 H     1 <1>   0.0800 
 28 H        4.3530     6.3330     0.2980 H     1 <1>   0.0800 
 29 H        4.7100     6.3420    -1.4110 H     1 <1>   0.0800 
 30 H        6.1770     4.3710    -1.1130 H     1 <1>   0.0800 
 31 H        5.8400     4.3820     0.6050 H     1 <1>   0.0800 
 32 H        6.7850     6.6760     0.7530 H     1 <1>   0.0800 
 33 H        7.2190     6.6040    -0.9370 H     1 <1>   0.0800 
 34 H        8.1240     4.6180     1.0410 H     1 <1>   0.4500 
 35 H        8.8490     6.8080     1.7370 H     1 <1>   0.0800 
 36 H        9.6100     7.0030     0.1750 H     1 <1>   0.0800 
 37 H        9.2380     5.2920    -1.6000 H     1 <1>   0.0800 
 38 H        8.2270     3.9060    -1.2670 H     1 <1>   0.0800 
 39 H       10.2560     4.8850     2.2390 H     1 <1>   0.0800 
 40 H       11.2510     6.2380     1.8100 H     1 <1>   0.0800 
 41 H       10.6230     3.3200    -1.2210 H     1 <1>   0.0800 
 42 H        9.8550     3.0230     0.3050 H     1 <1>   0.0800 
 43 H       11.9980     4.1070     0.7220 H     1 <1>   0.0800 
 44 H       11.6340     5.3690    -0.4180 H     1 <1>   0.0800 
@<TRIPOS>BOND
  1   1   2  1   
  2   2   3  ar  
  3   2   4  ar  
  4   3   5  ar  
  5   3  20  1   
  6   4   6  ar  
  7   4  21  1   
  8   5   7  ar  
  9   5  22  1   
 10   6   7  ar  
 11   6  23  1   
 12   7   8  1   
 13   8   9  1   
 14   9  10  1   
 15   9  24  1   
 16   9  25  1   
 17  10  11  1   
 18  10  26  1   
 19  10  27  1   
 20  11  12  1   
 21  11  28  1   
 22  11  29  1   
 23  12  13  1   
 24  12  30  1   
 25  12  31  1   
 26  13  14  1   
 27  13  32  1   
 28  13  33  1   
 29  14  15  1   
 30  14  16  1   
 31  14  34  1   
 32  15  17  1   
 33  15  35  1   
 34  15  36  1   
 35  16  18  1   
 36  16  37  1   
 37  16  38  1   
 38  17  19  1   
 39  17  39  1   
 40  17  40  1   
 41  18  19  1   
 42  18  41  1   
 43  18  42  1   
 44  19  43  1   
 45  19  44  1   
@<TRIPOS>SUBSTRUCTURE
  1 ****  10 GROUP 4 **** **** 0

# MOE 2024.06 (io_trps.svl 2023.06)
