@<TRIPOS>MOLECULE
NONAME
49 51 1 0 0 
SMALL
USER_CHARGES


@<TRIPOS>ATOM
  1 F        0.4130     2.1970    -1.3880 F     1 <1>  -0.1900 
  2 C        1.0380     2.2720    -0.2370 C.ar  1 <1>   0.1900 
  3 C        0.4520     2.9610     0.8330 C.ar  1 <1>   0.1000 
  4 C        2.2690     1.6520    -0.1440 C.ar  1 <1>  -0.1500 
  5 N       -0.7910     3.6060     0.7960 N.pl3 1 <1>  -0.8380 
  6 C        1.1720     2.9980     2.0200 C.ar  1 <1>  -0.1500 
  7 C        2.9600     1.7090     1.0550 C.ar  1 <1>  -0.1500 
  8 C       -0.9050     4.8990     0.0550 C.3   1 <1>   0.2090 
  9 C       -2.0310     2.7730     0.8000 C.3   1 <1>   0.2090 
 10 C        2.4080     2.3830     2.1340 C.ar  1 <1>  -0.1500 
 11 C       -1.6450     4.7560    -1.2900 C.3   1 <1>   0.1100 
 12 C       -2.7260     2.7270    -0.5760 C.3   1 <1>   0.1100 
 13 N       -2.9530     4.0790    -1.1460 N.3   1 <1>  -0.8100 
 14 C       -3.6440     3.9810    -2.4690 C.3   1 <1>   0.1710 
 15 C       -5.1340     3.6530    -2.3570 C.2   1 <1>   0.5690 
 16 O       -5.7020     3.1540    -3.2980 O.2   1 <1>  -0.5700 
 17 N       -5.7180     3.9560    -1.1610 N.am  1 <1>  -0.5470 
 18 C       -7.0080     3.8060    -0.6280 C.ar  1 <1>   0.1170 
 19 C       -7.2150     4.0510     0.7310 C.ar  1 <1>  -0.1430 
 20 C       -8.0930     3.4240    -1.4100 C.ar  1 <1>  -0.1500 
 21 C       -8.4820     3.9090     1.2740 C.ar  1 <1>  -0.1500 
 22 C       -6.0660     4.4730     1.6400 C.3   1 <1>  -0.0970 
 23 C       -9.3530     3.2860    -0.8600 C.ar  1 <1>  -0.1500 
 24 C       -9.5560     3.5290     0.4860 C.ar  1 <1>  -0.1430 
 25 C      -10.9380     3.3760     1.0960 C.3   1 <1>  -0.0970 
 26 H        2.6770     1.1360    -0.9930 H     1 <1>   0.1500 
 27 H        0.7480     3.5200     2.8590 H     1 <1>   0.1500 
 28 H        3.9210     1.2330     1.1490 H     1 <1>   0.1500 
 29 H        0.0790     5.2970    -0.1220 H     1 <1>   0.0800 
 30 H       -1.4370     5.6020     0.6710 H     1 <1>   0.0800 
 31 H       -2.7150     3.1790     1.5230 H     1 <1>   0.0800 
 32 H       -1.7870     1.7700     1.1070 H     1 <1>   0.0800 
 33 H        2.9440     2.4290     3.0660 H     1 <1>   0.1500 
 34 H       -1.0220     4.2070    -1.9740 H     1 <1>   0.0800 
 35 H       -1.7960     5.7390    -1.6990 H     1 <1>   0.0800 
 36 H       -3.6660     2.2160    -0.4620 H     1 <1>   0.0800 
 37 H       -2.1200     2.1440    -1.2470 H     1 <1>   0.0800 
 38 H       -3.1670     3.2380    -3.0830 H     1 <1>   0.0800 
 39 H       -3.5710     4.9250    -2.9780 H     1 <1>   0.0800 
 40 H       -5.0170     4.3110    -0.5050 H     1 <1>   0.3700 
 41 H       -7.9610     3.2340    -2.4580 H     1 <1>   0.1500 
 42 H       -8.6420     4.0960     2.3210 H     1 <1>   0.1500 
 43 H       -5.6450     5.4010     1.2970 H     1 <1>   0.0800 
 44 H       -5.3010     3.7170     1.6420 H     1 <1>   0.0800 
 45 H       -6.4050     4.6110     2.6510 H     1 <1>   0.0800 
 46 H      -10.1740     2.9870    -1.4890 H     1 <1>   0.1500 
 47 H      -11.0810     4.0940     1.8830 H     1 <1>   0.0800 
 48 H      -11.0480     2.3870     1.5010 H     1 <1>   0.0800 
 49 H      -11.6980     3.5330     0.3510 H     1 <1>   0.0800 
@<TRIPOS>BOND
  1   1   2  1   
  2   2   3  ar  
  3   2   4  ar  
  4   3   5  1   
  5   3   6  ar  
  6   4   7  ar  
  7   4  26  1   
  8   5   8  1   
  9   5   9  1   
 10   6  10  ar  
 11   6  27  1   
 12   7  10  ar  
 13   7  28  1   
 14   8  11  1   
 15   8  29  1   
 16   8  30  1   
 17   9  12  1   
 18   9  31  1   
 19   9  32  1   
 20  10  33  1   
 21  11  13  1   
 22  11  34  1   
 23  11  35  1   
 24  12  13  1   
 25  12  36  1   
 26  12  37  1   
 27  13  14  1   
 28  14  15  1   
 29  14  38  1   
 30  14  39  1   
 31  15  16  2   
 32  15  17  am  
 33  17  18  1   
 34  17  40  1   
 35  18  19  ar  
 36  18  20  ar  
 37  19  21  ar  
 38  19  22  1   
 39  20  23  ar  
 40  20  41  1   
 41  21  24  ar  
 42  21  42  1   
 43  22  43  1   
 44  22  44  1   
 45  22  45  1   
 46  23  24  ar  
 47  23  46  1   
 48  24  25  1   
 49  25  47  1   
 50  25  48  1   
 51  25  49  1   
@<TRIPOS>SUBSTRUCTURE
  1 ****  12 GROUP 4 **** **** 0

# MOE 2024.06 (io_trps.svl 2023.06)
