@<TRIPOS>MOLECULE
NONAME
39 41 1 0 0 
SMALL
USER_CHARGES


@<TRIPOS>ATOM
  1 O        0.3920     0.0330     0.1880 O.2   1 <1>  -0.5700 
  2 C        0.8200    -0.9680    -0.3390 C.2   1 <1>   0.6300 
  3 N        2.1000    -1.0410    -0.8280 N.am  1 <1>  -0.6600 
  4 C       -0.1160    -2.1630    -0.4580 C.3   1 <1>  -0.1000 
  5 C        2.6610    -2.1950    -1.5820 C.3   1 <1>   0.1400 
  6 C        3.0340     0.1020    -0.6780 C.3   1 <1>   0.1400 
  7 C       -1.1020    -2.4690     0.6320 C.3   1 <1>  -0.0680 
  8 C        0.0590    -3.3840     0.3990 C.3   1 <1>  -0.2000 
  9 C        3.5970    -3.0450    -0.7140 C.3   1 <1>  -0.1600 
 10 C        3.7870     0.0330     0.6560 C.3   1 <1>  -0.1600 
 11 C       -2.5100    -2.8880     0.2520 C.ar  1 <1>  -0.0320 
 12 C        4.7420    -2.2810    -0.0220 C.3   1 <1>  -0.1600 
 13 C        4.2440    -1.3660     1.1090 C.3   1 <1>  -0.1600 
 14 C       -3.0090    -4.1250     0.6280 C.ar  1 <1>  -0.1500 
 15 C       -3.3120    -2.0220    -0.4750 C.ar  1 <1>  -0.1500 
 16 C       -4.2940    -4.4980     0.2730 C.ar  1 <1>  -0.1500 
 17 C       -4.5970    -2.3920    -0.8320 C.ar  1 <1>  -0.1500 
 18 C       -5.0880    -3.6310    -0.4590 C.ar  1 <1>  -0.1500 
 19 H       -0.4620    -2.2950    -1.4660 H     1 <1>   0.1000 
 20 H        3.2030    -1.8250    -2.4340 H     1 <1>   0.0800 
 21 H        1.8680    -2.8160    -1.9600 H     1 <1>   0.0800 
 22 H        2.4880     1.0290    -0.7320 H     1 <1>   0.0800 
 23 H        3.7400     0.0980    -1.4900 H     1 <1>   0.0800 
 24 H       -1.0800    -1.8420     1.5090 H     1 <1>   0.1000 
 25 H        0.8420    -3.3970     1.1370 H     1 <1>   0.1000 
 26 H       -0.1120    -4.3480    -0.0450 H     1 <1>   0.1000 
 27 H        4.0300    -3.7990    -1.3480 H     1 <1>   0.0800 
 28 H        3.0140    -3.5630     0.0260 H     1 <1>   0.0800 
 29 H        3.1550     0.4500     1.4210 H     1 <1>   0.0800 
 30 H        4.6460     0.6750     0.5780 H     1 <1>   0.0800 
 31 H        5.3160    -1.7200    -0.7390 H     1 <1>   0.0800 
 32 H        5.4030    -3.0110     0.4130 H     1 <1>   0.0800 
 33 H        3.4310    -1.8500     1.6230 H     1 <1>   0.0800 
 34 H        5.0340    -1.2390     1.8300 H     1 <1>   0.0800 
 35 H       -2.3950    -4.7970     1.1990 H     1 <1>   0.1500 
 36 H       -2.9300    -1.0570    -0.7610 H     1 <1>   0.1500 
 37 H       -4.6750    -5.4600     0.5660 H     1 <1>   0.1500 
 38 H       -5.2140    -1.7160    -1.3970 H     1 <1>   0.1500 
 39 H       -6.0870    -3.9200    -0.7350 H     1 <1>   0.1500 
@<TRIPOS>BOND
  1   1   2  2   
  2   2   3  am  
  3   2   4  1   
  4   3   5  1   
  5   3   6  1   
  6   4   7  1   
  7   4   8  1   
  8   4  19  1   
  9   5   9  1   
 10   5  20  1   
 11   5  21  1   
 12   6  10  1   
 13   6  22  1   
 14   6  23  1   
 15   7   8  1   
 16   7  11  1   
 17   7  24  1   
 18   8  25  1   
 19   8  26  1   
 20   9  12  1   
 21   9  27  1   
 22   9  28  1   
 23  10  13  1   
 24  10  29  1   
 25  10  30  1   
 26  11  14  ar  
 27  11  15  ar  
 28  12  13  1   
 29  12  31  1   
 30  12  32  1   
 31  13  33  1   
 32  13  34  1   
 33  14  16  ar  
 34  14  35  1   
 35  15  17  ar  
 36  15  36  1   
 37  16  18  ar  
 38  16  37  1   
 39  17  18  ar  
 40  17  38  1   
 41  18  39  1   
@<TRIPOS>SUBSTRUCTURE
  1 ****   4 GROUP 4 **** **** 0

# MOE 2024.06 (io_trps.svl 2023.06)
