@<TRIPOS>MOLECULE
NONAME
53 55 1 0 0 
SMALL
USER_CHARGES


@<TRIPOS>ATOM
  1 N        0.0750     0.1430    -0.4120 N.4   1 <1>  -0.9590 
  2 C        1.3270     0.9330    -0.6160 C.3   1 <1>   0.4230 
  3 C       -1.1300     1.0250    -0.2150 C.3   1 <1>   0.3430 
  4 C        0.1170    -0.9200     0.6390 C.3   1 <1>   0.3430 
  5 C        2.4110     0.0550    -1.2450 C.3   1 <1>  -0.1600 
  6 C        1.8450     1.5670     0.6810 C.3   1 <1>  -0.1600 
  7 C       -2.4050     0.2210     0.1160 C.3   1 <1>  -0.0800 
  8 C       -1.0440    -1.8970     0.4180 C.3   1 <1>  -0.1600 
  9 C        3.6840     0.8670    -1.4930 C.3   1 <1>   0.3430 
 10 C        3.1250     2.3620     0.4180 C.3   1 <1>   0.3430 
 11 C       -2.2760    -1.2660    -0.2560 C.3   1 <1>  -0.1600 
 12 C       -3.6260     0.8380    -0.5790 C.3   1 <1>  -0.2400 
 13 N        4.1570     1.4870    -0.2200 N.4   1 <1>  -0.9590 
 14 C        5.4300     2.2420    -0.4860 C.3   1 <1>   0.3430 
 15 C        6.1700     2.6160     0.8010 C.3   1 <1>  -0.0170 
 16 C        7.4820     3.2690     0.4160 C.ar  1 <1>  -0.1430 
 17 C        7.5530     4.6420     0.2310 C.ar  1 <1>  -0.1500 
 18 C        8.6190     2.4970     0.2320 C.ar  1 <1>  -0.1500 
 19 C        8.7470     5.2350    -0.1420 C.ar  1 <1>  -0.1500 
 20 C        9.8120     3.0910    -0.1410 C.ar  1 <1>  -0.1500 
 21 C        9.8760     4.4590    -0.3290 C.ar  1 <1>  -0.1500 
 22 H       -0.1230    -0.3660    -1.2850 H     1 <1>   0.4500 
 23 H        1.1090     1.7290    -1.3120 H     1 <1>   0.0800 
 24 H       -1.3030     1.5890    -1.1180 H     1 <1>   0.0800 
 25 H       -0.9550     1.7280     0.5820 H     1 <1>   0.0800 
 26 H        0.0200    -0.4670     1.6130 H     1 <1>   0.0800 
 27 H        1.0470    -1.4640     0.6080 H     1 <1>   0.0800 
 28 H        2.0660    -0.3240    -2.1900 H     1 <1>   0.0800 
 29 H        2.6540    -0.7810    -0.6140 H     1 <1>   0.0800 
 30 H        2.0550     0.8200     1.4250 H     1 <1>   0.0800 
 31 H        1.1100     2.2420     1.0810 H     1 <1>   0.0800 
 32 H       -2.5710     0.2880     1.1790 H     1 <1>   0.0800 
 33 H       -1.3300    -2.2920     1.3790 H     1 <1>   0.0800 
 34 H       -0.7080    -2.7340    -0.1700 H     1 <1>   0.0800 
 35 H        3.4880     1.6380    -2.2230 H     1 <1>   0.0800 
 36 H        4.4500     0.2200    -1.8930 H     1 <1>   0.0800 
 37 H        3.4980     2.7550     1.3510 H     1 <1>   0.0800 
 38 H        2.9080     3.1980    -0.2300 H     1 <1>   0.0800 
 39 H       -2.1890    -1.3610    -1.3260 H     1 <1>   0.0800 
 40 H       -3.1630    -1.8030     0.0400 H     1 <1>   0.0800 
 41 H       -3.5270     0.7950    -1.6500 H     1 <1>   0.0800 
 42 H       -3.7520     1.8660    -0.2860 H     1 <1>   0.0800 
 43 H       -4.5200     0.3050    -0.3030 H     1 <1>   0.0800 
 44 H        4.4030     0.7300     0.4360 H     1 <1>   0.4500 
 45 H        5.2230     3.1390    -1.0480 H     1 <1>   0.0800 
 46 H        6.0930     1.6330    -1.0800 H     1 <1>   0.0800 
 47 H        6.3730     1.7380     1.3890 H     1 <1>   0.0800 
 48 H        5.5970     3.3060     1.3930 H     1 <1>   0.0800 
 49 H        6.6890     5.2680     0.3760 H     1 <1>   0.1500 
 50 H        8.5960     1.4310     0.3780 H     1 <1>   0.1500 
 51 H        8.8000     6.3010    -0.2840 H     1 <1>   0.1500 
 52 H       10.6950     2.4900    -0.2820 H     1 <1>   0.1500 
 53 H       10.8050     4.9210    -0.6180 H     1 <1>   0.1500 
@<TRIPOS>BOND
  1   1   2  1   
  2   1   3  1   
  3   1   4  1   
  4   1  22  1   
  5   2   5  1   
  6   2   6  1   
  7   2  23  1   
  8   3   7  1   
  9   3  24  1   
 10   3  25  1   
 11   4   8  1   
 12   4  26  1   
 13   4  27  1   
 14   5   9  1   
 15   5  28  1   
 16   5  29  1   
 17   6  10  1   
 18   6  30  1   
 19   6  31  1   
 20   7  11  1   
 21   7  12  1   
 22   7  32  1   
 23   8  11  1   
 24   8  33  1   
 25   8  34  1   
 26   9  13  1   
 27   9  35  1   
 28   9  36  1   
 29  10  13  1   
 30  10  37  1   
 31  10  38  1   
 32  11  39  1   
 33  11  40  1   
 34  12  41  1   
 35  12  42  1   
 36  12  43  1   
 37  13  14  1   
 38  13  44  1   
 39  14  15  1   
 40  14  45  1   
 41  14  46  1   
 42  15  16  1   
 43  15  47  1   
 44  15  48  1   
 45  16  17  ar  
 46  16  18  ar  
 47  17  19  ar  
 48  17  49  1   
 49  18  20  ar  
 50  18  50  1   
 51  19  21  ar  
 52  19  51  1   
 53  20  21  ar  
 54  20  52  1   
 55  21  53  1   
@<TRIPOS>SUBSTRUCTURE
  1 ****  13 GROUP 4 **** **** 0

# MOE 2024.06 (io_trps.svl 2023.06)
