@<TRIPOS>MOLECULE
NONAME
35 35 1 0 0 
SMALL
USER_CHARGES


@<TRIPOS>ATOM
  1 F       -0.0930     0.4490     0.0270 F     1 <1>  -0.1900 
  2 C        1.1220     0.9300     0.0260 C.ar  1 <1>   0.1900 
  3 C        1.2970     2.3000     0.0670 C.ar  1 <1>  -0.1500 
  4 C        2.1870     0.0500    -0.0180 C.ar  1 <1>  -0.1500 
  5 C        2.5870     2.8010     0.0650 C.ar  1 <1>  -0.1500 
  6 C        3.4750     0.5600    -0.0200 C.ar  1 <1>  -0.1500 
  7 C        3.6780     1.9410     0.0220 C.ar  1 <1>   0.0830 
  8 O        4.9040     2.5220     0.0230 O.3   1 <1>  -0.3630 
  9 C        6.0810     1.7550    -0.0180 C.3   1 <1>   0.1200 
 10 C        7.2610     2.7300    -0.0040 C.3   1 <1>  -0.1600 
 11 C        8.6110     1.9990    -0.0470 C.3   1 <1>  -0.1600 
 12 C        9.7610     3.0050    -0.0310 C.3   1 <1>   0.3430 
 13 N       11.0490     2.2730    -0.0730 N.4   1 <1>  -0.9060 
 14 C       12.2140     3.2080    -0.0600 C.3   1 <1>   0.3430 
 15 C       13.5500     2.4570    -0.1030 C.3   1 <1>   0.1200 
 16 O       14.5550     3.4040    -0.0870 O.3   1 <1>  -0.6800 
 17 H        0.4440     2.9540     0.1000 H     1 <1>   0.1500 
 18 H        2.0050    -1.0100    -0.0500 H     1 <1>   0.1500 
 19 H        2.7580     3.8620     0.0970 H     1 <1>   0.1500 
 20 H        4.2980    -0.1280    -0.0540 H     1 <1>   0.1500 
 21 H        6.0720     1.1700    -0.9220 H     1 <1>   0.0800 
 22 H        6.0980     1.1130     0.8460 H     1 <1>   0.0800 
 23 H        7.1970     3.3260     0.8920 H     1 <1>   0.0800 
 24 H        7.1720     3.3830    -0.8560 H     1 <1>   0.0800 
 25 H        8.6570     1.4060    -0.9450 H     1 <1>   0.0800 
 26 H        8.6820     1.3490     0.8080 H     1 <1>   0.0800 
 27 H        9.7040     3.6040     0.8650 H     1 <1>   0.0800 
 28 H        9.6790     3.6610    -0.8840 H     1 <1>   0.0800 
 29 H       11.0790     1.6930    -0.9220 H     1 <1>   0.4500 
 30 H       11.1030     1.6390     0.7340 H     1 <1>   0.4500 
 31 H       12.1880     3.8080     0.8360 H     1 <1>   0.0800 
 32 H       12.1620     3.8660    -0.9120 H     1 <1>   0.0800 
 33 H       13.6490     1.8840    -1.0100 H     1 <1>   0.0800 
 34 H       13.6740     1.8260     0.7600 H     1 <1>   0.0800 
 35 H       15.4470     2.9950    -0.1130 H     1 <1>   0.4000 
@<TRIPOS>BOND
  1   1   2  1   
  2   2   3  ar  
  3   2   4  ar  
  4   3   5  ar  
  5   3  17  1   
  6   4   6  ar  
  7   4  18  1   
  8   5   7  ar  
  9   5  19  1   
 10   6   7  ar  
 11   6  20  1   
 12   7   8  1   
 13   8   9  1   
 14   9  10  1   
 15   9  21  1   
 16   9  22  1   
 17  10  11  1   
 18  10  23  1   
 19  10  24  1   
 20  11  12  1   
 21  11  25  1   
 22  11  26  1   
 23  12  13  1   
 24  12  27  1   
 25  12  28  1   
 26  13  14  1   
 27  13  29  1   
 28  13  30  1   
 29  14  15  1   
 30  14  31  1   
 31  14  32  1   
 32  15  16  1   
 33  15  33  1   
 34  15  34  1   
 35  16  35  1   
@<TRIPOS>SUBSTRUCTURE
  1 ****   9 GROUP 4 **** **** 0

# MOE 2024.06 (io_trps.svl 2023.06)
