@<TRIPOS>MOLECULE
NONAME
37 37 1 0 0 
SMALL
USER_CHARGES


@<TRIPOS>ATOM
  1 O       -0.2850     0.5700     1.3350 O.2   1 <1>  -0.5700 
  2 C       -0.8060     1.1860     0.4230 C.2   1 <1>   0.6900 
  3 N       -0.2630     2.3530    -0.0560 N.am  1 <1>  -0.6600 
  4 N       -1.9530     0.7180    -0.1180 N.am  1 <1>  -0.7300 
  5 C       -0.8020     3.0740    -1.2410 C.3   1 <1>   0.1400 
  6 C        1.0470     2.8410     0.4610 C.3   1 <1>   0.1400 
  7 C       -2.7840    -0.3330     0.4820 C.3   1 <1>   0.2840 
  8 C       -1.9950     3.9420    -0.8390 C.3   1 <1>  -0.2400 
  9 C        0.8360     4.0470     1.3700 C.3   1 <1>  -0.2400 
 10 C       -4.2350     0.0720     0.2920 C.ar  1 <1>  -0.1430 
 11 C       -4.9990    -0.4870    -0.7200 C.ar  1 <1>  -0.1500 
 12 C       -4.8030     1.0210     1.1300 C.ar  1 <1>  -0.1500 
 13 C       -6.3170    -0.1020    -0.8900 C.ar  1 <1>  -0.1500 
 14 C       -6.1220     1.4070     0.9620 C.ar  1 <1>  -0.1500 
 15 C       -6.8880     0.8440    -0.0540 C.ar  1 <1>   0.0820 
 16 O       -8.1850     1.1640    -0.2890 O.3   1 <1>  -0.3630 
 17 C       -8.8650     2.1010     0.5160 C.3   1 <1>   0.0400 
 18 H       -2.4620     1.3500    -0.7280 H     1 <1>   0.3700 
 19 H       -1.0990     2.3610    -1.9920 H     1 <1>   0.0800 
 20 H       -0.0340     3.6950    -1.6700 H     1 <1>   0.0800 
 21 H        1.6890     3.1020    -0.3630 H     1 <1>   0.0800 
 22 H        1.5400     2.0610     1.0170 H     1 <1>   0.0800 
 23 H       -2.5600    -0.4350     1.5300 H     1 <1>   0.0800 
 24 H       -2.5820    -1.2700    -0.0060 H     1 <1>   0.0800 
 25 H       -2.7860     3.3440    -0.4260 H     1 <1>   0.0800 
 26 H       -2.3750     4.4550    -1.7030 H     1 <1>   0.0800 
 27 H       -1.6980     4.6760    -0.1140 H     1 <1>   0.0800 
 28 H        0.4510     4.8810     0.8130 H     1 <1>   0.0800 
 29 H        1.7740     4.3360     1.8070 H     1 <1>   0.0800 
 30 H        0.1540     3.7930     2.1630 H     1 <1>   0.0800 
 31 H       -4.5730    -1.2210    -1.3810 H     1 <1>   0.1500 
 32 H       -4.2130     1.4620     1.9150 H     1 <1>   0.1500 
 33 H       -6.9140    -0.5340    -1.6730 H     1 <1>   0.1500 
 34 H       -6.5310     2.1430     1.6280 H     1 <1>   0.1500 
 35 H       -9.8730     2.1860     0.1500 H     1 <1>   0.0800 
 36 H       -8.3680     3.0510     0.4420 H     1 <1>   0.0800 
 37 H       -8.8740     1.7460     1.5320 H     1 <1>   0.0800 
@<TRIPOS>BOND
  1   1   2  2   
  2   2   3  am  
  3   2   4  am  
  4   3   5  1   
  5   3   6  1   
  6   4   7  1   
  7   4  18  1   
  8   5   8  1   
  9   5  19  1   
 10   5  20  1   
 11   6   9  1   
 12   6  21  1   
 13   6  22  1   
 14   7  10  1   
 15   7  23  1   
 16   7  24  1   
 17   8  25  1   
 18   8  26  1   
 19   8  27  1   
 20   9  28  1   
 21   9  29  1   
 22   9  30  1   
 23  10  11  ar  
 24  10  12  ar  
 25  11  13  ar  
 26  11  31  1   
 27  12  14  ar  
 28  12  32  1   
 29  13  15  ar  
 30  13  33  1   
 31  14  15  ar  
 32  14  34  1   
 33  15  16  1   
 34  16  17  1   
 35  17  35  1   
 36  17  36  1   
 37  17  37  1   
@<TRIPOS>SUBSTRUCTURE
  1 ****  10 GROUP 4 **** **** 0

# MOE 2024.06 (io_trps.svl 2023.06)
