@<TRIPOS>MOLECULE
NONAME
34 35 1 0 0 
SMALL
USER_CHARGES


@<TRIPOS>ATOM
  1 O       -0.4010    -0.6210    -0.2660 O.2   1 <1>  -0.5700 
  2 C       -0.3520    -1.8140    -0.4990 C.2   1 <1>   0.5440 
  3 N       -1.4400    -2.4360    -1.0810 N.am  1 <1>  -0.6600 
  4 C        0.8520    -2.5360    -0.1440 C.ar  1 <1>   0.0860 
  5 C       -2.5880    -1.6310    -1.5790 C.3   1 <1>   0.1400 
  6 C       -1.5080    -3.8980    -1.3620 C.3   1 <1>   0.1400 
  7 C        1.2350    -2.7130     1.1760 C.ar  1 <1>  -0.1500 
  8 C        1.7080    -3.0890    -1.0840 C.ar  1 <1>  -0.1500 
  9 C       -3.5920    -1.3200    -0.4650 C.3   1 <1>  -0.1600 
 10 C       -1.7020    -4.7270    -0.0880 C.3   1 <1>  -0.1600 
 11 C        2.3830    -3.4190     1.4800 C.ar  1 <1>   0.1600 
 12 C        2.8350    -3.7780    -0.6780 C.ar  1 <1>   0.1600 
 13 C       -4.3910    -2.5260     0.0540 C.3   1 <1>  -0.1600 
 14 C       -3.1350    -4.7520     0.4680 C.3   1 <1>  -0.1600 
 15 N        3.1890    -3.9630     0.5830 N.ar  1 <1>  -0.6200 
 16 C       -3.6280    -3.4170     1.0520 C.3   1 <1>  -0.1600 
 17 H       -3.0820    -2.1410    -2.3870 H     1 <1>   0.0800 
 18 H       -2.2110    -0.7010    -1.9710 H     1 <1>   0.0800 
 19 H       -0.5950    -4.2010    -1.8420 H     1 <1>   0.0800 
 20 H       -2.3100    -4.1090    -2.0490 H     1 <1>   0.0800 
 21 H        0.6310    -2.2940     1.9600 H     1 <1>   0.1500 
 22 H        1.4930    -2.9740    -2.1300 H     1 <1>   0.1500 
 23 H       -4.2950    -0.6140    -0.8690 H     1 <1>   0.0800 
 24 H       -3.0880    -0.8230     0.3450 H     1 <1>   0.0800 
 25 H       -1.0190    -4.4060     0.6760 H     1 <1>   0.0800 
 26 H       -1.4400    -5.7420    -0.3300 H     1 <1>   0.0800 
 27 H        2.6560    -3.5430     2.5140 H     1 <1>   0.1500 
 28 H        3.4830    -4.1990    -1.4290 H     1 <1>   0.1500 
 29 H       -4.7730    -3.1020    -0.7710 H     1 <1>   0.0800 
 30 H       -5.2460    -2.1300     0.5740 H     1 <1>   0.0800 
 31 H       -3.1460    -5.4740     1.2660 H     1 <1>   0.0800 
 32 H       -3.8180    -5.1120    -0.2820 H     1 <1>   0.0800 
 33 H       -4.3140    -3.6580     1.8470 H     1 <1>   0.0800 
 34 H       -2.8130    -2.8780     1.5050 H     1 <1>   0.0800 
@<TRIPOS>BOND
  1   1   2  2   
  2   2   3  am  
  3   2   4  1   
  4   3   5  1   
  5   3   6  1   
  6   4   7  ar  
  7   4   8  ar  
  8   5   9  1   
  9   5  17  1   
 10   5  18  1   
 11   6  10  1   
 12   6  19  1   
 13   6  20  1   
 14   7  11  ar  
 15   7  21  1   
 16   8  12  ar  
 17   8  22  1   
 18   9  13  1   
 19   9  23  1   
 20   9  24  1   
 21  10  14  1   
 22  10  25  1   
 23  10  26  1   
 24  11  15  ar  
 25  11  27  1   
 26  12  15  ar  
 27  12  28  1   
 28  13  16  1   
 29  13  29  1   
 30  13  30  1   
 31  14  16  1   
 32  14  31  1   
 33  14  32  1   
 34  16  33  1   
 35  16  34  1   
@<TRIPOS>SUBSTRUCTURE
  1 ****   2 GROUP 4 **** **** 0

# MOE 2024.06 (io_trps.svl 2023.06)
