@<TRIPOS>MOLECULE
NONAME
51 53 1 0 0 
SMALL
USER_CHARGES


@<TRIPOS>ATOM
  1 O        0.7490     0.3840     0.9340 O.2   1 <1>  -0.5700 
  2 C        0.9470     1.4840     0.4550 C.2   1 <1>   0.7150 
  3 N       -0.1240     2.3270     0.4390 N.am  1 <1>  -0.7300 
  4 C        2.2590     1.8420    -0.0480 C.2   1 <1>   0.0550 
  5 C       -0.3500     3.5250    -0.4070 C.3   1 <1>   0.0600 
  6 O        3.1120     0.8850    -0.3980 O.3   1 <1>  -0.2800 
  7 C        2.8800     3.0400    -0.2380 C.2   1 <1>  -0.1500 
  8 C        4.2450     1.4200    -0.7870 C.2   1 <1>  -0.0400 
  9 C        4.1630     2.7670    -0.7170 C.2   1 <1>  -0.1500 
 10 C        5.3810     0.5030    -1.2080 C.3   1 <1>   0.5230 
 11 N        5.6970    -0.4320    -0.0920 N.4   1 <1>  -0.9590 
 12 C        7.1140    -0.9290    -0.1610 C.3   1 <1>   0.3430 
 13 C        4.7250    -1.5860    -0.0490 C.3   1 <1>   0.3430 
 14 C        7.4240    -1.9330     0.9660 C.3   1 <1>   0.1100 
 15 C        5.0740    -2.5980     1.0620 C.3   1 <1>   0.1100 
 16 N        6.4670    -3.0560     0.9320 N.3   1 <1>  -0.8100 
 17 C        6.8000    -4.1570     1.8650 C.3   1 <1>   0.2900 
 18 C        8.2100    -4.6880     1.6360 C.2   1 <1>  -0.0400 
 19 O        8.6100    -4.9540     0.4120 O.3   1 <1>  -0.2800 
 20 C        9.2030    -4.9500     2.5120 C.2   1 <1>  -0.1500 
 21 C        9.8680    -5.3840     0.4410 C.2   1 <1>   0.0550 
 22 C       10.2750    -5.4040     1.7430 C.2   1 <1>  -0.1500 
 23 C       10.5660    -5.7310    -0.7780 C.2   1 <1>   0.7150 
 24 O       10.1970    -5.3210    -1.8640 O.2   1 <1>  -0.5700 
 25 N       11.6800    -6.5270    -0.7210 N.am  1 <1>  -0.7300 
 26 C       12.4950    -6.9670    -1.8830 C.3   1 <1>   0.0600 
 27 H       -0.9560     1.9400     0.8940 H     1 <1>   0.3700 
 28 H        0.3480     3.5490    -1.2260 H     1 <1>   0.0800 
 29 H       -0.2390     4.4160     0.1860 H     1 <1>   0.0800 
 30 H       -1.3480     3.4970    -0.8120 H     1 <1>   0.0800 
 31 H        2.4860     4.0240    -0.0480 H     1 <1>   0.1500 
 32 H        4.9010     3.5130    -0.9600 H     1 <1>   0.1500 
 33 H        6.2430     1.1060    -1.4400 H     1 <1>   0.0800 
 34 H        5.1010    -0.0490    -2.0900 H     1 <1>   0.0800 
 35 H        5.5680     0.0930     0.7800 H     1 <1>   0.4500 
 36 H        7.8010    -0.1020    -0.0940 H     1 <1>   0.0800 
 37 H        7.2810    -1.4280    -1.1020 H     1 <1>   0.0800 
 38 H        4.7400    -2.1080    -0.9920 H     1 <1>   0.0800 
 39 H        3.7220    -1.2270     0.1130 H     1 <1>   0.0800 
 40 H        7.3900    -1.4420     1.9240 H     1 <1>   0.0800 
 41 H        8.4250    -2.2990     0.8140 H     1 <1>   0.0800 
 42 H        4.4100    -3.4420     0.9760 H     1 <1>   0.0800 
 43 H        4.9170    -2.1480     2.0280 H     1 <1>   0.0800 
 44 H        6.1110    -4.9680     1.7070 H     1 <1>   0.0800 
 45 H        6.7030    -3.8220     2.8830 H     1 <1>   0.0800 
 46 H        9.2040    -4.8420     3.5830 H     1 <1>   0.1500 
 47 H       11.2330    -5.6960     2.1330 H     1 <1>   0.1500 
 48 H       11.9340    -6.9260     0.1830 H     1 <1>   0.3700 
 49 H       12.1550    -6.4890    -2.7870 H     1 <1>   0.0800 
 50 H       12.4120    -8.0330    -2.0030 H     1 <1>   0.0800 
 51 H       13.5270    -6.7060    -1.7230 H     1 <1>   0.0800 
@<TRIPOS>BOND
  1   1   2  2   
  2   2   3  am  
  3   2   4  1   
  4   3   5  1   
  5   3  27  1   
  6   4   6  1   
  7   4   7  2   
  8   5  28  1   
  9   5  29  1   
 10   5  30  1   
 11   6   8  1   
 12   7   9  1   
 13   7  31  1   
 14   8   9  2   
 15   8  10  1   
 16   9  32  1   
 17  10  11  1   
 18  10  33  1   
 19  10  34  1   
 20  11  12  1   
 21  11  13  1   
 22  11  35  1   
 23  12  14  1   
 24  12  36  1   
 25  12  37  1   
 26  13  15  1   
 27  13  38  1   
 28  13  39  1   
 29  14  16  1   
 30  14  40  1   
 31  14  41  1   
 32  15  16  1   
 33  15  42  1   
 34  15  43  1   
 35  16  17  1   
 36  17  18  1   
 37  17  44  1   
 38  17  45  1   
 39  18  19  1   
 40  18  20  2   
 41  19  21  1   
 42  20  22  1   
 43  20  46  1   
 44  21  22  2   
 45  21  23  1   
 46  22  47  1   
 47  23  24  2   
 48  23  25  am  
 49  25  26  1   
 50  25  48  1   
 51  26  49  1   
 52  26  50  1   
 53  26  51  1   
@<TRIPOS>SUBSTRUCTURE
  1 ****  13 GROUP 4 **** **** 0

# MOE 2024.06 (io_trps.svl 2023.06)
