@<TRIPOS>MOLECULE
NONAME
39 40 1 0 0 
SMALL
USER_CHARGES


@<TRIPOS>ATOM
  1 O        4.7020    -3.5400     1.1170 O.3   1 <1>  -0.3630 
  2 C        4.1140    -2.6910     0.2260 C.ar  1 <1>   0.0830 
  3 C        6.1000    -3.6000     1.2910 C.3   1 <1>   0.0400 
  4 C        4.6600    -1.4990    -0.2820 C.ar  1 <1>   0.0830 
  5 C        2.8510    -3.0870    -0.1790 C.ar  1 <1>  -0.1500 
  6 O        5.8890    -1.0740     0.1340 O.3   1 <1>  -0.3630 
  7 C        3.9160    -0.7610    -1.2000 C.ar  1 <1>  -0.1500 
  8 C        2.1110    -2.3380    -1.0790 C.ar  1 <1>  -0.1430 
  9 C        6.4440     0.1570    -0.2740 C.3   1 <1>   0.0400 
 10 C        2.6560    -1.1750    -1.5940 C.ar  1 <1>  -0.1500 
 11 C        0.7180    -2.7950    -1.4750 C.3   1 <1>  -0.0170 
 12 C       -0.2540    -2.6200    -0.2990 C.3   1 <1>   0.4230 
 13 N       -1.5650    -3.2380    -0.6270 N.4   1 <1>  -0.9060 
 14 C       -0.4750    -1.1420     0.0630 C.3   1 <1>  -0.1600 
 15 C       -2.5260    -3.1840     0.5080 C.3   1 <1>   0.3430 
 16 C       -1.4920    -0.9770     1.2010 C.3   1 <1>  -0.1600 
 17 C       -2.7930    -1.7240     0.8800 C.3   1 <1>  -0.1600 
 18 H        6.4150    -2.7500     1.8680 H     1 <1>   0.0800 
 19 H        6.3330    -4.5060     1.8210 H     1 <1>   0.0800 
 20 H        6.5740    -3.6050     0.3250 H     1 <1>   0.0800 
 21 H        2.4640    -4.0040     0.2280 H     1 <1>   0.1500 
 22 H        4.2980     0.1480    -1.6250 H     1 <1>   0.1500 
 23 H        7.3930     0.2750     0.2170 H     1 <1>   0.0800 
 24 H        6.5850     0.1410    -1.3400 H     1 <1>   0.0800 
 25 H        5.7810     0.9530     0.0180 H     1 <1>   0.0800 
 26 H        2.1110    -0.5780    -2.3050 H     1 <1>   0.1500 
 27 H        0.7750    -3.8320    -1.7530 H     1 <1>   0.0800 
 28 H        0.3790    -2.2340    -2.3280 H     1 <1>   0.0800 
 29 H        0.1650    -3.1210     0.5600 H     1 <1>   0.0800 
 30 H       -1.4210    -4.2140    -0.9120 H     1 <1>   0.4500 
 31 H       -1.9690    -2.7360    -1.4240 H     1 <1>   0.4500 
 32 H       -0.8060    -0.5970    -0.8040 H     1 <1>   0.0800 
 33 H        0.4600    -0.7070     0.3760 H     1 <1>   0.0800 
 34 H       -2.1150    -3.7020     1.3600 H     1 <1>   0.0800 
 35 H       -3.4530    -3.6630     0.2340 H     1 <1>   0.0800 
 36 H       -1.6990     0.0700     1.3570 H     1 <1>   0.0800 
 37 H       -1.0710    -1.3630     2.1150 H     1 <1>   0.0800 
 38 H       -3.4410    -1.6930     1.7390 H     1 <1>   0.0800 
 39 H       -3.3090    -1.2350     0.0720 H     1 <1>   0.0800 
@<TRIPOS>BOND
  1   1   2  1   
  2   1   3  1   
  3   2   4  ar  
  4   2   5  ar  
  5   3  18  1   
  6   3  19  1   
  7   3  20  1   
  8   4   6  1   
  9   4   7  ar  
 10   5   8  ar  
 11   5  21  1   
 12   6   9  1   
 13   7  10  ar  
 14   7  22  1   
 15   8  10  ar  
 16   8  11  1   
 17   9  23  1   
 18   9  24  1   
 19   9  25  1   
 20  10  26  1   
 21  11  12  1   
 22  11  27  1   
 23  11  28  1   
 24  12  13  1   
 25  12  14  1   
 26  12  29  1   
 27  13  15  1   
 28  13  30  1   
 29  13  31  1   
 30  14  16  1   
 31  14  32  1   
 32  14  33  1   
 33  15  17  1   
 34  15  34  1   
 35  15  35  1   
 36  16  17  1   
 37  16  36  1   
 38  16  37  1   
 39  17  38  1   
 40  17  39  1   
@<TRIPOS>SUBSTRUCTURE
  1 ****   8 GROUP 4 **** **** 0

# MOE 2024.06 (io_trps.svl 2023.06)
