@<TRIPOS>MOLECULE
NONAME
52 54 1 0 0 
SMALL
USER_CHARGES


@<TRIPOS>ATOM
  1 S        0.0210    -0.1390     1.2330 S.o2  1 <1>   1.4470 
  2 O        0.3150    -0.1240     2.6500 O.2   1 <1>  -0.6500 
  3 O       -0.8600     0.8680     0.6820 O.2   1 <1>  -0.6500 
  4 N        1.5070     0.0150     0.4290 N.am  1 <1>  -0.8490 
  5 C       -0.5520    -1.7830     0.7220 C.ar  1 <1>  -0.0090 
  6 C        2.5130    -0.9260     0.9490 C.3   1 <1>   0.1960 
  7 C        2.0040     1.3910     0.5070 C.3   1 <1>   0.1960 
  8 C       -0.8580    -2.0470    -0.6070 C.ar  1 <1>  -0.1500 
  9 C       -0.6780    -2.8220     1.6360 C.ar  1 <1>  -0.1500 
 10 C        3.7810    -0.8840     0.0840 C.3   1 <1>  -0.0190 
 11 C        3.2710     1.5480    -0.3420 C.3   1 <1>  -0.1600 
 12 C       -1.2740    -3.3010    -1.0250 C.ar  1 <1>  -0.1430 
 13 C       -1.0920    -4.0810     1.2390 C.ar  1 <1>  -0.1500 
 14 C        4.8090    -1.8990     0.5810 C.2   1 <1>   0.5690 
 15 C        4.3580     0.5450     0.0690 C.3   1 <1>  -0.1600 
 16 C       -1.3920    -4.3300    -0.0970 C.ar  1 <1>   0.0830 
 17 C       -1.5980    -3.5390    -2.4930 C.3   1 <1>  -0.0960 
 18 O        4.8150    -2.1600     1.7620 O.2   1 <1>  -0.5700 
 19 N        5.6980    -2.4950    -0.2810 N.am  1 <1>  -0.6600 
 20 O       -1.8000    -5.5450    -0.5480 O.3   1 <1>  -0.3630 
 21 C        5.8720    -2.1820    -1.7340 C.3   1 <1>   0.1400 
 22 C        6.6420    -3.5550     0.1930 C.3   1 <1>   0.1400 
 23 C       -1.9670    -6.6440     0.3200 C.3   1 <1>   0.0400 
 24 C        7.3560    -1.9520    -2.0680 C.3   1 <1>   0.1200 
 25 C        8.0800    -3.2460    -0.2510 C.3   1 <1>   0.1200 
 26 O        8.1340    -3.0290    -1.6330 O.3   1 <1>  -0.5600 
 27 H        2.1210    -1.9290     0.9330 H     1 <1>   0.0800 
 28 H        2.7540    -0.6800     1.9710 H     1 <1>   0.0800 
 29 H        2.2100     1.6480     1.5350 H     1 <1>   0.0800 
 30 H        1.2530     2.0720     0.1370 H     1 <1>   0.0800 
 31 H       -0.7640    -1.2460    -1.3210 H     1 <1>   0.1500 
 32 H       -0.4480    -2.6440     2.6740 H     1 <1>   0.1500 
 33 H        3.4770    -1.1630    -0.9060 H     1 <1>   0.0800 
 34 H        3.6450     2.5510    -0.2370 H     1 <1>   0.0800 
 35 H        3.0100     1.4020    -1.3760 H     1 <1>   0.0800 
 36 H       -1.1730    -4.8510     1.9820 H     1 <1>   0.1500 
 37 H        5.1910     0.6070    -0.6080 H     1 <1>   0.0800 
 38 H        4.7140     0.7900     1.0560 H     1 <1>   0.0800 
 39 H       -1.4610    -2.6450    -3.0740 H     1 <1>   0.0800 
 40 H       -2.6200    -3.8580    -2.5910 H     1 <1>   0.0800 
 41 H       -0.9590    -4.3080    -2.8860 H     1 <1>   0.0800 
 42 H        5.3200    -1.3060    -2.0150 H     1 <1>   0.0800 
 43 H        5.5060    -3.0080    -2.3190 H     1 <1>   0.0800 
 44 H        6.3430    -4.5040    -0.2170 H     1 <1>   0.0800 
 45 H        6.6170    -3.6390     1.2650 H     1 <1>   0.0800 
 46 H       -2.3000    -7.4820    -0.2640 H     1 <1>   0.0800 
 47 H       -2.7080    -6.3950     1.0590 H     1 <1>   0.0800 
 48 H       -1.0220    -6.8720     0.7800 H     1 <1>   0.0800 
 49 H        7.7170    -1.0540    -1.5960 H     1 <1>   0.0800 
 50 H        7.4890    -1.8610    -3.1310 H     1 <1>   0.0800 
 51 H        8.7250    -4.0750    -0.0230 H     1 <1>   0.0800 
 52 H        8.4520    -2.3700     0.2520 H     1 <1>   0.0800 
@<TRIPOS>BOND
  1   1   2  2   
  2   1   3  2   
  3   1   4  am  
  4   1   5  1   
  5   4   6  1   
  6   4   7  1   
  7   5   8  ar  
  8   5   9  ar  
  9   6  10  1   
 10   6  27  1   
 11   6  28  1   
 12   7  11  1   
 13   7  29  1   
 14   7  30  1   
 15   8  12  ar  
 16   8  31  1   
 17   9  13  ar  
 18   9  32  1   
 19  10  14  1   
 20  10  15  1   
 21  10  33  1   
 22  11  15  1   
 23  11  34  1   
 24  11  35  1   
 25  12  16  ar  
 26  12  17  1   
 27  13  16  ar  
 28  13  36  1   
 29  14  18  2   
 30  14  19  am  
 31  15  37  1   
 32  15  38  1   
 33  16  20  1   
 34  17  39  1   
 35  17  40  1   
 36  17  41  1   
 37  19  21  1   
 38  19  22  1   
 39  20  23  1   
 40  21  24  1   
 41  21  42  1   
 42  21  43  1   
 43  22  25  1   
 44  22  44  1   
 45  22  45  1   
 46  23  46  1   
 47  23  47  1   
 48  23  48  1   
 49  24  26  1   
 50  24  49  1   
 51  24  50  1   
 52  25  26  1   
 53  25  51  1   
 54  25  52  1   
@<TRIPOS>SUBSTRUCTURE
  1 ****   6 GROUP 4 **** **** 0

# MOE 2024.06 (io_trps.svl 2023.06)
