@<TRIPOS>MOLECULE
NONAME
46 47 1 0 0 
SMALL
USER_CHARGES


@<TRIPOS>ATOM
  1 S        0.3200     0.0400     0.4030 S.o2  1 <1>   1.3330 
  2 O        0.7010    -1.3200     0.0940 O.2   1 <1>  -0.6500 
  3 O       -0.2710     0.3500     1.6860 O.2   1 <1>  -0.6500 
  4 N        1.6850     1.0270     0.2130 N.am  1 <1>  -0.8490 
  5 C       -0.7670     0.6150    -0.9070 C.3   1 <1>  -0.0550 
  6 C        2.9010     0.3740     0.7280 C.3   1 <1>   0.1960 
  7 C        1.5140     2.3440     0.8400 C.3   1 <1>   0.1960 
  8 C       -2.1060    -0.1400    -0.9760 C.3   1 <1>  -0.1600 
  9 C        4.1450     1.1990     0.3770 C.3   1 <1>  -0.0190 
 10 C        2.6930     3.2550     0.4850 C.3   1 <1>  -0.1600 
 11 C       -2.9890     0.3940    -2.1080 C.3   1 <1>  -0.2400 
 12 C        5.3830     0.4930     0.9050 C.2   1 <1>   0.5690 
 13 C        4.0260     2.6340     0.9230 C.3   1 <1>  -0.1600 
 14 O        5.4830     0.2800     2.0890 O.2   1 <1>  -0.5700 
 15 N        6.3420     0.1180     0.0220 N.am  1 <1>  -0.7300 
 16 C        7.5860    -0.5880     0.3650 C.3   1 <1>   0.2200 
 17 C        8.7620     0.1840    -0.2200 C.3   1 <1>  -0.1600 
 18 C        7.6220    -1.9080    -0.3930 C.3   1 <1>  -0.1600 
 19 C        8.8410    -0.2270    -1.6960 C.3   1 <1>  -0.1600 
 20 C        8.0900    -1.5600    -1.8110 C.3   1 <1>  -0.1600 
 21 H       -0.2600     0.5050    -1.8460 H     1 <1>   0.0800 
 22 H       -0.9690     1.6580    -0.7640 H     1 <1>   0.0800 
 23 H        3.0090    -0.6030     0.2870 H     1 <1>   0.0800 
 24 H        2.8250     0.2480     1.7970 H     1 <1>   0.0800 
 25 H        1.4470     2.2340     1.9110 H     1 <1>   0.0800 
 26 H        0.6020     2.7990     0.4940 H     1 <1>   0.0800 
 27 H       -2.6220    -0.0360    -0.0360 H     1 <1>   0.0800 
 28 H       -1.9150    -1.1890    -1.1330 H     1 <1>   0.0800 
 29 H        4.2100     1.2430    -0.6940 H     1 <1>   0.0800 
 30 H        2.5650     4.2080     0.9680 H     1 <1>   0.0800 
 31 H        2.6970     3.4220    -0.5780 H     1 <1>   0.0800 
 32 H       -3.2110     1.4360    -1.9570 H     1 <1>   0.0800 
 33 H       -3.9170    -0.1500    -2.1350 H     1 <1>   0.0800 
 34 H       -2.4990     0.2760    -3.0590 H     1 <1>   0.0800 
 35 H        4.8490     3.2310     0.5710 H     1 <1>   0.0800 
 36 H        4.0690     2.6090     1.9990 H     1 <1>   0.0800 
 37 H        6.2310     0.2990    -0.9750 H     1 <1>   0.3700 
 38 H        7.6710    -0.7230     1.4320 H     1 <1>   0.0800 
 39 H        9.6590    -0.1380     0.2790 H     1 <1>   0.0800 
 40 H        8.6590     1.2460    -0.0860 H     1 <1>   0.0800 
 41 H        6.6720    -2.4130    -0.3770 H     1 <1>   0.0800 
 42 H        8.3560    -2.5450     0.0700 H     1 <1>   0.0800 
 43 H        9.8660    -0.3260    -2.0090 H     1 <1>   0.0800 
 44 H        8.3620     0.5150    -2.3120 H     1 <1>   0.0800 
 45 H        7.2370    -1.4420    -2.4580 H     1 <1>   0.0800 
 46 H        8.7210    -2.3360    -2.2080 H     1 <1>   0.0800 
@<TRIPOS>BOND
  1   1   2  2   
  2   1   3  2   
  3   1   4  am  
  4   1   5  1   
  5   4   6  1   
  6   4   7  1   
  7   5   8  1   
  8   5  21  1   
  9   5  22  1   
 10   6   9  1   
 11   6  23  1   
 12   6  24  1   
 13   7  10  1   
 14   7  25  1   
 15   7  26  1   
 16   8  11  1   
 17   8  27  1   
 18   8  28  1   
 19   9  12  1   
 20   9  13  1   
 21   9  29  1   
 22  10  13  1   
 23  10  30  1   
 24  10  31  1   
 25  11  32  1   
 26  11  33  1   
 27  11  34  1   
 28  12  14  2   
 29  12  15  am  
 30  13  35  1   
 31  13  36  1   
 32  15  16  1   
 33  15  37  1   
 34  16  17  1   
 35  16  18  1   
 36  16  38  1   
 37  17  19  1   
 38  17  39  1   
 39  17  40  1   
 40  18  20  1   
 41  18  41  1   
 42  18  42  1   
 43  19  20  1   
 44  19  43  1   
 45  19  44  1   
 46  20  45  1   
 47  20  46  1   
@<TRIPOS>SUBSTRUCTURE
  1 ****   6 GROUP 4 **** **** 0

# MOE 2024.06 (io_trps.svl 2023.06)
