@<TRIPOS>MOLECULE
NONAME
43 45 1 0 0 
SMALL
USER_CHARGES


@<TRIPOS>ATOM
  1 S       -0.9240     1.0360    -0.0910 S.3   1 <1>  -0.0800 
  2 C       -1.4250     0.2040    -1.5260 C.2   1 <1>   0.4420 
  3 C        0.6140     0.2660    -0.2840 C.2   1 <1>   0.1980 
  4 N       -0.4880    -0.4970    -2.0460 N.2   1 <1>  -0.3380 
  5 N       -2.7210     0.3340    -1.9590 N.am  1 <1>  -0.4940 
  6 N        0.6700    -0.4700    -1.3200 N.2   1 <1>  -0.3380 
  7 C        1.6800     0.5220     0.7640 C.3   1 <1>   0.0200 
  8 C       -3.8760    -0.0060    -1.3180 C.2   1 <1>   0.5690 
  9 C        2.2510     1.9420     0.6660 C.3   1 <1>  -0.2400 
 10 O       -4.9180     0.2900    -1.8490 O.2   1 <1>  -0.5700 
 11 C       -3.8490    -0.7810     0.0280 C.3   1 <1>   0.2810 
 12 N       -2.9550    -1.9790    -0.0620 N.am  1 <1>  -0.4200 
 13 C       -5.2510    -1.1830     0.5770 C.3   1 <1>  -0.0800 
 14 C       -1.8850    -2.2240     0.7570 C.2   1 <1>   0.5440 
 15 C       -2.9480    -2.9070    -1.0710 C.2   1 <1>   0.5440 
 16 C       -5.1890    -2.1950     1.7390 C.3   1 <1>  -0.2400 
 17 C       -6.0320     0.0480     1.0750 C.3   1 <1>  -0.2400 
 18 O       -1.6160    -1.5600     1.7370 O.2   1 <1>  -0.5700 
 19 C       -1.1630    -3.3570     0.2530 C.ar  1 <1>   0.0860 
 20 O       -3.7710    -2.9500    -1.9600 O.2   1 <1>  -0.5700 
 21 C       -1.8260    -3.7820    -0.8880 C.ar  1 <1>   0.0860 
 22 C       -0.0200    -4.0160     0.6880 C.ar  1 <1>  -0.1500 
 23 C       -1.3530    -4.8730    -1.6080 C.ar  1 <1>  -0.1500 
 24 C        0.4500    -5.1040    -0.0290 C.ar  1 <1>  -0.1500 
 25 C       -0.2150    -5.5300    -1.1730 C.ar  1 <1>  -0.1500 
 26 H       -2.8500     0.4840    -2.9570 H     1 <1>   0.3700 
 27 H        2.4740    -0.1900     0.6260 H     1 <1>   0.0800 
 28 H        1.2570     0.3620     1.7400 H     1 <1>   0.0800 
 29 H        2.6690     2.1050    -0.3120 H     1 <1>   0.0800 
 30 H        3.0250     2.0800     1.3990 H     1 <1>   0.0800 
 31 H        1.4800     2.6720     0.8390 H     1 <1>   0.0800 
 32 H       -3.4170    -0.1150     0.7520 H     1 <1>   0.0800 
 33 H       -5.8100    -1.6310    -0.2290 H     1 <1>   0.0800 
 34 H       -6.1730    -2.3730     2.1340 H     1 <1>   0.0800 
 35 H       -4.5630    -1.8240     2.5330 H     1 <1>   0.0800 
 36 H       -4.8020    -3.1410     1.4060 H     1 <1>   0.0800 
 37 H       -6.1660     0.7710     0.2900 H     1 <1>   0.0800 
 38 H       -5.5160     0.5220     1.8910 H     1 <1>   0.0800 
 39 H       -7.0100    -0.2440     1.4140 H     1 <1>   0.0800 
 40 H        0.4870    -3.6740     1.5740 H     1 <1>   0.1500 
 41 H       -1.8760    -5.1900    -2.4940 H     1 <1>   0.1500 
 42 H        1.3360    -5.6220     0.2980 H     1 <1>   0.1500 
 43 H        0.1610    -6.3750    -1.7250 H     1 <1>   0.1500 
@<TRIPOS>BOND
  1   1   2  1   
  2   1   3  1   
  3   2   4  2   
  4   2   5  1   
  5   3   6  2   
  6   3   7  1   
  7   4   6  1   
  8   5   8  am  
  9   5  26  1   
 10   7   9  1   
 11   7  27  1   
 12   7  28  1   
 13   8  10  2   
 14   8  11  1   
 15   9  29  1   
 16   9  30  1   
 17   9  31  1   
 18  11  12  1   
 19  11  13  1   
 20  11  32  1   
 21  12  14  am  
 22  12  15  am  
 23  13  16  1   
 24  13  17  1   
 25  13  33  1   
 26  14  18  2   
 27  14  19  1   
 28  15  20  2   
 29  15  21  1   
 30  16  34  1   
 31  16  35  1   
 32  16  36  1   
 33  17  37  1   
 34  17  38  1   
 35  17  39  1   
 36  19  21  ar  
 37  19  22  ar  
 38  21  23  ar  
 39  22  24  ar  
 40  22  40  1   
 41  23  25  ar  
 42  23  41  1   
 43  24  25  ar  
 44  24  42  1   
 45  25  43  1   
@<TRIPOS>SUBSTRUCTURE
  1 ****  12 GROUP 4 **** **** 0

# MOE 2024.06 (io_trps.svl 2023.06)
