@<TRIPOS>MOLECULE
NONAME
45 45 1 0 0 
SMALL
USER_CHARGES


@<TRIPOS>ATOM
  1 O        4.9350    -0.6640    -1.5590 O.3   1 <1>  -0.5600 
  2 C        4.8600    -0.0400    -0.3010 C.3   1 <1>   0.6240 
  3 C        5.8080    -1.7490    -1.7140 C.3   1 <1>   0.0400 
  4 C        4.1430     1.2550    -0.5310 C.1   1 <1>  -0.2000 
  5 C        6.2740     0.2700     0.2420 C.ar  1 <1>  -0.1440 
  6 C        3.9800    -0.9270     0.6180 C.3   1 <1>  -0.1600 
  7 C        3.5840     2.2910    -0.7130 C.1   1 <1>  -0.1770 
  8 C        6.7290    -0.1590     1.4870 C.ar  1 <1>  -0.1500 
  9 C        7.1420     1.0210    -0.5460 C.ar  1 <1>  -0.1500 
 10 C        2.6150    -1.3230     0.0080 C.3   1 <1>  -0.1600 
 11 C        8.0080     0.1470     1.9210 C.ar  1 <1>  -0.1500 
 12 C        8.4200     1.3280    -0.1150 C.ar  1 <1>  -0.1500 
 13 C        1.7820    -2.1520     0.9850 C.3   1 <1>   0.3430 
 14 C        8.8550     0.8900     1.1210 C.ar  1 <1>  -0.1500 
 15 N        0.5030    -2.5660     0.3390 N.4   1 <1>  -0.9590 
 16 C       -0.4660    -1.4360     0.2850 C.3   1 <1>   0.3430 
 17 C       -0.0890    -3.7550     1.0110 C.3   1 <1>   0.3430 
 18 C       -1.4890    -1.6960    -0.8140 C.3   1 <1>  -0.2400 
 19 C        0.6810    -5.0060     0.6060 C.3   1 <1>  -0.2400 
 20 H        5.6550    -2.1580    -2.6970 H     1 <1>   0.0800 
 21 H        5.6010    -2.5020    -0.9760 H     1 <1>   0.0800 
 22 H        6.8270    -1.4130    -1.6330 H     1 <1>   0.0800 
 23 H        3.8120    -0.3830     1.5310 H     1 <1>   0.0800 
 24 H        4.5270    -1.8160     0.8710 H     1 <1>   0.0800 
 25 H        3.1000     3.2360    -0.8890 H     1 <1>   0.1770 
 26 H        6.1080    -0.7330     2.1480 H     1 <1>   0.1500 
 27 H        6.8170     1.3700    -1.5120 H     1 <1>   0.1500 
 28 H        2.7860    -1.8970    -0.8860 H     1 <1>   0.0800 
 29 H        2.0790    -0.4310    -0.2620 H     1 <1>   0.0800 
 30 H        8.3450    -0.1920     2.8850 H     1 <1>   0.1500 
 31 H        9.0740     1.9090    -0.7420 H     1 <1>   0.1500 
 32 H        1.5810    -1.5830     1.8790 H     1 <1>   0.0800 
 33 H        2.3520    -3.0230     1.2640 H     1 <1>   0.0800 
 34 H        9.8490     1.1280     1.4590 H     1 <1>   0.1500 
 35 H        0.7180    -2.8320    -0.6320 H     1 <1>   0.4500 
 36 H        0.0500    -0.5160     0.0610 H     1 <1>   0.0800 
 37 H       -0.9590    -1.3190     1.2370 H     1 <1>   0.0800 
 38 H       -1.1180    -3.8730     0.7110 H     1 <1>   0.0800 
 39 H       -0.0660    -3.6300     2.0830 H     1 <1>   0.0800 
 40 H       -1.0040    -1.8090    -1.7680 H     1 <1>   0.0800 
 41 H       -2.1540    -0.8530    -0.8810 H     1 <1>   0.0800 
 42 H       -2.0860    -2.5650    -0.6060 H     1 <1>   0.0800 
 43 H        0.6630    -5.1370    -0.4610 H     1 <1>   0.0800 
 44 H        0.2110    -5.8660     1.0510 H     1 <1>   0.0800 
 45 H        1.6980    -4.9780     0.9520 H     1 <1>   0.0800 
@<TRIPOS>BOND
  1   1   2  1   
  2   1   3  1   
  3   2   4  1   
  4   2   5  1   
  5   2   6  1   
  6   3  20  1   
  7   3  21  1   
  8   3  22  1   
  9   4   7  3   
 10   5   8  ar  
 11   5   9  ar  
 12   6  10  1   
 13   6  23  1   
 14   6  24  1   
 15   7  25  1   
 16   8  11  ar  
 17   8  26  1   
 18   9  12  ar  
 19   9  27  1   
 20  10  13  1   
 21  10  28  1   
 22  10  29  1   
 23  11  14  ar  
 24  11  30  1   
 25  12  14  ar  
 26  12  31  1   
 27  13  15  1   
 28  13  32  1   
 29  13  33  1   
 30  14  34  1   
 31  15  16  1   
 32  15  17  1   
 33  15  35  1   
 34  16  18  1   
 35  16  36  1   
 36  16  37  1   
 37  17  19  1   
 38  17  38  1   
 39  17  39  1   
 40  18  40  1   
 41  18  41  1   
 42  18  42  1   
 43  19  43  1   
 44  19  44  1   
 45  19  45  1   
@<TRIPOS>SUBSTRUCTURE
  1 ****   6 GROUP 4 **** **** 0

# MOE 2024.06 (io_trps.svl 2023.06)
