@<TRIPOS>MOLECULE
NONAME
47 49 1 0 0 
SMALL
USER_CHARGES


@<TRIPOS>ATOM
  1 O        0.3360    -0.4430     0.0590 O.2   1 <1>  -0.5700 
  2 C        0.2030    -1.6380    -0.1320 C.2   1 <1>   0.5440 
  3 N        1.3200    -2.3960    -0.4200 N.am  1 <1>  -0.6600 
  4 C       -1.1220    -2.2200    -0.0560 C.ar  1 <1>   0.0860 
  5 C        2.6970    -1.8720    -0.2010 C.3   1 <1>   0.1400 
  6 C        1.2740    -3.7040    -1.1320 C.3   1 <1>   0.1400 
  7 C       -2.1890    -1.6740    -0.7680 C.ar  1 <1>  -0.1500 
  8 C       -1.3890    -3.3370     0.7370 C.ar  1 <1>  -0.1500 
  9 C        3.5190    -2.8990     0.5860 C.3   1 <1>  -0.1600 
 10 C        2.0730    -4.7480    -0.3450 C.3   1 <1>  -0.1600 
 11 C       -3.4550    -2.2230    -0.7050 C.ar  1 <1>  -0.1500 
 12 C       -2.6540    -3.8870     0.8050 C.ar  1 <1>  -0.1500 
 13 C        3.5130    -4.2770    -0.0920 C.3   1 <1>  -0.1600 
 14 C       -3.7100    -3.3360     0.0900 C.ar  1 <1>   0.1170 
 15 N       -4.9770    -3.9120     0.1820 N.am  1 <1>  -0.5470 
 16 C       -6.2330    -3.3690     0.1500 C.2   1 <1>   0.5440 
 17 O       -7.1390    -4.1600    -0.0050 O.2   1 <1>  -0.5700 
 18 C       -6.5020    -1.9510     0.2970 C.ar  1 <1>   0.0860 
 19 C       -5.7890    -1.1410     1.1850 C.ar  1 <1>  -0.1500 
 20 C       -7.5080    -1.3390    -0.4540 C.ar  1 <1>  -0.1500 
 21 C       -6.0520     0.2110     1.2980 C.ar  1 <1>  -0.1500 
 22 C       -7.7790     0.0120    -0.3460 C.ar  1 <1>  -0.1500 
 23 C       -7.0440     0.8010     0.5340 C.ar  1 <1>   0.0830 
 24 O       -7.2390     2.1290     0.6990 O.3   1 <1>  -0.3630 
 25 C       -8.2320     2.8290    -0.0160 C.3   1 <1>   0.0400 
 26 H        2.6670    -0.9440     0.3460 H     1 <1>   0.0800 
 27 H        3.1560    -1.6820    -1.1560 H     1 <1>   0.0800 
 28 H        1.7090    -3.5790    -2.1090 H     1 <1>   0.0800 
 29 H        0.2600    -4.0380    -1.2650 H     1 <1>   0.0800 
 30 H       -2.0090    -0.8040    -1.3770 H     1 <1>   0.1500 
 31 H       -0.5840    -3.7680     1.3070 H     1 <1>   0.1500 
 32 H        3.1090    -2.9800     1.5770 H     1 <1>   0.0800 
 33 H        4.5300    -2.5460     0.6790 H     1 <1>   0.0800 
 34 H        2.0880    -5.6720    -0.8950 H     1 <1>   0.0800 
 35 H        1.5810    -4.9320     0.5940 H     1 <1>   0.0800 
 36 H       -4.2500    -1.7810    -1.2780 H     1 <1>   0.1500 
 37 H       -2.8300    -4.7480     1.4260 H     1 <1>   0.1500 
 38 H        4.0260    -4.9910     0.5290 H     1 <1>   0.0800 
 39 H        4.0370    -4.2140    -1.0300 H     1 <1>   0.0800 
 40 H       -5.0130    -4.9310     0.2210 H     1 <1>   0.3700 
 41 H       -5.0170    -1.5770     1.7950 H     1 <1>   0.1500 
 42 H       -8.0840    -1.9450    -1.1330 H     1 <1>   0.1500 
 43 H       -5.4880     0.8210     1.9810 H     1 <1>   0.1500 
 44 H       -8.5620     0.4320    -0.9480 H     1 <1>   0.1500 
 45 H       -8.1970     3.8600     0.2870 H     1 <1>   0.0800 
 46 H       -9.1940     2.4110     0.2230 H     1 <1>   0.0800 
 47 H       -8.0260     2.7490    -1.0680 H     1 <1>   0.0800 
@<TRIPOS>BOND
  1   1   2  2   
  2   2   3  am  
  3   2   4  1   
  4   3   5  1   
  5   3   6  1   
  6   4   7  ar  
  7   4   8  ar  
  8   5   9  1   
  9   5  26  1   
 10   5  27  1   
 11   6  10  1   
 12   6  28  1   
 13   6  29  1   
 14   7  11  ar  
 15   7  30  1   
 16   8  12  ar  
 17   8  31  1   
 18   9  13  1   
 19   9  32  1   
 20   9  33  1   
 21  10  13  1   
 22  10  34  1   
 23  10  35  1   
 24  11  14  ar  
 25  11  36  1   
 26  12  14  ar  
 27  12  37  1   
 28  13  38  1   
 29  13  39  1   
 30  14  15  1   
 31  15  16  am  
 32  15  40  1   
 33  16  17  2   
 34  16  18  1   
 35  18  19  ar  
 36  18  20  ar  
 37  19  21  ar  
 38  19  41  1   
 39  20  22  ar  
 40  20  42  1   
 41  21  23  ar  
 42  21  43  1   
 43  22  23  ar  
 44  22  44  1   
 45  23  24  1   
 46  24  25  1   
 47  25  45  1   
 48  25  46  1   
 49  25  47  1   
@<TRIPOS>SUBSTRUCTURE
  1 ****  11 GROUP 4 **** **** 0

# MOE 2024.06 (io_trps.svl 2023.06)
