@<TRIPOS>MOLECULE
NONAME
60 64 1 0 0 
SMALL
USER_CHARGES


@<TRIPOS>ATOM
  1 S        0.7190     0.8250     1.5410 S.o2  1 <1>   1.4470 
  2 O        1.6220     0.0290     2.3420 O.2   1 <1>  -0.6500 
  3 O       -0.0540     1.8880     2.1400 O.2   1 <1>  -0.6500 
  4 N        1.6580     1.6050     0.2980 N.am  1 <1>  -0.5780 
  5 C       -0.3760    -0.2550     0.5800 C.ar  1 <1>  -0.0090 
  6 N        2.6750     1.0540    -0.4730 N.2   1 <1>  -0.4300 
  7 C       -1.7420    -0.1170     0.6050 C.ar  1 <1>  -0.1500 
  8 C        0.1650    -1.2730    -0.2260 C.ar  1 <1>  -0.1500 
  9 C        3.8420     0.8400    -0.0130 C.2   1 <1>   0.3280 
 10 C       -2.6020    -0.9460    -0.1420 C.ar  1 <1>   0.0000 
 11 C       -0.6390    -2.0970    -0.9650 C.ar  1 <1>  -0.1500 
 12 C        4.8730     0.1430    -0.8810 C.3   1 <1>  -0.0380 
 13 C        4.3320     1.2010     1.3880 C.3   1 <1>  -0.1790 
 14 C       -2.0390    -1.9580    -0.9450 C.ar  1 <1>   0.0000 
 15 C       -4.0040    -0.8030    -0.1170 C.ar  1 <1>  -0.1500 
 16 C        6.1170     0.9820    -1.0450 C.2   1 <1>   0.5690 
 17 C       -2.8980    -2.7880    -1.6940 C.ar  1 <1>  -0.1500 
 18 C       -4.8150    -1.6220    -0.8530 C.ar  1 <1>  -0.1500 
 19 O        6.0630     1.9600    -1.7460 O.2   1 <1>  -0.5700 
 20 N        7.2450     0.5940    -0.3890 N.am  1 <1>  -0.7300 
 21 C       -4.2550    -2.6260    -1.6520 C.ar  1 <1>  -0.1500 
 22 C        8.5570     1.2630    -0.3610 C.3   1 <1>   0.3000 
 23 C        9.1720     1.3300    -1.7720 C.3   1 <1>  -0.1600 
 24 C        9.4820     0.4280     0.5450 C.3   1 <1>  -0.1600 
 25 C        8.4370     2.6830     0.2260 C.3   1 <1>  -0.1600 
 26 C       10.5650     1.9860    -1.7080 C.3   1 <1>  -0.0800 
 27 C       10.8800     1.0720     0.6230 C.3   1 <1>  -0.0800 
 28 C        9.8290     3.3430     0.2960 C.3   1 <1>  -0.0800 
 29 C       11.4790     1.1490    -0.7940 C.3   1 <1>  -0.1600 
 30 C       10.4280     3.4060    -1.1230 C.3   1 <1>  -0.1600 
 31 C       10.7480     2.4960     1.1960 C.3   1 <1>  -0.1600 
 32 H        1.0920     2.3330    -0.1380 H     1 <1>   0.4200 
 33 H       -2.1910     0.6490     1.2140 H     1 <1>   0.1500 
 34 H        1.2350    -1.3900    -0.2510 H     1 <1>   0.1500 
 35 H       -0.2090    -2.8690    -1.5770 H     1 <1>   0.1500 
 36 H        4.4600    -0.0360    -1.8570 H     1 <1>   0.0800 
 37 H        5.1190    -0.8060    -0.4460 H     1 <1>   0.0800 
 38 H        4.5330     0.3050     1.9450 H     1 <1>   0.0800 
 39 H        3.6060     1.7760     1.9300 H     1 <1>   0.0800 
 40 H        5.2260     1.7930     1.3350 H     1 <1>   0.0800 
 41 H       -4.4310    -0.0300     0.4980 H     1 <1>   0.1500 
 42 H       -2.4630    -3.5580    -2.3050 H     1 <1>   0.1500 
 43 H       -5.8850    -1.5080    -0.8310 H     1 <1>   0.1500 
 44 H        7.2260    -0.2560     0.1700 H     1 <1>   0.3700 
 45 H       -4.9070    -3.2620    -2.2250 H     1 <1>   0.1500 
 46 H        9.2550     0.3410    -2.1840 H     1 <1>   0.0800 
 47 H        8.5430     1.9120    -2.4210 H     1 <1>   0.0800 
 48 H        9.0680     0.3670     1.5360 H     1 <1>   0.0800 
 49 H        9.5750    -0.5690     0.1530 H     1 <1>   0.0800 
 50 H        7.7970     3.2850    -0.3930 H     1 <1>   0.0800 
 51 H        8.0080     2.6390     1.2110 H     1 <1>   0.0800 
 52 H       10.9880     2.0400    -2.6980 H     1 <1>   0.0800 
 53 H       11.5210     0.4830     1.2580 H     1 <1>   0.0800 
 54 H        9.7390     4.3380     0.6970 H     1 <1>   0.0800 
 55 H       12.4580     1.5960    -0.7510 H     1 <1>   0.0800 
 56 H       11.5920     0.1590    -1.1990 H     1 <1>   0.0800 
 57 H        9.7950     4.0010    -1.7590 H     1 <1>   0.0800 
 58 H       11.3940     3.8810    -1.0900 H     1 <1>   0.0800 
 59 H       11.7190     2.9550     1.2580 H     1 <1>   0.0800 
 60 H       10.3430     2.4540     2.1920 H     1 <1>   0.0800 
@<TRIPOS>BOND
  1   1   2  2   
  2   1   3  2   
  3   1   4  am  
  4   1   5  1   
  5   4   6  1   
  6   4  32  1   
  7   5   7  ar  
  8   5   8  ar  
  9   6   9  2   
 10   7  10  ar  
 11   7  33  1   
 12   8  11  ar  
 13   8  34  1   
 14   9  12  1   
 15   9  13  1   
 16  10  14  ar  
 17  10  15  ar  
 18  11  14  ar  
 19  11  35  1   
 20  12  16  1   
 21  12  36  1   
 22  12  37  1   
 23  13  38  1   
 24  13  39  1   
 25  13  40  1   
 26  14  17  ar  
 27  15  18  ar  
 28  15  41  1   
 29  16  19  2   
 30  16  20  am  
 31  17  21  ar  
 32  17  42  1   
 33  18  21  ar  
 34  18  43  1   
 35  20  22  1   
 36  20  44  1   
 37  21  45  1   
 38  22  23  1   
 39  22  24  1   
 40  22  25  1   
 41  23  26  1   
 42  23  46  1   
 43  23  47  1   
 44  24  27  1   
 45  24  48  1   
 46  24  49  1   
 47  25  28  1   
 48  25  50  1   
 49  25  51  1   
 50  26  29  1   
 51  26  30  1   
 52  26  52  1   
 53  27  29  1   
 54  27  31  1   
 55  27  53  1   
 56  28  30  1   
 57  28  31  1   
 58  28  54  1   
 59  29  55  1   
 60  29  56  1   
 61  30  57  1   
 62  30  58  1   
 63  31  59  1   
 64  31  60  1   
@<TRIPOS>SUBSTRUCTURE
  1 ****   9 GROUP 4 **** **** 0

# MOE 2024.06 (io_trps.svl 2023.06)
