@<TRIPOS>MOLECULE
NONAME
29 31 1 0 0 
SMALL
USER_CHARGES


@<TRIPOS>ATOM
  1 BR      -0.3080    -0.6610    -1.0880 Br    1 <1>  -0.1110 
  2 C        1.4630    -1.1560    -0.5130 C.ar  1 <1>   0.1110 
  3 C        2.5470    -0.5320    -1.0900 C.ar  1 <1>  -0.1500 
  4 C        1.5800    -2.1360     0.4750 C.ar  1 <1>  -0.1500 
  5 C        3.8190    -0.9100    -0.6530 C.ar  1 <1>   0.0000 
  6 C        2.8400    -2.5060     0.9030 C.ar  1 <1>  -0.1500 
  7 C        3.9420    -1.8810     0.3270 C.ar  1 <1>   0.1400 
  8 C        5.1400    -0.5470    -0.9590 C.2   1 <1>  -0.1500 
  9 O        5.2260    -2.0960     0.6010 O.3   1 <1>  -0.2800 
 10 C        5.9660    -1.2870    -0.1740 C.2   1 <1>   0.0550 
 11 C        7.4130    -1.3110    -0.0790 C.2   1 <1>   0.7150 
 12 O        8.0030    -2.3610     0.1110 O.2   1 <1>  -0.5700 
 13 N        8.1610    -0.1600    -0.2110 N.am  1 <1>  -0.6600 
 14 C        7.6400     1.2130    -0.0320 C.3   1 <1>   0.1400 
 15 C        9.6400    -0.1750    -0.1350 C.3   1 <1>   0.1400 
 16 C        8.8350     2.0220     0.4570 C.3   1 <1>  -0.1600 
 17 C       10.0490     1.2930    -0.1120 C.3   1 <1>  -0.1600 
 18 H        2.4260     0.2180    -1.8490 H     1 <1>   0.1500 
 19 H        0.6950    -2.5870     0.8870 H     1 <1>   0.1500 
 20 H        2.9900    -3.2550     1.6590 H     1 <1>   0.1500 
 21 H        5.4080     0.1840    -1.6990 H     1 <1>   0.1500 
 22 H        6.8320     1.2380     0.6810 H     1 <1>   0.0800 
 23 H        7.3030     1.5890    -0.9830 H     1 <1>   0.0800 
 24 H       10.0600    -0.6950    -0.9800 H     1 <1>   0.0800 
 25 H        9.9420    -0.6670     0.7750 H     1 <1>   0.0800 
 26 H        8.8630     1.9900     1.5330 H     1 <1>   0.0800 
 27 H        8.7840     3.0480     0.1380 H     1 <1>   0.0800 
 28 H       10.2340     1.6200    -1.1210 H     1 <1>   0.0800 
 29 H       10.9360     1.4500     0.4750 H     1 <1>   0.0800 
@<TRIPOS>BOND
  1   1   2  1   
  2   2   3  ar  
  3   2   4  ar  
  4   3   5  ar  
  5   3  18  1   
  6   4   6  ar  
  7   4  19  1   
  8   5   7  ar  
  9   5   8  1   
 10   6   7  ar  
 11   6  20  1   
 12   7   9  1   
 13   8  10  2   
 14   8  21  1   
 15   9  10  1   
 16  10  11  1   
 17  11  12  2   
 18  11  13  am  
 19  13  14  1   
 20  13  15  1   
 21  14  16  1   
 22  14  22  1   
 23  14  23  1   
 24  15  17  1   
 25  15  24  1   
 26  15  25  1   
 27  16  17  1   
 28  16  26  1   
 29  16  27  1   
 30  17  28  1   
 31  17  29  1   
@<TRIPOS>SUBSTRUCTURE
  1 ****  10 GROUP 4 **** **** 0

# MOE 2024.06 (io_trps.svl 2023.06)
