@<TRIPOS>MOLECULE
NONAME
31 31 1 0 0 
SMALL
USER_CHARGES


@<TRIPOS>ATOM
  1 O       -0.0930    -0.4480     0.9230 O.2   1 <1>  -0.5700 
  2 C       -0.0590    -1.5430     0.4320 C.2   1 <1>   0.6590 
  3 O        1.1150    -2.1150     0.1790 O.3   1 <1>  -0.4300 
  4 C       -1.3370    -2.3100     0.0920 C.3   1 <1>  -0.0990 
  5 C        1.3110    -3.4020    -0.3680 C.3   1 <1>   0.0400 
  6 C       -2.6400    -1.5240     0.3580 C.3   1 <1>  -0.1600 
  7 C       -3.9250    -2.2480    -0.1160 C.3   1 <1>  -0.0190 
  8 C       -5.1840    -1.3740     0.0030 C.2   1 <1>   0.3280 
  9 C       -4.1470    -3.5760     0.6420 C.3   1 <1>  -0.1600 
 10 N       -5.1540    -0.1980     0.4740 N.2   1 <1>  -0.5130 
 11 C       -6.4370    -2.0930    -0.5020 C.3   1 <1>  -0.0990 
 12 C       -5.4150    -4.3030     0.1690 C.3   1 <1>  -0.1600 
 13 O       -6.2430     0.5450     0.5880 O.3   1 <1>  -0.3370 
 14 C       -6.6530    -3.4040     0.2630 C.3   1 <1>  -0.1600 
 15 H       -1.3030    -2.5750    -0.9470 H     1 <1>   0.0800 
 16 H       -1.3360    -3.2080     0.6790 H     1 <1>   0.0800 
 17 H        2.3700    -3.5790    -0.4300 H     1 <1>   0.0800 
 18 H        0.8800    -3.4370    -1.3530 H     1 <1>   0.0800 
 19 H        0.8580    -4.1340     0.2770 H     1 <1>   0.0800 
 20 H       -2.5710    -0.5800    -0.1580 H     1 <1>   0.0800 
 21 H       -2.7170    -1.3020     1.4090 H     1 <1>   0.0800 
 22 H       -3.8020    -2.4740    -1.1610 H     1 <1>   0.0800 
 23 H       -3.3120    -4.2370     0.5010 H     1 <1>   0.0800 
 24 H       -4.2310    -3.3680     1.6960 H     1 <1>   0.0800 
 25 H       -7.3150    -1.4840    -0.4060 H     1 <1>   0.0800 
 26 H       -6.3090    -2.3050    -1.5490 H     1 <1>   0.0800 
 27 H       -5.2830    -4.6230    -0.8510 H     1 <1>   0.0800 
 28 H       -5.5670    -5.1840     0.7700 H     1 <1>   0.0800 
 29 H       -7.0930     0.0980     0.4140 H     1 <1>   0.4000 
 30 H       -6.8540    -3.1810     1.2980 H     1 <1>   0.0800 
 31 H       -7.5080    -3.9230    -0.1360 H     1 <1>   0.0800 
@<TRIPOS>BOND
  1   1   2  2   
  2   2   3  1   
  3   2   4  1   
  4   3   5  1   
  5   4   6  1   
  6   4  15  1   
  7   4  16  1   
  8   5  17  1   
  9   5  18  1   
 10   5  19  1   
 11   6   7  1   
 12   6  20  1   
 13   6  21  1   
 14   7   8  1   
 15   7   9  1   
 16   7  22  1   
 17   8  10  2   
 18   8  11  1   
 19   9  12  1   
 20   9  23  1   
 21   9  24  1   
 22  10  13  1   
 23  11  14  1   
 24  11  25  1   
 25  11  26  1   
 26  12  14  1   
 27  12  27  1   
 28  12  28  1   
 29  13  29  1   
 30  14  30  1   
 31  14  31  1   
@<TRIPOS>SUBSTRUCTURE
  1 ****   6 GROUP 4 **** **** 0

# MOE 2024.06 (io_trps.svl 2023.06)
