@<TRIPOS>MOLECULE
NONAME
46 49 1 0 0 
SMALL
USER_CHARGES


@<TRIPOS>ATOM
  1 F        0.5360    -0.1240     0.3680 F     1 <1>  -0.1900 
  2 C        1.6940    -0.7180     0.3170 C.ar  1 <1>   0.1900 
  3 C        2.1880    -1.1180    -0.9100 C.ar  1 <1>  -0.1500 
  4 C        2.3900    -0.9320     1.4910 C.ar  1 <1>  -0.1500 
  5 C        3.4200    -1.7460    -0.9560 C.ar  1 <1>  -0.1500 
  6 C        3.6210    -1.5610     1.4260 C.ar  1 <1>  -0.1500 
  7 C        4.1640    -1.9730     0.2060 C.ar  1 <1>   0.0860 
  8 C        5.4590    -2.6230     0.1570 C.2   1 <1>   0.5440 
  9 O        5.6230    -3.6470     0.7930 O.2   1 <1>  -0.5700 
 10 N        6.5100    -2.1140    -0.5820 N.am  1 <1>  -0.6600 
 11 C        6.5470    -0.7230    -1.1140 C.3   1 <1>   0.1400 
 12 C        7.7830    -2.8700    -0.7450 C.3   1 <1>   0.1400 
 13 C        7.6820     0.0520    -0.4410 C.3   1 <1>  -0.1600 
 14 C        8.9230    -2.1110    -0.0600 C.3   1 <1>  -0.1600 
 15 C        9.0400    -0.6680    -0.5860 C.3   1 <1>  -0.0190 
 16 C       10.1860     0.0760     0.1040 C.2   1 <1>   0.5690 
 17 O        9.9440     0.8220     1.0210 O.2   1 <1>  -0.5700 
 18 N       11.4510    -0.1620    -0.3590 N.am  1 <1>  -0.5470 
 19 C       12.6950     0.3530     0.0440 C.ar  1 <1>   0.1170 
 20 C       13.8390    -0.3870    -0.2520 C.ar  1 <1>  -0.1500 
 21 C       12.8310     1.5770     0.7100 C.ar  1 <1>  -0.1500 
 22 C       15.0680     0.1120     0.1260 C.ar  1 <1>   0.0830 
 23 C       14.0760     2.0650     1.0860 C.ar  1 <1>  -0.1500 
 24 O       16.2750    -0.4330    -0.0580 O.3   1 <1>  -0.3630 
 25 C       15.1860     1.3040     0.7780 C.ar  1 <1>   0.0830 
 26 C       17.2210     0.4670     0.5160 C.3   1 <1>   0.4000 
 27 O       16.4740     1.5660     1.0340 O.3   1 <1>  -0.3620 
 28 H        1.6140    -0.9410    -1.8030 H     1 <1>   0.1500 
 29 H        1.9740    -0.6140     2.4310 H     1 <1>   0.1500 
 30 H        3.8200    -2.0730    -1.9010 H     1 <1>   0.1500 
 31 H        4.1800    -1.7460     2.3280 H     1 <1>   0.1500 
 32 H        5.6190    -0.2110    -0.9290 H     1 <1>   0.0800 
 33 H        6.7040    -0.7580    -2.1780 H     1 <1>   0.0800 
 34 H        7.9900    -2.9820    -1.7950 H     1 <1>   0.0800 
 35 H        7.7000    -3.8560    -0.3200 H     1 <1>   0.0800 
 36 H        7.4440     0.1710     0.6030 H     1 <1>   0.0800 
 37 H        7.7480     1.0360    -0.8710 H     1 <1>   0.0800 
 38 H        9.8430    -2.6410    -0.2220 H     1 <1>   0.0800 
 39 H        8.7380    -2.0960     1.0010 H     1 <1>   0.0800 
 40 H        9.2700    -0.7100    -1.6360 H     1 <1>   0.0800 
 41 H       11.5140    -0.8750    -1.0820 H     1 <1>   0.3700 
 42 H       13.7840    -1.3300    -0.7610 H     1 <1>   0.1500 
 43 H       11.9590     2.1610     0.9390 H     1 <1>   0.1500 
 44 H       14.1840     3.0030     1.5990 H     1 <1>   0.1500 
 45 H       17.8950     0.8170    -0.2460 H     1 <1>   0.0800 
 46 H       17.7450    -0.0230     1.3180 H     1 <1>   0.0800 
@<TRIPOS>BOND
  1   1   2  1   
  2   2   3  ar  
  3   2   4  ar  
  4   3   5  ar  
  5   3  28  1   
  6   4   6  ar  
  7   4  29  1   
  8   5   7  ar  
  9   5  30  1   
 10   6   7  ar  
 11   6  31  1   
 12   7   8  1   
 13   8   9  2   
 14   8  10  am  
 15  10  11  1   
 16  10  12  1   
 17  11  13  1   
 18  11  32  1   
 19  11  33  1   
 20  12  14  1   
 21  12  34  1   
 22  12  35  1   
 23  13  15  1   
 24  13  36  1   
 25  13  37  1   
 26  14  15  1   
 27  14  38  1   
 28  14  39  1   
 29  15  16  1   
 30  15  40  1   
 31  16  17  2   
 32  16  18  am  
 33  18  19  1   
 34  18  41  1   
 35  19  20  ar  
 36  19  21  ar  
 37  20  22  ar  
 38  20  42  1   
 39  21  23  ar  
 40  21  43  1   
 41  22  24  1   
 42  22  25  ar  
 43  23  25  ar  
 44  23  44  1   
 45  24  26  1   
 46  25  27  1   
 47  26  27  1   
 48  26  45  1   
 49  26  46  1   
@<TRIPOS>SUBSTRUCTURE
  1 ****  15 GROUP 4 **** **** 0

# MOE 2024.06 (io_trps.svl 2023.06)
