@<TRIPOS>MOLECULE
NONAME
42 43 1 0 0 
SMALL
USER_CHARGES


@<TRIPOS>ATOM
  1 O        0.3320     0.1140     1.0640 O.2   1 <1>  -0.5700 
  2 C        0.3570     0.6100    -0.0450 C.2   1 <1>   0.6900 
  3 N       -0.7500     0.7130    -0.8310 N.am  1 <1>  -0.5470 
  4 N        1.5200     1.0740    -0.5500 N.am  1 <1>  -0.7300 
  5 C       -2.0970     0.4040    -0.5870 C.ar  1 <1>   0.1170 
  6 C        2.7920     1.1540     0.2000 C.3   1 <1>   0.2840 
  7 C       -2.6400     0.3250     0.6910 C.ar  1 <1>  -0.1500 
  8 C       -2.9380     0.1840    -1.6720 C.ar  1 <1>  -0.1500 
  9 C        3.3640     2.5620     0.0820 C.ar  1 <1>   0.1670 
 10 C       -3.9780     0.0290     0.8770 C.ar  1 <1>  -0.1500 
 11 C       -4.2760    -0.1120    -1.4880 C.ar  1 <1>  -0.1500 
 12 N        3.6240     3.0020    -1.1450 N.ar  1 <1>  -0.6200 
 13 C        3.5760     3.3100     1.2320 C.ar  1 <1>  -0.1500 
 14 C       -4.8070    -0.1930    -0.2110 C.ar  1 <1>  -0.1430 
 15 C        4.1210     4.2270    -1.2220 C.ar  1 <1>   0.1600 
 16 C        4.0920     4.5840     1.1340 C.ar  1 <1>  -0.1500 
 17 C       -6.2770    -0.5190    -0.0050 C.3   1 <1>  -0.0170 
 18 C        4.3710     5.0450    -0.1340 C.ar  1 <1>  -0.1500 
 19 C       -7.1140     0.7650     0.0260 C.3   1 <1>  -0.1600 
 20 C       -8.6030     0.4620     0.2340 C.3   1 <1>  -0.1600 
 21 C       -9.4270     1.7520     0.2630 C.3   1 <1>  -0.2400 
 22 H       -0.5380     0.9800    -1.7850 H     1 <1>   0.3700 
 23 H        1.5240     1.6960    -1.3590 H     1 <1>   0.3700 
 24 H        3.4920     0.4540    -0.2220 H     1 <1>   0.0800 
 25 H        2.6370     0.8960     1.2340 H     1 <1>   0.0800 
 26 H       -2.0190     0.4990     1.5500 H     1 <1>   0.1500 
 27 H       -2.5440     0.2400    -2.6690 H     1 <1>   0.1500 
 28 H       -4.3730    -0.0270     1.8770 H     1 <1>   0.1500 
 29 H       -4.9070    -0.2780    -2.3440 H     1 <1>   0.1500 
 30 H        3.3370     2.9020     2.1980 H     1 <1>   0.1500 
 31 H        4.3430     4.6000    -2.2080 H     1 <1>   0.1500 
 32 H        4.2690     5.1900     2.0060 H     1 <1>   0.1500 
 33 H       -6.3990    -1.0560     0.9200 H     1 <1>   0.0800 
 34 H       -6.6180    -1.1590    -0.8000 H     1 <1>   0.0800 
 35 H        4.7760     6.0300    -0.2810 H     1 <1>   0.1500 
 36 H       -6.9790     1.2950    -0.9020 H     1 <1>   0.0800 
 37 H       -6.7580     1.3960     0.8220 H     1 <1>   0.0800 
 38 H       -8.7390    -0.0650     1.1630 H     1 <1>   0.0800 
 39 H       -8.9600    -0.1670    -0.5630 H     1 <1>   0.0800 
 40 H       -9.1000     2.3890     1.0670 H     1 <1>   0.0800 
 41 H      -10.4670     1.5220     0.4110 H     1 <1>   0.0800 
 42 H       -9.3230     2.2860    -0.6650 H     1 <1>   0.0800 
@<TRIPOS>BOND
  1   1   2  2   
  2   2   3  am  
  3   2   4  am  
  4   3   5  1   
  5   3  22  1   
  6   4   6  1   
  7   4  23  1   
  8   5   7  ar  
  9   5   8  ar  
 10   6   9  1   
 11   6  24  1   
 12   6  25  1   
 13   7  10  ar  
 14   7  26  1   
 15   8  11  ar  
 16   8  27  1   
 17   9  12  ar  
 18   9  13  ar  
 19  10  14  ar  
 20  10  28  1   
 21  11  14  ar  
 22  11  29  1   
 23  12  15  ar  
 24  13  16  ar  
 25  13  30  1   
 26  14  17  1   
 27  15  18  ar  
 28  15  31  1   
 29  16  18  ar  
 30  16  32  1   
 31  17  19  1   
 32  17  33  1   
 33  17  34  1   
 34  18  35  1   
 35  19  20  1   
 36  19  36  1   
 37  19  37  1   
 38  20  21  1   
 39  20  38  1   
 40  20  39  1   
 41  21  40  1   
 42  21  41  1   
 43  21  42  1   
@<TRIPOS>SUBSTRUCTURE
  1 ****   3 GROUP 4 **** **** 0

# MOE 2024.06 (io_trps.svl 2023.06)
