@<TRIPOS>MOLECULE
NONAME
47 49 1 0 0 
SMALL
USER_CHARGES


@<TRIPOS>ATOM
  1 S        0.3890    -0.7060    -1.7070 S.o2  1 <1>   1.5760 
  2 O        0.5000    -1.2970    -3.0230 O.2   1 <1>  -0.6500 
  3 O        0.7640     0.6740    -1.4900 O.2   1 <1>  -0.6500 
  4 N       -1.1810    -0.9490    -1.1270 N.am  1 <1>  -0.8490 
  5 N        1.2450    -1.6740    -0.6110 N.am  1 <1>  -0.8490 
  6 C       -1.3600    -0.4450     0.2370 C.3   1 <1>   0.1960 
  7 C       -1.6360    -2.3250    -1.3400 C.3   1 <1>   0.1960 
  8 C        1.9640    -2.7810    -1.2730 C.3   1 <1>   0.1960 
  9 C        2.1810    -0.8950     0.2240 C.3   1 <1>   0.1960 
 10 C       -2.8150    -0.0310     0.4770 C.3   1 <1>  -0.1600 
 11 C       -3.1330    -2.5340    -1.0760 C.3   1 <1>  -0.1600 
 12 C        2.6830    -3.7110    -0.2760 C.3   1 <1>   0.2090 
 13 C        2.9060    -1.7570     1.2760 C.3   1 <1>   0.2090 
 14 C       -3.7310    -1.1450     1.0070 C.3   1 <1>  -0.1600 
 15 C       -3.4910    -2.5410     0.4170 C.3   1 <1>  -0.1600 
 16 N        3.5520    -2.9650     0.6810 N.pl3 1 <1>  -0.8380 
 17 C        4.9180    -2.9160     0.4240 C.ar  1 <1>   0.1000 
 18 C        5.4440    -2.1540    -0.6140 C.ar  1 <1>  -0.1500 
 19 C        5.7880    -3.6460     1.2230 C.ar  1 <1>  -0.1500 
 20 C        6.8070    -2.1240    -0.8460 C.ar  1 <1>  -0.1500 
 21 C        7.1510    -3.6200     0.9940 C.ar  1 <1>  -0.1500 
 22 C        7.6640    -2.8570    -0.0420 C.ar  1 <1>  -0.1500 
 23 H       -0.7630     0.4410     0.3680 H     1 <1>   0.0800 
 24 H       -1.0300    -1.1710     0.9610 H     1 <1>   0.0800 
 25 H       -1.0610    -2.9990    -0.7260 H     1 <1>   0.0800 
 26 H       -1.4580    -2.5910    -2.3680 H     1 <1>   0.0800 
 27 H        2.6880    -2.3820    -1.9640 H     1 <1>   0.0800 
 28 H        1.2670    -3.3730    -1.8400 H     1 <1>   0.0800 
 29 H        1.6420    -0.1200     0.7400 H     1 <1>   0.0800 
 30 H        2.9160    -0.4180    -0.4020 H     1 <1>   0.0800 
 31 H       -3.2140     0.3710    -0.4390 H     1 <1>   0.0800 
 32 H       -2.8250     0.7690     1.1950 H     1 <1>   0.0800 
 33 H       -3.3900    -3.4980    -1.4760 H     1 <1>   0.0800 
 34 H       -3.7110    -1.8050    -1.6160 H     1 <1>   0.0800 
 35 H        3.2810    -4.4220    -0.8210 H     1 <1>   0.0800 
 36 H        1.9470    -4.2620     0.2820 H     1 <1>   0.0800 
 37 H        2.1960    -2.0760     2.0180 H     1 <1>   0.0800 
 38 H        3.6530    -1.1610     1.7710 H     1 <1>   0.0800 
 39 H       -4.7490    -0.8550     0.8100 H     1 <1>   0.0800 
 40 H       -3.6240    -1.2100     2.0760 H     1 <1>   0.0800 
 41 H       -2.7090    -3.0360     0.9680 H     1 <1>   0.0800 
 42 H       -4.3880    -3.1190     0.5580 H     1 <1>   0.0800 
 43 H        4.7850    -1.5850    -1.2390 H     1 <1>   0.1500 
 44 H        5.3800    -4.2340     2.0240 H     1 <1>   0.1500 
 45 H        7.2030    -1.5320    -1.6520 H     1 <1>   0.1500 
 46 H        7.8130    -4.1910     1.6220 H     1 <1>   0.1500 
 47 H        8.7250    -2.8350    -0.2220 H     1 <1>   0.1500 
@<TRIPOS>BOND
  1   1   2  2   
  2   1   3  2   
  3   1   4  am  
  4   1   5  am  
  5   4   6  1   
  6   4   7  1   
  7   5   8  1   
  8   5   9  1   
  9   6  10  1   
 10   6  23  1   
 11   6  24  1   
 12   7  11  1   
 13   7  25  1   
 14   7  26  1   
 15   8  12  1   
 16   8  27  1   
 17   8  28  1   
 18   9  13  1   
 19   9  29  1   
 20   9  30  1   
 21  10  14  1   
 22  10  31  1   
 23  10  32  1   
 24  11  15  1   
 25  11  33  1   
 26  11  34  1   
 27  12  16  1   
 28  12  35  1   
 29  12  36  1   
 30  13  16  1   
 31  13  37  1   
 32  13  38  1   
 33  14  15  1   
 34  14  39  1   
 35  14  40  1   
 36  15  41  1   
 37  15  42  1   
 38  16  17  1   
 39  17  18  ar  
 40  17  19  ar  
 41  18  20  ar  
 42  18  43  1   
 43  19  21  ar  
 44  19  44  1   
 45  20  22  ar  
 46  20  45  1   
 47  21  22  ar  
 48  21  46  1   
 49  22  47  1   
@<TRIPOS>SUBSTRUCTURE
  1 ****   5 GROUP 4 **** **** 0

# MOE 2024.06 (io_trps.svl 2023.06)
