@<TRIPOS>MOLECULE
NONAME
30 29 1 0 0 
SMALL
USER_CHARGES


@<TRIPOS>ATOM
  1 CL      -0.4270    -0.9520     0.5770 Cl    1 <1>  -0.1400 
  2 C       -0.1750     0.7020     0.0210 C.2   1 <1>   0.1400 
  3 C       -1.2550     1.4990    -0.2590 C.2   1 <1>  -0.0500 
  4 C        1.1750     1.1210    -0.0990 C.2   1 <1>  -0.1500 
  5 N       -2.6180     1.2850    -0.2030 N.pl3 1 <1>  -0.8380 
  6 C        2.3860     0.4820     0.0690 C.2   1 <1>   0.0290 
  7 C       -3.2630     0.0150     0.2310 C.3   1 <1>   0.1290 
  8 C       -3.5730     2.3620    -0.5820 C.3   1 <1>   0.1290 
  9 C        3.6280     1.1730    -0.0920 C.2   1 <1>   0.7060 
 10 C        2.5480    -0.8910     0.4030 C.2   1 <1>   0.7060 
 11 O        3.6970     2.3800    -0.2350 O.2   1 <1>  -0.5700 
 12 O        4.7710     0.4740    -0.1120 O.3   1 <1>  -0.4300 
 13 O        2.8170    -1.2790     1.5240 O.2   1 <1>  -0.5700 
 14 O        2.3990    -1.7860    -0.5810 O.3   1 <1>  -0.4300 
 15 C        6.0320     1.0990    -0.2600 C.3   1 <1>   0.0400 
 16 C        2.5100    -3.1740    -0.3370 C.3   1 <1>   0.0400 
 17 H       -1.0030     2.4930    -0.5900 H     1 <1>   0.1500 
 18 H        1.2430     2.1590    -0.3780 H     1 <1>   0.1500 
 19 H       -4.3340     0.1010     0.2010 H     1 <1>   0.0800 
 20 H       -2.9660    -0.2170     1.2400 H     1 <1>   0.0800 
 21 H       -2.9640    -0.7860    -0.4230 H     1 <1>   0.0800 
 22 H       -4.1890     2.0300    -1.4000 H     1 <1>   0.0800 
 23 H       -3.0440     3.2480    -0.8860 H     1 <1>   0.0800 
 24 H       -4.2000     2.6040     0.2580 H     1 <1>   0.0800 
 25 H        6.1750     1.7890     0.5530 H     1 <1>   0.0800 
 26 H        6.0540     1.6210    -1.2000 H     1 <1>   0.0800 
 27 H        6.7930     0.3390    -0.2390 H     1 <1>   0.0800 
 28 H        2.3510    -3.6960    -1.2630 H     1 <1>   0.0800 
 29 H        1.7630    -3.4600     0.3840 H     1 <1>   0.0800 
 30 H        3.4940    -3.3840     0.0440 H     1 <1>   0.0800 
@<TRIPOS>BOND
  1   1   2  1   
  2   2   3  2   
  3   2   4  1   
  4   3   5  1   
  5   3  17  1   
  6   4   6  2   
  7   4  18  1   
  8   5   7  1   
  9   5   8  1   
 10   6   9  1   
 11   6  10  1   
 12   7  19  1   
 13   7  20  1   
 14   7  21  1   
 15   8  22  1   
 16   8  23  1   
 17   8  24  1   
 18   9  11  2   
 19   9  12  1   
 20  10  13  2   
 21  10  14  1   
 22  12  15  1   
 23  14  16  1   
 24  15  25  1   
 25  15  26  1   
 26  15  27  1   
 27  16  28  1   
 28  16  29  1   
 29  16  30  1   
@<TRIPOS>SUBSTRUCTURE
  1 ****   4 GROUP 4 **** **** 0

# MOE 2024.06 (io_trps.svl 2023.06)
