@<TRIPOS>MOLECULE
NONAME
44 46 1 0 0 
SMALL
USER_CHARGES


@<TRIPOS>ATOM
  1 S        0.1050     0.2820     0.1630 S.o2  1 <1>   1.3330 
  2 O       -1.2370     0.6380     0.5600 O.2   1 <1>  -0.6500 
  3 O        1.2380     1.0710     0.5780 O.2   1 <1>  -0.6500 
  4 N        0.3620    -1.3620     0.6590 N.am  1 <1>  -0.6930 
  5 C        0.1300     0.1230    -1.6090 C.3   1 <1>  -0.1350 
  6 C        1.5710    -2.0210     0.4920 C.ar  1 <1>   0.1990 
  7 C       -0.8040    -2.0900     1.2180 C.3   1 <1>   0.1160 
  8 C        2.7450    -1.5450     1.0640 C.ar  1 <1>  -0.1500 
  9 C        1.6420    -3.1930    -0.2530 C.ar  1 <1>  -0.1500 
 10 C        3.9450    -2.2070     0.8910 C.ar  1 <1>  -0.1500 
 11 C        2.8430    -3.8540    -0.4250 C.ar  1 <1>  -0.1500 
 12 C        4.0320    -3.3810     0.1350 C.ar  1 <1>   0.0860 
 13 C        5.2830    -4.0890    -0.0630 C.2   1 <1>   0.5440 
 14 O        5.2850    -5.2700    -0.3560 O.2   1 <1>  -0.5700 
 15 N        6.4830    -3.4470     0.0620 N.am  1 <1>  -0.7300 
 16 C        7.8130    -4.0790    -0.0700 C.3   1 <1>   0.2200 
 17 C        8.6880    -3.7200     1.1450 C.3   1 <1>  -0.0800 
 18 C        8.5860    -3.4510    -1.2420 C.3   1 <1>  -0.1600 
 19 C        9.2470    -2.3570     0.7570 C.3   1 <1>  -0.1600 
 20 C        9.9570    -4.5880     1.0850 C.3   1 <1>  -0.1600 
 21 C        9.8240    -2.8360    -0.5640 C.3   1 <1>  -0.0800 
 22 C       10.7360    -3.9820    -0.0960 C.3   1 <1>  -0.1600 
 23 H       -0.0360     1.0790    -2.0650 H     1 <1>   0.0800 
 24 H       -0.6390    -0.5510    -1.9310 H     1 <1>   0.0800 
 25 H        1.0800    -0.2530    -1.9320 H     1 <1>   0.0800 
 26 H       -1.1950    -1.5480     2.0620 H     1 <1>   0.0800 
 27 H       -0.5140    -3.0740     1.5440 H     1 <1>   0.0800 
 28 H       -1.5750    -2.1750     0.4720 H     1 <1>   0.0800 
 29 H        2.7110    -0.6480     1.6580 H     1 <1>   0.1500 
 30 H        0.7490    -3.5850    -0.7020 H     1 <1>   0.1500 
 31 H        4.8270    -1.8110     1.3610 H     1 <1>   0.1500 
 32 H        2.8720    -4.7620    -1.0060 H     1 <1>   0.1500 
 33 H        6.5070    -2.4400     0.2120 H     1 <1>   0.3700 
 34 H        7.7170    -5.1460    -0.1820 H     1 <1>   0.0800 
 35 H        8.1720    -3.7730     2.0880 H     1 <1>   0.0800 
 36 H        8.0060    -2.6890    -1.7310 H     1 <1>   0.0800 
 37 H        8.8650    -4.1980    -1.9640 H     1 <1>   0.0800 
 38 H       10.0030    -2.0070     1.4400 H     1 <1>   0.0800 
 39 H        8.4870    -1.6050     0.6310 H     1 <1>   0.0800 
 40 H        9.7250    -5.6280     0.9270 H     1 <1>   0.0800 
 41 H       10.5220    -4.4880     1.9960 H     1 <1>   0.0800 
 42 H       10.3250    -2.0850    -1.1520 H     1 <1>   0.0800 
 43 H       10.9110    -4.7030    -0.8770 H     1 <1>   0.0800 
 44 H       11.6810    -3.5940     0.2420 H     1 <1>   0.0800 
@<TRIPOS>BOND
  1   1   2  2   
  2   1   3  2   
  3   1   4  am  
  4   1   5  1   
  5   4   6  1   
  6   4   7  1   
  7   5  23  1   
  8   5  24  1   
  9   5  25  1   
 10   6   8  ar  
 11   6   9  ar  
 12   7  26  1   
 13   7  27  1   
 14   7  28  1   
 15   8  10  ar  
 16   8  29  1   
 17   9  11  ar  
 18   9  30  1   
 19  10  12  ar  
 20  10  31  1   
 21  11  12  ar  
 22  11  32  1   
 23  12  13  1   
 24  13  14  2   
 25  13  15  am  
 26  15  16  1   
 27  15  33  1   
 28  16  17  1   
 29  16  18  1   
 30  16  34  1   
 31  17  19  1   
 32  17  20  1   
 33  17  35  1   
 34  18  21  1   
 35  18  36  1   
 36  18  37  1   
 37  19  21  1   
 38  19  38  1   
 39  19  39  1   
 40  20  22  1   
 41  20  40  1   
 42  20  41  1   
 43  21  22  1   
 44  21  42  1   
 45  22  43  1   
 46  22  44  1   
@<TRIPOS>SUBSTRUCTURE
  1 ****  10 GROUP 4 **** **** 0

# MOE 2024.06 (io_trps.svl 2023.06)
