@<TRIPOS>MOLECULE
NONAME
44 46 1 0 0 
SMALL
USER_CHARGES


@<TRIPOS>ATOM
  1 O       -1.0310    -3.5700    -0.6750 O.2   1 <1>  -0.5700 
  2 C       -0.2000    -2.7880    -0.2800 C.2   1 <1>   0.5690 
  3 N       -0.5440    -1.6240     0.3230 N.am  1 <1>  -0.7300 
  4 C        1.2710    -3.1210    -0.4730 C.3   1 <1>   0.0440 
  5 C       -1.9180    -1.0800     0.4780 C.3   1 <1>   0.1400 
  6 C        2.1770    -1.8960    -0.3760 C.ar  1 <1>  -0.1440 
  7 C       -2.0340     0.3210    -0.1490 C.3   1 <1>   0.3440 
  8 C        2.8840    -1.6310     0.7880 C.ar  1 <1>  -0.1500 
  9 C        2.2860    -1.0270    -1.4500 C.ar  1 <1>  -0.1500 
 10 O       -0.9460     1.0830     0.3200 O.3   1 <1>  -0.5600 
 11 C       -3.3780     0.9970     0.1680 C.ar  1 <1>  -0.1440 
 12 C        3.6890    -0.5080     0.8800 C.ar  1 <1>  -0.1500 
 13 C        3.0900     0.0960    -1.3600 C.ar  1 <1>  -0.1500 
 14 C       -0.9940     2.4350     0.0000 C.3   1 <1>   0.1200 
 15 C       -3.4170     2.3120     0.6200 C.ar  1 <1>  -0.1440 
 16 C       -4.5740     0.3140    -0.0160 C.ar  1 <1>  -0.1500 
 17 C        3.7950     0.3650    -0.1990 C.ar  1 <1>   0.0820 
 18 C       -2.1220     3.0840     0.8030 C.3   1 <1>  -0.0170 
 19 C       -4.6310     2.9180     0.9020 C.ar  1 <1>  -0.1500 
 20 C       -5.7850     0.9220     0.2640 C.ar  1 <1>  -0.1500 
 21 O        4.5580     1.4860    -0.1920 O.3   1 <1>  -0.3620 
 22 C       -5.8140     2.2250     0.7260 C.ar  1 <1>  -0.1500 
 23 C        5.3420     1.8320     0.9280 C.3   1 <1>   0.0400 
 24 H        0.1910    -0.9330     0.5260 H     1 <1>   0.3700 
 25 H        1.3910    -3.5770    -1.4390 H     1 <1>   0.0800 
 26 H        1.5490    -3.8490     0.2650 H     1 <1>   0.0800 
 27 H       -2.1560    -1.0140     1.5250 H     1 <1>   0.0800 
 28 H       -2.6240    -1.7470     0.0170 H     1 <1>   0.0800 
 29 H       -1.9310     0.2340    -1.2160 H     1 <1>   0.0800 
 30 H        2.8080    -2.2950     1.6310 H     1 <1>   0.1500 
 31 H        1.7420    -1.2160    -2.3590 H     1 <1>   0.1500 
 32 H        4.2210    -0.3310     1.7950 H     1 <1>   0.1500 
 33 H        3.1750     0.7720    -2.1910 H     1 <1>   0.1500 
 34 H       -1.1580     2.5370    -1.0600 H     1 <1>   0.0800 
 35 H       -0.0450     2.8720     0.2560 H     1 <1>   0.0800 
 36 H       -4.5790    -0.6970    -0.3830 H     1 <1>   0.1500 
 37 H       -2.2480     4.1010     0.4780 H     1 <1>   0.0800 
 38 H       -1.8540     3.0940     1.8440 H     1 <1>   0.0800 
 39 H       -4.6590     3.9330     1.2590 H     1 <1>   0.1500 
 40 H       -6.7040     0.3820     0.1220 H     1 <1>   0.1500 
 41 H       -6.7550     2.6980     0.9460 H     1 <1>   0.1500 
 42 H        5.8660     2.7420     0.7000 H     1 <1>   0.0800 
 43 H        6.0460     1.0420     1.1180 H     1 <1>   0.0800 
 44 H        4.6940     1.9850     1.7730 H     1 <1>   0.0800 
@<TRIPOS>BOND
  1   1   2  2   
  2   2   3  am  
  3   2   4  1   
  4   3   5  1   
  5   3  24  1   
  6   4   6  1   
  7   4  25  1   
  8   4  26  1   
  9   5   7  1   
 10   5  27  1   
 11   5  28  1   
 12   6   8  ar  
 13   6   9  ar  
 14   7  10  1   
 15   7  11  1   
 16   7  29  1   
 17   8  12  ar  
 18   8  30  1   
 19   9  13  ar  
 20   9  31  1   
 21  10  14  1   
 22  11  15  ar  
 23  11  16  ar  
 24  12  17  ar  
 25  12  32  1   
 26  13  17  ar  
 27  13  33  1   
 28  14  18  1   
 29  14  34  1   
 30  14  35  1   
 31  15  18  1   
 32  15  19  ar  
 33  16  20  ar  
 34  16  36  1   
 35  17  21  1   
 36  18  37  1   
 37  18  38  1   
 38  19  22  ar  
 39  19  39  1   
 40  20  22  ar  
 41  20  40  1   
 42  21  23  1   
 43  22  41  1   
 44  23  42  1   
 45  23  43  1   
 46  23  44  1   
@<TRIPOS>SUBSTRUCTURE
  1 ****  10 GROUP 4 **** **** 0

# MOE 2024.06 (io_trps.svl 2023.06)
