@<TRIPOS>MOLECULE
NONAME
43 44 1 0 0 
SMALL
USER_CHARGES


@<TRIPOS>ATOM
  1 S        0.0370     0.1150     0.3470 S.o2  1 <1>   1.3330 
  2 O        0.2170    -0.1600     1.7530 O.2   1 <1>  -0.6500 
  3 O       -1.0800     0.9180    -0.0940 O.2   1 <1>  -0.6500 
  4 N        1.4610     0.8310    -0.2300 N.am  1 <1>  -0.8490 
  5 C       -0.0260    -1.4230    -0.5480 C.3   1 <1>  -0.1350 
  6 C        2.6670     0.2590     0.3950 C.3   1 <1>   0.1960 
  7 C        1.4310     2.2860    -0.0390 C.3   1 <1>   0.1960 
  8 C        3.9330     0.8080    -0.2830 C.3   1 <1>  -0.0190 
  9 C        2.6550     2.9380    -0.6950 C.3   1 <1>  -0.1600 
 10 C        5.1890     0.1780     0.3040 C.2   1 <1>   0.5690 
 11 C        3.9690     2.3430    -0.1700 C.3   1 <1>  -0.1600 
 12 O        5.1560    -0.2620     1.4270 O.2   1 <1>  -0.5700 
 13 N        6.3070     0.1580    -0.4870 N.am  1 <1>  -0.5470 
 14 C        7.5950    -0.3550    -0.2630 C.ar  1 <1>   0.1170 
 15 C        7.8830    -1.3010     0.7160 C.ar  1 <1>  -0.1500 
 16 C        8.6360     0.0910    -1.0680 C.ar  1 <1>  -0.1500 
 17 C        9.1690    -1.7800     0.8860 C.ar  1 <1>  -0.1500 
 18 C        9.9240    -0.3870    -0.9010 C.ar  1 <1>  -0.1500 
 19 C       10.2000    -1.3280     0.0780 C.ar  1 <1>  -0.1440 
 20 C       11.6130    -1.8540     0.2660 C.3   1 <1>  -0.0170 
 21 C       12.3830    -0.9820     1.2600 C.3   1 <1>  -0.2400 
 22 H       -0.9220    -1.9540    -0.2940 H     1 <1>   0.0800 
 23 H        0.8170    -2.0370    -0.3020 H     1 <1>   0.0800 
 24 H       -0.0250    -1.2330    -1.6030 H     1 <1>   0.0800 
 25 H        2.6580    -0.8130     0.2990 H     1 <1>   0.0800 
 26 H        2.6830     0.4950     1.4480 H     1 <1>   0.0800 
 27 H        1.4060     2.5150     1.0140 H     1 <1>   0.0800 
 28 H        0.5440     2.6970    -0.4920 H     1 <1>   0.0800 
 29 H        3.8820     0.5330    -1.3200 H     1 <1>   0.0800 
 30 H        2.6360     3.9960    -0.5030 H     1 <1>   0.0800 
 31 H        2.5880     2.7970    -1.7590 H     1 <1>   0.0800 
 32 H        4.7990     2.7420    -0.7260 H     1 <1>   0.0800 
 33 H        4.0970     2.6190     0.8640 H     1 <1>   0.0800 
 34 H        6.2040     0.6320    -1.3810 H     1 <1>   0.3700 
 35 H        7.1040    -1.6750     1.3540 H     1 <1>   0.1500 
 36 H        8.4470     0.8220    -1.8310 H     1 <1>   0.1500 
 37 H        9.3640    -2.5080     1.6530 H     1 <1>   0.1500 
 38 H       10.7140    -0.0230    -1.5340 H     1 <1>   0.1500 
 39 H       12.1260    -1.8630    -0.6800 H     1 <1>   0.0800 
 40 H       11.5780    -2.8670     0.6270 H     1 <1>   0.0800 
 41 H       12.4380     0.0300     0.9000 H     1 <1>   0.0800 
 42 H       13.3810    -1.3600     1.3900 H     1 <1>   0.0800 
 43 H       11.8850    -0.9810     2.2140 H     1 <1>   0.0800 
@<TRIPOS>BOND
  1   1   2  2   
  2   1   3  2   
  3   1   4  am  
  4   1   5  1   
  5   4   6  1   
  6   4   7  1   
  7   5  22  1   
  8   5  23  1   
  9   5  24  1   
 10   6   8  1   
 11   6  25  1   
 12   6  26  1   
 13   7   9  1   
 14   7  27  1   
 15   7  28  1   
 16   8  10  1   
 17   8  11  1   
 18   8  29  1   
 19   9  11  1   
 20   9  30  1   
 21   9  31  1   
 22  10  12  2   
 23  10  13  am  
 24  11  32  1   
 25  11  33  1   
 26  13  14  1   
 27  13  34  1   
 28  14  15  ar  
 29  14  16  ar  
 30  15  17  ar  
 31  15  35  1   
 32  16  18  ar  
 33  16  36  1   
 34  17  19  ar  
 35  17  37  1   
 36  18  19  ar  
 37  18  38  1   
 38  19  20  1   
 39  20  21  1   
 40  20  39  1   
 41  20  40  1   
 42  21  41  1   
 43  21  42  1   
 44  21  43  1   
@<TRIPOS>SUBSTRUCTURE
  1 ****  10 GROUP 4 **** **** 0

# MOE 2024.06 (io_trps.svl 2023.06)
