@<TRIPOS>MOLECULE
NONAME
39 39 1 0 0 
SMALL
USER_CHARGES


@<TRIPOS>ATOM
  1 S       -0.2060    -0.2410     1.8270 S.o2  1 <1>   1.4470 
  2 O        0.1590    -1.5430     2.3410 O.2   1 <1>  -0.6500 
  3 O       -0.9940     0.6530     2.6500 O.2   1 <1>  -0.6500 
  4 N       -1.0750    -0.4700     0.3860 N.am  1 <1>  -0.8490 
  5 C        1.2940     0.5980     1.2500 C.ar  1 <1>  -0.0090 
  6 C       -2.0700    -1.5380     0.5050 C.3   1 <1>   0.1960 
  7 C       -1.6560     0.7770    -0.1110 C.3   1 <1>   0.1960 
  8 C        2.0520     0.0600     0.2160 C.ar  1 <1>  -0.1500 
  9 C        1.7240     1.7920     1.8190 C.ar  1 <1>  -0.1500 
 10 C       -1.5150    -2.7950    -0.1560 C.3   1 <1>  -0.2400 
 11 C       -1.8770     0.6790    -1.6190 C.3   1 <1>  -0.2400 
 12 C        3.1950     0.6880    -0.2450 C.ar  1 <1>  -0.1500 
 13 C        2.8650     2.4290     1.3650 C.ar  1 <1>  -0.1500 
 14 C        3.6080     1.8840     0.3320 C.ar  1 <1>   0.0830 
 15 O        4.7090     2.5690    -0.0540 O.3   1 <1>  -0.3630 
 16 C        5.5720     2.0670    -1.0610 C.3   1 <1>   0.1810 
 17 C        6.7450     3.0050    -1.2880 C.2   1 <1>   0.6590 
 18 O        6.9100     3.5620    -2.3430 O.2   1 <1>  -0.5700 
 19 O        7.5900     3.1530    -0.2720 O.3   1 <1>  -0.4300 
 20 C        8.7140     4.0020    -0.3590 C.3   1 <1>   0.0400 
 21 H       -2.9890    -1.2680     0.0130 H     1 <1>   0.0800 
 22 H       -2.3040    -1.7330     1.5400 H     1 <1>   0.0800 
 23 H       -0.9760     1.5940     0.0710 H     1 <1>   0.0800 
 24 H       -2.5780     0.9950     0.4040 H     1 <1>   0.0800 
 25 H        1.7330    -0.8670    -0.2330 H     1 <1>   0.1500 
 26 H        1.1580     2.2290     2.6250 H     1 <1>   0.1500 
 27 H       -1.2950    -2.6030    -1.1900 H     1 <1>   0.0800 
 28 H       -2.2420    -3.5850    -0.0990 H     1 <1>   0.0800 
 29 H       -0.6220    -3.1200     0.3450 H     1 <1>   0.0800 
 30 H       -0.9490     0.4530    -2.1120 H     1 <1>   0.0800 
 31 H       -2.2380     1.6210    -1.9900 H     1 <1>   0.0800 
 32 H       -2.6010    -0.0760    -1.8610 H     1 <1>   0.0800 
 33 H        3.7410     0.2300    -1.0480 H     1 <1>   0.1500 
 34 H        3.1870     3.3530     1.8120 H     1 <1>   0.1500 
 35 H        5.0110     1.9730    -1.9720 H     1 <1>   0.0800 
 36 H        5.9390     1.1080    -0.7470 H     1 <1>   0.0800 
 37 H        9.2430     3.9650     0.5770 H     1 <1>   0.0800 
 38 H        8.3770     5.0050    -0.5560 H     1 <1>   0.0800 
 39 H        9.3490     3.6600    -1.1590 H     1 <1>   0.0800 
@<TRIPOS>BOND
  1   1   2  2   
  2   1   3  2   
  3   1   4  am  
  4   1   5  1   
  5   4   6  1   
  6   4   7  1   
  7   5   8  ar  
  8   5   9  ar  
  9   6  10  1   
 10   6  21  1   
 11   6  22  1   
 12   7  11  1   
 13   7  23  1   
 14   7  24  1   
 15   8  12  ar  
 16   8  25  1   
 17   9  13  ar  
 18   9  26  1   
 19  10  27  1   
 20  10  28  1   
 21  10  29  1   
 22  11  30  1   
 23  11  31  1   
 24  11  32  1   
 25  12  14  ar  
 26  12  33  1   
 27  13  14  ar  
 28  13  34  1   
 29  14  15  1   
 30  15  16  1   
 31  16  17  1   
 32  16  35  1   
 33  16  36  1   
 34  17  18  2   
 35  17  19  1   
 36  19  20  1   
 37  20  37  1   
 38  20  38  1   
 39  20  39  1   
@<TRIPOS>SUBSTRUCTURE
  1 ****   8 GROUP 4 **** **** 0

# MOE 2024.06 (io_trps.svl 2023.06)
