@<TRIPOS>MOLECULE
NONAME
43 45 1 0 0 
SMALL
USER_CHARGES


@<TRIPOS>ATOM
  1 O        0.7830    -0.1650     1.3010 O.2   1 <1>  -0.5700 
  2 C        1.1610    -1.1570     0.7060 C.2   1 <1>   0.5440 
  3 N        0.2170    -2.0510     0.2500 N.am  1 <1>  -0.6600 
  4 C        2.5790    -1.3790     0.5090 C.ar  1 <1>   0.0860 
  5 C       -1.2320    -1.8310     0.4490 C.3   1 <1>   0.1400 
  6 C        0.4910    -3.4590    -0.1170 C.3   1 <1>   0.1400 
  7 C        3.4780    -1.2390     1.5660 C.ar  1 <1>  -0.1500 
  8 C        3.1080    -1.7340    -0.7320 C.ar  1 <1>  -0.1500 
  9 C       -1.8950    -3.1260    -0.0090 C.3   1 <1>  -0.1600 
 10 C       -0.8160    -4.1920     0.1600 C.3   1 <1>  -0.1600 
 11 C        4.8300    -1.4670     1.3980 C.ar  1 <1>  -0.1500 
 12 C        4.4590    -1.9640    -0.9030 C.ar  1 <1>  -0.1500 
 13 C        5.3460    -1.8430     0.1640 C.ar  1 <1>   0.1170 
 14 N        6.7190    -2.0660     0.0530 N.am  1 <1>  -0.5470 
 15 C        7.5050    -2.7050    -0.8760 C.2   1 <1>   0.7160 
 16 O        7.0110    -3.2370    -1.8560 O.2   1 <1>  -0.5700 
 17 C        8.9340    -2.7260    -0.6260 C.2   1 <1>   0.2030 
 18 N        9.5210    -2.1950     0.4350 N.2   1 <1>  -0.7070 
 19 C        9.8900    -3.3070    -1.4670 C.2   1 <1>  -0.1500 
 20 N       10.8310    -2.4310     0.2740 N.pl3 1 <1>   0.3140 
 21 C       11.0770    -3.1020    -0.8670 C.2   1 <1>  -0.3020 
 22 C       11.8390    -1.9900     1.2600 C.3   1 <1>   0.0960 
 23 C       12.5310    -0.6980     0.8050 C.3   1 <1>  -0.2400 
 24 H       -1.5690    -0.9830    -0.1230 H     1 <1>   0.0800 
 25 H       -1.4210    -1.6560     1.4950 H     1 <1>   0.0800 
 26 H        1.3030    -3.8660     0.4620 H     1 <1>   0.0800 
 27 H        0.7290    -3.5090    -1.1660 H     1 <1>   0.0800 
 28 H        3.0960    -0.9450     2.5290 H     1 <1>   0.1500 
 29 H        2.4450    -1.8230    -1.5740 H     1 <1>   0.1500 
 30 H       -2.1590    -3.0330    -1.0480 H     1 <1>   0.0800 
 31 H       -2.7810    -3.3430     0.5610 H     1 <1>   0.0800 
 32 H       -0.8080    -4.5460     1.1760 H     1 <1>   0.0800 
 33 H       -0.9550    -5.0280    -0.5020 H     1 <1>   0.0800 
 34 H        5.4920    -1.3540     2.2370 H     1 <1>   0.1500 
 35 H        4.8230    -2.2320    -1.8770 H     1 <1>   0.1500 
 36 H        7.3010    -1.7260     0.8220 H     1 <1>   0.3700 
 37 H        9.6730    -3.8060    -2.3960 H     1 <1>   0.1500 
 38 H       12.0640    -3.3880    -1.1800 H     1 <1>   0.1500 
 39 H       12.5610    -2.7760     1.3850 H     1 <1>   0.0800 
 40 H       11.3430    -1.8280     2.2000 H     1 <1>   0.0800 
 41 H       13.0440    -0.8540    -0.1280 H     1 <1>   0.0800 
 42 H       13.2480    -0.3890     1.5430 H     1 <1>   0.0800 
 43 H       11.8040     0.0860     0.6840 H     1 <1>   0.0800 
@<TRIPOS>BOND
  1   1   2  2   
  2   2   3  am  
  3   2   4  1   
  4   3   5  1   
  5   3   6  1   
  6   4   7  ar  
  7   4   8  ar  
  8   5   9  1   
  9   5  24  1   
 10   5  25  1   
 11   6  10  1   
 12   6  26  1   
 13   6  27  1   
 14   7  11  ar  
 15   7  28  1   
 16   8  12  ar  
 17   8  29  1   
 18   9  10  1   
 19   9  30  1   
 20   9  31  1   
 21  10  32  1   
 22  10  33  1   
 23  11  13  ar  
 24  11  34  1   
 25  12  13  ar  
 26  12  35  1   
 27  13  14  1   
 28  14  15  am  
 29  14  36  1   
 30  15  16  2   
 31  15  17  1   
 32  17  18  2   
 33  17  19  1   
 34  18  20  1   
 35  19  21  2   
 36  19  37  1   
 37  20  21  1   
 38  20  22  1   
 39  21  38  1   
 40  22  23  1   
 41  22  39  1   
 42  22  40  1   
 43  23  41  1   
 44  23  42  1   
 45  23  43  1   
@<TRIPOS>SUBSTRUCTURE
  1 ****  13 GROUP 4 **** **** 0

# MOE 2024.06 (io_trps.svl 2023.06)
