@<TRIPOS>MOLECULE
NONAME
44 45 1 0 0 
SMALL
USER_CHARGES


@<TRIPOS>ATOM
  1 O       -8.9100     1.5710    -0.3690 O.3   1 <1>  -0.3630 
  2 C      -10.1160     0.9500    -0.3930 C.ar  1 <1>   0.0830 
  3 C       -7.7410     0.8880     0.0050 C.3   1 <1>   0.1200 
  4 C      -10.3180    -0.3740    -0.0080 C.ar  1 <1>  -0.1500 
  5 C      -11.1910     1.7040    -0.8340 C.ar  1 <1>  -0.1500 
  6 C       -6.5820     1.8820    -0.1190 C.3   1 <1>   0.3430 
  7 C      -11.5830    -0.9410    -0.0660 C.ar  1 <1>  -0.1440 
  8 C      -12.4540     1.1470    -0.8940 C.ar  1 <1>  -0.1500 
  9 N       -5.2590     1.2960     0.2780 N.4   1 <1>  -0.9590 
 10 C      -12.6470    -0.1690    -0.5120 C.ar  1 <1>  -0.1500 
 11 C      -11.7930    -2.3950     0.3590 C.3   1 <1>   0.0630 
 12 C       -4.2380     2.3790     0.3970 C.3   1 <1>   0.3430 
 13 C       -4.8050     0.2280    -0.6660 C.3   1 <1>   0.3430 
 14 C      -12.2950    -3.2400    -0.8160 C.3   1 <1>  -0.2400 
 15 C      -12.7580    -2.4860     1.5450 C.3   1 <1>  -0.2400 
 16 C       -2.9300     1.7990     0.9380 C.3   1 <1>  -0.1600 
 17 C       -3.5090    -0.4000    -0.1500 C.3   1 <1>  -0.1600 
 18 C       -2.4120     0.6510     0.0620 C.3   1 <1>  -0.1600 
 19 H       -7.6190     0.0550    -0.6640 H     1 <1>   0.0800 
 20 H       -7.8590     0.5570     1.0210 H     1 <1>   0.0800 
 21 H       -9.5040    -0.9780     0.3400 H     1 <1>   0.1500 
 22 H      -11.0370     2.7250    -1.1300 H     1 <1>   0.1500 
 23 H       -6.8010     2.7260     0.5150 H     1 <1>   0.0800 
 24 H       -6.5310     2.2310    -1.1370 H     1 <1>   0.0800 
 25 H      -13.2870     1.7350    -1.2370 H     1 <1>   0.1500 
 26 H       -5.3480     0.8710     1.2110 H     1 <1>   0.4500 
 27 H      -13.6360    -0.5880    -0.5650 H     1 <1>   0.1500 
 28 H      -10.8490    -2.8050     0.6750 H     1 <1>   0.0800 
 29 H       -4.5900     3.1490     1.0650 H     1 <1>   0.0800 
 30 H       -4.0610     2.8230    -0.5690 H     1 <1>   0.0800 
 31 H       -4.6330     0.6530    -1.6430 H     1 <1>   0.0800 
 32 H       -5.5580    -0.5380    -0.7580 H     1 <1>   0.0800 
 33 H      -13.2640    -2.9070    -1.1410 H     1 <1>   0.0800 
 34 H      -12.3660    -4.2740    -0.5280 H     1 <1>   0.0800 
 35 H      -11.6120    -3.1610    -1.6430 H     1 <1>   0.0800 
 36 H      -13.7390    -2.1410     1.2700 H     1 <1>   0.0800 
 37 H      -12.3980    -1.8800     2.3580 H     1 <1>   0.0800 
 38 H      -12.8360    -3.5030     1.8850 H     1 <1>   0.0800 
 39 H       -3.0800     1.4530     1.9460 H     1 <1>   0.0800 
 40 H       -2.1880     2.5780     0.9750 H     1 <1>   0.0800 
 41 H       -3.1650    -1.1320    -0.8610 H     1 <1>   0.0800 
 42 H       -3.7050    -0.9190     0.7730 H     1 <1>   0.0800 
 43 H       -1.5520     0.1950     0.5250 H     1 <1>   0.0800 
 44 H       -2.1000     1.0410    -0.8930 H     1 <1>   0.0800 
@<TRIPOS>BOND
  1   1   2  1   
  2   1   3  1   
  3   2   4  ar  
  4   2   5  ar  
  5   3   6  1   
  6   3  19  1   
  7   3  20  1   
  8   4   7  ar  
  9   4  21  1   
 10   5   8  ar  
 11   5  22  1   
 12   6   9  1   
 13   6  23  1   
 14   6  24  1   
 15   7  10  ar  
 16   7  11  1   
 17   8  10  ar  
 18   8  25  1   
 19   9  12  1   
 20   9  13  1   
 21   9  26  1   
 22  10  27  1   
 23  11  14  1   
 24  11  15  1   
 25  11  28  1   
 26  12  16  1   
 27  12  29  1   
 28  12  30  1   
 29  13  17  1   
 30  13  31  1   
 31  13  32  1   
 32  14  33  1   
 33  14  34  1   
 34  14  35  1   
 35  15  36  1   
 36  15  37  1   
 37  15  38  1   
 38  16  18  1   
 39  16  39  1   
 40  16  40  1   
 41  17  18  1   
 42  17  41  1   
 43  17  42  1   
 44  18  43  1   
 45  18  44  1   
@<TRIPOS>SUBSTRUCTURE
  1 ****   3 GROUP 4 **** **** 0

# MOE 2024.06 (io_trps.svl 2023.06)
