@<TRIPOS>MOLECULE
NONAME
50 52 1 0 0 
SMALL
USER_CHARGES


@<TRIPOS>ATOM
  1 S       -0.1240    -0.4720    -1.6350 S.3   1 <1>  -0.0800 
  2 C       -0.8910    -1.5060    -0.4420 C.2   1 <1>   0.1040 
  3 C        1.4850    -1.0260    -1.1980 C.2   1 <1>  -0.1400 
  4 N       -2.2850    -1.5090    -0.2880 N.am  1 <1>  -0.4940 
  5 C        0.0580    -2.2210     0.2180 C.2   1 <1>   0.0190 
  6 C        1.4060    -1.9600    -0.2260 C.2   1 <1>  -0.1810 
  7 C        2.6010    -0.3430    -1.9760 C.3   1 <1>   0.0200 
  8 C       -3.2750    -0.7490    -0.8570 C.2   1 <1>   0.5690 
  9 C       -0.2700    -3.1360     1.2670 C.1   1 <1>   0.5380 
 10 C        2.5910    -2.7000     0.3920 C.3   1 <1>   0.0210 
 11 C        3.9910    -0.3690    -1.3220 C.3   1 <1>  -0.1600 
 12 O       -3.0690     0.1440    -1.6400 O.2   1 <1>  -0.5700 
 13 C       -4.7130    -1.0750    -0.4450 C.3   1 <1>  -0.0190 
 14 N       -0.5910    -3.8550     2.0920 N.1   1 <1>  -0.5570 
 15 C        3.2020    -1.9070     1.5560 C.3   1 <1>  -0.1600 
 16 C        4.0020     0.1260     0.1400 C.3   1 <1>  -0.1600 
 17 C       -5.7620    -0.5400    -1.4440 C.3   1 <1>  -0.1600 
 18 C       -5.0200    -0.5410     0.9680 C.3   1 <1>  -0.1600 
 19 C        4.3560    -0.9670     1.1640 C.3   1 <1>  -0.1600 
 20 C       -7.1900    -0.8580    -0.9940 C.3   1 <1>   0.1400 
 21 C       -6.4560    -0.8570     1.3950 C.3   1 <1>   0.1400 
 22 N       -7.4060    -0.3260     0.3800 N.am  1 <1>  -0.6600 
 23 C       -8.3660     0.5910     0.7280 C.2   1 <1>   0.5690 
 24 O       -8.5140     0.9690     1.8650 O.2   1 <1>  -0.5700 
 25 C       -9.2910     1.1750    -0.3150 C.3   1 <1>  -0.1790 
 26 H       -2.6330    -2.1880     0.3870 H     1 <1>   0.3700 
 27 H        2.3250     0.6900    -2.1050 H     1 <1>   0.0800 
 28 H        2.6580    -0.7800    -2.9570 H     1 <1>   0.0800 
 29 H        3.3340    -2.9110    -0.3520 H     1 <1>   0.0800 
 30 H        2.2690    -3.6600     0.7540 H     1 <1>   0.0800 
 31 H        4.6280     0.2780    -1.9000 H     1 <1>   0.0800 
 32 H        4.4170    -1.3510    -1.4040 H     1 <1>   0.0800 
 33 H       -4.8060    -2.1460    -0.4270 H     1 <1>   0.0800 
 34 H        3.5880    -2.6110     2.2730 H     1 <1>   0.0800 
 35 H        2.4310    -1.3440     2.0530 H     1 <1>   0.0800 
 36 H        3.0650     0.5880     0.4030 H     1 <1>   0.0800 
 37 H        4.7540     0.8930     0.2160 H     1 <1>   0.0800 
 38 H       -5.5890    -0.9700    -2.4140 H     1 <1>   0.0800 
 39 H       -5.6620     0.5280    -1.5410 H     1 <1>   0.0800 
 40 H       -4.8820     0.5270     0.9890 H     1 <1>   0.0800 
 41 H       -4.3420    -0.9700     1.6840 H     1 <1>   0.0800 
 42 H        5.1900    -1.5450     0.8040 H     1 <1>   0.0800 
 43 H        4.6880    -0.4770     2.0640 H     1 <1>   0.0800 
 44 H       -7.3400    -1.9240    -0.9820 H     1 <1>   0.0800 
 45 H       -7.8860    -0.4350    -1.6950 H     1 <1>   0.0800 
 46 H       -6.6460    -0.4200     2.3610 H     1 <1>   0.0800 
 47 H       -6.5950    -1.9210     1.4820 H     1 <1>   0.0800 
 48 H       -9.8820     0.3960    -0.7560 H     1 <1>   0.0800 
 49 H       -8.7170     1.6760    -1.0710 H     1 <1>   0.0800 
 50 H       -9.9500     1.8890     0.1460 H     1 <1>   0.0800 
@<TRIPOS>BOND
  1   1   2  1   
  2   1   3  1   
  3   2   4  1   
  4   2   5  2   
  5   3   6  2   
  6   3   7  1   
  7   4   8  am  
  8   4  26  1   
  9   5   6  1   
 10   5   9  1   
 11   6  10  1   
 12   7  11  1   
 13   7  27  1   
 14   7  28  1   
 15   8  12  2   
 16   8  13  1   
 17   9  14  3   
 18  10  15  1   
 19  10  29  1   
 20  10  30  1   
 21  11  16  1   
 22  11  31  1   
 23  11  32  1   
 24  13  17  1   
 25  13  18  1   
 26  13  33  1   
 27  15  19  1   
 28  15  34  1   
 29  15  35  1   
 30  16  19  1   
 31  16  36  1   
 32  16  37  1   
 33  17  20  1   
 34  17  38  1   
 35  17  39  1   
 36  18  21  1   
 37  18  40  1   
 38  18  41  1   
 39  19  42  1   
 40  19  43  1   
 41  20  22  1   
 42  20  44  1   
 43  20  45  1   
 44  21  22  1   
 45  21  46  1   
 46  21  47  1   
 47  22  23  am  
 48  23  24  2   
 49  23  25  1   
 50  25  48  1   
 51  25  49  1   
 52  25  50  1   
@<TRIPOS>SUBSTRUCTURE
  1 ****   4 GROUP 4 **** **** 0

# MOE 2024.06 (io_trps.svl 2023.06)
