@<TRIPOS>MOLECULE
NONAME
47 50 1 0 0 
SMALL
USER_CHARGES


@<TRIPOS>ATOM
  1 S        0.5000    -0.0570    -0.4060 S.3   1 <1>  -0.3320 
  2 C        1.3390     1.4940    -0.0990 C.ar  1 <1>   0.7220 
  3 C       -1.3110     0.3170    -0.3470 C.3   1 <1>   0.0700 
  4 N        0.5740     2.5490     0.1690 N.ar  1 <1>  -0.3100 
  5 N        2.6410     1.4410    -0.1610 N.ar  1 <1>  -0.6200 
  6 C       -1.7320     0.8740    -1.7070 C.3   1 <1>  -0.2400 
  7 N        1.1460     3.6960     0.3980 N.ar  1 <1>  -0.3100 
  8 C        3.2170     2.6070     0.0650 C.ar  1 <1>   0.3930 
  9 C        2.4850     3.7810     0.3590 C.ar  1 <1>   0.3100 
 10 O        4.5520     2.4960    -0.0170 O.3   1 <1>  -0.3620 
 11 C        3.0210     5.1140     0.6260 C.ar  1 <1>   0.0000 
 12 C        5.4510     3.4860     0.3570 C.3   1 <1>   0.5690 
 13 C        4.2730     5.5400     0.1540 C.ar  1 <1>   0.1000 
 14 C        2.2730     6.0570     1.3450 C.ar  1 <1>  -0.1500 
 15 N        5.1330     4.6570    -0.4550 N.pl3 1 <1>  -0.8690 
 16 C        6.8960     3.0100     0.1150 C.3   1 <1>  -0.0800 
 17 C        4.6980     6.8510     0.3320 C.ar  1 <1>  -0.1500 
 18 C        2.7090     7.3530     1.5420 C.ar  1 <1>  -0.1500 
 19 C        7.1780     2.6590    -1.3620 C.3   1 <1>  -0.0220 
 20 C        7.2580     1.8130     1.0180 C.3   1 <1>  -0.1600 
 21 C        3.9240     7.7580     1.0230 C.ar  1 <1>  -0.1500 
 22 C        8.5430     2.0120    -1.5210 C.2   1 <1>  -0.2880 
 23 C        8.7530     1.4740     0.9260 C.3   1 <1>  -0.0220 
 24 C        9.2520     1.4950    -0.5130 C.2   1 <1>  -0.2760 
 25 C       10.6260     0.8760    -0.7010 C.3   1 <1>  -0.1020 
 26 H       -1.4870     1.0150     0.4530 H     1 <1>   0.0800 
 27 H       -1.8130    -0.6110    -0.1360 H     1 <1>   0.0800 
 28 H       -1.2120     1.7920    -1.9150 H     1 <1>   0.0800 
 29 H       -2.7880     1.0720    -1.7080 H     1 <1>   0.0800 
 30 H       -1.5130     0.1620    -2.4830 H     1 <1>   0.0800 
 31 H        5.3010     3.6950     1.4040 H     1 <1>   0.0800 
 32 H        1.3180     5.7830     1.7580 H     1 <1>   0.1500 
 33 H        5.9860     5.0690    -0.8390 H     1 <1>   0.4000 
 34 H        7.5450     3.8210     0.3950 H     1 <1>   0.0800 
 35 H        5.6460     7.1620    -0.0660 H     1 <1>   0.1500 
 36 H        2.1010     8.0500     2.0940 H     1 <1>   0.1500 
 37 H        7.1410     3.5520    -1.9600 H     1 <1>   0.0800 
 38 H        6.4320     1.9790    -1.7370 H     1 <1>   0.0800 
 39 H        6.6880     0.9540     0.7060 H     1 <1>   0.0800 
 40 H        7.0060     2.0220     2.0430 H     1 <1>   0.0800 
 41 H        4.2610     8.7710     1.1630 H     1 <1>   0.1500 
 42 H        8.8860     2.0070    -2.5420 H     1 <1>   0.1500 
 43 H        8.9110     0.4980     1.3530 H     1 <1>   0.0800 
 44 H        9.3230     2.1840     1.5000 H     1 <1>   0.0800 
 45 H       10.6100    -0.1580    -0.4050 H     1 <1>   0.0800 
 46 H       11.3530     1.3990    -0.1050 H     1 <1>   0.0800 
 47 H       10.9270     0.9300    -1.7310 H     1 <1>   0.0800 
@<TRIPOS>BOND
  1   1   2  1   
  2   1   3  1   
  3   2   4  ar  
  4   2   5  ar  
  5   3   6  1   
  6   3  26  1   
  7   3  27  1   
  8   4   7  ar  
  9   5   8  ar  
 10   6  28  1   
 11   6  29  1   
 12   6  30  1   
 13   7   9  ar  
 14   8   9  ar  
 15   8  10  1   
 16   9  11  1   
 17  10  12  1   
 18  11  13  ar  
 19  11  14  ar  
 20  12  15  1   
 21  12  16  1   
 22  12  31  1   
 23  13  15  1   
 24  13  17  ar  
 25  14  18  ar  
 26  14  32  1   
 27  15  33  1   
 28  16  19  1   
 29  16  20  1   
 30  16  34  1   
 31  17  21  ar  
 32  17  35  1   
 33  18  21  ar  
 34  18  36  1   
 35  19  22  1   
 36  19  37  1   
 37  19  38  1   
 38  20  23  1   
 39  20  39  1   
 40  20  40  1   
 41  21  41  1   
 42  22  24  2   
 43  22  42  1   
 44  23  24  1   
 45  23  43  1   
 46  23  44  1   
 47  24  25  1   
 48  25  45  1   
 49  25  46  1   
 50  25  47  1   
@<TRIPOS>SUBSTRUCTURE
  1 ****  10 GROUP 4 **** **** 0

# MOE 2024.06 (io_trps.svl 2023.06)
