@<TRIPOS>MOLECULE
NONAME
51 53 1 0 0 
SMALL
USER_CHARGES


@<TRIPOS>ATOM
  1 S       -0.1750     0.1410    -0.0140 S.o2  1 <1>   1.0900 
  2 O       -0.1810     0.6210     1.3510 O.2   1 <1>  -0.6500 
  3 O       -0.0620     1.0600    -1.1260 O.2   1 <1>  -0.6500 
  4 C       -1.6540    -0.8520    -0.2590 C.3   1 <1>   0.0890 
  5 C        1.1160    -1.1010    -0.1760 C.3   1 <1>   0.0890 
  6 C       -2.9540    -0.0600    -0.1970 C.ar  1 <1>  -0.1440 
  7 C        2.5290    -0.5630     0.0040 C.ar  1 <1>  -0.1440 
  8 C       -3.6360     0.2710    -1.3570 C.ar  1 <1>  -0.1500 
  9 C       -3.4660     0.3470     1.0250 C.ar  1 <1>  -0.1500 
 10 C        3.1080     0.2190    -0.9840 C.ar  1 <1>  -0.1500 
 11 C        3.2500    -0.8490     1.1540 C.ar  1 <1>  -0.1500 
 12 C       -4.8200     0.9820    -1.2910 C.ar  1 <1>  -0.1500 
 13 C       -4.6520     1.0570     1.0840 C.ar  1 <1>  -0.1500 
 14 C        4.3950     0.7020    -0.8300 C.ar  1 <1>  -0.1500 
 15 C        4.5380    -0.3660     1.3090 C.ar  1 <1>  -0.1500 
 16 C       -5.3630     1.3800    -0.0690 C.ar  1 <1>   0.0860 
 17 C        5.1120     0.4080     0.3170 C.ar  1 <1>  -0.1500 
 18 C       -6.6170     2.1080     0.0060 C.2   1 <1>   0.5440 
 19 O       -6.6420     3.1800     0.5820 O.2   1 <1>  -0.5700 
 20 N       -7.7820     1.6160    -0.5500 N.am  1 <1>  -0.6600 
 21 C       -7.9730     0.1930    -0.9470 C.3   1 <1>   0.1400 
 22 C       -9.0170     2.4450    -0.6410 C.3   1 <1>   0.1400 
 23 C       -9.0760    -0.4400    -0.0920 C.3   1 <1>  -0.1600 
 24 C      -10.1220     1.8270     0.2210 C.3   1 <1>  -0.1600 
 25 C      -10.3840     0.3620    -0.1630 C.3   1 <1>  -0.0800 
 26 C      -11.4470    -0.2540     0.7540 C.3   1 <1>  -0.2400 
 27 H       -1.6970    -1.6170     0.4920 H     1 <1>   0.0800 
 28 H       -1.5990    -1.3410    -1.2120 H     1 <1>   0.0800 
 29 H        1.0580    -1.5510    -1.1480 H     1 <1>   0.0800 
 30 H        0.9550    -1.8770     0.5470 H     1 <1>   0.0800 
 31 H       -3.2460    -0.0130    -2.3200 H     1 <1>   0.1500 
 32 H       -2.9400     0.1240     1.9390 H     1 <1>   0.1500 
 33 H        2.5590     0.4640    -1.8780 H     1 <1>   0.1500 
 34 H        2.8170    -1.4430     1.9400 H     1 <1>   0.1500 
 35 H       -5.3390     1.2430    -2.1960 H     1 <1>   0.1500 
 36 H       -5.0400     1.3780     2.0350 H     1 <1>   0.1500 
 37 H        4.8370     1.3090    -1.6000 H     1 <1>   0.1500 
 38 H        5.0920    -0.5900     2.2040 H     1 <1>   0.1500 
 39 H        6.1130     0.7840     0.4370 H     1 <1>   0.1500 
 40 H       -7.0670    -0.3710    -0.8190 H     1 <1>   0.0800 
 41 H       -8.2490     0.1550    -1.9870 H     1 <1>   0.0800 
 42 H       -9.3340     2.4860    -1.6680 H     1 <1>   0.0800 
 43 H       -8.8260     3.4530    -0.3150 H     1 <1>   0.0800 
 44 H       -8.7330    -0.4910     0.9270 H     1 <1>   0.0800 
 45 H       -9.2490    -1.4460    -0.4310 H     1 <1>   0.0800 
 46 H      -11.0220     2.4030     0.1010 H     1 <1>   0.0800 
 47 H       -9.8240     1.8920     1.2530 H     1 <1>   0.0800 
 48 H      -10.7500     0.3340    -1.1760 H     1 <1>   0.0800 
 49 H      -11.1170    -0.2410     1.7780 H     1 <1>   0.0800 
 50 H      -11.6420    -1.2720     0.4680 H     1 <1>   0.0800 
 51 H      -12.3670     0.2990     0.6830 H     1 <1>   0.0800 
@<TRIPOS>BOND
  1   1   2  2   
  2   1   3  2   
  3   1   4  1   
  4   1   5  1   
  5   4   6  1   
  6   4  27  1   
  7   4  28  1   
  8   5   7  1   
  9   5  29  1   
 10   5  30  1   
 11   6   8  ar  
 12   6   9  ar  
 13   7  10  ar  
 14   7  11  ar  
 15   8  12  ar  
 16   8  31  1   
 17   9  13  ar  
 18   9  32  1   
 19  10  14  ar  
 20  10  33  1   
 21  11  15  ar  
 22  11  34  1   
 23  12  16  ar  
 24  12  35  1   
 25  13  16  ar  
 26  13  36  1   
 27  14  17  ar  
 28  14  37  1   
 29  15  17  ar  
 30  15  38  1   
 31  16  18  1   
 32  17  39  1   
 33  18  19  2   
 34  18  20  am  
 35  20  21  1   
 36  20  22  1   
 37  21  23  1   
 38  21  40  1   
 39  21  41  1   
 40  22  24  1   
 41  22  42  1   
 42  22  43  1   
 43  23  25  1   
 44  23  44  1   
 45  23  45  1   
 46  24  25  1   
 47  24  46  1   
 48  24  47  1   
 49  25  26  1   
 50  25  48  1   
 51  26  49  1   
 52  26  50  1   
 53  26  51  1   
@<TRIPOS>SUBSTRUCTURE
  1 ****   6 GROUP 4 **** **** 0

# MOE 2024.06 (io_trps.svl 2023.06)
