@<TRIPOS>MOLECULE
NONAME
51 53 1 0 0 
SMALL
USER_CHARGES


@<TRIPOS>ATOM
  1 O       -2.3420    -3.4750     0.9890 O.3   1 <1>  -0.3630 
  2 C       -3.6840    -3.4680     0.7860 C.ar  1 <1>   0.0830 
  3 C       -1.4490    -4.0220     0.0410 C.3   1 <1>   0.1200 
  4 C       -4.2970    -3.9210    -0.3800 C.ar  1 <1>  -0.1500 
  5 C       -4.4600    -2.9750     1.8240 C.ar  1 <1>  -0.1500 
  6 C       -0.0240    -3.9050     0.5990 C.3   1 <1>   0.2000 
  7 C       -5.6840    -3.8760    -0.4950 C.ar  1 <1>   0.0830 
  8 C       -5.8380    -2.9300     1.7100 C.ar  1 <1>  -0.1500 
  9 O        0.2020    -2.5840     0.9940 O.3   1 <1>  -0.6800 
 10 C        1.0590    -4.3150    -0.4230 C.3   1 <1>   0.3430 
 11 O       -6.3680    -4.2940    -1.5900 O.3   1 <1>  -0.3620 
 12 C       -6.4450    -3.3810     0.5520 C.ar  1 <1>  -0.1500 
 13 N        2.3730    -3.6990    -0.0690 N.4   1 <1>  -0.9590 
 14 C       -5.7100    -4.7980    -2.7300 C.3   1 <1>   0.0400 
 15 C        3.2910    -3.5690    -1.2570 C.3   1 <1>   0.3430 
 16 C        3.0600    -4.4190     1.0650 C.3   1 <1>   0.3430 
 17 C        4.6500    -2.9280    -0.8950 C.3   1 <1>   0.2090 
 18 C        4.4150    -3.7810     1.4430 C.3   1 <1>   0.2090 
 19 N        5.3010    -3.6290     0.2510 N.pl3 1 <1>  -0.8380 
 20 C        6.0460    -4.7410    -0.0800 C.ar  1 <1>   0.4100 
 21 N        5.3700    -5.7900    -0.5360 N.ar  1 <1>  -0.6200 
 22 C        7.4280    -4.7140     0.0730 C.ar  1 <1>  -0.1500 
 23 C        6.1080    -6.8460    -0.8480 C.ar  1 <1>   0.1600 
 24 C        8.1770    -5.8190    -0.2570 C.ar  1 <1>  -0.1500 
 25 C        7.4850    -6.9140    -0.7310 C.ar  1 <1>  -0.1500 
 26 H       -1.5470    -3.4690    -0.8770 H     1 <1>   0.0800 
 27 H       -1.7140    -5.0530    -0.1190 H     1 <1>   0.0800 
 28 H       -3.7120    -4.3010    -1.1890 H     1 <1>   0.1500 
 29 H       -3.9840    -2.6260     2.7220 H     1 <1>   0.1500 
 30 H        0.0550    -4.5260     1.4750 H     1 <1>   0.0800 
 31 H       -6.4360    -2.5470     2.5190 H     1 <1>   0.1500 
 32 H       -0.6110    -2.2540     1.4470 H     1 <1>   0.4000 
 33 H        0.7520    -3.9590    -1.3920 H     1 <1>   0.0800 
 34 H        1.1410    -5.3880    -0.4750 H     1 <1>   0.0800 
 35 H       -7.5160    -3.3510     0.4530 H     1 <1>   0.1500 
 36 H        2.1230    -2.7550     0.2800 H     1 <1>   0.4500 
 37 H       -6.4580    -5.0510    -3.4600 H     1 <1>   0.0800 
 38 H       -5.1590    -5.6790    -2.4540 H     1 <1>   0.0800 
 39 H       -5.0590    -4.0380    -3.1230 H     1 <1>   0.0800 
 40 H        2.8190    -2.9800    -2.0240 H     1 <1>   0.0800 
 41 H        3.4890    -4.5480    -1.6640 H     1 <1>   0.0800 
 42 H        3.2460    -5.4420     0.7790 H     1 <1>   0.0800 
 43 H        2.4230    -4.4260     1.9340 H     1 <1>   0.0800 
 44 H        4.5100    -1.8910    -0.6440 H     1 <1>   0.0800 
 45 H        5.2990    -2.9710    -1.7530 H     1 <1>   0.0800 
 46 H        4.9050    -4.4030     2.1730 H     1 <1>   0.0800 
 47 H        4.2520    -2.8170     1.8920 H     1 <1>   0.0800 
 48 H        7.8920    -3.8220     0.4490 H     1 <1>   0.1500 
 49 H        5.5880    -7.7120    -1.2210 H     1 <1>   0.1500 
 50 H        9.2480    -5.8310    -0.1500 H     1 <1>   0.1500 
 51 H        8.0100    -7.8110    -1.0080 H     1 <1>   0.1500 
@<TRIPOS>BOND
  1   1   2  1   
  2   1   3  1   
  3   2   4  ar  
  4   2   5  ar  
  5   3   6  1   
  6   3  26  1   
  7   3  27  1   
  8   4   7  ar  
  9   4  28  1   
 10   5   8  ar  
 11   5  29  1   
 12   6   9  1   
 13   6  10  1   
 14   6  30  1   
 15   7  11  1   
 16   7  12  ar  
 17   8  12  ar  
 18   8  31  1   
 19   9  32  1   
 20  10  13  1   
 21  10  33  1   
 22  10  34  1   
 23  11  14  1   
 24  12  35  1   
 25  13  15  1   
 26  13  16  1   
 27  13  36  1   
 28  14  37  1   
 29  14  38  1   
 30  14  39  1   
 31  15  17  1   
 32  15  40  1   
 33  15  41  1   
 34  16  18  1   
 35  16  42  1   
 36  16  43  1   
 37  17  19  1   
 38  17  44  1   
 39  17  45  1   
 40  18  19  1   
 41  18  46  1   
 42  18  47  1   
 43  19  20  1   
 44  20  21  ar  
 45  20  22  ar  
 46  21  23  ar  
 47  22  24  ar  
 48  22  48  1   
 49  23  25  ar  
 50  23  49  1   
 51  24  25  ar  
 52  24  50  1   
 53  25  51  1   
@<TRIPOS>SUBSTRUCTURE
  1 ****  10 GROUP 4 **** **** 0

# MOE 2024.06 (io_trps.svl 2023.06)
