@<TRIPOS>MOLECULE
NONAME
36 37 1 0 0 
SMALL
USER_CHARGES


@<TRIPOS>ATOM
  1 S       -6.1500     1.2870    -0.5220 S.3   1 <1>  -0.3320 
  2 C       -4.3750     1.4190    -0.2380 C.ar  1 <1>   0.1020 
  3 C       -6.8960     2.8850     0.0060 C.3   1 <1>   0.0700 
  4 C       -3.7920     2.5620     0.2880 C.ar  1 <1>  -0.1500 
  5 C       -3.6040     0.3190    -0.5690 C.ar  1 <1>  -0.1500 
  6 C       -8.4010     2.7710    -0.2410 C.3   1 <1>  -0.1600 
  7 C       -2.4210     2.5960     0.4810 C.ar  1 <1>  -0.1500 
  8 C       -2.2340     0.3590    -0.3740 C.ar  1 <1>  -0.1500 
  9 C       -9.1260     4.0450     0.1880 C.3   1 <1>   0.3430 
 10 C       -1.6440     1.4970     0.1510 C.ar  1 <1>  -0.1500 
 11 N      -10.5680     3.9680    -0.1750 N.4   1 <1>  -0.9590 
 12 C      -11.2640     5.2950    -0.0710 C.3   1 <1>   0.3430 
 13 C      -11.3450     2.9150     0.5700 C.3   1 <1>   0.3430 
 14 C      -12.7540     5.1870    -0.4730 C.3   1 <1>   0.1200 
 15 C      -12.8400     2.9240     0.1710 C.3   1 <1>   0.1200 
 16 O      -13.0910     3.8730    -0.8290 O.3   1 <1>  -0.5600 
 17 H       -6.4430     3.6590    -0.5890 H     1 <1>   0.0800 
 18 H       -6.6620     3.0150     1.0480 H     1 <1>   0.0800 
 19 H       -4.3750     3.4220     0.5500 H     1 <1>   0.1500 
 20 H       -4.0730    -0.5590    -0.9760 H     1 <1>   0.1500 
 21 H       -8.7670     1.9270     0.3170 H     1 <1>   0.0800 
 22 H       -8.5610     2.5960    -1.2910 H     1 <1>   0.0800 
 23 H       -1.9560     3.4770     0.8890 H     1 <1>   0.1500 
 24 H       -1.6290    -0.4940    -0.6300 H     1 <1>   0.1500 
 25 H       -8.6760     4.8870    -0.3150 H     1 <1>   0.0800 
 26 H       -9.0190     4.1900     1.2510 H     1 <1>   0.0800 
 27 H       -0.5790     1.5270     0.3020 H     1 <1>   0.1500 
 28 H      -10.6560     3.7030    -1.1690 H     1 <1>   0.4500 
 29 H      -10.7830     6.0160    -0.7110 H     1 <1>   0.0800 
 30 H      -11.2020     5.6650     0.9390 H     1 <1>   0.0800 
 31 H      -11.2660     3.0790     1.6320 H     1 <1>   0.0800 
 32 H      -10.9390     1.9390     0.3620 H     1 <1>   0.0800 
 33 H      -12.9570     5.8180    -1.3210 H     1 <1>   0.0800 
 34 H      -13.3920     5.4990     0.3370 H     1 <1>   0.0800 
 35 H      -13.4610     3.1460     1.0220 H     1 <1>   0.0800 
 36 H      -13.1270     1.9590    -0.2110 H     1 <1>   0.0800 
@<TRIPOS>BOND
  1   1   2  1   
  2   1   3  1   
  3   2   4  ar  
  4   2   5  ar  
  5   3   6  1   
  6   3  17  1   
  7   3  18  1   
  8   4   7  ar  
  9   4  19  1   
 10   5   8  ar  
 11   5  20  1   
 12   6   9  1   
 13   6  21  1   
 14   6  22  1   
 15   7  10  ar  
 16   7  23  1   
 17   8  10  ar  
 18   8  24  1   
 19   9  11  1   
 20   9  25  1   
 21   9  26  1   
 22  10  27  1   
 23  11  12  1   
 24  11  13  1   
 25  11  28  1   
 26  12  14  1   
 27  12  29  1   
 28  12  30  1   
 29  13  15  1   
 30  13  31  1   
 31  13  32  1   
 32  14  16  1   
 33  14  33  1   
 34  14  34  1   
 35  15  16  1   
 36  15  35  1   
 37  15  36  1   
@<TRIPOS>SUBSTRUCTURE
  1 ****   3 GROUP 4 **** **** 0

# MOE 2024.06 (io_trps.svl 2023.06)
