@<TRIPOS>MOLECULE
NONAME
44 47 1 0 0 
SMALL
USER_CHARGES


@<TRIPOS>ATOM
  1 CL      -0.1410     1.6720     2.1010 Cl    1 <1>  -0.1770 
  2 C       -1.8060     1.2970     1.7280 C.ar  1 <1>   0.1770 
  3 C       -2.4420     1.8850     0.6400 C.ar  1 <1>  -0.1440 
  4 C       -2.4590     0.3960     2.5470 C.ar  1 <1>  -0.1500 
  5 C       -3.7650     1.5480     0.3770 C.ar  1 <1>  -0.1500 
  6 C       -1.7300     2.8920    -0.2590 C.3   1 <1>   0.2390 
  7 C       -3.7730     0.0800     2.2660 C.ar  1 <1>   0.1770 
  8 C       -4.4320     0.6450     1.1890 C.ar  1 <1>  -0.1500 
  9 N       -2.1700     4.2670     0.0460 N.pl3 1 <1>   0.3140 
 10 CL      -4.6180    -1.0540     3.2860 Cl    1 <1>  -0.1770 
 11 N       -1.5770     5.0430     0.9900 N.2   1 <1>  -0.7070 
 12 C       -3.1980     4.9210    -0.5600 C.ar  1 <1>   0.1050 
 13 C       -2.2450     6.1510     0.9690 C.2   1 <1>   0.1390 
 14 N       -4.0310     4.5090    -1.5290 N.ar  1 <1>  -0.5670 
 15 C       -3.2700     6.1570     0.0120 C.ar  1 <1>   0.0000 
 16 C       -4.9300     5.3990    -1.8680 C.ar  1 <1>   0.4700 
 17 C       -4.2660     7.0310    -0.4520 C.ar  1 <1>   0.4100 
 18 N       -5.1040     6.6360    -1.3830 N.ar  1 <1>  -0.6200 
 19 N       -4.3950     8.3150     0.0390 N.pl3 1 <1>  -0.8380 
 20 C       -5.7580     8.9140     0.1140 C.3   1 <1>   0.2090 
 21 C       -3.1850     9.1760     0.1680 C.3   1 <1>   0.2090 
 22 C       -5.8920     9.9730     1.2120 C.3   1 <1>  -0.1600 
 23 C       -3.3550    10.5730    -0.4380 C.3   1 <1>  -0.1600 
 24 C       -5.4990    11.3810     0.7400 C.3   1 <1>  -0.1600 
 25 C       -3.9950    11.5790     0.5320 C.3   1 <1>  -0.1600 
 26 H       -1.9560    -0.0490     3.3860 H     1 <1>   0.1500 
 27 H       -4.2860     1.9890    -0.4580 H     1 <1>   0.1500 
 28 H       -1.9560     2.6830    -1.2890 H     1 <1>   0.0800 
 29 H       -0.6640     2.8460    -0.1390 H     1 <1>   0.0800 
 30 H       -5.4570     0.3820     0.9940 H     1 <1>   0.1500 
 31 H       -2.0400     6.9830     1.6200 H     1 <1>   0.1500 
 32 H       -5.6270     5.1120    -2.6370 H     1 <1>   0.1500 
 33 H       -6.4600     8.1240     0.3230 H     1 <1>   0.0800 
 34 H       -6.0190     9.3280    -0.8450 H     1 <1>   0.0800 
 35 H       -2.3670     8.6950    -0.3430 H     1 <1>   0.0800 
 36 H       -2.9180     9.2570     1.2070 H     1 <1>   0.0800 
 37 H       -5.3340     9.6800     2.0840 H     1 <1>   0.0800 
 38 H       -6.9290    10.0080     1.4940 H     1 <1>   0.0800 
 39 H       -3.8990    10.5160    -1.3640 H     1 <1>   0.0800 
 40 H       -2.3710    10.9380    -0.6720 H     1 <1>   0.0800 
 41 H       -5.8330    12.0940     1.4750 H     1 <1>   0.0800 
 42 H       -6.0170    11.6060    -0.1780 H     1 <1>   0.0800 
 43 H       -3.8400    12.5710     0.1450 H     1 <1>   0.0800 
 44 H       -3.4940    11.5280     1.4830 H     1 <1>   0.0800 
@<TRIPOS>BOND
  1   1   2  1   
  2   2   3  ar  
  3   2   4  ar  
  4   3   5  ar  
  5   3   6  1   
  6   4   7  ar  
  7   4  26  1   
  8   5   8  ar  
  9   5  27  1   
 10   6   9  1   
 11   6  28  1   
 12   6  29  1   
 13   7   8  ar  
 14   7  10  1   
 15   8  30  1   
 16   9  11  1   
 17   9  12  1   
 18  11  13  2   
 19  12  14  ar  
 20  12  15  ar  
 21  13  15  1   
 22  13  31  1   
 23  14  16  ar  
 24  15  17  ar  
 25  16  18  ar  
 26  16  32  1   
 27  17  18  ar  
 28  17  19  1   
 29  19  20  1   
 30  19  21  1   
 31  20  22  1   
 32  20  33  1   
 33  20  34  1   
 34  21  23  1   
 35  21  35  1   
 36  21  36  1   
 37  22  24  1   
 38  22  37  1   
 39  22  38  1   
 40  23  25  1   
 41  23  39  1   
 42  23  40  1   
 43  24  25  1   
 44  24  41  1   
 45  24  42  1   
 46  25  43  1   
 47  25  44  1   
@<TRIPOS>SUBSTRUCTURE
  1 ****  15 GROUP 4 **** **** 0

# MOE 2024.06 (io_trps.svl 2023.06)
