@<TRIPOS>MOLECULE
NONAME
41 42 1 0 0 
SMALL
USER_CHARGES


@<TRIPOS>ATOM
  1 S       -0.4020    -0.1910     0.1980 S.3   1 <1>  -0.2860 
  2 C        1.2570    -0.8730     0.1190 C.2   1 <1>   0.2420 
  3 C       -1.4260    -1.6700     0.6740 C.3   1 <1>   0.1310 
  4 N        1.5260    -2.1100     0.3320 N.2   1 <1>  -0.3380 
  5 N        2.3270    -0.1330    -0.1670 N.pl3 1 <1>   0.0480 
  6 C       -2.9100    -1.3400     0.7040 C.2   1 <1>   0.5690 
  7 N        2.8500    -2.2200     0.1850 N.2   1 <1>  -0.3380 
  8 C        3.3100    -1.0460    -0.1070 C.2   1 <1>   0.0060 
  9 C        2.3840     1.3140    -0.4570 C.3   1 <1>   0.0160 
 10 O       -3.6360    -2.0660     1.3380 O.2   1 <1>  -0.5700 
 11 N       -3.3540    -0.2460     0.0090 N.am  1 <1>  -0.5470 
 12 C        4.7780    -0.7120    -0.3570 C.3   1 <1>   0.0200 
 13 C       -4.6320     0.3180    -0.1840 C.ar  1 <1>   0.1170 
 14 C        5.7200    -1.9030    -0.1250 C.3   1 <1>  -0.1600 
 15 C       -4.7530     1.5390    -0.8480 C.ar  1 <1>   0.1900 
 16 C       -5.8150    -0.2760     0.2490 C.ar  1 <1>  -0.1500 
 17 C        7.1860    -1.5240    -0.3760 C.3   1 <1>  -0.1600 
 18 F       -3.6660     2.1350    -1.2780 F     1 <1>  -0.1900 
 19 C       -5.9640     2.1600    -1.0800 C.ar  1 <1>  -0.1500 
 20 C       -7.0420     0.3300     0.0270 C.ar  1 <1>  -0.1500 
 21 C        8.1100    -2.7220    -0.1410 C.3   1 <1>  -0.2400 
 22 C       -7.1220     1.5460    -0.6350 C.ar  1 <1>  -0.1500 
 23 H       -1.0920    -1.9890     1.6440 H     1 <1>   0.0800 
 24 H       -1.2300    -2.4420    -0.0470 H     1 <1>   0.0800 
 25 H        1.5510     1.5880    -1.0800 H     1 <1>   0.0800 
 26 H        3.2980     1.5530    -0.9680 H     1 <1>   0.0800 
 27 H        2.3330     1.8620     0.4660 H     1 <1>   0.0800 
 28 H       -2.6030     0.3010    -0.4200 H     1 <1>   0.3700 
 29 H        5.0650     0.0910     0.2990 H     1 <1>   0.0800 
 30 H        4.8860    -0.3740    -1.3720 H     1 <1>   0.0800 
 31 H        5.4390    -2.7080    -0.7840 H     1 <1>   0.0800 
 32 H        5.6060    -2.2510     0.8880 H     1 <1>   0.0800 
 33 H       -5.7930    -1.2190     0.7630 H     1 <1>   0.1500 
 34 H        7.4720    -0.7230     0.2850 H     1 <1>   0.0800 
 35 H        7.3040    -1.1810    -1.3900 H     1 <1>   0.0800 
 36 H       -6.0000     3.1030    -1.5960 H     1 <1>   0.1500 
 37 H       -7.9420    -0.1500     0.3730 H     1 <1>   0.1500 
 38 H        8.0230    -3.0700     0.8740 H     1 <1>   0.0800 
 39 H        9.1320    -2.4400    -0.3210 H     1 <1>   0.0800 
 40 H        7.8550    -3.5290    -0.8060 H     1 <1>   0.0800 
 41 H       -8.0800     2.0080    -0.8020 H     1 <1>   0.1500 
@<TRIPOS>BOND
  1   1   2  1   
  2   1   3  1   
  3   2   4  2   
  4   2   5  1   
  5   3   6  1   
  6   3  23  1   
  7   3  24  1   
  8   4   7  1   
  9   5   8  1   
 10   5   9  1   
 11   6  10  2   
 12   6  11  am  
 13   7   8  2   
 14   8  12  1   
 15   9  25  1   
 16   9  26  1   
 17   9  27  1   
 18  11  13  1   
 19  11  28  1   
 20  12  14  1   
 21  12  29  1   
 22  12  30  1   
 23  13  15  ar  
 24  13  16  ar  
 25  14  17  1   
 26  14  31  1   
 27  14  32  1   
 28  15  18  1   
 29  15  19  ar  
 30  16  20  ar  
 31  16  33  1   
 32  17  21  1   
 33  17  34  1   
 34  17  35  1   
 35  19  22  ar  
 36  19  36  1   
 37  20  22  ar  
 38  20  37  1   
 39  21  38  1   
 40  21  39  1   
 41  21  40  1   
 42  22  41  1   
@<TRIPOS>SUBSTRUCTURE
  1 ****   1 GROUP 4 **** **** 0

# MOE 2024.06 (io_trps.svl 2023.06)
