@<TRIPOS>MOLECULE
NONAME
50 51 1 0 0 
SMALL
USER_CHARGES


@<TRIPOS>ATOM
  1 O        1.2580    -4.2470     2.6480 O.2   1 <1>  -0.5700 
  2 C        0.4350    -3.7720     1.9030 C.2   1 <1>   0.5690 
  3 N        0.6760    -2.7140     1.0670 N.am  1 <1>  -0.5470 
  4 C       -0.9570    -4.3850     1.8870 C.3   1 <1>   0.1810 
  5 C        1.8060    -1.9200     0.8070 C.ar  1 <1>   0.1170 
  6 O       -1.7090    -3.8900     0.7930 O.3   1 <1>  -0.2170 
  7 C        1.8530    -1.1530    -0.3640 C.ar  1 <1>  -0.1440 
  8 C        2.8710    -1.8630     1.6980 C.ar  1 <1>  -0.1500 
  9 N       -2.9800    -4.2120     0.7680 N.2   1 <1>  -0.5130 
 10 C        2.9570    -0.3380    -0.6150 C.ar  1 <1>  -0.1430 
 11 C        0.6800    -1.2310    -1.3470 C.3   1 <1>  -0.0970 
 12 C        3.9650    -1.0630     1.4440 C.ar  1 <1>  -0.1500 
 13 C       -3.6860    -3.7970    -0.2110 C.2   1 <1>   0.3030 
 14 C        4.0050    -0.3030     0.2920 C.ar  1 <1>  -0.1500 
 15 C        3.0720     0.5350    -1.8590 C.3   1 <1>  -0.0970 
 16 C       -5.0950    -4.0900    -0.3200 C.ar  1 <1>   0.0860 
 17 C       -3.0750    -2.9740    -1.3420 C.3   1 <1>  -0.1790 
 18 C       -6.0700    -3.0990    -0.5090 C.ar  1 <1>   0.0830 
 19 C       -5.5390    -5.4110    -0.2380 C.ar  1 <1>  -0.1500 
 20 O       -5.7360    -1.7910    -0.5420 O.3   1 <1>  -0.3620 
 21 C       -7.4070    -3.4190    -0.6660 C.ar  1 <1>  -0.1500 
 22 C       -6.8760    -5.7340    -0.3780 C.ar  1 <1>  -0.1500 
 23 C       -5.5060    -1.1720     0.7060 C.3   1 <1>   0.0400 
 24 C       -7.8190    -4.7450    -0.6010 C.ar  1 <1>   0.0830 
 25 O       -9.1060    -5.1440    -0.7390 O.3   1 <1>  -0.3620 
 26 C      -10.1390    -4.2180    -0.9910 C.3   1 <1>   0.0400 
 27 H       -0.1250    -2.4950     0.4760 H     1 <1>   0.3700 
 28 H       -1.4750    -4.1340     2.7940 H     1 <1>   0.0800 
 29 H       -0.8900    -5.4520     1.7920 H     1 <1>   0.0800 
 30 H        2.8520    -2.4410     2.6030 H     1 <1>   0.1500 
 31 H        0.8860    -0.7470    -2.2820 H     1 <1>   0.0800 
 32 H       -0.1870    -0.7650    -0.9150 H     1 <1>   0.0800 
 33 H        0.4540    -2.2580    -1.5700 H     1 <1>   0.0800 
 34 H        4.7820    -1.0310     2.1420 H     1 <1>   0.1500 
 35 H        4.8650     0.3170     0.1090 H     1 <1>   0.1500 
 36 H        3.9580     1.1440    -1.8260 H     1 <1>   0.0800 
 37 H        2.2230     1.1890    -1.9310 H     1 <1>   0.0800 
 38 H        3.1230    -0.0830    -2.7370 H     1 <1>   0.0800 
 39 H       -3.7550    -2.9020    -2.1710 H     1 <1>   0.0800 
 40 H       -2.1700    -3.4360    -1.6920 H     1 <1>   0.0800 
 41 H       -2.8550    -1.9830    -0.9890 H     1 <1>   0.0800 
 42 H       -4.8180    -6.1910    -0.0670 H     1 <1>   0.1500 
 43 H       -8.1040    -2.6210    -0.8300 H     1 <1>   0.1500 
 44 H       -7.2000    -6.7580    -0.3180 H     1 <1>   0.1500 
 45 H       -5.2860    -0.1340     0.5310 H     1 <1>   0.0800 
 46 H       -4.6720    -1.6480     1.1910 H     1 <1>   0.0800 
 47 H       -6.3920    -1.2650     1.3090 H     1 <1>   0.0800 
 48 H      -11.0630    -4.7620    -1.0740 H     1 <1>   0.0800 
 49 H       -9.9320    -3.7060    -1.9140 H     1 <1>   0.0800 
 50 H      -10.1950    -3.5260    -0.1700 H     1 <1>   0.0800 
@<TRIPOS>BOND
  1   1   2  2   
  2   2   3  am  
  3   2   4  1   
  4   3   5  1   
  5   3  27  1   
  6   4   6  1   
  7   4  28  1   
  8   4  29  1   
  9   5   7  ar  
 10   5   8  ar  
 11   6   9  1   
 12   7  10  ar  
 13   7  11  1   
 14   8  12  ar  
 15   8  30  1   
 16   9  13  2   
 17  10  14  ar  
 18  10  15  1   
 19  11  31  1   
 20  11  32  1   
 21  11  33  1   
 22  12  14  ar  
 23  12  34  1   
 24  13  16  1   
 25  13  17  1   
 26  14  35  1   
 27  15  36  1   
 28  15  37  1   
 29  15  38  1   
 30  16  18  ar  
 31  16  19  ar  
 32  17  39  1   
 33  17  40  1   
 34  17  41  1   
 35  18  20  1   
 36  18  21  ar  
 37  19  22  ar  
 38  19  42  1   
 39  20  23  1   
 40  21  24  ar  
 41  21  43  1   
 42  22  24  ar  
 43  22  44  1   
 44  23  45  1   
 45  23  46  1   
 46  23  47  1   
 47  24  25  1   
 48  25  26  1   
 49  26  48  1   
 50  26  49  1   
 51  26  50  1   
@<TRIPOS>SUBSTRUCTURE
  1 ****   6 GROUP 4 **** **** 0

# MOE 2024.06 (io_trps.svl 2023.06)
