@<TRIPOS>MOLECULE
NONAME
49 51 1 0 0 
SMALL
USER_CHARGES


@<TRIPOS>ATOM
  1 F       -0.3370     0.2990    -1.0640 F     1 <1>  -0.3400 
  2 C       -0.3630    -1.0080    -1.3000 C.3   1 <1>   1.1640 
  3 F       -0.3870    -1.1490    -2.6190 F     1 <1>  -0.3400 
  4 F       -1.5390    -1.4390    -0.8570 F     1 <1>  -0.3400 
  5 C        0.8250    -1.7490    -0.6660 C.ar  1 <1>  -0.1440 
  6 C        2.0620    -1.1270    -0.5460 C.ar  1 <1>  -0.1500 
  7 C        0.6930    -3.0570    -0.2090 C.ar  1 <1>  -0.1500 
  8 C        3.1500    -1.7770     0.0190 C.ar  1 <1>   0.1000 
  9 C        1.7700    -3.7170     0.3570 C.ar  1 <1>  -0.1500 
 10 N        4.3660    -1.1150     0.1210 N.pl3 1 <1>  -0.8380 
 11 C        2.9910    -3.0810     0.4710 C.ar  1 <1>  -0.1500 
 12 C        5.4750    -1.6270    -0.7280 C.3   1 <1>   0.2090 
 13 C        4.7750    -0.6920     1.4870 C.3   1 <1>   0.2090 
 14 C        6.6140    -0.5880    -0.8010 C.3   1 <1>   0.3430 
 15 C        5.9190     0.3410     1.4070 C.3   1 <1>   0.3430 
 16 N        7.0960    -0.1330     0.5700 N.4   1 <1>  -0.9590 
 17 C        8.2130     0.8630     0.5650 C.3   1 <1>   0.4230 
 18 C        7.8810     2.1240    -0.2450 C.3   1 <1>  -0.1600 
 19 C        9.5010     0.2230     0.0420 C.3   1 <1>  -0.1600 
 20 C        9.0480     3.1120    -0.2060 C.3   1 <1>   0.3430 
 21 C       10.6570     1.2250     0.0780 C.3   1 <1>   0.3430 
 22 N       10.2960     2.4520    -0.6920 N.4   1 <1>  -0.9590 
 23 C       11.4360     3.4280    -0.6670 C.3   1 <1>   0.2630 
 24 H        2.2020    -0.1180    -0.8940 H     1 <1>   0.1500 
 25 H       -0.2500    -3.5730    -0.2900 H     1 <1>   0.1500 
 26 H        1.6530    -4.7290     0.7090 H     1 <1>   0.1500 
 27 H        3.8200    -3.6000     0.9130 H     1 <1>   0.1500 
 28 H        5.1010    -1.8200    -1.7200 H     1 <1>   0.0800 
 29 H        5.8430    -2.5560    -0.3270 H     1 <1>   0.0800 
 30 H        5.0860    -1.5510     2.0570 H     1 <1>   0.0800 
 31 H        3.9290    -0.2520     1.9890 H     1 <1>   0.0800 
 32 H        6.2410     0.2590    -1.3520 H     1 <1>   0.0800 
 33 H        7.4300    -1.0140    -1.3600 H     1 <1>   0.0800 
 34 H        6.2450     0.5710     2.4080 H     1 <1>   0.0800 
 35 H        5.5100     1.2410     0.9790 H     1 <1>   0.0800 
 36 H        7.4350    -0.9840     1.0420 H     1 <1>   0.4500 
 37 H        8.3930     1.1650     1.5860 H     1 <1>   0.0800 
 38 H        7.0180     2.6150     0.1680 H     1 <1>   0.0800 
 39 H        7.6730     1.8870    -1.2730 H     1 <1>   0.0800 
 40 H        9.3820    -0.1250    -0.9690 H     1 <1>   0.0800 
 41 H        9.7660    -0.6170     0.6600 H     1 <1>   0.0800 
 42 H        9.1930     3.4650     0.8040 H     1 <1>   0.0800 
 43 H        8.8200     3.9660    -0.8260 H     1 <1>   0.0800 
 44 H       11.5410     0.7730    -0.3450 H     1 <1>   0.0800 
 45 H       10.8780     1.4900     1.1010 H     1 <1>   0.0800 
 46 H       10.1610     2.1890    -1.6820 H     1 <1>   0.4500 
 47 H       11.6380     3.7510     0.3410 H     1 <1>   0.0800 
 48 H       11.2020     4.2950    -1.2650 H     1 <1>   0.0800 
 49 H       12.3300     2.9740    -1.0660 H     1 <1>   0.0800 
@<TRIPOS>BOND
  1   1   2  1   
  2   2   3  1   
  3   2   4  1   
  4   2   5  1   
  5   5   6  ar  
  6   5   7  ar  
  7   6   8  ar  
  8   6  24  1   
  9   7   9  ar  
 10   7  25  1   
 11   8  10  1   
 12   8  11  ar  
 13   9  11  ar  
 14   9  26  1   
 15  10  12  1   
 16  10  13  1   
 17  11  27  1   
 18  12  14  1   
 19  12  28  1   
 20  12  29  1   
 21  13  15  1   
 22  13  30  1   
 23  13  31  1   
 24  14  16  1   
 25  14  32  1   
 26  14  33  1   
 27  15  16  1   
 28  15  34  1   
 29  15  35  1   
 30  16  17  1   
 31  16  36  1   
 32  17  18  1   
 33  17  19  1   
 34  17  37  1   
 35  18  20  1   
 36  18  38  1   
 37  18  39  1   
 38  19  21  1   
 39  19  40  1   
 40  19  41  1   
 41  20  22  1   
 42  20  42  1   
 43  20  43  1   
 44  21  22  1   
 45  21  44  1   
 46  21  45  1   
 47  22  23  1   
 48  22  46  1   
 49  23  47  1   
 50  23  48  1   
 51  23  49  1   
@<TRIPOS>SUBSTRUCTURE
  1 ****  10 GROUP 4 **** **** 0

# MOE 2024.06 (io_trps.svl 2023.06)
