@<TRIPOS>MOLECULE
NONAME
41 42 1 0 0 
SMALL
USER_CHARGES


@<TRIPOS>ATOM
  1 O        0.1200    -0.3860     0.4670 O.2   1 <1>  -0.5700 
  2 C        0.7380    -1.4200     0.3820 C.2   1 <1>   0.5690 
  3 N        2.0810    -1.4440     0.6950 N.am  1 <1>  -0.6600 
  4 C       -0.0050    -2.6840    -0.0850 C.3   1 <1>  -0.0190 
  5 C        3.0260    -2.5770     0.4550 C.3   1 <1>   0.1400 
  6 C        2.7510    -0.2220     1.2420 C.3   1 <1>   0.1400 
  7 C       -1.3480    -2.3730    -0.7820 C.3   1 <1>  -0.1600 
  8 C       -0.2420    -3.6530     1.0910 C.3   1 <1>  -0.1600 
  9 C        4.1850    -2.1240    -0.4580 C.3   1 <1>   0.3430 
 10 C        3.8930     0.2240     0.3140 C.3   1 <1>   0.3430 
 11 C       -2.0550    -3.6540    -1.2480 C.3   1 <1>  -0.1600 
 12 C       -0.9470    -4.9380     0.6340 C.3   1 <1>  -0.1600 
 13 N        4.8820    -0.8890     0.0570 N.4   1 <1>  -0.9590 
 14 C       -2.2680    -4.6220    -0.0770 C.3   1 <1>  -0.1600 
 15 C        5.9610    -0.4720    -0.8750 C.3   1 <1>   0.3430 
 16 C        6.8980     0.5060    -0.1750 C.3   1 <1>  -0.2400 
 17 H        0.6030    -3.1740    -0.8210 H     1 <1>   0.0800 
 18 H        2.5310    -3.4130     0.0000 H     1 <1>   0.0800 
 19 H        3.4190    -2.9130     1.3990 H     1 <1>   0.0800 
 20 H        3.1370    -0.4360     2.2240 H     1 <1>   0.0800 
 21 H        2.0520     0.5900     1.3470 H     1 <1>   0.0800 
 22 H       -1.1770    -1.7300    -1.6280 H     1 <1>   0.0800 
 23 H       -1.9930    -1.8450    -0.0990 H     1 <1>   0.0800 
 24 H       -0.8500    -3.1610     1.8320 H     1 <1>   0.0800 
 25 H        0.6910    -3.9110     1.5590 H     1 <1>   0.0800 
 26 H        3.7830    -1.9250    -1.4380 H     1 <1>   0.0800 
 27 H        4.8940    -2.9300    -0.5510 H     1 <1>   0.0800 
 28 H        4.3930     1.0670     0.7610 H     1 <1>   0.0800 
 29 H        3.4620     0.5520    -0.6180 H     1 <1>   0.0800 
 30 H       -1.4650    -4.1360    -2.0080 H     1 <1>   0.0800 
 31 H       -3.0070    -3.4000    -1.6810 H     1 <1>   0.0800 
 32 H       -1.1430    -5.5650     1.4880 H     1 <1>   0.0800 
 33 H       -0.3050    -5.4850    -0.0350 H     1 <1>   0.0800 
 34 H        5.3190    -1.1290     0.9570 H     1 <1>   0.4500 
 35 H       -2.7120    -5.5330    -0.4390 H     1 <1>   0.0800 
 36 H       -2.9530    -4.1800     0.6270 H     1 <1>   0.0800 
 37 H        5.5380    -0.0150    -1.7570 H     1 <1>   0.0800 
 38 H        6.5300    -1.3350    -1.1830 H     1 <1>   0.0800 
 39 H        6.4000     1.4280     0.0660 H     1 <1>   0.0800 
 40 H        7.7140     0.7420    -0.8350 H     1 <1>   0.0800 
 41 H        7.3120     0.0700     0.7170 H     1 <1>   0.0800 
@<TRIPOS>BOND
  1   1   2  2   
  2   2   3  am  
  3   2   4  1   
  4   3   5  1   
  5   3   6  1   
  6   4   7  1   
  7   4   8  1   
  8   4  17  1   
  9   5   9  1   
 10   5  18  1   
 11   5  19  1   
 12   6  10  1   
 13   6  20  1   
 14   6  21  1   
 15   7  11  1   
 16   7  22  1   
 17   7  23  1   
 18   8  12  1   
 19   8  24  1   
 20   8  25  1   
 21   9  13  1   
 22   9  26  1   
 23   9  27  1   
 24  10  13  1   
 25  10  28  1   
 26  10  29  1   
 27  11  14  1   
 28  11  30  1   
 29  11  31  1   
 30  12  14  1   
 31  12  32  1   
 32  12  33  1   
 33  13  15  1   
 34  13  34  1   
 35  14  35  1   
 36  14  36  1   
 37  15  16  1   
 38  15  37  1   
 39  15  38  1   
 40  16  39  1   
 41  16  40  1   
 42  16  41  1   
@<TRIPOS>SUBSTRUCTURE
  1 ****   3 GROUP 4 **** **** 0

# MOE 2024.06 (io_trps.svl 2023.06)
