@<TRIPOS>MOLECULE
NONAME
33 35 1 0 0 
SMALL
USER_CHARGES


@<TRIPOS>ATOM
  1 BR      -0.2190     0.2380     0.7020 Br    1 <1>  -0.1110 
  2 C       -1.8710    -0.6910     0.3610 C.ar  1 <1>   0.1110 
  3 C       -1.8330    -2.0490     0.1160 C.ar  1 <1>  -0.1500 
  4 C       -3.0480     0.0320     0.3720 C.ar  1 <1>  -0.1500 
  5 C       -3.0230    -2.7250    -0.1340 C.ar  1 <1>   0.1170 
  6 C       -4.2340    -0.6400     0.1290 C.ar  1 <1>  -0.1500 
  7 N       -3.1050    -4.0980    -0.3940 N.am  1 <1>  -0.5470 
  8 C       -4.2140    -2.0030    -0.1190 C.ar  1 <1>  -0.1500 
  9 C       -2.1800    -5.0780    -0.6070 C.2   1 <1>   0.5690 
 10 O       -1.0020    -4.8190    -0.7200 O.2   1 <1>  -0.5700 
 11 C       -2.5800    -6.5510    -0.8030 C.3   1 <1>  -0.0190 
 12 C       -3.9780    -7.1330    -0.4270 C.3   1 <1>  -0.1860 
 13 C       -1.6900    -7.4140     0.1060 C.3   1 <1>   0.2000 
 14 C       -5.1310    -6.2120    -0.0980 C.2   1 <1>   0.9060 
 15 C       -3.6120    -8.0820     0.7240 C.3   1 <1>   0.2000 
 16 O       -2.4690    -7.5010     1.2360 O.3   1 <1>  -0.5600 
 17 C       -1.6610    -8.8830    -0.3400 C.3   1 <1>  -0.1600 
 18 O       -5.4280    -5.3530    -0.9360 O.co2 1 <1>  -0.9000 
 19 O       -5.7750    -6.3380     0.9430 O.co2 1 <1>  -0.9000 
 20 C       -3.0220    -9.3770     0.1600 C.3   1 <1>  -0.1600 
 21 H       -0.8940    -2.5670     0.1230 H     1 <1>   0.1500 
 22 H       -3.0360     1.0890     0.5670 H     1 <1>   0.1500 
 23 H       -5.1710    -0.1110     0.1330 H     1 <1>   0.1500 
 24 H       -4.0800    -4.4270    -0.5140 H     1 <1>   0.3700 
 25 H       -5.1360    -2.5310    -0.3040 H     1 <1>   0.1500 
 26 H       -2.3660    -6.7770    -1.8300 H     1 <1>   0.0800 
 27 H       -4.3430    -7.7160    -1.2500 H     1 <1>   0.0800 
 28 H       -0.7210    -7.0050     0.3370 H     1 <1>   0.0800 
 29 H       -4.3620    -8.2180     1.4870 H     1 <1>   0.0800 
 30 H       -0.8590    -9.4010     0.1550 H     1 <1>   0.0800 
 31 H       -1.5490    -8.9740    -1.4050 H     1 <1>   0.0800 
 32 H       -3.6330    -9.7990    -0.6170 H     1 <1>   0.0800 
 33 H       -2.9060   -10.0930     0.9540 H     1 <1>   0.0800 
@<TRIPOS>BOND
  1   1   2  1   
  2   2   3  ar  
  3   2   4  ar  
  4   3   5  ar  
  5   3  21  1   
  6   4   6  ar  
  7   4  22  1   
  8   5   7  1   
  9   5   8  ar  
 10   6   8  ar  
 11   6  23  1   
 12   7   9  am  
 13   7  24  1   
 14   8  25  1   
 15   9  10  2   
 16   9  11  1   
 17  11  12  1   
 18  11  13  1   
 19  11  26  1   
 20  12  14  1   
 21  12  15  1   
 22  12  27  1   
 23  13  16  1   
 24  13  17  1   
 25  13  28  1   
 26  14  18  ar  
 27  14  19  ar  
 28  15  16  1   
 29  15  20  1   
 30  15  29  1   
 31  17  20  1   
 32  17  30  1   
 33  17  31  1   
 34  20  32  1   
 35  20  33  1   
@<TRIPOS>SUBSTRUCTURE
  1 ****   7 GROUP 4 **** **** 0

# MOE 2024.06 (io_trps.svl 2023.06)
