@<TRIPOS>MOLECULE
NONAME
43 45 1 0 0 
SMALL
USER_CHARGES


@<TRIPOS>ATOM
  1 S       -0.8110     0.3890    -1.1460 S.3   1 <1>  -0.3320 
  2 C       -1.3550    -1.1260    -0.3600 C.ar  1 <1>   0.4120 
  3 C        0.6860     0.8970    -0.1880 C.3   1 <1>   0.0700 
  4 N       -0.6540    -1.5580     0.6610 N.ar  1 <1>  -0.6200 
  5 C       -2.4850    -1.7860    -0.8470 C.ar  1 <1>   0.2270 
  6 C        1.2170     2.1880    -0.7970 C.3   1 <1>   0.1200 
  7 C       -1.0990    -2.6980     1.2190 C.ar  1 <1>   0.4700 
  8 N       -3.3800    -1.5680    -1.8660 N.2   1 <1>  -0.5650 
  9 C       -2.8160    -2.9370    -0.1740 C.ar  1 <1>   0.1050 
 10 O        2.3600     2.5820    -0.0710 O.3   1 <1>  -0.3630 
 11 N       -2.1380    -3.4210     0.8700 N.ar  1 <1>  -0.5670 
 12 C       -4.1990    -2.5590    -1.7820 C.2   1 <1>   0.0360 
 13 N       -3.9150    -3.4280    -0.7770 N.pl3 1 <1>   0.0330 
 14 C        3.0620     3.7060    -0.3790 C.ar  1 <1>   0.0830 
 15 C        4.1830     4.0190     0.3920 C.ar  1 <1>  -0.1430 
 16 C        2.6940     4.5410    -1.4330 C.ar  1 <1>  -0.1500 
 17 C        4.9070     5.1650     0.0860 C.ar  1 <1>  -0.1500 
 18 C        4.6330     3.1350     1.5620 C.3   1 <1>   0.0630 
 19 C        3.4290     5.6750    -1.7190 C.ar  1 <1>  -0.1500 
 20 C        4.5400     5.9950    -0.9600 C.ar  1 <1>  -0.1430 
 21 C        4.5870     3.9090     2.8840 C.3   1 <1>  -0.2400 
 22 C        6.0360     2.5690     1.3130 C.3   1 <1>  -0.2400 
 23 C        5.3540     7.2380    -1.2680 C.3   1 <1>  -0.0970 
 24 H        1.4020     0.0990    -0.2680 H     1 <1>   0.0800 
 25 H        0.3790     1.0380     0.8330 H     1 <1>   0.0800 
 26 H        0.4810     2.9690    -0.7230 H     1 <1>   0.0800 
 27 H        1.5020     2.0300    -1.8220 H     1 <1>   0.0800 
 28 H       -0.5230    -3.0530     2.0580 H     1 <1>   0.1500 
 29 H       -5.0410    -2.7090    -2.4370 H     1 <1>   0.1500 
 30 H       -4.4080    -4.2810    -0.5080 H     1 <1>   0.2700 
 31 H        1.8400     4.3280    -2.0450 H     1 <1>   0.1500 
 32 H        5.7730     5.4180     0.6690 H     1 <1>   0.1500 
 33 H        3.9690     2.2950     1.6660 H     1 <1>   0.0800 
 34 H        3.1330     6.3090    -2.5370 H     1 <1>   0.1500 
 35 H        5.2840     4.7260     2.8780 H     1 <1>   0.0800 
 36 H        4.8270     3.2570     3.7050 H     1 <1>   0.0800 
 37 H        3.5980     4.3030     3.0370 H     1 <1>   0.0800 
 38 H        6.7670     3.3550     1.2700 H     1 <1>   0.0800 
 39 H        6.0500     2.0350     0.3800 H     1 <1>   0.0800 
 40 H        6.3080     1.8890     2.1010 H     1 <1>   0.0800 
 41 H        6.2060     6.9750    -1.8680 H     1 <1>   0.0800 
 42 H        5.6980     7.6930    -0.3560 H     1 <1>   0.0800 
 43 H        4.7610     7.9580    -1.8030 H     1 <1>   0.0800 
@<TRIPOS>BOND
  1   1   2  1   
  2   1   3  1   
  3   2   4  ar  
  4   2   5  ar  
  5   3   6  1   
  6   3  24  1   
  7   3  25  1   
  8   4   7  ar  
  9   5   8  1   
 10   5   9  ar  
 11   6  10  1   
 12   6  26  1   
 13   6  27  1   
 14   7  11  ar  
 15   7  28  1   
 16   8  12  2   
 17   9  11  ar  
 18   9  13  1   
 19  10  14  1   
 20  12  13  1   
 21  12  29  1   
 22  13  30  1   
 23  14  15  ar  
 24  14  16  ar  
 25  15  17  ar  
 26  15  18  1   
 27  16  19  ar  
 28  16  31  1   
 29  17  20  ar  
 30  17  32  1   
 31  18  21  1   
 32  18  22  1   
 33  18  33  1   
 34  19  20  ar  
 35  19  34  1   
 36  20  23  1   
 37  21  35  1   
 38  21  36  1   
 39  21  37  1   
 40  22  38  1   
 41  22  39  1   
 42  22  40  1   
 43  23  41  1   
 44  23  42  1   
 45  23  43  1   
@<TRIPOS>SUBSTRUCTURE
  1 ****   3 GROUP 4 **** **** 0

# MOE 2024.06 (io_trps.svl 2023.06)
