@<TRIPOS>MOLECULE
NONAME
37 37 1 0 0 
SMALL
USER_CHARGES


@<TRIPOS>ATOM
  1 O        0.2270    -1.1230    -1.7610 O.2   1 <1>  -0.5700 
  2 C        0.0510    -1.6200    -0.6660 C.2   1 <1>   0.5440 
  3 N        1.0500    -1.5640     0.2640 N.am  1 <1>  -0.7300 
  4 C       -1.1990    -2.2720    -0.3250 C.ar  1 <1>   0.0860 
  5 C        2.3920    -0.9830     0.0580 C.3   1 <1>   0.1400 
  6 C       -2.2930    -1.5310     0.1390 C.ar  1 <1>  -0.1430 
  7 C       -1.3370    -3.6610    -0.4340 C.ar  1 <1>  -0.1430 
  8 C        3.4470    -2.0340     0.4030 C.3   1 <1>  -0.1600 
  9 C       -3.4710    -2.1660     0.4950 C.ar  1 <1>  -0.1500 
 10 C       -2.2040    -0.0140     0.2550 C.3   1 <1>  -0.0970 
 11 C       -2.5210    -4.2800    -0.0730 C.ar  1 <1>  -0.1500 
 12 C       -0.1870    -4.5130    -0.9600 C.3   1 <1>  -0.0970 
 13 C        4.8640    -1.4820     0.2070 C.3   1 <1>  -0.1600 
 14 C       -3.5910    -3.5400     0.3960 C.ar  1 <1>  -0.1430 
 15 C        5.9190    -2.5370     0.5510 C.3   1 <1>  -0.2400 
 16 C       -4.8870    -4.2260     0.7880 C.3   1 <1>  -0.0970 
 17 H        0.8740    -1.9720     1.1830 H     1 <1>   0.3700 
 18 H        2.5040    -0.1180     0.6900 H     1 <1>   0.0800 
 19 H        2.5060    -0.6710    -0.9670 H     1 <1>   0.0800 
 20 H        3.3070    -2.8890    -0.2350 H     1 <1>   0.0800 
 21 H        3.3230    -2.3410     1.4270 H     1 <1>   0.0800 
 22 H       -4.3050    -1.5880     0.8510 H     1 <1>   0.1500 
 23 H       -1.4310     0.2600     0.9510 H     1 <1>   0.0800 
 24 H       -3.1330     0.4060     0.5940 H     1 <1>   0.0800 
 25 H       -1.9700     0.4120    -0.7050 H     1 <1>   0.0800 
 26 H       -2.6180    -5.3470    -0.1590 H     1 <1>   0.1500 
 27 H       -0.4840    -5.5400    -1.0720 H     1 <1>   0.0800 
 28 H        0.1300    -4.1480    -1.9210 H     1 <1>   0.0800 
 29 H        0.6460    -4.4700    -0.2820 H     1 <1>   0.0800 
 30 H        5.0090    -0.6190     0.8350 H     1 <1>   0.0800 
 31 H        4.9930    -1.1750    -0.8180 H     1 <1>   0.0800 
 32 H        5.8240    -2.8440     1.5780 H     1 <1>   0.0800 
 33 H        6.9050    -2.1320     0.4060 H     1 <1>   0.0800 
 34 H        5.8080    -3.4000    -0.0810 H     1 <1>   0.0800 
 35 H       -5.3860    -3.6750     1.5650 H     1 <1>   0.0800 
 36 H       -4.6930    -5.2200     1.1490 H     1 <1>   0.0800 
 37 H       -5.5370    -4.2880    -0.0660 H     1 <1>   0.0800 
@<TRIPOS>BOND
  1   1   2  2   
  2   2   3  am  
  3   2   4  1   
  4   3   5  1   
  5   3  17  1   
  6   4   6  ar  
  7   4   7  ar  
  8   5   8  1   
  9   5  18  1   
 10   5  19  1   
 11   6   9  ar  
 12   6  10  1   
 13   7  11  ar  
 14   7  12  1   
 15   8  13  1   
 16   8  20  1   
 17   8  21  1   
 18   9  14  ar  
 19   9  22  1   
 20  10  23  1   
 21  10  24  1   
 22  10  25  1   
 23  11  14  ar  
 24  11  26  1   
 25  12  27  1   
 26  12  28  1   
 27  12  29  1   
 28  13  15  1   
 29  13  30  1   
 30  13  31  1   
 31  14  16  1   
 32  15  32  1   
 33  15  33  1   
 34  15  34  1   
 35  16  35  1   
 36  16  36  1   
 37  16  37  1   
@<TRIPOS>SUBSTRUCTURE
  1 ****   2 GROUP 4 **** **** 0

# MOE 2024.06 (io_trps.svl 2023.06)
