@<TRIPOS>MOLECULE
NONAME
44 45 1 0 0 
SMALL
USER_CHARGES


@<TRIPOS>ATOM
  1 O       -3.3490     0.2240     1.4700 O.2   1 <1>  -0.5700 
  2 C       -2.9410    -0.0320     0.3560 C.2   1 <1>   0.5440 
  3 N       -3.1470     0.8840    -0.6400 N.am  1 <1>  -0.7300 
  4 C       -2.2450    -1.2740     0.0950 C.ar  1 <1>   0.0860 
  5 C       -3.7950     2.2100    -0.4470 C.3   1 <1>   0.1400 
  6 C       -2.3310    -1.9110    -1.1420 C.ar  1 <1>   0.1600 
  7 C       -1.4630    -1.8900     1.0640 C.ar  1 <1>  -0.1500 
  8 C       -5.2950     2.0490    -0.2020 C.3   1 <1>   0.1200 
  9 N       -1.7190    -3.0340    -1.4840 N.ar  1 <1>  -0.6200 
 10 C       -0.8210    -3.0640     0.7340 C.ar  1 <1>  -0.1500 
 11 O       -5.8990     3.3230    -0.2770 O.3   1 <1>  -0.3630 
 12 C       -0.9770    -3.5870    -0.5380 C.ar  1 <1>   0.1600 
 13 C       -7.2370     3.4700    -0.1080 C.ar  1 <1>   0.0830 
 14 C       -8.0980     2.4310     0.2220 C.ar  1 <1>  -0.1500 
 15 C       -7.7550     4.7410    -0.2810 C.ar  1 <1>  -0.1500 
 16 C       -9.4520     2.6740     0.3700 C.ar  1 <1>  -0.1500 
 17 C       -9.1100     4.9770    -0.1310 C.ar  1 <1>  -0.1500 
 18 C       -9.9880     3.9460     0.1970 C.ar  1 <1>  -0.1430 
 19 C      -11.5080     4.1590     0.3750 C.3   1 <1>   0.1430 
 20 C      -11.9170     3.7680     1.8030 C.3   1 <1>  -0.2400 
 21 C      -11.9460     5.6170     0.1500 C.3   1 <1>  -0.2400 
 22 C      -12.2710     3.2860    -0.6320 C.3   1 <1>  -0.2400 
 23 H       -2.6790     0.7610    -1.5400 H     1 <1>   0.3700 
 24 H       -3.6380     2.8090    -1.3270 H     1 <1>   0.0800 
 25 H       -3.3490     2.7050     0.3990 H     1 <1>   0.0800 
 26 H       -2.9520    -1.4650    -1.8980 H     1 <1>   0.1500 
 27 H       -1.3680    -1.4540     2.0450 H     1 <1>   0.1500 
 28 H       -5.4720     1.6440     0.7790 H     1 <1>   0.0800 
 29 H       -5.7370     1.4260    -0.9590 H     1 <1>   0.0800 
 30 H       -0.2050    -3.5730     1.4540 H     1 <1>   0.1500 
 31 H       -0.4700    -4.5040    -0.7890 H     1 <1>   0.1500 
 32 H       -7.7370     1.4310     0.3700 H     1 <1>   0.1500 
 33 H       -7.0900     5.5460    -0.5330 H     1 <1>   0.1500 
 34 H      -10.0900     1.8490     0.6260 H     1 <1>   0.1500 
 35 H       -9.4550     5.9830    -0.2770 H     1 <1>   0.1500 
 36 H      -11.3620     4.3520     2.5160 H     1 <1>   0.0800 
 37 H      -11.7200     2.7290     1.9930 H     1 <1>   0.0800 
 38 H      -12.9660     3.9430     1.9600 H     1 <1>   0.0800 
 39 H      -11.7050     5.9330    -0.8490 H     1 <1>   0.0800 
 40 H      -11.4600     6.2700     0.8530 H     1 <1>   0.0800 
 41 H      -13.0090     5.7170     0.2840 H     1 <1>   0.0800 
 42 H      -13.3310     3.4470    -0.5490 H     1 <1>   0.0800 
 43 H      -11.9640     3.5290    -1.6340 H     1 <1>   0.0800 
 44 H      -12.0780     2.2420    -0.4650 H     1 <1>   0.0800 
@<TRIPOS>BOND
  1   1   2  2   
  2   2   3  am  
  3   2   4  1   
  4   3   5  1   
  5   3  23  1   
  6   4   6  ar  
  7   4   7  ar  
  8   5   8  1   
  9   5  24  1   
 10   5  25  1   
 11   6   9  ar  
 12   6  26  1   
 13   7  10  ar  
 14   7  27  1   
 15   8  11  1   
 16   8  28  1   
 17   8  29  1   
 18   9  12  ar  
 19  10  12  ar  
 20  10  30  1   
 21  11  13  1   
 22  12  31  1   
 23  13  14  ar  
 24  13  15  ar  
 25  14  16  ar  
 26  14  32  1   
 27  15  17  ar  
 28  15  33  1   
 29  16  18  ar  
 30  16  34  1   
 31  17  18  ar  
 32  17  35  1   
 33  18  19  1   
 34  19  20  1   
 35  19  21  1   
 36  19  22  1   
 37  20  36  1   
 38  20  37  1   
 39  20  38  1   
 40  21  39  1   
 41  21  40  1   
 42  21  41  1   
 43  22  42  1   
 44  22  43  1   
 45  22  44  1   
@<TRIPOS>SUBSTRUCTURE
  1 ****   8 GROUP 4 **** **** 0

# MOE 2024.06 (io_trps.svl 2023.06)
