@<TRIPOS>MOLECULE
NONAME
38 39 1 0 0 
SMALL
USER_CHARGES


@<TRIPOS>ATOM
  1 O       -0.0760     0.5800    -1.5280 O.2   1 <1>  -0.5700 
  2 C       -0.0070     1.6680    -0.9850 C.2   1 <1>   0.5440 
  3 N       -1.1750     2.3190    -0.6420 N.am  1 <1>  -0.6600 
  4 C        1.3000     2.2450    -0.7320 C.ar  1 <1>   0.0860 
  5 C       -1.2730     3.7890    -0.4270 C.3   1 <1>   0.1400 
  6 C       -2.4860     1.6130    -0.6310 C.3   1 <1>   0.1400 
  7 C        1.6590     2.7230     0.5290 C.ar  1 <1>  -0.1500 
  8 C        2.2510     2.3350    -1.7470 C.ar  1 <1>  -0.1500 
  9 C       -1.9690     4.0700     0.9090 C.3   1 <1>  -0.1600 
 10 C       -3.2040     1.8790     0.6970 C.3   1 <1>  -0.1600 
 11 C        2.9020     3.2830     0.7650 C.ar  1 <1>  -0.1500 
 12 C        3.4970     2.8910    -1.5200 C.ar  1 <1>  -0.1500 
 13 C       -3.3390     3.3820     0.9830 C.3   1 <1>  -0.1600 
 14 C        3.8350     3.3670    -0.2630 C.ar  1 <1>   0.0830 
 15 O        5.0730     3.9060    -0.1220 O.3   1 <1>  -0.2320 
 16 C        5.8160     4.0480     0.9750 C.2   1 <1>   0.6590 
 17 O        5.4970     3.6500     2.0650 O.2   1 <1>  -0.5700 
 18 C        7.1400     4.7640     0.7680 C.3   1 <1>  -0.0990 
 19 C        8.1420     3.9410    -0.0590 C.3   1 <1>  -0.2400 
 20 H       -1.8490     4.2160    -1.2290 H     1 <1>   0.0800 
 21 H       -0.3010     4.2500    -0.4400 H     1 <1>   0.0800 
 22 H       -2.3470     0.5520    -0.7550 H     1 <1>   0.0800 
 23 H       -3.0830     1.9710    -1.4530 H     1 <1>   0.0800 
 24 H        0.9480     2.6490     1.3330 H     1 <1>   0.1500 
 25 H        1.9990     1.9570    -2.7230 H     1 <1>   0.1500 
 26 H       -2.0920     5.1320     1.0290 H     1 <1>   0.0800 
 27 H       -1.3430     3.7200     1.7110 H     1 <1>   0.0800 
 28 H       -2.6460     1.4080     1.4880 H     1 <1>   0.0800 
 29 H       -4.1790     1.4260     0.6700 H     1 <1>   0.0800 
 30 H        3.1270     3.6490     1.7500 H     1 <1>   0.1500 
 31 H        4.2130     2.9510    -2.3190 H     1 <1>   0.1500 
 32 H       -4.0000     3.8240     0.2570 H     1 <1>   0.0800 
 33 H       -3.7700     3.5300     1.9580 H     1 <1>   0.0800 
 34 H        7.5670     4.9760     1.7320 H     1 <1>   0.0800 
 35 H        6.9490     5.7010     0.2780 H     1 <1>   0.0800 
 36 H        8.3480     3.0050     0.4320 H     1 <1>   0.0800 
 37 H        9.0650     4.4820    -0.1670 H     1 <1>   0.0800 
 38 H        7.7450     3.7380    -1.0380 H     1 <1>   0.0800 
@<TRIPOS>BOND
  1   1   2  2   
  2   2   3  am  
  3   2   4  1   
  4   3   5  1   
  5   3   6  1   
  6   4   7  ar  
  7   4   8  ar  
  8   5   9  1   
  9   5  20  1   
 10   5  21  1   
 11   6  10  1   
 12   6  22  1   
 13   6  23  1   
 14   7  11  ar  
 15   7  24  1   
 16   8  12  ar  
 17   8  25  1   
 18   9  13  1   
 19   9  26  1   
 20   9  27  1   
 21  10  13  1   
 22  10  28  1   
 23  10  29  1   
 24  11  14  ar  
 25  11  30  1   
 26  12  14  ar  
 27  12  31  1   
 28  13  32  1   
 29  13  33  1   
 30  14  15  1   
 31  15  16  1   
 32  16  17  2   
 33  16  18  1   
 34  18  19  1   
 35  18  34  1   
 36  18  35  1   
 37  19  36  1   
 38  19  37  1   
 39  19  38  1   
@<TRIPOS>SUBSTRUCTURE
  1 ****   7 GROUP 4 **** **** 0

# MOE 2024.06 (io_trps.svl 2023.06)
