@<TRIPOS>MOLECULE
NONAME
44 45 1 0 0 
SMALL
USER_CHARGES


@<TRIPOS>ATOM
  1 O        2.6530    -3.8150     2.1320 O.3   1 <1>  -0.6800 
  2 C        2.8450    -3.7350     0.7720 C.3   1 <1>   0.5670 
  3 C        3.3420    -2.2980     0.5250 C.ar  1 <1>  -0.1440 
  4 C        3.8990    -4.7730     0.3340 C.ar  1 <1>  -0.1440 
  5 C        1.4820    -4.0780     0.1280 C.3   1 <1>  -0.1600 
  6 C        4.6590    -1.9770     0.8420 C.ar  1 <1>  -0.1500 
  7 C        2.5310    -1.2890     0.0080 C.ar  1 <1>  -0.1500 
  8 C        4.4350    -4.6900    -0.9470 C.ar  1 <1>  -0.1500 
  9 C        4.3290    -5.8090     1.1610 C.ar  1 <1>  -0.1500 
 10 C        1.0160    -5.5310     0.3690 C.3   1 <1>  -0.1600 
 11 C        5.1530    -0.6990     0.6460 C.ar  1 <1>  -0.1500 
 12 C        3.0240    -0.0110    -0.1890 C.ar  1 <1>  -0.1500 
 13 C        5.3690    -5.6100    -1.3910 C.ar  1 <1>  -0.1500 
 14 C        5.2640    -6.7290     0.7190 C.ar  1 <1>  -0.1500 
 15 C       -0.3750    -5.7740    -0.2130 C.3   1 <1>   0.3430 
 16 C        4.3350     0.2860     0.1290 C.ar  1 <1>  -0.1500 
 17 C        5.7840    -6.6310    -0.5580 C.ar  1 <1>  -0.1500 
 18 N       -0.8420    -7.1490     0.1290 N.4   1 <1>  -0.9590 
 19 C       -0.0860    -8.2060    -0.6160 C.3   1 <1>   0.2630 
 20 C       -2.3100    -7.2820    -0.1200 C.3   1 <1>   0.2630 
 21 H        3.3680    -3.2960     2.5450 H     1 <1>   0.4000 
 22 H        1.5600    -3.9050    -0.9300 H     1 <1>   0.0800 
 23 H        0.7430    -3.4040     0.5220 H     1 <1>   0.0800 
 24 H        5.3230    -2.7250     1.2430 H     1 <1>   0.1500 
 25 H        1.5050    -1.4680    -0.2500 H     1 <1>   0.1500 
 26 H        4.1320    -3.8970    -1.6110 H     1 <1>   0.1500 
 27 H        3.9420    -5.9140     2.1600 H     1 <1>   0.1500 
 28 H        0.9950    -5.7190     1.4290 H     1 <1>   0.0800 
 29 H        1.7220    -6.2020    -0.0870 H     1 <1>   0.0800 
 30 H        6.1760    -0.4730     0.8950 H     1 <1>   0.1500 
 31 H        2.3850     0.7560    -0.5900 H     1 <1>   0.1500 
 32 H        5.7760    -5.5270    -2.3840 H     1 <1>   0.1500 
 33 H        5.5900    -7.5210     1.3710 H     1 <1>   0.1500 
 34 H       -0.3560    -5.6420    -1.2830 H     1 <1>   0.0800 
 35 H       -1.0550    -5.0480     0.2050 H     1 <1>   0.0800 
 36 H        4.7180     1.2810    -0.0250 H     1 <1>   0.1500 
 37 H        6.5130    -7.3450    -0.9010 H     1 <1>   0.1500 
 38 H       -0.6730    -7.2830     1.1380 H     1 <1>   0.4500 
 39 H       -0.2060    -8.0740    -1.6790 H     1 <1>   0.0800 
 40 H       -0.4490    -9.1850    -0.3470 H     1 <1>   0.0800 
 41 H        0.9640    -8.1580    -0.3790 H     1 <1>   0.0800 
 42 H       -2.5280    -7.1390    -1.1660 H     1 <1>   0.0800 
 43 H       -2.8550    -6.5470     0.4510 H     1 <1>   0.0800 
 44 H       -2.6510    -8.2630     0.1720 H     1 <1>   0.0800 
@<TRIPOS>BOND
  1   1   2  1   
  2   1  21  1   
  3   2   3  1   
  4   2   4  1   
  5   2   5  1   
  6   3   6  ar  
  7   3   7  ar  
  8   4   8  ar  
  9   4   9  ar  
 10   5  10  1   
 11   5  22  1   
 12   5  23  1   
 13   6  11  ar  
 14   6  24  1   
 15   7  12  ar  
 16   7  25  1   
 17   8  13  ar  
 18   8  26  1   
 19   9  14  ar  
 20   9  27  1   
 21  10  15  1   
 22  10  28  1   
 23  10  29  1   
 24  11  16  ar  
 25  11  30  1   
 26  12  16  ar  
 27  12  31  1   
 28  13  17  ar  
 29  13  32  1   
 30  14  17  ar  
 31  14  33  1   
 32  15  18  1   
 33  15  34  1   
 34  15  35  1   
 35  16  36  1   
 36  17  37  1   
 37  18  19  1   
 38  18  20  1   
 39  18  38  1   
 40  19  39  1   
 41  19  40  1   
 42  19  41  1   
 43  20  42  1   
 44  20  43  1   
 45  20  44  1   
@<TRIPOS>SUBSTRUCTURE
  1 ****   2 GROUP 4 **** **** 0

# MOE 2024.06 (io_trps.svl 2023.06)
