@<TRIPOS>MOLECULE
NONAME
32 32 1 0 0 
SMALL
USER_CHARGES


@<TRIPOS>ATOM
  1 CL       0.0010     0.8640     1.3190 Cl    1 <1>  -0.1770 
  2 C       -1.6970     0.5160     1.1030 C.ar  1 <1>   0.1770 
  3 C       -2.0820    -0.7380     0.6650 C.ar  1 <1>  -0.1500 
  4 C       -2.6320     1.4990     1.3720 C.ar  1 <1>  -0.1500 
  5 C       -3.4290    -1.0100     0.4940 C.ar  1 <1>  -0.1500 
  6 C       -3.9760     1.2170     1.2000 C.ar  1 <1>  -0.1500 
  7 C       -4.3900    -0.0370     0.7600 C.ar  1 <1>   0.1990 
  8 N       -5.7370    -0.3250     0.5870 N.am  1 <1>  -0.6930 
  9 S       -6.7020     0.4890    -0.6030 S.o2  1 <1>   1.3330 
 10 C       -6.3730    -1.3720     1.4490 C.3   1 <1>   0.3370 
 11 O       -6.5310     1.9060    -0.4030 O.2   1 <1>  -0.6500 
 12 O       -8.0180    -0.0990    -0.5950 O.2   1 <1>  -0.6500 
 13 C       -5.8990     0.0200    -2.1210 C.3   1 <1>  -0.1350 
 14 C       -7.0420    -2.5390     0.6850 C.2   1 <1>   0.6590 
 15 C       -7.2920    -0.6790     2.4670 C.3   1 <1>  -0.2400 
 16 O       -7.9650    -3.1650     1.1450 O.2   1 <1>  -0.5700 
 17 O       -6.5080    -2.8640    -0.4940 O.3   1 <1>  -0.4300 
 18 C       -7.0470    -3.9040    -1.2850 C.3   1 <1>   0.0400 
 19 H       -1.3340    -1.4840     0.4620 H     1 <1>   0.1500 
 20 H       -2.3090     2.4670     1.7100 H     1 <1>   0.1500 
 21 H       -3.7390    -1.9790     0.1480 H     1 <1>   0.1500 
 22 H       -4.7140     1.9730     1.4080 H     1 <1>   0.1500 
 23 H       -5.5870    -1.8310     2.0210 H     1 <1>   0.0800 
 24 H       -4.8810     0.3550    -2.1200 H     1 <1>   0.0800 
 25 H       -6.4060     0.4660    -2.9540 H     1 <1>   0.0800 
 26 H       -5.9150    -1.0440    -2.2400 H     1 <1>   0.0800 
 27 H       -8.1570    -0.2650     1.9830 H     1 <1>   0.0800 
 28 H       -6.7610     0.1010     2.9800 H     1 <1>   0.0800 
 29 H       -7.6320    -1.3950     3.1940 H     1 <1>   0.0800 
 30 H       -6.4640    -3.9890    -2.1840 H     1 <1>   0.0800 
 31 H       -8.0680    -3.6610    -1.5260 H     1 <1>   0.0800 
 32 H       -7.0080    -4.8240    -0.7270 H     1 <1>   0.0800 
@<TRIPOS>BOND
  1   1   2  1   
  2   2   3  ar  
  3   2   4  ar  
  4   3   5  ar  
  5   3  19  1   
  6   4   6  ar  
  7   4  20  1   
  8   5   7  ar  
  9   5  21  1   
 10   6   7  ar  
 11   6  22  1   
 12   7   8  1   
 13   8   9  am  
 14   8  10  1   
 15   9  11  2   
 16   9  12  2   
 17   9  13  1   
 18  10  14  1   
 19  10  15  1   
 20  10  23  1   
 21  13  24  1   
 22  13  25  1   
 23  13  26  1   
 24  14  16  2   
 25  14  17  1   
 26  15  27  1   
 27  15  28  1   
 28  15  29  1   
 29  17  18  1   
 30  18  30  1   
 31  18  31  1   
 32  18  32  1   
@<TRIPOS>SUBSTRUCTURE
  1 ****   8 GROUP 4 **** **** 0

# MOE 2024.06 (io_trps.svl 2023.06)
