@<TRIPOS>MOLECULE
NONAME
35 35 1 0 0 
SMALL
USER_CHARGES


@<TRIPOS>ATOM
  1 O        0.3570     0.6150    -1.1790 O.2   1 <1>  -0.5700 
  2 C        0.8460     1.4490    -0.4400 C.2   1 <1>   0.5440 
  3 N        0.0080     2.2770     0.2560 N.am  1 <1>  -0.7300 
  4 C        2.2850     1.5510    -0.2840 C.ar  1 <1>   0.0860 
  5 C       -1.4670     2.2850     0.1560 C.3   1 <1>   0.1400 
  6 C        3.1120     0.4490    -0.5060 C.ar  1 <1>  -0.1500 
  7 C        2.9110     2.7420     0.0900 C.ar  1 <1>  -0.1500 
  8 C       -1.9550     3.7330     0.1240 C.3   1 <1>  -0.1600 
  9 C        4.4820     0.5250    -0.3470 C.ar  1 <1>  -0.1500 
 10 C        4.2810     2.8210     0.2500 C.ar  1 <1>  -0.1500 
 11 C       -3.4830     3.8030     0.0230 C.3   1 <1>  -0.2400 
 12 C        5.0940     1.7120     0.0410 C.ar  1 <1>   0.1170 
 13 N        6.4860     1.7370     0.1840 N.am  1 <1>  -0.5470 
 14 C        7.3150     2.6170     0.8230 C.2   1 <1>   0.5690 
 15 O        6.9330     3.5780     1.4420 O.2   1 <1>  -0.5700 
 16 C        8.8080     2.3460     0.7540 C.3   1 <1>  -0.0990 
 17 C        9.3820     2.5050    -0.6640 C.3   1 <1>  -0.2400 
 18 H        0.4000     2.8820     0.9760 H     1 <1>   0.3700 
 19 H       -1.8810     1.7680     1.0050 H     1 <1>   0.0800 
 20 H       -1.7770     1.7730    -0.7400 H     1 <1>   0.0800 
 21 H        2.6610    -0.4820    -0.8080 H     1 <1>   0.1500 
 22 H        2.3200     3.6260     0.2500 H     1 <1>   0.1500 
 23 H       -1.5240     4.2310    -0.7270 H     1 <1>   0.0800 
 24 H       -1.6390     4.2400     1.0190 H     1 <1>   0.0800 
 25 H        5.0810    -0.3490    -0.5240 H     1 <1>   0.1500 
 26 H        4.7190     3.7610     0.5340 H     1 <1>   0.1500 
 27 H       -3.8220     3.3170    -0.8760 H     1 <1>   0.0800 
 28 H       -3.8030     4.8300    -0.0030 H     1 <1>   0.0800 
 29 H       -3.9400     3.3230     0.8700 H     1 <1>   0.0800 
 30 H        6.9690     0.9540    -0.2500 H     1 <1>   0.3700 
 31 H        8.9990     1.3530     1.1170 H     1 <1>   0.0800 
 32 H        9.3090     3.0330     1.4140 H     1 <1>   0.0800 
 33 H        8.9280     1.8060    -1.3440 H     1 <1>   0.0800 
 34 H       10.4440     2.3340    -0.6530 H     1 <1>   0.0800 
 35 H        9.2000     3.5040    -1.0230 H     1 <1>   0.0800 
@<TRIPOS>BOND
  1   1   2  2   
  2   2   3  am  
  3   2   4  1   
  4   3   5  1   
  5   3  18  1   
  6   4   6  ar  
  7   4   7  ar  
  8   5   8  1   
  9   5  19  1   
 10   5  20  1   
 11   6   9  ar  
 12   6  21  1   
 13   7  10  ar  
 14   7  22  1   
 15   8  11  1   
 16   8  23  1   
 17   8  24  1   
 18   9  12  ar  
 19   9  25  1   
 20  10  12  ar  
 21  10  26  1   
 22  11  27  1   
 23  11  28  1   
 24  11  29  1   
 25  12  13  1   
 26  13  14  am  
 27  13  30  1   
 28  14  15  2   
 29  14  16  1   
 30  16  17  1   
 31  16  31  1   
 32  16  32  1   
 33  17  33  1   
 34  17  34  1   
 35  17  35  1   
@<TRIPOS>SUBSTRUCTURE
  1 ****   7 GROUP 4 **** **** 0

# MOE 2024.06 (io_trps.svl 2023.06)
