@<TRIPOS>MOLECULE
NONAME
53 55 1 0 0 
SMALL
USER_CHARGES


@<TRIPOS>ATOM
  1 O        1.1350    -2.4210    -0.8150 O.2   1 <1>  -0.5700 
  2 C        1.2020    -2.7140     0.3630 C.2   1 <1>   0.6900 
  3 N        2.4310    -2.9170     0.9150 N.am  1 <1>  -0.6600 
  4 N        0.1150    -2.8160     1.1770 N.am  1 <1>  -0.5470 
  5 C        3.4110    -3.7170     0.1230 C.3   1 <1>   0.1400 
  6 C        3.0560    -1.7470     1.5920 C.3   1 <1>   0.1400 
  7 C       -1.2470    -2.5870     0.9620 C.ar  1 <1>   0.1170 
  8 C        4.1200    -2.8290    -0.9210 C.3   1 <1>   0.3430 
  9 C        3.7560    -0.8460     0.5530 C.3   1 <1>   0.3430 
 10 C       -2.1590    -3.0650     1.8970 C.ar  1 <1>  -0.1500 
 11 C       -1.7540    -1.8940    -0.1340 C.ar  1 <1>  -0.1500 
 12 N        4.7440    -1.6070    -0.2980 N.4   1 <1>  -0.9590 
 13 C       -3.5170    -2.8630     1.7410 C.ar  1 <1>  -0.1500 
 14 C       -3.1120    -1.6940    -0.2880 C.ar  1 <1>  -0.1500 
 15 C        5.3360    -0.7250    -1.3390 C.3   1 <1>   0.4860 
 16 C       -4.0380    -2.1710     0.6450 C.ar  1 <1>   0.0860 
 17 C        6.1110     0.3790    -0.6470 C.ar  1 <1>  -0.1440 
 18 C       -5.4660    -1.9690     0.4960 C.2   1 <1>   0.6340 
 19 C        5.5900     1.6640    -0.5860 C.ar  1 <1>  -0.1500 
 20 C        7.3420     0.1120    -0.0630 C.ar  1 <1>  -0.1500 
 21 O       -6.2840    -2.3780     1.2960 O.2   1 <1>  -0.5700 
 22 O       -5.9000    -1.2960    -0.5750 O.3   1 <1>  -0.4300 
 23 C        6.2860     2.6670     0.0650 C.ar  1 <1>  -0.1500 
 24 C        8.0360     1.1180     0.5870 C.ar  1 <1>  -0.1500 
 25 C       -7.2720    -1.0570    -0.7930 C.3   1 <1>   0.1200 
 26 C        7.5070     2.3940     0.6530 C.ar  1 <1>  -0.1500 
 27 C       -7.4160    -0.2720    -2.0920 C.3   1 <1>  -0.2400 
 28 H        0.3490    -3.2230     2.0780 H     1 <1>   0.3700 
 29 H        2.8920    -4.5130    -0.3870 H     1 <1>   0.0800 
 30 H        4.1320    -4.1660     0.7840 H     1 <1>   0.0800 
 31 H        3.7640    -2.0870     2.3280 H     1 <1>   0.0800 
 32 H        2.2980    -1.1760     2.1020 H     1 <1>   0.0800 
 33 H        3.3870    -2.5270    -1.6520 H     1 <1>   0.0800 
 34 H        4.8720    -3.4110    -1.4280 H     1 <1>   0.0800 
 35 H        4.2570    -0.0400     1.0670 H     1 <1>   0.0800 
 36 H        2.9980    -0.4120    -0.0790 H     1 <1>   0.0800 
 37 H       -1.8070    -3.6050     2.7570 H     1 <1>   0.1500 
 38 H       -1.0880    -1.5020    -0.8800 H     1 <1>   0.1500 
 39 H        5.5140    -1.8970     0.3160 H     1 <1>   0.4500 
 40 H       -4.1980    -3.2470     2.4820 H     1 <1>   0.1500 
 41 H       -3.4640    -1.1550    -1.1510 H     1 <1>   0.1500 
 42 H        4.5600    -0.3020    -1.9560 H     1 <1>   0.0800 
 43 H        6.0060    -1.2880    -1.9690 H     1 <1>   0.0800 
 44 H        4.6440     1.9030    -1.0430 H     1 <1>   0.1500 
 45 H        7.7810    -0.8700    -0.1080 H     1 <1>   0.1500 
 46 H        5.8820     3.6650     0.1120 H     1 <1>   0.1500 
 47 H        8.9920     0.9130     1.0400 H     1 <1>   0.1500 
 48 H       -7.6570    -0.4970     0.0430 H     1 <1>   0.0800 
 49 H       -7.7780    -2.0060    -0.8550 H     1 <1>   0.0800 
 50 H        8.0480     3.1760     1.1580 H     1 <1>   0.1500 
 51 H       -6.8970     0.6670    -2.0170 H     1 <1>   0.0800 
 52 H       -8.4550    -0.0750    -2.2840 H     1 <1>   0.0800 
 53 H       -7.0170    -0.8400    -2.9140 H     1 <1>   0.0800 
@<TRIPOS>BOND
  1   1   2  2   
  2   2   3  am  
  3   2   4  am  
  4   3   5  1   
  5   3   6  1   
  6   4   7  1   
  7   4  28  1   
  8   5   8  1   
  9   5  29  1   
 10   5  30  1   
 11   6   9  1   
 12   6  31  1   
 13   6  32  1   
 14   7  10  ar  
 15   7  11  ar  
 16   8  12  1   
 17   8  33  1   
 18   8  34  1   
 19   9  12  1   
 20   9  35  1   
 21   9  36  1   
 22  10  13  ar  
 23  10  37  1   
 24  11  14  ar  
 25  11  38  1   
 26  12  15  1   
 27  12  39  1   
 28  13  16  ar  
 29  13  40  1   
 30  14  16  ar  
 31  14  41  1   
 32  15  17  1   
 33  15  42  1   
 34  15  43  1   
 35  16  18  1   
 36  17  19  ar  
 37  17  20  ar  
 38  18  21  2   
 39  18  22  1   
 40  19  23  ar  
 41  19  44  1   
 42  20  24  ar  
 43  20  45  1   
 44  22  25  1   
 45  23  26  ar  
 46  23  46  1   
 47  24  26  ar  
 48  24  47  1   
 49  25  27  1   
 50  25  48  1   
 51  25  49  1   
 52  26  50  1   
 53  27  51  1   
 54  27  52  1   
 55  27  53  1   
@<TRIPOS>SUBSTRUCTURE
  1 ****   2 GROUP 4 **** **** 0

# MOE 2024.06 (io_trps.svl 2023.06)
