@<TRIPOS>MOLECULE
NONAME
43 44 1 0 0 
SMALL
USER_CHARGES


@<TRIPOS>ATOM
  1 CL      -2.3820     1.2280     3.4000 Cl    1 <1>  -0.1770 
  2 C       -3.2300     1.5500     1.9080 C.ar  1 <1>   0.1770 
  3 C       -4.5540     1.1740     1.7820 C.ar  1 <1>  -0.1500 
  4 C       -2.5630     2.1810     0.8740 C.ar  1 <1>  -0.1500 
  5 C       -5.2220     1.4350     0.5990 C.ar  1 <1>  -0.1500 
  6 C       -3.2370     2.4350    -0.3090 C.ar  1 <1>  -0.1500 
  7 C       -4.5680     2.0590    -0.4610 C.ar  1 <1>   0.1170 
  8 N       -5.2230     2.3310    -1.6650 N.am  1 <1>  -0.5470 
  9 C       -5.8520     1.4950    -2.5380 C.2   1 <1>   0.5690 
 10 O       -6.2990     1.9480    -3.5630 O.2   1 <1>  -0.5700 
 11 C       -5.9560    -0.0020    -2.2780 C.3   1 <1>   0.1810 
 12 O       -7.0440    -0.2860    -1.4130 O.3   1 <1>  -0.3620 
 13 C       -7.3050    -1.5360    -1.0030 C.ar  1 <1>   0.7030 
 14 N       -6.5400    -2.5010    -1.4340 N.ar  1 <1>  -0.6200 
 15 N       -8.3150    -1.6390    -0.1940 N.ar  1 <1>  -0.6200 
 16 C       -6.8830    -3.6820    -0.9830 C.ar  1 <1>   0.7200 
 17 C       -8.5610    -2.8670     0.1910 C.ar  1 <1>   0.7200 
 18 N       -7.8790    -3.9220    -0.1720 N.ar  1 <1>  -0.6200 
 19 N       -6.1270    -4.7590    -1.4000 N.pl3 1 <1>  -0.8380 
 20 N       -9.6270    -3.0590     1.0480 N.pl3 1 <1>  -0.8380 
 21 C       -6.6050    -6.1630    -1.2530 C.3   1 <1>   0.1290 
 22 C       -4.7860    -4.6050    -2.0300 C.3   1 <1>   0.1290 
 23 C       -9.8330    -4.3360     1.7880 C.3   1 <1>   0.1290 
 24 C      -10.6560    -2.0070     1.2860 C.3   1 <1>   0.1290 
 25 H       -5.0530     0.6870     2.6010 H     1 <1>   0.1500 
 26 H       -1.5340     2.4670     0.9980 H     1 <1>   0.1500 
 27 H       -6.2580     1.1610     0.5040 H     1 <1>   0.1500 
 28 H       -2.7270     2.9230    -1.1200 H     1 <1>   0.1500 
 29 H       -5.1830     3.2920    -2.0040 H     1 <1>   0.3700 
 30 H       -5.0510    -0.3600    -1.8220 H     1 <1>   0.0800 
 31 H       -6.1220    -0.5190    -3.2060 H     1 <1>   0.0800 
 32 H       -7.6810    -6.1990    -1.2330 H     1 <1>   0.0800 
 33 H       -6.2250    -6.5790    -0.3360 H     1 <1>   0.0800 
 34 H       -6.2650    -6.7590    -2.0820 H     1 <1>   0.0800 
 35 H       -4.3250    -3.6820    -1.7230 H     1 <1>   0.0800 
 36 H       -4.8880    -4.6080    -3.1010 H     1 <1>   0.0800 
 37 H       -4.1440    -5.4160    -1.7320 H     1 <1>   0.0800 
 38 H      -10.4930    -4.9740     1.2260 H     1 <1>   0.0800 
 39 H      -10.2660    -4.1380     2.7520 H     1 <1>   0.0800 
 40 H       -8.8970    -4.8460     1.9370 H     1 <1>   0.0800 
 41 H      -10.3830    -1.4260     2.1490 H     1 <1>   0.0800 
 42 H      -11.6170    -2.4610     1.4510 H     1 <1>   0.0800 
 43 H      -10.7350    -1.3530     0.4350 H     1 <1>   0.0800 
@<TRIPOS>BOND
  1   1   2  1   
  2   2   3  ar  
  3   2   4  ar  
  4   3   5  ar  
  5   3  25  1   
  6   4   6  ar  
  7   4  26  1   
  8   5   7  ar  
  9   5  27  1   
 10   6   7  ar  
 11   6  28  1   
 12   7   8  1   
 13   8   9  am  
 14   8  29  1   
 15   9  10  2   
 16   9  11  1   
 17  11  12  1   
 18  11  30  1   
 19  11  31  1   
 20  12  13  1   
 21  13  14  ar  
 22  13  15  ar  
 23  14  16  ar  
 24  15  17  ar  
 25  16  18  ar  
 26  16  19  1   
 27  17  18  ar  
 28  17  20  1   
 29  19  21  1   
 30  19  22  1   
 31  20  23  1   
 32  20  24  1   
 33  21  32  1   
 34  21  33  1   
 35  21  34  1   
 36  22  35  1   
 37  22  36  1   
 38  22  37  1   
 39  23  38  1   
 40  23  39  1   
 41  23  40  1   
 42  24  41  1   
 43  24  42  1   
 44  24  43  1   
@<TRIPOS>SUBSTRUCTURE
  1 ****  13 GROUP 4 **** **** 0

# MOE 2024.06 (io_trps.svl 2023.06)
