@<TRIPOS>MOLECULE
NONAME
49 51 1 0 0 
SMALL
USER_CHARGES


@<TRIPOS>ATOM
  1 CL       0.6900     0.8480     2.0540 Cl    1 <1>  -0.1770 
  2 C        2.1940     1.2500     1.2600 C.ar  1 <1>   0.1770 
  3 C        3.2770     1.6890     2.0000 C.ar  1 <1>   0.1600 
  4 C        2.2970     1.1280    -0.1080 C.ar  1 <1>  -0.1500 
  5 N        4.4540     2.0160     1.4810 N.ar  1 <1>  -0.6200 
  6 C        3.5150     1.4640    -0.6560 C.ar  1 <1>  -0.1500 
  7 C        4.5600     1.9010     0.1630 C.ar  1 <1>   0.4270 
  8 N        5.8080     2.2600    -0.2910 N.am  1 <1>  -0.5470 
  9 C        6.3830     2.2980    -1.5290 C.2   1 <1>   0.5690 
 10 O        5.7810     2.0380    -2.5420 O.2   1 <1>  -0.5700 
 11 C        7.8460     2.7520    -1.6320 C.3   1 <1>   0.1710 
 12 N        8.8770     1.7570    -1.2210 N.3   1 <1>  -0.8100 
 13 C        8.8530     1.4260     0.2270 C.3   1 <1>   0.1100 
 14 C       10.2280     2.2310    -1.6130 C.3   1 <1>   0.1100 
 15 C        9.9700     0.4450     0.6320 C.3   1 <1>   0.2090 
 16 C       11.3450     1.2470    -1.2150 C.3   1 <1>   0.2090 
 17 N       11.3060     0.9820     0.2510 N.pl3 1 <1>  -0.8380 
 18 C       12.4070     0.2860     0.7710 C.ar  1 <1>   0.1000 
 19 C       12.7440    -1.0390     0.4350 C.ar  1 <1>   0.0830 
 20 C       13.2060     0.9640     1.6790 C.ar  1 <1>  -0.1500 
 21 O       11.9520    -1.7060    -0.4600 O.3   1 <1>  -0.3620 
 22 C       13.8620    -1.6340     1.0150 C.ar  1 <1>  -0.1500 
 23 C       14.3140     0.3670     2.2520 C.ar  1 <1>  -0.1500 
 24 C       12.1180    -3.0780    -0.7190 C.3   1 <1>   0.1200 
 25 C       14.6420    -0.9330     1.9190 C.ar  1 <1>  -0.1500 
 26 C       11.0070    -3.5100    -1.6710 C.3   1 <1>  -0.2400 
 27 H        3.1640     1.7730     3.0660 H     1 <1>   0.1500 
 28 H        1.4690     0.7880    -0.7040 H     1 <1>   0.1500 
 29 H        3.6530     1.3860    -1.7180 H     1 <1>   0.1500 
 30 H        6.4120     2.5120     0.4850 H     1 <1>   0.3700 
 31 H        7.9690     3.6520    -1.0560 H     1 <1>   0.0800 
 32 H        8.0150     3.0070    -2.6630 H     1 <1>   0.0800 
 33 H        7.9150     0.9660     0.4760 H     1 <1>   0.0800 
 34 H        8.9640     2.3240     0.8100 H     1 <1>   0.0800 
 35 H       10.4320     3.1790    -1.1460 H     1 <1>   0.0800 
 36 H       10.2610     2.3660    -2.6800 H     1 <1>   0.0800 
 37 H        9.8030    -0.5000     0.1440 H     1 <1>   0.0800 
 38 H        9.9440     0.2830     1.6950 H     1 <1>   0.0800 
 39 H       12.3030     1.6600    -1.4750 H     1 <1>   0.0800 
 40 H       11.2150     0.3280    -1.7580 H     1 <1>   0.0800 
 41 H       12.9440     1.9750     1.9330 H     1 <1>   0.1500 
 42 H       14.1480    -2.6390     0.7770 H     1 <1>   0.1500 
 43 H       14.9170     0.9150     2.9540 H     1 <1>   0.1500 
 44 H       12.0510    -3.6120     0.2130 H     1 <1>   0.0800 
 45 H       13.0840    -3.2260    -1.1700 H     1 <1>   0.0800 
 46 H       15.5040    -1.4000     2.3620 H     1 <1>   0.1500 
 47 H       10.0460    -3.3350    -1.2200 H     1 <1>   0.0800 
 48 H       11.0990    -4.5580    -1.8890 H     1 <1>   0.0800 
 49 H       11.0750    -2.9590    -2.5920 H     1 <1>   0.0800 
@<TRIPOS>BOND
  1   1   2  1   
  2   2   3  ar  
  3   2   4  ar  
  4   3   5  ar  
  5   3  27  1   
  6   4   6  ar  
  7   4  28  1   
  8   5   7  ar  
  9   6   7  ar  
 10   6  29  1   
 11   7   8  1   
 12   8   9  am  
 13   8  30  1   
 14   9  10  2   
 15   9  11  1   
 16  11  12  1   
 17  11  31  1   
 18  11  32  1   
 19  12  13  1   
 20  12  14  1   
 21  13  15  1   
 22  13  33  1   
 23  13  34  1   
 24  14  16  1   
 25  14  35  1   
 26  14  36  1   
 27  15  17  1   
 28  15  37  1   
 29  15  38  1   
 30  16  17  1   
 31  16  39  1   
 32  16  40  1   
 33  17  18  1   
 34  18  19  ar  
 35  18  20  ar  
 36  19  21  1   
 37  19  22  ar  
 38  20  23  ar  
 39  20  41  1   
 40  21  24  1   
 41  22  25  ar  
 42  22  42  1   
 43  23  25  ar  
 44  23  43  1   
 45  24  26  1   
 46  24  44  1   
 47  24  45  1   
 48  25  46  1   
 49  26  47  1   
 50  26  48  1   
 51  26  49  1   
@<TRIPOS>SUBSTRUCTURE
  1 ****  13 GROUP 4 **** **** 0

# MOE 2024.06 (io_trps.svl 2023.06)
