@<TRIPOS>MOLECULE
NONAME
33 34 1 0 0 
SMALL
USER_CHARGES


@<TRIPOS>ATOM
  1 S       -0.4060    -0.5440    -1.1960 S.3   1 <1>  -0.0800 
  2 C       -1.6650    -0.6430    -0.0200 C.2   1 <1>   0.4340 
  3 C        0.5200    -1.5370    -0.1130 C.2   1 <1>   0.4620 
  4 S       -3.1890     0.2140    -0.3910 S.3   1 <1>  -0.2860 
  5 N       -1.3830    -1.3310     1.0110 N.2   1 <1>  -0.3380 
  6 N       -0.1170    -1.8510     0.9590 N.2   1 <1>  -0.3380 
  7 N        1.7880    -1.8880    -0.4690 N.pl3 1 <1>  -0.8840 
  8 C       -4.2080    -0.0800     1.1340 C.3   1 <1>   0.1310 
  9 C       -5.6340     0.4190     0.9400 C.2   1 <1>   0.5690 
 10 O       -5.9440     1.4240     1.5390 O.2   1 <1>  -0.5700 
 11 N       -6.5320    -0.2540     0.1440 N.am  1 <1>  -0.6600 
 12 C       -6.2280    -1.4780    -0.6510 C.3   1 <1>   0.1400 
 13 C       -7.9360     0.2210    -0.0060 C.3   1 <1>   0.1400 
 14 C       -7.1780    -2.6080    -0.2410 C.3   1 <1>  -0.1600 
 15 C       -8.9050    -0.8920     0.4060 C.3   1 <1>  -0.1600 
 16 C       -8.6490    -2.1870    -0.3820 C.3   1 <1>  -0.0800 
 17 C       -9.5800    -3.3050     0.0990 C.3   1 <1>  -0.2400 
 18 H        2.3580    -2.4600     0.1580 H     1 <1>   0.4000 
 19 H        2.2250    -1.5760    -1.3380 H     1 <1>   0.4000 
 20 H       -3.7320     0.4540     1.9360 H     1 <1>   0.0800 
 21 H       -4.1940    -1.1320     1.3460 H     1 <1>   0.0800 
 22 H       -5.2130    -1.7990    -0.5090 H     1 <1>   0.0800 
 23 H       -6.3590    -1.2540    -1.6960 H     1 <1>   0.0800 
 24 H       -8.1050     0.4950    -1.0330 H     1 <1>   0.0800 
 25 H       -8.1130     1.0920     0.6020 H     1 <1>   0.0800 
 26 H       -6.9690    -2.8820     0.7780 H     1 <1>   0.0800 
 27 H       -6.9860    -3.4670    -0.8580 H     1 <1>   0.0800 
 28 H       -9.9130    -0.5580     0.2390 H     1 <1>   0.0800 
 29 H       -8.7900    -1.0720     1.4610 H     1 <1>   0.0800 
 30 H       -8.8530    -1.9990    -1.4230 H     1 <1>   0.0800 
 31 H       -9.4070    -3.5220     1.1390 H     1 <1>   0.0800 
 32 H       -9.4130    -4.2020    -0.4710 H     1 <1>   0.0800 
 33 H      -10.6080    -3.0130    -0.0230 H     1 <1>   0.0800 
@<TRIPOS>BOND
  1   1   2  1   
  2   1   3  1   
  3   2   4  1   
  4   2   5  2   
  5   3   6  2   
  6   3   7  1   
  7   4   8  1   
  8   5   6  1   
  9   7  18  1   
 10   7  19  1   
 11   8   9  1   
 12   8  20  1   
 13   8  21  1   
 14   9  10  2   
 15   9  11  am  
 16  11  12  1   
 17  11  13  1   
 18  12  14  1   
 19  12  22  1   
 20  12  23  1   
 21  13  15  1   
 22  13  24  1   
 23  13  25  1   
 24  14  16  1   
 25  14  26  1   
 26  14  27  1   
 27  15  16  1   
 28  15  28  1   
 29  15  29  1   
 30  16  17  1   
 31  16  30  1   
 32  17  31  1   
 33  17  32  1   
 34  17  33  1   
@<TRIPOS>SUBSTRUCTURE
  1 ****   8 GROUP 4 **** **** 0

# MOE 2024.06 (io_trps.svl 2023.06)
