@<TRIPOS>MOLECULE
NONAME
44 47 1 0 0 
SMALL
USER_CHARGES


@<TRIPOS>ATOM
  1 O        0.2210    -1.5830    -1.9090 O.2   1 <1>  -0.5700 
  2 C        0.0340    -2.3190    -0.9640 C.2   1 <1>   0.5690 
  3 N       -1.2440    -2.5350    -0.4880 N.am  1 <1>  -0.6600 
  4 C        1.2510    -3.0450    -0.3600 C.3   1 <1>   0.2610 
  5 C       -2.4120    -1.7830    -1.0350 C.3   1 <1>   0.1400 
  6 C       -1.6040    -3.4530     0.6320 C.3   1 <1>   0.1400 
  7 O        1.3820    -2.8060     1.0270 O.3   1 <1>  -0.2170 
  8 C        2.6310    -2.6600    -0.8850 C.3   1 <1>  -0.0990 
  9 C       -3.4580    -2.7720    -1.5510 C.3   1 <1>  -0.1600 
 10 C       -2.6380    -4.4690     0.1450 C.3   1 <1>  -0.1600 
 11 N        2.6350    -2.6820     1.4020 N.2   1 <1>  -0.5130 
 12 C        3.4150    -2.5940     0.4020 C.2   1 <1>   0.3030 
 13 C       -3.8510    -3.7570    -0.4580 C.3   1 <1>   0.5600 
 14 C        4.8620    -2.4610     0.4650 C.ar  1 <1>   0.0860 
 15 O       -4.7430    -4.6810    -0.9790 O.3   1 <1>  -0.5600 
 16 O       -4.5550    -3.0820     0.5330 O.3   1 <1>  -0.5600 
 17 C        5.7110    -2.1810    -0.6250 C.ar  1 <1>   0.0820 
 18 C        5.4910    -2.6180     1.7050 C.ar  1 <1>  -0.1500 
 19 C       -5.6670    -5.0150    -0.0090 C.3   1 <1>   0.1200 
 20 C       -5.5750    -3.8880     1.0020 C.3   1 <1>   0.1200 
 21 O        5.2350    -1.9940    -1.8670 O.3   1 <1>  -0.5320 
 22 C        7.0850    -2.0770    -0.4690 C.ar  1 <1>  -0.1500 
 23 C        6.8600    -2.5140     1.8640 C.ar  1 <1>  -0.1500 
 24 C        7.6640    -2.2430     0.7740 C.ar  1 <1>  -0.1500 
 25 H        1.1120    -4.1030    -0.4750 H     1 <1>   0.0800 
 26 H       -2.1110    -1.1280    -1.8340 H     1 <1>   0.0800 
 27 H       -2.8370    -1.1770    -0.2520 H     1 <1>   0.0800 
 28 H       -2.0140    -2.8720     1.4410 H     1 <1>   0.0800 
 29 H       -0.7470    -3.9810     1.0060 H     1 <1>   0.0800 
 30 H        2.6290    -1.6960    -1.3580 H     1 <1>   0.0800 
 31 H        3.0060    -3.4070    -1.5590 H     1 <1>   0.0800 
 32 H       -3.0430    -3.3080    -2.3840 H     1 <1>   0.0800 
 33 H       -4.3290    -2.2420    -1.8860 H     1 <1>   0.0800 
 34 H       -2.9410    -5.0950     0.9620 H     1 <1>   0.0800 
 35 H       -2.1860    -5.0870    -0.6080 H     1 <1>   0.0800 
 36 H        4.8900    -2.8280     2.5740 H     1 <1>   0.1500 
 37 H       -5.3930    -5.9590     0.4260 H     1 <1>   0.0800 
 38 H       -6.6420    -5.0800    -0.4580 H     1 <1>   0.0800 
 39 H       -6.4820    -3.3110     1.0430 H     1 <1>   0.0800 
 40 H       -5.3180    -4.2510     1.9810 H     1 <1>   0.0800 
 41 H        5.9210    -1.7610    -2.5200 H     1 <1>   0.4500 
 42 H        7.7160    -1.8650    -1.3130 H     1 <1>   0.1500 
 43 H        7.3000    -2.6430     2.8390 H     1 <1>   0.1500 
 44 H        8.7310    -2.1620     0.8950 H     1 <1>   0.1500 
@<TRIPOS>BOND
  1   1   2  2   
  2   2   3  am  
  3   2   4  1   
  4   3   5  1   
  5   3   6  1   
  6   4   7  1   
  7   4   8  1   
  8   4  25  1   
  9   5   9  1   
 10   5  26  1   
 11   5  27  1   
 12   6  10  1   
 13   6  28  1   
 14   6  29  1   
 15   7  11  1   
 16   8  12  1   
 17   8  30  1   
 18   8  31  1   
 19   9  13  1   
 20   9  32  1   
 21   9  33  1   
 22  10  13  1   
 23  10  34  1   
 24  10  35  1   
 25  11  12  2   
 26  12  14  1   
 27  13  15  1   
 28  13  16  1   
 29  14  17  ar  
 30  14  18  ar  
 31  15  19  1   
 32  16  20  1   
 33  17  21  1   
 34  17  22  ar  
 35  18  23  ar  
 36  18  36  1   
 37  19  20  1   
 38  19  37  1   
 39  19  38  1   
 40  20  39  1   
 41  20  40  1   
 42  21  41  1   
 43  22  24  ar  
 44  22  42  1   
 45  23  24  ar  
 46  23  43  1   
 47  24  44  1   
@<TRIPOS>SUBSTRUCTURE
  1 ****   4 GROUP 4 **** **** 0

# MOE 2024.06 (io_trps.svl 2023.06)
