@<TRIPOS>MOLECULE
NONAME
40 42 1 0 0 
SMALL
USER_CHARGES


@<TRIPOS>ATOM
  1 F       -0.3690     1.7400     2.1780 F     1 <1>  -0.1900 
  2 C        0.6350     1.6150     1.3420 C.ar  1 <1>   0.1900 
  3 C        0.6410     2.3430     0.1450 C.ar  1 <1>   0.1000 
  4 C        1.6530     0.7520     1.6980 C.ar  1 <1>  -0.1500 
  5 N       -0.3630     3.2290    -0.2640 N.pl3 1 <1>  -0.8380 
  6 C        1.7350     2.1620    -0.6910 C.ar  1 <1>  -0.1500 
  7 C        2.7290     0.5940     0.8410 C.ar  1 <1>  -0.1500 
  8 C       -0.5150     4.4660     0.5590 C.3   1 <1>   0.2090 
  9 C       -1.6890     2.6140    -0.5640 C.3   1 <1>   0.2090 
 10 C        2.7670     1.3000    -0.3520 C.ar  1 <1>  -0.1500 
 11 C       -1.4840     5.4590    -0.1110 C.3   1 <1>   0.1100 
 12 C       -2.6380     3.6400    -1.2120 C.3   1 <1>   0.1100 
 13 N       -2.8110     4.8530    -0.3710 N.3   1 <1>  -0.8100 
 14 C       -3.7240     5.8330    -1.0310 C.3   1 <1>   0.1710 
 15 C       -5.1970     5.4180    -1.0130 C.2   1 <1>   0.5690 
 16 O       -5.9470     5.8520    -1.8560 O.2   1 <1>  -0.5700 
 17 N       -5.5950     4.5670    -0.0320 N.am  1 <1>  -0.5790 
 18 C       -6.9400     4.0210     0.1740 C.3   1 <1>   0.0490 
 19 C       -7.3670     3.7170     1.5710 C.3   1 <1>  -0.2000 
 20 C       -7.0590     2.6010     0.6180 C.3   1 <1>  -0.2000 
 21 H        1.6030     0.2150     2.6280 H     1 <1>   0.1500 
 22 H        1.7670     2.7080    -1.6160 H     1 <1>   0.1500 
 23 H        3.5330    -0.0740     1.0990 H     1 <1>   0.1500 
 24 H        0.4480     4.9300     0.6800 H     1 <1>   0.0800 
 25 H       -0.8900     4.2100     1.5340 H     1 <1>   0.0800 
 26 H       -2.1340     2.2460     0.3430 H     1 <1>   0.0800 
 27 H       -1.5500     1.7830    -1.2330 H     1 <1>   0.0800 
 28 H        3.6020     1.1790    -1.0200 H     1 <1>   0.1500 
 29 H       -1.0460     5.7950    -1.0350 H     1 <1>   0.0800 
 30 H       -1.6020     6.3110     0.5350 H     1 <1>   0.0800 
 31 H       -3.5930     3.1700    -1.3730 H     1 <1>   0.0800 
 32 H       -2.2370     3.9150    -2.1730 H     1 <1>   0.0800 
 33 H       -3.4200     5.9910    -2.0510 H     1 <1>   0.0800 
 34 H       -3.6600     6.7760    -0.5190 H     1 <1>   0.0800 
 35 H       -4.8530     4.2300     0.5890 H     1 <1>   0.3700 
 36 H       -7.6690     4.4120    -0.5200 H     1 <1>   0.1000 
 37 H       -8.3940     3.8860     1.8430 H     1 <1>   0.1000 
 38 H       -6.6840     3.9230     2.3770 H     1 <1>   0.1000 
 39 H       -6.1620     2.0240     0.7590 H     1 <1>   0.1000 
 40 H       -7.8780     2.0120     0.2440 H     1 <1>   0.1000 
@<TRIPOS>BOND
  1   1   2  1   
  2   2   3  ar  
  3   2   4  ar  
  4   3   5  1   
  5   3   6  ar  
  6   4   7  ar  
  7   4  21  1   
  8   5   8  1   
  9   5   9  1   
 10   6  10  ar  
 11   6  22  1   
 12   7  10  ar  
 13   7  23  1   
 14   8  11  1   
 15   8  24  1   
 16   8  25  1   
 17   9  12  1   
 18   9  26  1   
 19   9  27  1   
 20  10  28  1   
 21  11  13  1   
 22  11  29  1   
 23  11  30  1   
 24  12  13  1   
 25  12  31  1   
 26  12  32  1   
 27  13  14  1   
 28  14  15  1   
 29  14  33  1   
 30  14  34  1   
 31  15  16  2   
 32  15  17  am  
 33  17  18  1   
 34  17  35  1   
 35  18  19  1   
 36  18  20  1   
 37  18  36  1   
 38  19  20  1   
 39  19  37  1   
 40  19  38  1   
 41  20  39  1   
 42  20  40  1   
@<TRIPOS>SUBSTRUCTURE
  1 ****   9 GROUP 4 **** **** 0

# MOE 2024.06 (io_trps.svl 2023.06)
