@<TRIPOS>MOLECULE
NONAME
42 42 1 0 0 
SMALL
USER_CHARGES


@<TRIPOS>ATOM
  1 O        2.3150     1.5700    -1.7620 O.2   1 <1>  -0.5700 
  2 C        1.3490     1.7810    -1.0700 C.2   1 <1>   0.5690 
  3 N        1.0160     1.0160     0.0050 N.am  1 <1>  -0.7300 
  4 C        0.4570     2.9600    -1.4220 C.3   1 <1>   0.0440 
  5 C        1.6160    -0.2340     0.4820 C.3   1 <1>   0.3000 
  6 C       -0.9360     2.8460    -0.8070 C.ar  1 <1>  -0.1440 
  7 C        1.5030    -1.3320    -0.5980 C.3   1 <1>  -0.1600 
  8 C        0.8490    -0.6190     1.7490 C.3   1 <1>  -0.2400 
  9 C        3.0800     0.0140     0.8510 C.3   1 <1>  -0.2400 
 10 C       -1.8750     2.0020    -1.3800 C.ar  1 <1>  -0.1500 
 11 C       -1.2650     3.5540     0.3400 C.ar  1 <1>  -0.1500 
 12 C        0.0790    -1.6310    -1.1060 C.3   1 <1>  -0.2400 
 13 C       -3.1290     1.8520    -0.8130 C.ar  1 <1>   0.0830 
 14 C       -2.5230     3.4240     0.9030 C.ar  1 <1>  -0.1500 
 15 O       -3.9780     0.9740    -1.4010 O.3   1 <1>  -0.3630 
 16 C       -3.4650     2.5880     0.3280 C.ar  1 <1>   0.0830 
 17 C       -4.2880    -0.1830    -0.6570 C.3   1 <1>   0.0400 
 18 O       -4.6860     2.5260     0.9140 O.3   1 <1>  -0.3630 
 19 C       -5.7730     3.0070     0.1530 C.3   1 <1>   0.0400 
 20 H        0.1310     1.2380     0.4640 H     1 <1>   0.3700 
 21 H        0.3720     3.0140    -2.4920 H     1 <1>   0.0800 
 22 H        0.9400     3.8590    -1.0890 H     1 <1>   0.0800 
 23 H        1.9220    -2.2420    -0.2070 H     1 <1>   0.0800 
 24 H        2.1120    -1.0500    -1.4390 H     1 <1>   0.0800 
 25 H        1.2090    -1.5590     2.1260 H     1 <1>   0.0800 
 26 H       -0.2030    -0.7140     1.5540 H     1 <1>   0.0800 
 27 H        0.9920     0.1240     2.5140 H     1 <1>   0.0800 
 28 H        3.5060    -0.8670     1.2940 H     1 <1>   0.0800 
 29 H        3.1600     0.8230     1.5540 H     1 <1>   0.0800 
 30 H        3.6580     0.2560    -0.0230 H     1 <1>   0.0800 
 31 H       -1.6390     1.4420    -2.2670 H     1 <1>   0.1500 
 32 H       -0.5460     4.2100     0.8010 H     1 <1>   0.1500 
 33 H       -0.5430    -2.0120    -0.3170 H     1 <1>   0.0800 
 34 H        0.1230    -2.3700    -1.8860 H     1 <1>   0.0800 
 35 H       -0.3740    -0.7440    -1.5110 H     1 <1>   0.0800 
 36 H       -2.7830     3.9750     1.7890 H     1 <1>   0.1500 
 37 H       -4.8250     0.0970     0.2310 H     1 <1>   0.0800 
 38 H       -4.8990    -0.8220    -1.2690 H     1 <1>   0.0800 
 39 H       -3.3720    -0.6850    -0.3990 H     1 <1>   0.0800 
 40 H       -5.5490     4.0060    -0.1790 H     1 <1>   0.0800 
 41 H       -5.9320     2.3610    -0.6910 H     1 <1>   0.0800 
 42 H       -6.6460     3.0130     0.7800 H     1 <1>   0.0800 
@<TRIPOS>BOND
  1   1   2  2   
  2   2   3  am  
  3   2   4  1   
  4   3   5  1   
  5   3  20  1   
  6   4   6  1   
  7   4  21  1   
  8   4  22  1   
  9   5   7  1   
 10   5   8  1   
 11   5   9  1   
 12   6  10  ar  
 13   6  11  ar  
 14   7  12  1   
 15   7  23  1   
 16   7  24  1   
 17   8  25  1   
 18   8  26  1   
 19   8  27  1   
 20   9  28  1   
 21   9  29  1   
 22   9  30  1   
 23  10  13  ar  
 24  10  31  1   
 25  11  14  ar  
 26  11  32  1   
 27  12  33  1   
 28  12  34  1   
 29  12  35  1   
 30  13  15  1   
 31  13  16  ar  
 32  14  16  ar  
 33  14  36  1   
 34  15  17  1   
 35  16  18  1   
 36  17  37  1   
 37  17  38  1   
 38  17  39  1   
 39  18  19  1   
 40  19  40  1   
 41  19  41  1   
 42  19  42  1   
@<TRIPOS>SUBSTRUCTURE
  1 ****  10 GROUP 4 **** **** 0

# MOE 2024.06 (io_trps.svl 2023.06)
