@<TRIPOS>MOLECULE
NONAME
36 37 1 0 0 
SMALL
USER_CHARGES


@<TRIPOS>ATOM
  1 O        1.8990     0.1270    -1.7480 O.3   1 <1>  -0.5120 
  2 C        2.6110    -0.8370    -1.1420 C.2   1 <1>   0.3510 
  3 N        2.2920    -2.0730    -1.2620 N.2   1 <1>  -0.7070 
  4 C        3.7420    -0.5890    -0.3400 C.ar  1 <1>   0.0000 
  5 N        3.2310    -2.7260    -0.5180 N.pl3 1 <1>   0.3140 
  6 C        4.4900     0.5070     0.1080 C.ar  1 <1>  -0.1440 
  7 C        4.1220    -1.8580     0.0510 C.ar  1 <1>   0.1050 
  8 C        3.2510    -4.2080    -0.3520 C.3   1 <1>   0.1760 
  9 C        5.5590     0.2130     0.9150 C.ar  1 <1>  -0.1500 
 10 C        4.1380     1.9340    -0.2770 C.3   1 <1>  -0.0960 
 11 N        5.1720    -2.1520     0.8440 N.ar  1 <1>  -0.5670 
 12 C        3.3190    -4.8850    -1.7380 C.3   1 <1>  -0.1600 
 13 C        2.0390    -4.6810     0.4820 C.3   1 <1>  -0.1600 
 14 C        5.8580    -1.1170     1.2530 C.ar  1 <1>   0.1670 
 15 C        3.6150    -6.3910    -1.6750 C.3   1 <1>  -0.2400 
 16 C        1.9820    -4.0440     1.8790 C.3   1 <1>  -0.2400 
 17 C        7.0450    -1.4090     2.1470 C.3   1 <1>  -0.0970 
 18 H        2.2810     0.9920    -1.5450 H     1 <1>   0.4500 
 19 H        4.1480    -4.4570     0.1850 H     1 <1>   0.0800 
 20 H        6.1830     0.9980     1.3000 H     1 <1>   0.1500 
 21 H        3.1490     2.1770     0.0700 H     1 <1>   0.0800 
 22 H        4.1820     2.0500    -1.3460 H     1 <1>   0.0800 
 23 H        4.8300     2.6270     0.1660 H     1 <1>   0.0800 
 24 H        4.1030    -4.4150    -2.3070 H     1 <1>   0.0800 
 25 H        2.3920    -4.7250    -2.2610 H     1 <1>   0.0800 
 26 H        2.0890    -5.7460     0.6060 H     1 <1>   0.0800 
 27 H        1.1310    -4.4570    -0.0530 H     1 <1>   0.0800 
 28 H        3.7470    -6.7760    -2.6720 H     1 <1>   0.0800 
 29 H        2.8030    -6.9270    -1.2170 H     1 <1>   0.0800 
 30 H        4.5160    -6.5770    -1.1180 H     1 <1>   0.0800 
 31 H        2.8990    -4.2200     2.4130 H     1 <1>   0.0800 
 32 H        1.1690    -4.4660     2.4420 H     1 <1>   0.0800 
 33 H        1.8240    -2.9810     1.8070 H     1 <1>   0.0800 
 34 H        7.5490    -0.5060     2.4360 H     1 <1>   0.0800 
 35 H        7.7390    -2.0430     1.6250 H     1 <1>   0.0800 
 36 H        6.7100    -1.9190     3.0320 H     1 <1>   0.0800 
@<TRIPOS>BOND
  1   1   2  1   
  2   1  18  1   
  3   2   3  2   
  4   2   4  1   
  5   3   5  1   
  6   4   6  ar  
  7   4   7  ar  
  8   5   7  1   
  9   5   8  1   
 10   6   9  ar  
 11   6  10  1   
 12   7  11  ar  
 13   8  12  1   
 14   8  13  1   
 15   8  19  1   
 16   9  14  ar  
 17   9  20  1   
 18  10  21  1   
 19  10  22  1   
 20  10  23  1   
 21  11  14  ar  
 22  12  15  1   
 23  12  24  1   
 24  12  25  1   
 25  13  16  1   
 26  13  26  1   
 27  13  27  1   
 28  14  17  1   
 29  15  28  1   
 30  15  29  1   
 31  15  30  1   
 32  16  31  1   
 33  16  32  1   
 34  16  33  1   
 35  17  34  1   
 36  17  35  1   
 37  17  36  1   
@<TRIPOS>SUBSTRUCTURE
  1 ****   7 GROUP 4 **** **** 0

# MOE 2024.06 (io_trps.svl 2023.06)
