@<TRIPOS>MOLECULE
NONAME
45 46 1 0 0 
SMALL
USER_CHARGES


@<TRIPOS>ATOM
  1 O        0.6250    -1.3700     0.9290 O.2   1 <1>  -0.5700 
  2 C        0.2070    -2.1030     0.0530 C.2   1 <1>   0.5440 
  3 N        1.1270    -2.5750    -0.8560 N.am  1 <1>  -0.6600 
  4 C       -1.1860    -2.5210     0.0220 C.ar  1 <1>   0.0860 
  5 C        2.3650    -1.7820    -1.1050 C.3   1 <1>   0.1400 
  6 C        1.3420    -4.0450    -0.9670 C.3   1 <1>   0.1400 
  7 C       -1.9470    -2.5740     1.1890 C.ar  1 <1>  -0.1500 
  8 C       -1.8150    -2.8920    -1.1670 C.ar  1 <1>  -0.1500 
  9 C        3.4540    -2.1970    -0.0990 C.3   1 <1>   0.3430 
 10 C        2.4490    -4.4840     0.0160 C.3   1 <1>   0.3430 
 11 C       -3.2640    -2.9950     1.1750 C.ar  1 <1>  -0.1500 
 12 C       -3.1310    -3.3150    -1.1870 C.ar  1 <1>  -0.1500 
 13 N        3.7200    -3.6820    -0.1390 N.4   1 <1>  -0.9590 
 14 C       -3.8660    -3.3720    -0.0140 C.ar  1 <1>  -0.1430 
 15 C        4.7330    -4.0550     0.8700 C.3   1 <1>   0.4810 
 16 C       -5.3140    -3.8360    -0.0320 C.3   1 <1>  -0.0170 
 17 C        5.2650    -5.4150     0.4840 C.2   1 <1>  -0.2880 
 18 C       -5.3970    -5.3540     0.1650 C.3   1 <1>  -0.1600 
 19 C        6.4510    -5.6430    -0.0910 C.2   1 <1>  -0.3000 
 20 C       -6.8480    -5.8460     0.1510 C.3   1 <1>  -0.2400 
 21 H        2.1520    -0.7320    -0.9880 H     1 <1>   0.0800 
 22 H        2.7040    -1.9380    -2.1140 H     1 <1>   0.0800 
 23 H        1.6190    -4.2950    -1.9760 H     1 <1>   0.0800 
 24 H        0.4330    -4.5720    -0.7340 H     1 <1>   0.0800 
 25 H       -1.4990    -2.2770     2.1220 H     1 <1>   0.1500 
 26 H       -1.2680    -2.8440    -2.0930 H     1 <1>   0.1500 
 27 H        3.1180    -1.9130     0.8860 H     1 <1>   0.0800 
 28 H        4.3590    -1.6520    -0.3120 H     1 <1>   0.0800 
 29 H        2.6550    -5.5310    -0.1340 H     1 <1>   0.0800 
 30 H        2.0710    -4.3640     1.0190 H     1 <1>   0.0800 
 31 H       -3.8230    -3.0270     2.0940 H     1 <1>   0.1500 
 32 H       -3.5880    -3.5980    -2.1200 H     1 <1>   0.1500 
 33 H        4.1320    -3.9150    -1.0510 H     1 <1>   0.4500 
 34 H        4.3110    -4.0710     1.8620 H     1 <1>   0.0800 
 35 H        5.5440    -3.3440     0.8520 H     1 <1>   0.0800 
 36 H       -5.7670    -3.5660    -0.9700 H     1 <1>   0.0800 
 37 H       -5.8610    -3.3370     0.7480 H     1 <1>   0.0800 
 38 H        4.5900    -6.2180     0.7280 H     1 <1>   0.1500 
 39 H       -4.9400    -5.6160     1.1050 H     1 <1>   0.0800 
 40 H       -4.8450    -5.8460    -0.6180 H     1 <1>   0.0800 
 41 H        6.8110    -6.6270    -0.3520 H     1 <1>   0.1500 
 42 H        7.1730    -4.8860    -0.3510 H     1 <1>   0.1500 
 43 H       -7.4110    -5.3830     0.9420 H     1 <1>   0.0800 
 44 H       -6.8760    -6.9130     0.2920 H     1 <1>   0.0800 
 45 H       -7.3160    -5.6150    -0.7900 H     1 <1>   0.0800 
@<TRIPOS>BOND
  1   1   2  2   
  2   2   3  am  
  3   2   4  1   
  4   3   5  1   
  5   3   6  1   
  6   4   7  ar  
  7   4   8  ar  
  8   5   9  1   
  9   5  21  1   
 10   5  22  1   
 11   6  10  1   
 12   6  23  1   
 13   6  24  1   
 14   7  11  ar  
 15   7  25  1   
 16   8  12  ar  
 17   8  26  1   
 18   9  13  1   
 19   9  27  1   
 20   9  28  1   
 21  10  13  1   
 22  10  29  1   
 23  10  30  1   
 24  11  14  ar  
 25  11  31  1   
 26  12  14  ar  
 27  12  32  1   
 28  13  15  1   
 29  13  33  1   
 30  14  16  1   
 31  15  17  1   
 32  15  34  1   
 33  15  35  1   
 34  16  18  1   
 35  16  36  1   
 36  16  37  1   
 37  17  19  2   
 38  17  38  1   
 39  18  20  1   
 40  18  39  1   
 41  18  40  1   
 42  19  41  1   
 43  19  42  1   
 44  20  43  1   
 45  20  44  1   
 46  20  45  1   
@<TRIPOS>SUBSTRUCTURE
  1 ****   2 GROUP 4 **** **** 0

# MOE 2024.06 (io_trps.svl 2023.06)
