@<TRIPOS>MOLECULE
NONAME
47 49 1 0 0 
SMALL
USER_CHARGES


@<TRIPOS>ATOM
  1 O       -0.6050     4.5570     1.7630 O.2   1 <1>  -0.5700 
  2 C       -0.6690     3.8760     0.7620 C.2   1 <1>   0.5690 
  3 N       -1.8620     3.2890     0.3990 N.am  1 <1>  -0.6600 
  4 C        0.6070     3.7030    -0.1050 C.3   1 <1>   0.2610 
  5 C       -2.0570     2.4010    -0.7910 C.3   1 <1>   0.1400 
  6 C       -3.0960     3.4430     1.2280 C.3   1 <1>   0.1400 
  7 O        0.9800     2.3530    -0.2020 O.3   1 <1>  -0.5600 
  8 C        1.8760     4.3660     0.4360 C.3   1 <1>  -0.1600 
  9 C       -3.2420     2.8750    -1.6460 C.3   1 <1>   0.1400 
 10 C       -4.2830     3.9180     0.3770 C.3   1 <1>   0.1400 
 11 C        1.7800     2.0050     0.8830 C.3   1 <1>   0.1200 
 12 C        2.4860     3.2880     1.3190 C.3   1 <1>  -0.1600 
 13 N       -4.4800     3.0420    -0.8220 N.am  1 <1>  -0.6600 
 14 C       -5.6800     2.5020    -1.2230 C.2   1 <1>   0.5690 
 15 O       -5.7600     1.8270    -2.2230 O.2   1 <1>  -0.5700 
 16 C       -6.9640     2.7110    -0.4270 C.3   1 <1>   0.0440 
 17 C       -7.3920     4.1790    -0.2980 C.ar  1 <1>  -0.1440 
 18 C       -7.8940     4.7110     0.8890 C.ar  1 <1>  -0.1440 
 19 C       -7.2720     5.0000    -1.4110 C.ar  1 <1>  -0.1500 
 20 C       -8.2420     6.0530     0.9420 C.ar  1 <1>  -0.1500 
 21 C       -8.0870     3.8700     2.1440 C.3   1 <1>  -0.0970 
 22 C       -7.6230     6.3360    -1.3500 C.ar  1 <1>  -0.1500 
 23 C       -8.1070     6.8650    -0.1690 C.ar  1 <1>  -0.1500 
 24 H        0.3960     4.0630    -1.0950 H     1 <1>   0.0800 
 25 H       -2.2460     1.3980    -0.4530 H     1 <1>   0.0800 
 26 H       -1.1790     2.3750    -1.4090 H     1 <1>   0.0800 
 27 H       -2.9340     4.1500     2.0240 H     1 <1>   0.0800 
 28 H       -3.3360     2.4960     1.6760 H     1 <1>   0.0800 
 29 H        1.6780     5.2800     0.9670 H     1 <1>   0.0800 
 30 H        2.5320     4.5790    -0.3890 H     1 <1>   0.0800 
 31 H       -3.4060     2.1630    -2.4370 H     1 <1>   0.0800 
 32 H       -2.9970     3.8180    -2.1010 H     1 <1>   0.0800 
 33 H       -4.1020     4.9270     0.0490 H     1 <1>   0.0800 
 34 H       -5.1580     3.9310     0.9980 H     1 <1>   0.0800 
 35 H        2.4730     1.2430     0.5700 H     1 <1>   0.0800 
 36 H        1.1410     1.6280     1.6640 H     1 <1>   0.0800 
 37 H        2.2770     3.4780     2.3570 H     1 <1>   0.0800 
 38 H        3.5500     3.2150     1.1810 H     1 <1>   0.0800 
 39 H       -6.8160     2.2560     0.5310 H     1 <1>   0.0800 
 40 H       -7.7570     2.1740    -0.9140 H     1 <1>   0.0800 
 41 H       -6.9010     4.6050    -2.3420 H     1 <1>   0.1500 
 42 H       -8.6270     6.4800     1.8510 H     1 <1>   0.1500 
 43 H       -8.6720     2.9970     1.9180 H     1 <1>   0.0800 
 44 H       -8.6050     4.4260     2.9050 H     1 <1>   0.0800 
 45 H       -7.1340     3.5680     2.5390 H     1 <1>   0.0800 
 46 H       -7.5210     6.9600    -2.2200 H     1 <1>   0.1500 
 47 H       -8.3800     7.9040    -0.1160 H     1 <1>   0.1500 
@<TRIPOS>BOND
  1   1   2  2   
  2   2   3  am  
  3   2   4  1   
  4   3   5  1   
  5   3   6  1   
  6   4   7  1   
  7   4   8  1   
  8   4  24  1   
  9   5   9  1   
 10   5  25  1   
 11   5  26  1   
 12   6  10  1   
 13   6  27  1   
 14   6  28  1   
 15   7  11  1   
 16   8  12  1   
 17   8  29  1   
 18   8  30  1   
 19   9  13  1   
 20   9  31  1   
 21   9  32  1   
 22  10  13  1   
 23  10  33  1   
 24  10  34  1   
 25  11  12  1   
 26  11  35  1   
 27  11  36  1   
 28  12  37  1   
 29  12  38  1   
 30  13  14  am  
 31  14  15  2   
 32  14  16  1   
 33  16  17  1   
 34  16  39  1   
 35  16  40  1   
 36  17  18  ar  
 37  17  19  ar  
 38  18  20  ar  
 39  18  21  1   
 40  19  22  ar  
 41  19  41  1   
 42  20  23  ar  
 43  20  42  1   
 44  21  43  1   
 45  21  44  1   
 46  21  45  1   
 47  22  23  ar  
 48  22  46  1   
 49  23  47  1   
@<TRIPOS>SUBSTRUCTURE
  1 ****  10 GROUP 4 **** **** 0

# MOE 2024.06 (io_trps.svl 2023.06)
