@<TRIPOS>MOLECULE
NONAME
43 45 1 0 0 
SMALL
USER_CHARGES


@<TRIPOS>ATOM
  1 O        1.4130    -4.5100    -0.5200 O.2   1 <1>  -0.5700 
  2 C        0.8330    -3.5440    -0.0790 C.2   1 <1>   0.5690 
  3 N        1.4730    -2.3530     0.1620 N.am  1 <1>  -0.5470 
  4 C       -0.6870    -3.6160     0.2290 C.3   1 <1>   0.2040 
  5 C        2.8030    -1.9320     0.0180 C.ar  1 <1>   0.1170 
  6 C       -1.2370    -2.1810     0.4150 C.ar  1 <1>  -0.1440 
  7 C       -1.4610    -4.3750    -0.8700 C.3   1 <1>  -0.1600 
  8 C       -0.9500    -4.5120     1.4550 C.3   1 <1>  -0.1600 
  9 C        3.8700    -2.8000    -0.1850 C.ar  1 <1>  -0.1500 
 10 C        3.0720    -0.5710     0.0940 C.ar  1 <1>  -0.1500 
 11 C       -1.5750    -1.4150    -0.6960 C.ar  1 <1>  -0.1500 
 12 C       -1.3530    -1.5980     1.6740 C.ar  1 <1>  -0.1500 
 13 C       -1.4000    -5.8680    -0.5230 C.3   1 <1>  -0.1600 
 14 C       -0.9740    -5.9530     0.9440 C.3   1 <1>  -0.1600 
 15 C        5.1620    -2.3230    -0.3140 C.ar  1 <1>  -0.1500 
 16 C        4.3620    -0.0890    -0.0320 C.ar  1 <1>  -0.1500 
 17 C       -2.0290    -0.1150    -0.5550 C.ar  1 <1>  -0.1500 
 18 C       -1.8060    -0.2990     1.8170 C.ar  1 <1>  -0.1500 
 19 C        5.4200    -0.9620    -0.2370 C.ar  1 <1>  -0.1440 
 20 C       -2.1450     0.4450     0.7030 C.ar  1 <1>  -0.1500 
 21 C        6.8420    -0.4310    -0.3730 C.3   1 <1>   0.1830 
 22 C        7.0390     0.3150    -1.6480 C.1   1 <1>   0.3570 
 23 N        7.2170     0.9000    -2.6070 N.1   1 <1>  -0.5570 
 24 H        0.8260    -1.6120     0.4440 H     1 <1>   0.3700 
 25 H       -1.0550    -4.1860    -1.8490 H     1 <1>   0.0800 
 26 H       -2.4920    -4.0670    -0.8550 H     1 <1>   0.0800 
 27 H       -1.9220    -4.2870     1.8600 H     1 <1>   0.0800 
 28 H       -0.2080    -4.3780     2.2230 H     1 <1>   0.0800 
 29 H        3.7000    -3.8590    -0.2440 H     1 <1>   0.1500 
 30 H        2.2640     0.1210     0.2490 H     1 <1>   0.1500 
 31 H       -1.4850    -1.8180    -1.6900 H     1 <1>   0.1500 
 32 H       -1.0880    -2.1410     2.5640 H     1 <1>   0.1500 
 33 H       -0.6680    -6.3620    -1.1400 H     1 <1>   0.0800 
 34 H       -2.3580    -6.3340    -0.6790 H     1 <1>   0.0800 
 35 H       -1.6450    -6.5650     1.5200 H     1 <1>   0.0800 
 36 H        0.0170    -6.3720     1.0010 H     1 <1>   0.0800 
 37 H        5.9610    -3.0260    -0.4760 H     1 <1>   0.1500 
 38 H        4.5350     0.9720     0.0270 H     1 <1>   0.1500 
 39 H       -2.2900     0.4610    -1.4260 H     1 <1>   0.1500 
 40 H       -1.8940     0.1350     2.7980 H     1 <1>   0.1500 
 41 H       -2.5000     1.4550     0.8140 H     1 <1>   0.1500 
 42 H        7.5470    -1.2400    -0.3390 H     1 <1>   0.0800 
 43 H        7.0550     0.2290     0.4470 H     1 <1>   0.0800 
@<TRIPOS>BOND
  1   1   2  2   
  2   2   3  am  
  3   2   4  1   
  4   3   5  1   
  5   3  24  1   
  6   4   6  1   
  7   4   7  1   
  8   4   8  1   
  9   5   9  ar  
 10   5  10  ar  
 11   6  11  ar  
 12   6  12  ar  
 13   7  13  1   
 14   7  25  1   
 15   7  26  1   
 16   8  14  1   
 17   8  27  1   
 18   8  28  1   
 19   9  15  ar  
 20   9  29  1   
 21  10  16  ar  
 22  10  30  1   
 23  11  17  ar  
 24  11  31  1   
 25  12  18  ar  
 26  12  32  1   
 27  13  14  1   
 28  13  33  1   
 29  13  34  1   
 30  14  35  1   
 31  14  36  1   
 32  15  19  ar  
 33  15  37  1   
 34  16  19  ar  
 35  16  38  1   
 36  17  20  ar  
 37  17  39  1   
 38  18  20  ar  
 39  18  40  1   
 40  19  21  1   
 41  20  41  1   
 42  21  22  1   
 43  21  42  1   
 44  21  43  1   
 45  22  23  3   
@<TRIPOS>SUBSTRUCTURE
  1 ****   3 GROUP 4 **** **** 0

# MOE 2024.06 (io_trps.svl 2023.06)
