@<TRIPOS>MOLECULE
NONAME
39 39 1 0 0 
SMALL
USER_CHARGES


@<TRIPOS>ATOM
  1 O        3.0310     3.0080     0.0470 O.3   1 <1>  -0.3630 
  2 C        4.2270     2.3580     0.0600 C.ar  1 <1>   0.0830 
  3 C        1.8050     2.3300     0.0430 C.3   1 <1>   0.1200 
  4 C        5.3890     3.1320     0.0510 C.ar  1 <1>   0.0830 
  5 C        4.3330     0.9710     0.0810 C.ar  1 <1>  -0.1500 
  6 C        0.7200     3.4080     0.0200 C.3   1 <1>   0.3430 
  7 O        5.2450     4.4900     0.0300 O.3   1 <1>  -0.3630 
  8 C        6.6310     2.5060     0.0620 C.ar  1 <1>  -0.1500 
  9 C        5.5770     0.3690     0.0930 C.ar  1 <1>  -0.1500 
 10 N       -0.6550     2.8220     0.0120 N.4   1 <1>  -0.9060 
 11 C        6.3630     5.3510     0.0130 C.3   1 <1>   0.0400 
 12 C        6.7500     1.1190     0.0820 C.ar  1 <1>   0.0280 
 13 C       -1.6990     3.8690    -0.0090 C.3   1 <1>   0.3430 
 14 C        8.0620     0.5060     0.0940 C.2   1 <1>  -0.1780 
 15 C       -3.0570     3.1840    -0.0160 C.3   1 <1>  -0.2400 
 16 C        8.3800    -0.7920    -0.0510 C.2   1 <1>  -0.2880 
 17 C        9.7950    -1.3390    -0.0220 C.3   1 <1>  -0.1020 
 18 H        1.7670     1.7160    -0.8400 H     1 <1>   0.0800 
 19 H        1.7490     1.7360     0.9380 H     1 <1>   0.0800 
 20 H        3.4670     0.3380     0.0910 H     1 <1>   0.1500 
 21 H        0.8600     4.0160    -0.8590 H     1 <1>   0.0800 
 22 H        0.8430     4.0350     0.8890 H     1 <1>   0.0800 
 23 H        7.5330     3.0840     0.0540 H     1 <1>   0.1500 
 24 H        5.6360    -0.7030     0.1140 H     1 <1>   0.1500 
 25 H       -0.7770     2.2170    -0.8100 H     1 <1>   0.4500 
 26 H       -0.7930     2.2340     0.8450 H     1 <1>   0.4500 
 27 H        6.0030     6.3640    -0.0040 H     1 <1>   0.0800 
 28 H        6.9420     5.1550    -0.8720 H     1 <1>   0.0800 
 29 H        6.9450     5.1860     0.9020 H     1 <1>   0.0800 
 30 H       -1.6120     4.5010     0.8620 H     1 <1>   0.0800 
 31 H       -1.5940     4.4830    -0.8910 H     1 <1>   0.0800 
 32 H        8.8590     1.2140     0.2380 H     1 <1>   0.1500 
 33 H       -3.1930     2.5880     0.8700 H     1 <1>   0.0800 
 34 H       -3.1760     2.5700    -0.8910 H     1 <1>   0.0800 
 35 H       -3.8300     3.9320    -0.0310 H     1 <1>   0.0800 
 36 H        7.6470    -1.5650    -0.2050 H     1 <1>   0.1500 
 37 H        9.8960    -2.0530     0.7760 H     1 <1>   0.0800 
 38 H       10.5090    -0.5490     0.1320 H     1 <1>   0.0800 
 39 H       10.0190    -1.8270    -0.9540 H     1 <1>   0.0800 
@<TRIPOS>BOND
  1   1   2  1   
  2   1   3  1   
  3   2   4  ar  
  4   2   5  ar  
  5   3   6  1   
  6   3  18  1   
  7   3  19  1   
  8   4   7  1   
  9   4   8  ar  
 10   5   9  ar  
 11   5  20  1   
 12   6  10  1   
 13   6  21  1   
 14   6  22  1   
 15   7  11  1   
 16   8  12  ar  
 17   8  23  1   
 18   9  12  ar  
 19   9  24  1   
 20  10  13  1   
 21  10  25  1   
 22  10  26  1   
 23  11  27  1   
 24  11  28  1   
 25  11  29  1   
 26  12  14  1   
 27  13  15  1   
 28  13  30  1   
 29  13  31  1   
 30  14  16  2   
 31  14  32  1   
 32  15  33  1   
 33  15  34  1   
 34  15  35  1   
 35  16  17  1   
 36  16  36  1   
 37  17  37  1   
 38  17  38  1   
 39  17  39  1   
@<TRIPOS>SUBSTRUCTURE
  1 ****   2 GROUP 4 **** **** 0

# MOE 2024.06 (io_trps.svl 2023.06)
