@<TRIPOS>MOLECULE
NONAME
55 57 1 0 0 
SMALL
USER_CHARGES


@<TRIPOS>ATOM
  1 O       -0.9780     0.8590    -1.8570 O.2   1 <1>  -0.5700 
  2 C       -1.3580     1.9340    -1.4350 C.2   1 <1>   0.5440 
  3 N       -2.6940     2.2580    -1.5400 N.am  1 <1>  -0.6600 
  4 C       -0.4030     2.8380    -0.8250 C.ar  1 <1>   0.0860 
  5 C       -3.6550     1.3980    -2.3090 C.3   1 <1>   0.1400 
  6 C       -3.3820     3.2440    -0.6410 C.3   1 <1>   0.1400 
  7 C        0.4060     2.4220     0.2280 C.ar  1 <1>  -0.1500 
  8 C       -0.2570     4.1510    -1.2680 C.ar  1 <1>  -0.1500 
  9 C       -4.6370     0.6840    -1.3670 C.3   1 <1>   0.2090 
 10 C       -4.3820     2.5440     0.2980 C.3   1 <1>   0.2090 
 11 C        1.3150     3.2700     0.8330 C.ar  1 <1>   0.0820 
 12 C        0.6420     5.0180    -0.6750 C.ar  1 <1>  -0.1500 
 13 N       -5.3070     1.6710    -0.4750 N.pl3 1 <1>  -0.8380 
 14 O        2.0350     2.7250     1.8510 O.3   1 <1>  -0.3630 
 15 C        1.4360     4.5970     0.3910 C.ar  1 <1>   0.0830 
 16 C       -6.6010     1.4390     0.0000 C.ar  1 <1>   0.1000 
 17 C        3.4160     2.9950     1.9610 C.3   1 <1>   0.0400 
 18 O        2.3020     5.4430     1.0140 O.3   1 <1>  -0.3630 
 19 C       -6.8790     0.4410     0.9420 C.ar  1 <1>  -0.1430 
 20 C       -7.6510     2.2280    -0.4770 C.ar  1 <1>  -0.1430 
 21 C        2.4370     6.7990     0.6490 C.3   1 <1>   0.0400 
 22 C       -8.1780     0.2520     1.3840 C.ar  1 <1>  -0.1500 
 23 C       -5.7910    -0.4640     1.5080 C.3   1 <1>  -0.0970 
 24 C       -8.9410     2.0240    -0.0190 C.ar  1 <1>  -0.1500 
 25 C       -7.3960     3.3200    -1.5070 C.3   1 <1>  -0.0970 
 26 C       -9.2140     1.0370     0.9110 C.ar  1 <1>  -0.1430 
 27 C      -10.6320     0.8200     1.4080 C.3   1 <1>  -0.0970 
 28 H       -3.1270     0.6660    -2.8940 H     1 <1>   0.0800 
 29 H       -4.2130     2.0180    -2.9880 H     1 <1>   0.0800 
 30 H       -3.9150     3.9550    -1.2460 H     1 <1>   0.0800 
 31 H       -2.6690     3.7820    -0.0440 H     1 <1>   0.0800 
 32 H        0.3250     1.4090     0.5780 H     1 <1>   0.1500 
 33 H       -0.8600     4.4880    -2.0930 H     1 <1>   0.1500 
 34 H       -4.0930    -0.0300    -0.7740 H     1 <1>   0.0800 
 35 H       -5.3790     0.1570    -1.9400 H     1 <1>   0.0800 
 36 H       -4.9520     3.2790     0.8390 H     1 <1>   0.0800 
 37 H       -3.8390     1.9490     1.0100 H     1 <1>   0.0800 
 38 H        0.7080     6.0180    -1.0580 H     1 <1>   0.1500 
 39 H        3.8710     2.1920     2.5120 H     1 <1>   0.0800 
 40 H        3.5480     3.9190     2.4920 H     1 <1>   0.0800 
 41 H        3.8440     3.0560     0.9760 H     1 <1>   0.0800 
 42 H        3.1640     7.2480     1.3010 H     1 <1>   0.0800 
 43 H        1.4870     7.2890     0.7690 H     1 <1>   0.0800 
 44 H        2.7770     6.8550    -0.3700 H     1 <1>   0.0800 
 45 H       -8.3910    -0.5140     2.1070 H     1 <1>   0.1500 
 46 H       -4.9400     0.1170     1.8080 H     1 <1>   0.0800 
 47 H       -5.4870    -1.1740     0.7620 H     1 <1>   0.0800 
 48 H       -6.1460    -1.0020     2.3670 H     1 <1>   0.0800 
 49 H       -9.7440     2.6370    -0.3870 H     1 <1>   0.1500 
 50 H       -6.7540     4.0710    -1.0860 H     1 <1>   0.0800 
 51 H       -8.3130     3.7850    -1.8190 H     1 <1>   0.0800 
 52 H       -6.9160     2.8970    -2.3700 H     1 <1>   0.0800 
 53 H      -10.7860    -0.2130     1.6620 H     1 <1>   0.0800 
 54 H      -11.3420     1.0920     0.6490 H     1 <1>   0.0800 
 55 H      -10.8060     1.4240     2.2810 H     1 <1>   0.0800 
@<TRIPOS>BOND
  1   1   2  2   
  2   2   3  am  
  3   2   4  1   
  4   3   5  1   
  5   3   6  1   
  6   4   7  ar  
  7   4   8  ar  
  8   5   9  1   
  9   5  28  1   
 10   5  29  1   
 11   6  10  1   
 12   6  30  1   
 13   6  31  1   
 14   7  11  ar  
 15   7  32  1   
 16   8  12  ar  
 17   8  33  1   
 18   9  13  1   
 19   9  34  1   
 20   9  35  1   
 21  10  13  1   
 22  10  36  1   
 23  10  37  1   
 24  11  14  1   
 25  11  15  ar  
 26  12  15  ar  
 27  12  38  1   
 28  13  16  1   
 29  14  17  1   
 30  15  18  1   
 31  16  19  ar  
 32  16  20  ar  
 33  17  39  1   
 34  17  40  1   
 35  17  41  1   
 36  18  21  1   
 37  19  22  ar  
 38  19  23  1   
 39  20  24  ar  
 40  20  25  1   
 41  21  42  1   
 42  21  43  1   
 43  21  44  1   
 44  22  26  ar  
 45  22  45  1   
 46  23  46  1   
 47  23  47  1   
 48  23  48  1   
 49  24  26  ar  
 50  24  49  1   
 51  25  50  1   
 52  25  51  1   
 53  25  52  1   
 54  26  27  1   
 55  27  53  1   
 56  27  54  1   
 57  27  55  1   
@<TRIPOS>SUBSTRUCTURE
  1 ****   6 GROUP 4 **** **** 0

# MOE 2024.06 (io_trps.svl 2023.06)
