@<TRIPOS>MOLECULE
NONAME
32 34 1 0 0 
SMALL
USER_CHARGES


@<TRIPOS>ATOM
  1 S       -0.1910    -0.2100    -0.2970 S.3   1 <1>  -0.4600 
  2 C        1.3620     0.6890    -0.5530 C.3   1 <1>   0.0700 
  3 C        0.3110    -1.9370    -0.5090 C.3   1 <1>   0.0700 
  4 C        2.4370     0.1040     0.3720 C.3   1 <1>   0.3430 
  5 C        1.5010    -2.2270     0.4150 C.3   1 <1>   0.3430 
  6 N        2.6930    -1.3600     0.1140 N.4   1 <1>  -0.9590 
  7 C        3.8890    -1.8310     0.8670 C.3   1 <1>   0.4860 
  8 C        5.1120    -1.1210     0.3220 C.ar  1 <1>  -0.1440 
  9 C        5.6940    -0.0880     1.0530 C.ar  1 <1>  -0.1500 
 10 C        5.6530    -1.4950    -0.9110 C.ar  1 <1>  -0.1500 
 11 C        6.7930     0.5510     0.5160 C.ar  1 <1>   0.0820 
 12 C        6.7620    -0.8390    -1.4300 C.ar  1 <1>  -0.1500 
 13 O        7.4950     1.5620     1.0350 O.3   1 <1>  -0.3630 
 14 C        7.3120     0.1880    -0.6910 C.ar  1 <1>   0.0820 
 15 C        8.5440     1.8490     0.1090 C.3   1 <1>   0.4000 
 16 O        8.3670     0.9530    -0.9870 O.3   1 <1>  -0.3630 
 17 H        1.1690     1.7210    -0.3190 H     1 <1>   0.0800 
 18 H        1.6310     0.6000    -1.5910 H     1 <1>   0.0800 
 19 H        0.5580    -2.0860    -1.5460 H     1 <1>   0.0800 
 20 H       -0.5390    -2.5430    -0.2510 H     1 <1>   0.0800 
 21 H        2.1290     0.2450     1.3950 H     1 <1>   0.0800 
 22 H        3.3470     0.6630     0.2210 H     1 <1>   0.0800 
 23 H        1.7720    -3.2650     0.3030 H     1 <1>   0.0800 
 24 H        1.1900    -2.0740     1.4360 H     1 <1>   0.0800 
 25 H        2.9280    -1.4520    -0.8830 H     1 <1>   0.4500 
 26 H        4.0150    -2.8940     0.7410 H     1 <1>   0.0800 
 27 H        3.7770    -1.6230     1.9190 H     1 <1>   0.0800 
 28 H        5.3260     0.2290     2.0140 H     1 <1>   0.1500 
 29 H        5.2260    -2.3030    -1.4810 H     1 <1>   0.1500 
 30 H        7.1960    -1.1120    -2.3770 H     1 <1>   0.1500 
 31 H        9.4960     1.6670     0.5740 H     1 <1>   0.0800 
 32 H        8.4560     2.8650    -0.2350 H     1 <1>   0.0800 
@<TRIPOS>BOND
  1   1   2  1   
  2   1   3  1   
  3   2   4  1   
  4   2  17  1   
  5   2  18  1   
  6   3   5  1   
  7   3  19  1   
  8   3  20  1   
  9   4   6  1   
 10   4  21  1   
 11   4  22  1   
 12   5   6  1   
 13   5  23  1   
 14   5  24  1   
 15   6   7  1   
 16   6  25  1   
 17   7   8  1   
 18   7  26  1   
 19   7  27  1   
 20   8   9  ar  
 21   8  10  ar  
 22   9  11  ar  
 23   9  28  1   
 24  10  12  ar  
 25  10  29  1   
 26  11  13  1   
 27  11  14  ar  
 28  12  14  ar  
 29  12  30  1   
 30  13  15  1   
 31  14  16  1   
 32  15  16  1   
 33  15  31  1   
 34  15  32  1   
@<TRIPOS>SUBSTRUCTURE
  1 ****   8 GROUP 4 **** **** 0

# MOE 2024.06 (io_trps.svl 2023.06)
