@<TRIPOS>MOLECULE
NONAME
37 38 1 0 0 
SMALL
USER_CHARGES


@<TRIPOS>ATOM
  1 S       -0.0240    -1.0400    -0.1500 S.3   1 <1>  -0.0800 
  2 C       -0.4420    -1.7710     1.3590 C.2   1 <1>   0.4340 
  3 C        1.6110    -1.5100     0.1950 C.2   1 <1>   0.4420 
  4 S       -2.1620    -1.7600     1.8640 S.3   1 <1>  -0.2860 
  5 N        0.5420    -2.2660     1.9930 N.2   1 <1>  -0.3380 
  6 N        1.7270    -2.1090     1.3260 N.2   1 <1>  -0.3380 
  7 N        2.5700    -1.1800    -0.7360 N.am  1 <1>  -0.4940 
  8 C       -3.0910    -0.9370     0.4950 C.3   1 <1>   0.0700 
  9 C        3.8410    -1.6400    -0.8640 C.2   1 <1>   0.6900 
 10 C       -4.5730    -0.9190     0.8740 C.3   1 <1>  -0.1600 
 11 O        4.6730    -0.8920    -1.3250 O.2   1 <1>  -0.5700 
 12 N        4.2060    -2.9140    -0.5690 N.am  1 <1>  -0.5470 
 13 C       -5.4160    -0.2500    -0.2150 C.3   1 <1>  -0.2400 
 14 C        3.4490    -4.0630    -0.8080 C.ar  1 <1>   0.1170 
 15 C        2.8970    -4.7760     0.2450 C.ar  1 <1>  -0.1500 
 16 C        3.2400    -4.5050    -2.1090 C.ar  1 <1>  -0.1500 
 17 C        2.1190    -5.9020     0.0050 C.ar  1 <1>   0.0820 
 18 C        2.4840    -5.6380    -2.3540 C.ar  1 <1>  -0.1500 
 19 O        1.5140    -6.6140     0.9890 O.3   1 <1>  -0.3620 
 20 C        1.9240    -6.3340    -1.2970 C.ar  1 <1>  -0.1500 
 21 C        1.3390    -6.0480     2.2700 C.3   1 <1>   0.0400 
 22 H        2.3950    -0.3590    -1.3060 H     1 <1>   0.3700 
 23 H       -2.9220    -1.5070    -0.4010 H     1 <1>   0.0800 
 24 H       -2.7000     0.0600     0.3910 H     1 <1>   0.0800 
 25 H       -4.6970    -0.3830     1.8000 H     1 <1>   0.0800 
 26 H       -4.9150    -1.9290     1.0210 H     1 <1>   0.0800 
 27 H        5.2150    -3.0350    -0.6320 H     1 <1>   0.3700 
 28 H       -5.1040     0.7690    -0.3640 H     1 <1>   0.0800 
 29 H       -6.4530    -0.2490     0.0730 H     1 <1>   0.0800 
 30 H       -5.3230    -0.7820    -1.1460 H     1 <1>   0.0800 
 31 H        3.0810    -4.4300     1.2440 H     1 <1>   0.1500 
 32 H        3.6710    -3.9600    -2.9300 H     1 <1>   0.1500 
 33 H        2.3290    -5.9770    -3.3630 H     1 <1>   0.1500 
 34 H        1.3300    -7.2120    -1.4730 H     1 <1>   0.1500 
 35 H        0.7100    -6.7040     2.8440 H     1 <1>   0.0800 
 36 H        0.8660    -5.0860     2.1680 H     1 <1>   0.0800 
 37 H        2.2980    -5.9530     2.7460 H     1 <1>   0.0800 
@<TRIPOS>BOND
  1   1   2  1   
  2   1   3  1   
  3   2   4  1   
  4   2   5  2   
  5   3   6  2   
  6   3   7  1   
  7   4   8  1   
  8   5   6  1   
  9   7   9  am  
 10   7  22  1   
 11   8  10  1   
 12   8  23  1   
 13   8  24  1   
 14   9  11  2   
 15   9  12  am  
 16  10  13  1   
 17  10  25  1   
 18  10  26  1   
 19  12  14  1   
 20  12  27  1   
 21  13  28  1   
 22  13  29  1   
 23  13  30  1   
 24  14  15  ar  
 25  14  16  ar  
 26  15  17  ar  
 27  15  31  1   
 28  16  18  ar  
 29  16  32  1   
 30  17  19  1   
 31  17  20  ar  
 32  18  20  ar  
 33  18  33  1   
 34  19  21  1   
 35  20  34  1   
 36  21  35  1   
 37  21  36  1   
 38  21  37  1   
@<TRIPOS>SUBSTRUCTURE
  1 ****   3 GROUP 4 **** **** 0

# MOE 2024.06 (io_trps.svl 2023.06)
