@<TRIPOS>MOLECULE
NONAME
43 44 1 0 0 
SMALL
USER_CHARGES


@<TRIPOS>ATOM
  1 O       -0.0550     0.3740     0.0710 O.2   1 <1>  -0.5700 
  2 C        0.0130     1.5760    -0.1090 C.2   1 <1>   0.5440 
  3 N       -1.1580     2.3020    -0.1440 N.am  1 <1>  -0.6600 
  4 C        1.3120     2.2030    -0.2620 C.ar  1 <1>   0.0860 
  5 C       -1.2160     3.7860     0.0260 C.3   1 <1>   0.1400 
  6 C       -2.4850     1.6160    -0.1170 C.3   1 <1>   0.1400 
  7 C        2.3400     1.9450     0.6450 C.ar  1 <1>  -0.1500 
  8 C        1.5880     3.0770    -1.3140 C.ar  1 <1>  -0.1500 
  9 C       -2.5220     4.2140     0.7280 C.3   1 <1>   0.2000 
 10 C       -3.6090     2.5420    -0.6310 C.3   1 <1>   0.2000 
 11 C        3.5800     2.5440     0.5260 C.ar  1 <1>  -0.1500 
 12 C        2.8250     3.6820    -1.4400 C.ar  1 <1>  -0.1500 
 13 O       -3.6570     3.7810     0.0300 O.3   1 <1>  -0.5600 
 14 C       -2.6350     5.7310     0.8580 C.3   1 <1>  -0.2400 
 15 C       -4.9880     1.9070    -0.4800 C.3   1 <1>  -0.2400 
 16 C        3.8300     3.4250    -0.5220 C.ar  1 <1>   0.0830 
 17 O        5.0090     4.0570    -0.7130 O.3   1 <1>  -0.3630 
 18 C        6.1160     3.8350     0.1310 C.3   1 <1>   0.1200 
 19 C        7.2830     4.6820    -0.3770 C.3   1 <1>  -0.1600 
 20 C        8.5300     4.4950     0.4940 C.3   1 <1>  -0.2400 
 21 H       -1.1640     4.2590    -0.9380 H     1 <1>   0.0800 
 22 H       -0.3780     4.1180     0.6130 H     1 <1>   0.0800 
 23 H       -2.7020     1.3060     0.8900 H     1 <1>   0.0800 
 24 H       -2.4420     0.7340    -0.7320 H     1 <1>   0.0800 
 25 H        2.1510     1.2580     1.4520 H     1 <1>   0.1500 
 26 H        0.8230     3.2770    -2.0430 H     1 <1>   0.1500 
 27 H       -2.5560     3.7700     1.7090 H     1 <1>   0.0800 
 28 H       -3.4290     2.7500    -1.6720 H     1 <1>   0.0800 
 29 H        4.3370     2.3130     1.2520 H     1 <1>   0.1500 
 30 H        3.0240     4.3560    -2.2540 H     1 <1>   0.1500 
 31 H       -2.6360     6.1890    -0.1150 H     1 <1>   0.0800 
 32 H       -1.8070     6.1170     1.4240 H     1 <1>   0.0800 
 33 H       -3.5460     5.9840     1.3700 H     1 <1>   0.0800 
 34 H       -5.2000     1.7210     0.5580 H     1 <1>   0.0800 
 35 H       -5.0270     0.9760    -1.0140 H     1 <1>   0.0800 
 36 H       -5.7370     2.5650    -0.8830 H     1 <1>   0.0800 
 37 H        6.3630     2.7880     0.0980 H     1 <1>   0.0800 
 38 H        5.8430     4.1240     1.1320 H     1 <1>   0.0800 
 39 H        6.9960     5.7200    -0.3680 H     1 <1>   0.0800 
 40 H        7.5110     4.3970    -1.3900 H     1 <1>   0.0800 
 41 H        8.3300     4.7900     1.5090 H     1 <1>   0.0800 
 42 H        9.3350     5.1000     0.1150 H     1 <1>   0.0800 
 43 H        8.8450     3.4650     0.4860 H     1 <1>   0.0800 
@<TRIPOS>BOND
  1   1   2  2   
  2   2   3  am  
  3   2   4  1   
  4   3   5  1   
  5   3   6  1   
  6   4   7  ar  
  7   4   8  ar  
  8   5   9  1   
  9   5  21  1   
 10   5  22  1   
 11   6  10  1   
 12   6  23  1   
 13   6  24  1   
 14   7  11  ar  
 15   7  25  1   
 16   8  12  ar  
 17   8  26  1   
 18   9  13  1   
 19   9  14  1   
 20   9  27  1   
 21  10  13  1   
 22  10  15  1   
 23  10  28  1   
 24  11  16  ar  
 25  11  29  1   
 26  12  16  ar  
 27  12  30  1   
 28  14  31  1   
 29  14  32  1   
 30  14  33  1   
 31  15  34  1   
 32  15  35  1   
 33  15  36  1   
 34  16  17  1   
 35  17  18  1   
 36  18  19  1   
 37  18  37  1   
 38  18  38  1   
 39  19  20  1   
 40  19  39  1   
 41  19  40  1   
 42  20  41  1   
 43  20  42  1   
 44  20  43  1   
@<TRIPOS>SUBSTRUCTURE
  1 ****   4 GROUP 4 **** **** 0

# MOE 2024.06 (io_trps.svl 2023.06)
