@<TRIPOS>MOLECULE
NONAME
33 34 1 0 0 
SMALL
USER_CHARGES


@<TRIPOS>ATOM
  1 S       -0.5270     0.7230     0.1030 S.o2  1 <1>   1.3330 
  2 O       -1.3370     1.6140     0.8970 O.2   1 <1>  -0.6500 
  3 O       -0.7040     0.6600    -1.3280 O.2   1 <1>  -0.6500 
  4 N        1.0920     1.1680     0.3580 N.am  1 <1>  -0.8490 
  5 C       -0.6290    -0.9100     0.8030 C.3   1 <1>  -0.1350 
  6 C        1.2150     2.6340     0.4980 C.3   1 <1>   0.1960 
  7 C        1.9910     0.6540    -0.6970 C.3   1 <1>   0.1960 
  8 C        2.6710     3.0800     0.7430 C.3   1 <1>   0.3430 
  9 C        3.4620     1.0580    -0.4500 C.3   1 <1>   0.3430 
 10 N        3.6160     2.5470    -0.3050 N.4   1 <1>  -0.9590 
 11 C        5.0210     2.9300     0.0000 C.3   1 <1>   0.5230 
 12 C        5.1750     4.4330    -0.1120 C.2   1 <1>  -0.1400 
 13 S        6.4920     5.1190     0.8250 S.3   1 <1>  -0.0800 
 14 C        4.5220     5.4050    -0.7830 C.2   1 <1>  -0.1500 
 15 C        6.1070     6.7380     0.2740 C.2   1 <1>  -0.1100 
 16 C        5.0530     6.7150    -0.5610 C.2   1 <1>  -0.1500 
 17 H       -1.6310    -1.2820     0.7140 H     1 <1>   0.0800 
 18 H       -0.3670    -0.8840     1.8430 H     1 <1>   0.0800 
 19 H        0.0310    -1.5830     0.2930 H     1 <1>   0.0800 
 20 H        0.6250     2.9660     1.3370 H     1 <1>   0.0800 
 21 H        0.8270     3.1200    -0.3820 H     1 <1>   0.0800 
 22 H        1.6870     1.0280    -1.6610 H     1 <1>   0.0800 
 23 H        1.9260    -0.4200    -0.7300 H     1 <1>   0.0800 
 24 H        2.9710     2.7250     1.7150 H     1 <1>   0.0800 
 25 H        2.7100     4.1570     0.7620 H     1 <1>   0.0800 
 26 H        4.0650     0.7030    -1.2700 H     1 <1>   0.0800 
 27 H        3.7990     0.5670     0.4480 H     1 <1>   0.0800 
 28 H        3.3760     2.9890    -1.2010 H     1 <1>   0.4500 
 29 H        5.7020     2.4550    -0.6870 H     1 <1>   0.0800 
 30 H        5.2750     2.6190     1.0000 H     1 <1>   0.0800 
 31 H        3.6810     5.2860    -1.4440 H     1 <1>   0.1500 
 32 H        6.7200     7.5450     0.6360 H     1 <1>   0.1500 
 33 H        4.6230     7.5800    -1.0380 H     1 <1>   0.1500 
@<TRIPOS>BOND
  1   1   2  2   
  2   1   3  2   
  3   1   4  am  
  4   1   5  1   
  5   4   6  1   
  6   4   7  1   
  7   5  17  1   
  8   5  18  1   
  9   5  19  1   
 10   6   8  1   
 11   6  20  1   
 12   6  21  1   
 13   7   9  1   
 14   7  22  1   
 15   7  23  1   
 16   8  10  1   
 17   8  24  1   
 18   8  25  1   
 19   9  10  1   
 20   9  26  1   
 21   9  27  1   
 22  10  11  1   
 23  10  28  1   
 24  11  12  1   
 25  11  29  1   
 26  11  30  1   
 27  12  13  1   
 28  12  14  2   
 29  13  15  1   
 30  14  16  1   
 31  14  31  1   
 32  15  16  2   
 33  15  32  1   
 34  16  33  1   
@<TRIPOS>SUBSTRUCTURE
  1 ****   8 GROUP 4 **** **** 0

# MOE 2024.06 (io_trps.svl 2023.06)
