@<TRIPOS>MOLECULE
NONAME
37 37 1 0 0 
SMALL
USER_CHARGES


@<TRIPOS>ATOM
  1 O        0.8260     3.1440     1.1270 O.2   1 <1>  -0.5700 
  2 C        0.5700     3.7890     0.1360 C.2   1 <1>   0.5690 
  3 N       -0.7020     4.0180    -0.3230 N.am  1 <1>  -0.5470 
  4 C        1.7750     4.3660    -0.6260 C.3   1 <1>   0.4040 
  5 C       -1.9360     3.5670     0.1740 C.ar  1 <1>   0.1170 
  6 N        3.0790     3.7560    -0.1570 N.4   1 <1>  -0.9590 
  7 C       -3.0800     4.2930    -0.1360 C.ar  1 <1>  -0.1500 
  8 C       -2.0720     2.4160     0.9450 C.ar  1 <1>  -0.1500 
  9 C        4.0500     4.7950     0.2700 C.3   1 <1>   0.3430 
 10 C        3.6510     2.7670    -1.1120 C.3   1 <1>   0.3430 
 11 C       -4.3290     3.8940     0.3110 C.ar  1 <1>  -0.1430 
 12 C       -3.3140     2.0110     1.3960 C.ar  1 <1>  -0.1500 
 13 C        5.0790     4.1790     1.2110 C.3   1 <1>  -0.2400 
 14 C        2.7320     1.5570    -1.2290 C.3   1 <1>  -0.2400 
 15 C       -4.4410     2.7480     1.0800 C.ar  1 <1>  -0.1500 
 16 C       -5.5730     4.6940    -0.0300 C.3   1 <1>  -0.0970 
 17 H       -0.8120     4.6450    -1.1200 H     1 <1>   0.3700 
 18 H        1.7900     5.4300    -0.4610 H     1 <1>   0.0800 
 19 H        1.6440     4.1890    -1.6790 H     1 <1>   0.0800 
 20 H        2.7960     3.2310     0.6960 H     1 <1>   0.4500 
 21 H       -2.9990     5.1840    -0.7300 H     1 <1>   0.1500 
 22 H       -1.2140     1.8230     1.2000 H     1 <1>   0.1500 
 23 H        3.5320     5.5800     0.7990 H     1 <1>   0.0800 
 24 H        4.5400     5.2280    -0.5880 H     1 <1>   0.0800 
 25 H        4.6120     2.4320    -0.7560 H     1 <1>   0.0800 
 26 H        3.7940     3.2210    -2.0810 H     1 <1>   0.0800 
 27 H       -3.4060     1.1200     1.9940 H     1 <1>   0.1500 
 28 H        4.5970     3.7230     2.0580 H     1 <1>   0.0800 
 29 H        5.7280     4.9540     1.5790 H     1 <1>   0.0800 
 30 H        5.6920     3.4530     0.7090 H     1 <1>   0.0800 
 31 H        2.5450     1.1250    -0.2610 H     1 <1>   0.0800 
 32 H        3.2100     0.8090    -1.8370 H     1 <1>   0.0800 
 33 H        1.7980     1.8080    -1.6980 H     1 <1>   0.0800 
 34 H       -5.4050     2.4250     1.4340 H     1 <1>   0.1500 
 35 H       -5.3160     5.6470    -0.4560 H     1 <1>   0.0800 
 36 H       -6.1550     4.8660     0.8590 H     1 <1>   0.0800 
 37 H       -6.1740     4.1510    -0.7370 H     1 <1>   0.0800 
@<TRIPOS>BOND
  1   1   2  2   
  2   2   3  am  
  3   2   4  1   
  4   3   5  1   
  5   3  17  1   
  6   4   6  1   
  7   4  18  1   
  8   4  19  1   
  9   5   7  ar  
 10   5   8  ar  
 11   6   9  1   
 12   6  10  1   
 13   6  20  1   
 14   7  11  ar  
 15   7  21  1   
 16   8  12  ar  
 17   8  22  1   
 18   9  13  1   
 19   9  23  1   
 20   9  24  1   
 21  10  14  1   
 22  10  25  1   
 23  10  26  1   
 24  11  15  ar  
 25  11  16  1   
 26  12  15  ar  
 27  12  27  1   
 28  13  28  1   
 29  13  29  1   
 30  13  30  1   
 31  14  31  1   
 32  14  32  1   
 33  14  33  1   
 34  15  34  1   
 35  16  35  1   
 36  16  36  1   
 37  16  37  1   
@<TRIPOS>SUBSTRUCTURE
  1 ****   2 GROUP 4 **** **** 0

# MOE 2024.06 (io_trps.svl 2023.06)
