@<TRIPOS>MOLECULE
NONAME
51 53 1 0 0 
SMALL
USER_CHARGES


@<TRIPOS>ATOM
  1 N        0.2290     0.4310     0.9330 N.pl3 1 <1>  -0.8380 
  2 C       -1.1200     0.6440     0.6530 C.ar  1 <1>   0.1000 
  3 C        0.7510    -0.9540     1.1380 C.3   1 <1>   0.2090 
  4 C        1.2090     1.4520     0.4580 C.3   1 <1>   0.2090 
  5 C       -1.7970     1.6710     1.2990 C.ar  1 <1>  -0.1500 
  6 C       -1.8160    -0.1340    -0.2680 C.ar  1 <1>  -0.1500 
  7 C        1.6030    -1.4250    -0.0610 C.3   1 <1>   0.3430 
  8 C        2.0260     0.9260    -0.7390 C.3   1 <1>   0.3430 
  9 C       -3.1310     1.9210     1.0330 C.ar  1 <1>  -0.1500 
 10 C       -3.1510     0.1120    -0.5360 C.ar  1 <1>  -0.1500 
 11 N        2.6490    -0.4190    -0.4640 N.4   1 <1>  -0.9590 
 12 C       -3.8100     1.1410     0.1140 C.ar  1 <1>  -0.1500 
 13 C        3.4750    -0.9010    -1.5860 C.3   1 <1>   0.4810 
 14 C        4.9050    -0.5650    -1.2220 C.2   1 <1>  -0.2760 
 15 C        5.7330    -1.4620    -0.6720 C.2   1 <1>  -0.2880 
 16 C        5.3460     0.8630    -1.5390 C.3   1 <1>  -0.0220 
 17 C        7.1760    -1.1710    -0.2780 C.3   1 <1>  -0.0220 
 18 C        6.8750     0.9940    -1.5280 C.3   1 <1>  -0.1600 
 19 C        7.4890     0.3350    -0.2810 C.3   1 <1>   0.0580 
 20 C        8.9980     0.5750    -0.1590 C.2   1 <1>  -0.2760 
 21 C        9.8010     0.9860    -1.1470 C.2   1 <1>  -0.3000 
 22 C        9.5530     0.3100     1.2350 C.3   1 <1>  -0.1020 
 23 H       -0.0720    -1.6320     1.2870 H     1 <1>   0.0800 
 24 H        1.3470    -0.9710     2.0330 H     1 <1>   0.0800 
 25 H        1.8690     1.7120     1.2680 H     1 <1>   0.0800 
 26 H        0.6860     2.3460     0.1630 H     1 <1>   0.0800 
 27 H       -1.2740     2.2710     2.0200 H     1 <1>   0.1500 
 28 H       -1.3210    -0.9320    -0.7820 H     1 <1>   0.1500 
 29 H        0.9400    -1.6030    -0.8910 H     1 <1>   0.0800 
 30 H        2.0730    -2.3610     0.1920 H     1 <1>   0.0800 
 31 H        2.7890     1.6450    -0.9830 H     1 <1>   0.0800 
 32 H        1.3630     0.8490    -1.5850 H     1 <1>   0.0800 
 33 H       -3.6430     2.7190     1.5420 H     1 <1>   0.1500 
 34 H       -3.6820    -0.4950    -1.2490 H     1 <1>   0.1500 
 35 H        3.3080    -0.3150     0.3190 H     1 <1>   0.4500 
 36 H       -4.8490     1.3330    -0.0940 H     1 <1>   0.1500 
 37 H        3.1870    -0.4490    -2.5210 H     1 <1>   0.0800 
 38 H        3.3830    -1.9720    -1.6750 H     1 <1>   0.0800 
 39 H        5.4570    -2.4830    -0.4640 H     1 <1>   0.1500 
 40 H        4.9350     1.5400    -0.8120 H     1 <1>   0.0800 
 41 H        4.9920     1.1560    -2.5130 H     1 <1>   0.0800 
 42 H        7.8320    -1.6730    -0.9680 H     1 <1>   0.0800 
 43 H        7.3630    -1.5680     0.7030 H     1 <1>   0.0800 
 44 H        7.1460     2.0350    -1.5590 H     1 <1>   0.0800 
 45 H        7.2720     0.5180    -2.4080 H     1 <1>   0.0800 
 46 H        7.0140     0.7820     0.5760 H     1 <1>   0.0800 
 47 H       10.8580     1.1500    -1.0290 H     1 <1>   0.1500 
 48 H        9.4930     1.1950    -2.1560 H     1 <1>   0.1500 
 49 H        9.4330    -0.7240     1.5030 H     1 <1>   0.0800 
 50 H        9.0480     0.9210     1.9610 H     1 <1>   0.0800 
 51 H       10.6020     0.5420     1.2750 H     1 <1>   0.0800 
@<TRIPOS>BOND
  1   1   2  1   
  2   1   3  1   
  3   1   4  1   
  4   2   5  ar  
  5   2   6  ar  
  6   3   7  1   
  7   3  23  1   
  8   3  24  1   
  9   4   8  1   
 10   4  25  1   
 11   4  26  1   
 12   5   9  ar  
 13   5  27  1   
 14   6  10  ar  
 15   6  28  1   
 16   7  11  1   
 17   7  29  1   
 18   7  30  1   
 19   8  11  1   
 20   8  31  1   
 21   8  32  1   
 22   9  12  ar  
 23   9  33  1   
 24  10  12  ar  
 25  10  34  1   
 26  11  13  1   
 27  11  35  1   
 28  12  36  1   
 29  13  14  1   
 30  13  37  1   
 31  13  38  1   
 32  14  15  2   
 33  14  16  1   
 34  15  17  1   
 35  15  39  1   
 36  16  18  1   
 37  16  40  1   
 38  16  41  1   
 39  17  19  1   
 40  17  42  1   
 41  17  43  1   
 42  18  19  1   
 43  18  44  1   
 44  18  45  1   
 45  19  20  1   
 46  19  46  1   
 47  20  21  2   
 48  20  22  1   
 49  21  47  1   
 50  21  48  1   
 51  22  49  1   
 52  22  50  1   
 53  22  51  1   
@<TRIPOS>SUBSTRUCTURE
  1 ****  11 GROUP 4 **** **** 0

# MOE 2024.06 (io_trps.svl 2023.06)
