@<TRIPOS>MOLECULE
NONAME
29 29 1 0 0 
SMALL
USER_CHARGES


@<TRIPOS>ATOM
  1 BR       0.0560     0.4060     0.2780 Br    1 <1>  -0.1110 
  2 C       -1.5660    -0.6240     0.4030 C.ar  1 <1>   0.1110 
  3 C       -1.7030    -1.8390    -0.2560 C.ar  1 <1>  -0.0090 
  4 C       -2.5680    -0.0820     1.1860 C.ar  1 <1>  -0.1500 
  5 S       -0.4030    -2.5590    -1.2900 S.o2  1 <1>   1.2040 
  6 C       -2.9150    -2.5020    -0.0830 C.ar  1 <1>  -0.1500 
  7 C       -3.7570    -0.7720     1.3270 C.ar  1 <1>  -0.1500 
  8 O       -0.8930    -3.8090    -1.8260 O.2   1 <1>  -0.6500 
  9 O        0.1180    -1.5690    -2.2020 O.2   1 <1>  -0.6500 
 10 C        0.8850    -2.9830    -0.1310 C.3   1 <1>  -0.1350 
 11 C       -3.9500    -1.9970     0.6990 C.ar  1 <1>  -0.0090 
 12 S       -5.5220    -2.8940     0.8670 S.o2  1 <1>   1.4470 
 13 O       -6.2330    -2.4310     2.0370 O.2   1 <1>  -0.6500 
 14 O       -5.3160    -4.3050     0.6450 O.2   1 <1>  -0.6500 
 15 N       -6.3870    -2.4020    -0.4810 N.am  1 <1>  -0.9140 
 16 C       -7.8190    -2.5360    -0.3120 C.3   1 <1>   0.1960 
 17 C       -8.4830    -2.2180    -1.6440 C.3   1 <1>  -0.2400 
 18 H       -2.4200     0.8660     1.6750 H     1 <1>   0.1500 
 19 H       -3.0640    -3.4500    -0.5770 H     1 <1>   0.1500 
 20 H       -4.5470    -0.3560     1.9320 H     1 <1>   0.1500 
 21 H        0.5090    -3.6510     0.6200 H     1 <1>   0.0800 
 22 H        1.2790    -2.1090     0.3470 H     1 <1>   0.0800 
 23 H        1.6880    -3.4730    -0.6460 H     1 <1>   0.0800 
 24 H       -6.1150    -3.0730    -1.1970 H     1 <1>   0.4200 
 25 H       -8.1640    -1.8470     0.4430 H     1 <1>   0.0800 
 26 H       -8.0660    -3.5400    -0.0040 H     1 <1>   0.0800 
 27 H       -8.2360    -1.2170    -1.9510 H     1 <1>   0.0800 
 28 H       -9.5500    -2.2870    -1.5390 H     1 <1>   0.0800 
 29 H       -8.1700    -2.9150    -2.4010 H     1 <1>   0.0800 
@<TRIPOS>BOND
  1   1   2  1   
  2   2   3  ar  
  3   2   4  ar  
  4   3   5  1   
  5   3   6  ar  
  6   4   7  ar  
  7   4  18  1   
  8   5   8  2   
  9   5   9  2   
 10   5  10  1   
 11   6  11  ar  
 12   6  19  1   
 13   7  11  ar  
 14   7  20  1   
 15  10  21  1   
 16  10  22  1   
 17  10  23  1   
 18  11  12  1   
 19  12  13  2   
 20  12  14  2   
 21  12  15  am  
 22  15  16  1   
 23  15  24  1   
 24  16  17  1   
 25  16  25  1   
 26  16  26  1   
 27  17  27  1   
 28  17  28  1   
 29  17  29  1   
@<TRIPOS>SUBSTRUCTURE
  1 ****   6 GROUP 4 **** **** 0

# MOE 2024.06 (io_trps.svl 2023.06)
