@<TRIPOS>MOLECULE
NONAME
48 51 1 0 0 
SMALL
USER_CHARGES


@<TRIPOS>ATOM
  1 O       -1.9680     1.6140     2.6560 O.2   1 <1>  -0.5700 
  2 C       -1.9490     2.1980     1.5770 C.2   1 <1>   0.7160 
  3 N       -0.8990     3.0450     1.2400 N.am  1 <1>  -0.2290 
  4 C       -2.9910     2.0460     0.6350 C.2   1 <1>  -0.0860 
  5 C       -0.9320     3.7130     0.0010 C.2   1 <1>   0.4960 
  6 C        0.1760     3.2460     2.1050 C.2   1 <1>  -0.0410 
  7 C       -2.9250     2.7400    -0.5440 C.2   1 <1>  -0.0260 
  8 C       -4.1770     1.3060     0.5940 C.2   1 <1>  -0.1500 
  9 N       -1.9090     3.5730    -0.8670 N.2   1 <1>  -0.5760 
 10 C        0.1690     4.5850    -0.3050 C.2   1 <1>  -0.1240 
 11 C        1.2030     4.0720     1.7950 C.2   1 <1>  -0.1500 
 12 N       -4.0210     2.4520    -1.2980 N.pl3 1 <1>   0.0480 
 13 C       -4.8140     1.5670    -0.5920 C.2   1 <1>  -0.2370 
 14 C        1.2010     4.7590     0.5620 C.2   1 <1>  -0.1500 
 15 C        0.1740     5.3300    -1.6380 C.3   1 <1>  -0.1020 
 16 C       -4.3030     3.0060    -2.6390 C.3   1 <1>   0.0160 
 17 C       -6.0680     1.0550    -1.0800 C.2   1 <1>   0.7150 
 18 O       -6.1830     0.7400    -2.2520 O.2   1 <1>  -0.5700 
 19 N       -7.1550     0.9250    -0.2440 N.am  1 <1>  -0.6600 
 20 C       -7.2730     1.7140     1.0220 C.3   1 <1>   0.1400 
 21 C       -8.4470     0.3440    -0.7200 C.3   1 <1>   0.1400 
 22 C       -8.7410     1.9710     1.4280 C.3   1 <1>   0.2000 
 23 C       -9.5750     1.4050    -0.7330 C.3   1 <1>   0.2000 
 24 O       -9.4850     2.3440     0.3090 O.3   1 <1>  -0.5600 
 25 C       -8.8680     3.0990     2.4490 C.3   1 <1>  -0.2400 
 26 C      -10.9630     0.7710    -0.6540 C.3   1 <1>  -0.2400 
 27 H        0.1570     2.7100     3.0420 H     1 <1>   0.1500 
 28 H       -4.5000     0.6460     1.3800 H     1 <1>   0.1500 
 29 H        2.0310     4.2230     2.4670 H     1 <1>   0.1500 
 30 H        2.0320     5.4090     0.3450 H     1 <1>   0.1500 
 31 H       -0.6940     5.9610    -1.7080 H     1 <1>   0.0800 
 32 H        0.1520     4.6260    -2.4510 H     1 <1>   0.0800 
 33 H        1.0510     5.9430    -1.7400 H     1 <1>   0.0800 
 34 H       -3.5990     3.7850    -2.8680 H     1 <1>   0.0800 
 35 H       -5.2990     3.4070    -2.6570 H     1 <1>   0.0800 
 36 H       -4.2190     2.2220    -3.3680 H     1 <1>   0.0800 
 37 H       -6.7800     2.6620     0.8930 H     1 <1>   0.0800 
 38 H       -6.7770     1.1890     1.8180 H     1 <1>   0.0800 
 39 H       -8.7200    -0.4610    -0.0610 H     1 <1>   0.0800 
 40 H       -8.3470    -0.0770    -1.7050 H     1 <1>   0.0800 
 41 H       -9.1740     1.0730     1.8360 H     1 <1>   0.0800 
 42 H       -9.5000     1.9650    -1.6490 H     1 <1>   0.0800 
 43 H       -8.4800     4.0150     2.0410 H     1 <1>   0.0800 
 44 H       -8.3200     2.8560     3.3410 H     1 <1>   0.0800 
 45 H       -9.9010     3.2380     2.7100 H     1 <1>   0.0800 
 46 H      -11.0790     0.2290     0.2660 H     1 <1>   0.0800 
 47 H      -11.1050     0.0940    -1.4760 H     1 <1>   0.0800 
 48 H      -11.7150     1.5380    -0.7120 H     1 <1>   0.0800 
@<TRIPOS>BOND
  1   1   2  2   
  2   2   3  am  
  3   2   4  1   
  4   3   5  1   
  5   3   6  1   
  6   4   7  2   
  7   4   8  1   
  8   5   9  2   
  9   5  10  1   
 10   6  11  2   
 11   6  27  1   
 12   7   9  1   
 13   7  12  1   
 14   8  13  2   
 15   8  28  1   
 16  10  14  2   
 17  10  15  1   
 18  11  14  1   
 19  11  29  1   
 20  12  13  1   
 21  12  16  1   
 22  13  17  1   
 23  14  30  1   
 24  15  31  1   
 25  15  32  1   
 26  15  33  1   
 27  16  34  1   
 28  16  35  1   
 29  16  36  1   
 30  17  18  2   
 31  17  19  am  
 32  19  20  1   
 33  19  21  1   
 34  20  22  1   
 35  20  37  1   
 36  20  38  1   
 37  21  23  1   
 38  21  39  1   
 39  21  40  1   
 40  22  24  1   
 41  22  25  1   
 42  22  41  1   
 43  23  24  1   
 44  23  26  1   
 45  23  42  1   
 46  25  43  1   
 47  25  44  1   
 48  25  45  1   
 49  26  46  1   
 50  26  47  1   
 51  26  48  1   
@<TRIPOS>SUBSTRUCTURE
  1 ****   8 GROUP 4 **** **** 0

# MOE 2024.06 (io_trps.svl 2023.06)
