@<TRIPOS>MOLECULE
NONAME
50 52 1 0 0 
SMALL
USER_CHARGES


@<TRIPOS>ATOM
  1 O       -2.4140     2.9740    -2.6160 O.2   1 <1>  -0.5700 
  2 C       -1.5860     3.1350    -1.7520 C.2   1 <1>   0.5690 
  3 N       -1.8290     2.8650    -0.4480 N.am  1 <1>  -0.7300 
  4 C       -0.1780     3.6180    -2.1160 C.3   1 <1>   0.1710 
  5 C       -2.9100     2.0030     0.0450 C.3   1 <1>   0.2840 
  6 N        0.8760     3.1550    -1.1640 N.3   1 <1>  -0.8100 
  7 C       -2.2840     0.6680     0.4050 C.ar  1 <1>  -0.1430 
  8 C        2.1590     3.8540    -1.4000 C.3   1 <1>   0.1100 
  9 C        1.0900     1.6850    -1.2700 C.3   1 <1>   0.1100 
 10 C       -2.2120    -0.3400    -0.5450 C.ar  1 <1>  -0.1500 
 11 C       -1.7540     0.4530     1.6680 C.ar  1 <1>  -0.1500 
 12 C        3.2640     3.3820    -0.4340 C.3   1 <1>   0.2090 
 13 C        2.1790     1.1830    -0.3040 C.3   1 <1>   0.2090 
 14 C       -1.6200    -1.5520    -0.2340 C.ar  1 <1>  -0.1500 
 15 C       -1.1600    -0.7580     1.9790 C.ar  1 <1>  -0.1500 
 16 N        3.4630     1.9070    -0.5340 N.pl3 1 <1>  -0.8380 
 17 C       -1.0930    -1.7610     1.0280 C.ar  1 <1>  -0.1500 
 18 C        4.5770     1.3980     0.1500 C.ar  1 <1>   0.1000 
 19 C        4.7270     1.4060     1.5490 C.ar  1 <1>   0.0820 
 20 C        5.5910     0.8550    -0.6250 C.ar  1 <1>  -0.1500 
 21 O        3.7240     1.9440     2.3120 O.3   1 <1>  -0.3630 
 22 C        5.8800     0.8730     2.1200 C.ar  1 <1>  -0.1500 
 23 C        6.7340     0.3280    -0.0510 C.ar  1 <1>  -0.1500 
 24 C        3.8110     1.9960     3.7180 C.3   1 <1>   0.0400 
 25 C        6.8780     0.3370     1.3240 C.ar  1 <1>  -0.1500 
 26 H       -0.9950     2.9000     0.1480 H     1 <1>   0.3700 
 27 H       -0.2020     4.6920    -2.1220 H     1 <1>   0.0800 
 28 H        0.0560     3.2830    -3.1110 H     1 <1>   0.0800 
 29 H       -3.6630     1.8760    -0.7150 H     1 <1>   0.0800 
 30 H       -3.3670     2.4540     0.9090 H     1 <1>   0.0800 
 31 H        2.0180     4.9130    -1.2690 H     1 <1>   0.0800 
 32 H        2.4910     3.6810    -2.4100 H     1 <1>   0.0800 
 33 H        1.3830     1.4300    -2.2740 H     1 <1>   0.0800 
 34 H        0.1770     1.1620    -1.0480 H     1 <1>   0.0800 
 35 H       -2.6140    -0.1790    -1.5310 H     1 <1>   0.1500 
 36 H       -1.7970     1.2280     2.4130 H     1 <1>   0.1500 
 37 H        2.9890     3.6450     0.5720 H     1 <1>   0.0800 
 38 H        4.1880     3.8790    -0.6710 H     1 <1>   0.0800 
 39 H        2.3340     0.1290    -0.4530 H     1 <1>   0.0800 
 40 H        1.8480     1.3330     0.7080 H     1 <1>   0.0800 
 41 H       -1.5680    -2.3300    -0.9760 H     1 <1>   0.1500 
 42 H       -0.7490    -0.9200     2.9600 H     1 <1>   0.1500 
 43 H       -0.6310    -2.7030     1.2690 H     1 <1>   0.1500 
 44 H        5.4710     0.8510    -1.6920 H     1 <1>   0.1500 
 45 H        6.0260     0.8620     3.1820 H     1 <1>   0.1500 
 46 H        7.5060    -0.0870    -0.6740 H     1 <1>   0.1500 
 47 H        2.9160     2.4610     4.0900 H     1 <1>   0.0800 
 48 H        4.6690     2.5830     3.9930 H     1 <1>   0.0800 
 49 H        3.8870     0.9940     4.1000 H     1 <1>   0.0800 
 50 H        7.7660    -0.0720     1.7730 H     1 <1>   0.1500 
@<TRIPOS>BOND
  1   1   2  2   
  2   2   3  am  
  3   2   4  1   
  4   3   5  1   
  5   3  26  1   
  6   4   6  1   
  7   4  27  1   
  8   4  28  1   
  9   5   7  1   
 10   5  29  1   
 11   5  30  1   
 12   6   8  1   
 13   6   9  1   
 14   7  10  ar  
 15   7  11  ar  
 16   8  12  1   
 17   8  31  1   
 18   8  32  1   
 19   9  13  1   
 20   9  33  1   
 21   9  34  1   
 22  10  14  ar  
 23  10  35  1   
 24  11  15  ar  
 25  11  36  1   
 26  12  16  1   
 27  12  37  1   
 28  12  38  1   
 29  13  16  1   
 30  13  39  1   
 31  13  40  1   
 32  14  17  ar  
 33  14  41  1   
 34  15  17  ar  
 35  15  42  1   
 36  16  18  1   
 37  17  43  1   
 38  18  19  ar  
 39  18  20  ar  
 40  19  21  1   
 41  19  22  ar  
 42  20  23  ar  
 43  20  44  1   
 44  21  24  1   
 45  22  25  ar  
 46  22  45  1   
 47  23  25  ar  
 48  23  46  1   
 49  24  47  1   
 50  24  48  1   
 51  24  49  1   
 52  25  50  1   
@<TRIPOS>SUBSTRUCTURE
  1 ****  13 GROUP 4 **** **** 0

# MOE 2024.06 (io_trps.svl 2023.06)
