@<TRIPOS>MOLECULE
NONAME
41 43 1 0 0 
SMALL
USER_CHARGES


@<TRIPOS>ATOM
  1 BR      -3.4230     3.4260     1.4140 Br    1 <1>  -0.1110 
  2 C       -1.7480     3.7570     0.5260 C.ar  1 <1>   0.1110 
  3 C       -0.7100     4.3080     1.2470 C.ar  1 <1>  -0.1500 
  4 C       -1.6360     3.4300    -0.8160 C.ar  1 <1>  -0.1500 
  5 C        0.5070     4.5500     0.6100 C.ar  1 <1>   0.0280 
  6 C       -0.4330     3.6670    -1.4540 C.ar  1 <1>  -0.1500 
  7 C        0.6280     4.2220    -0.7490 C.ar  1 <1>   0.0830 
  8 C        1.6370     5.1190     1.2630 C.2   1 <1>  -0.1780 
  9 O        1.7940     4.4430    -1.3930 O.3   1 <1>  -0.2330 
 10 C        2.8010     5.3150     0.5880 C.2   1 <1>   0.0290 
 11 C        2.8770     4.9540    -0.7990 C.2   1 <1>   0.7060 
 12 C        3.9600     5.9210     1.1870 C.2   1 <1>   0.6160 
 13 O        3.8890     5.0400    -1.4700 O.2   1 <1>  -0.5700 
 14 O        3.8410     7.0400     1.6420 O.2   1 <1>  -0.5700 
 15 N        5.1970     5.3060     1.2940 N.am  1 <1>  -0.6600 
 16 C        5.5220     3.9240     0.8200 C.3   1 <1>   0.1400 
 17 C        6.4120     6.0870     1.6900 C.3   1 <1>   0.1400 
 18 C        6.5300     3.9790    -0.3510 C.3   1 <1>   0.3430 
 19 C        7.3950     6.1590     0.5080 C.3   1 <1>   0.3430 
 20 N        7.7540     4.7890    -0.0150 N.4   1 <1>  -0.9590 
 21 C        8.6550     4.9000    -1.1830 C.3   1 <1>   0.4810 
 22 C       10.0500     5.2710    -0.7100 C.2   1 <1>  -0.2880 
 23 C       10.5470     5.3360     0.5340 C.2   1 <1>  -0.3000 
 24 H       -0.8430     4.5490     2.2860 H     1 <1>   0.1500 
 25 H       -2.4730     3.0010    -1.3390 H     1 <1>   0.1500 
 26 H       -0.3120     3.4270    -2.4960 H     1 <1>   0.1500 
 27 H        1.5340     5.3980     2.2990 H     1 <1>   0.1500 
 28 H        4.6350     3.4050     0.5070 H     1 <1>   0.0800 
 29 H        5.9480     3.3640     1.6350 H     1 <1>   0.0800 
 30 H        6.8830     5.6160     2.5350 H     1 <1>   0.0800 
 31 H        6.1520     7.0890     1.9860 H     1 <1>   0.0800 
 32 H        6.0380     4.4140    -1.2050 H     1 <1>   0.0800 
 33 H        6.8160     2.9750    -0.6160 H     1 <1>   0.0800 
 34 H        8.2860     6.6790     0.8200 H     1 <1>   0.0800 
 35 H        6.9350     6.7370    -0.2760 H     1 <1>   0.0800 
 36 H        8.2920     4.2990     0.7080 H     1 <1>   0.4500 
 37 H        8.2820     5.6490    -1.8640 H     1 <1>   0.0800 
 38 H        8.7020     3.9590    -1.7070 H     1 <1>   0.0800 
 39 H       10.6810     5.4940    -1.5560 H     1 <1>   0.1500 
 40 H       11.5710     5.6120     0.7380 H     1 <1>   0.1500 
 41 H       10.0250     5.1290     1.4510 H     1 <1>   0.1500 
@<TRIPOS>BOND
  1   1   2  1   
  2   2   3  ar  
  3   2   4  ar  
  4   3   5  ar  
  5   3  24  1   
  6   4   6  ar  
  7   4  25  1   
  8   5   7  ar  
  9   5   8  1   
 10   6   7  ar  
 11   6  26  1   
 12   7   9  1   
 13   8  10  2   
 14   8  27  1   
 15   9  11  1   
 16  10  11  1   
 17  10  12  1   
 18  11  13  2   
 19  12  14  2   
 20  12  15  am  
 21  15  16  1   
 22  15  17  1   
 23  16  18  1   
 24  16  28  1   
 25  16  29  1   
 26  17  19  1   
 27  17  30  1   
 28  17  31  1   
 29  18  20  1   
 30  18  32  1   
 31  18  33  1   
 32  19  20  1   
 33  19  34  1   
 34  19  35  1   
 35  20  21  1   
 36  20  36  1   
 37  21  22  1   
 38  21  37  1   
 39  21  38  1   
 40  22  23  2   
 41  22  39  1   
 42  23  40  1   
 43  23  41  1   
@<TRIPOS>SUBSTRUCTURE
  1 ****  10 GROUP 4 **** **** 0

# MOE 2024.06 (io_trps.svl 2023.06)
