@<TRIPOS>MOLECULE
NONAME
57 60 1 0 0 
SMALL
USER_CHARGES


@<TRIPOS>ATOM
  1 O       -0.2370    -1.6630    -0.4490 O.2   1 <1>  -0.5700 
  2 C       -1.0150    -2.3170     0.2210 C.2   1 <1>   0.5440 
  3 N       -0.4950    -3.3950     0.8990 N.am  1 <1>  -0.6600 
  4 C       -2.4370    -2.0140     0.2350 C.ar  1 <1>   0.0860 
  5 C       -0.9150    -4.7620     0.4880 C.3   1 <1>   0.1400 
  6 C        0.9240    -3.3310     1.3590 C.3   1 <1>   0.1400 
  7 C       -3.2680    -2.4260     1.2790 C.ar  1 <1>  -0.1500 
  8 C       -3.0330    -1.2960    -0.8030 C.ar  1 <1>  -0.1500 
  9 C        0.0180    -5.2820    -0.6280 C.3   1 <1>   0.3430 
 10 C        1.8580    -3.8290     0.2410 C.3   1 <1>   0.3430 
 11 C       -4.6230    -2.1500     1.2740 C.ar  1 <1>  -0.1500 
 12 C       -4.3880    -1.0200    -0.8070 C.ar  1 <1>  -0.1500 
 13 N        1.4750    -5.2080    -0.2460 N.4   1 <1>  -0.9590 
 14 C       -5.2040    -1.4460     0.2300 C.ar  1 <1>   0.0730 
 15 C        2.3510    -5.6330    -1.3700 C.3   1 <1>   0.4860 
 16 C       -6.6070    -1.1650     0.2280 C.1   1 <1>  -0.0730 
 17 C        3.7620    -5.7920    -0.8390 C.ar  1 <1>  -0.1430 
 18 C       -7.7750    -0.9330     0.2380 C.1   1 <1>  -0.2000 
 19 C        4.7070    -4.7970    -1.0770 C.ar  1 <1>  -0.1500 
 20 C        4.1140    -6.9290    -0.1070 C.ar  1 <1>  -0.1500 
 21 C       -9.2340    -0.6410     0.2620 C.3   1 <1>   0.4800 
 22 C        5.9740    -4.9650    -0.5580 C.ar  1 <1>   0.0820 
 23 C        5.3980    -7.0780     0.4030 C.ar  1 <1>  -0.1500 
 24 O       -9.4970    -0.0730     1.4760 O.3   1 <1>  -0.6800 
 25 C      -10.0650    -1.9130     0.1640 C.3   1 <1>  -0.2400 
 26 C       -9.6100     0.3770    -0.8070 C.3   1 <1>  -0.2400 
 27 O        7.0200    -4.1400    -0.6540 O.3   1 <1>  -0.3620 
 28 C        6.3110    -6.0720     0.1620 C.ar  1 <1>   0.0820 
 29 C        8.1000    -4.7690     0.0360 C.3   1 <1>   0.4000 
 30 O        7.5870    -5.9960     0.5520 O.3   1 <1>  -0.3620 
 31 H       -1.9280    -4.7420     0.1230 H     1 <1>   0.0800 
 32 H       -0.8840    -5.4210     1.3380 H     1 <1>   0.0800 
 33 H        1.0490    -3.9260     2.2460 H     1 <1>   0.0800 
 34 H        1.1780    -2.3130     1.6060 H     1 <1>   0.0800 
 35 H       -2.8480    -2.9630     2.1110 H     1 <1>   0.1500 
 36 H       -2.4210    -0.9460    -1.6170 H     1 <1>   0.1500 
 37 H       -0.1510    -4.6820    -1.5080 H     1 <1>   0.0800 
 38 H       -0.2490    -6.2990    -0.8660 H     1 <1>   0.0800 
 39 H        2.8730    -3.8340     0.6070 H     1 <1>   0.0800 
 40 H        1.8050    -3.1260    -0.5740 H     1 <1>   0.0800 
 41 H       -5.2430    -2.4800     2.0910 H     1 <1>   0.1500 
 42 H       -4.8200    -0.4650    -1.6220 H     1 <1>   0.1500 
 43 H        1.6530    -5.8580     0.5290 H     1 <1>   0.4500 
 44 H        2.3320    -4.8980    -2.1590 H     1 <1>   0.0800 
 45 H        2.0150    -6.5750    -1.7710 H     1 <1>   0.0800 
 46 H        4.4900    -3.9100    -1.6470 H     1 <1>   0.1500 
 47 H        3.4000    -7.7150     0.0720 H     1 <1>   0.1500 
 48 H        5.6910    -7.9450     0.9680 H     1 <1>   0.1500 
 49 H       -8.7750     0.5490     1.6730 H     1 <1>   0.4000 
 50 H       -9.7980    -2.5910     0.9550 H     1 <1>   0.0800 
 51 H       -9.8830    -2.3990    -0.7770 H     1 <1>   0.0800 
 52 H      -11.1120    -1.6810     0.2350 H     1 <1>   0.0800 
 53 H       -9.0260     1.2730    -0.6990 H     1 <1>   0.0800 
 54 H      -10.6540     0.6210    -0.7360 H     1 <1>   0.0800 
 55 H       -9.4210    -0.0340    -1.7820 H     1 <1>   0.0800 
 56 H        8.4250    -4.1430     0.8480 H     1 <1>   0.0800 
 57 H        8.9000    -4.9740    -0.6540 H     1 <1>   0.0800 
@<TRIPOS>BOND
  1   1   2  2   
  2   2   3  am  
  3   2   4  1   
  4   3   5  1   
  5   3   6  1   
  6   4   7  ar  
  7   4   8  ar  
  8   5   9  1   
  9   5  31  1   
 10   5  32  1   
 11   6  10  1   
 12   6  33  1   
 13   6  34  1   
 14   7  11  ar  
 15   7  35  1   
 16   8  12  ar  
 17   8  36  1   
 18   9  13  1   
 19   9  37  1   
 20   9  38  1   
 21  10  13  1   
 22  10  39  1   
 23  10  40  1   
 24  11  14  ar  
 25  11  41  1   
 26  12  14  ar  
 27  12  42  1   
 28  13  15  1   
 29  13  43  1   
 30  14  16  1   
 31  15  17  1   
 32  15  44  1   
 33  15  45  1   
 34  16  18  3   
 35  17  19  ar  
 36  17  20  ar  
 37  18  21  1   
 38  19  22  ar  
 39  19  46  1   
 40  20  23  ar  
 41  20  47  1   
 42  21  24  1   
 43  21  25  1   
 44  21  26  1   
 45  22  27  1   
 46  22  28  ar  
 47  23  28  ar  
 48  23  48  1   
 49  24  49  1   
 50  25  50  1   
 51  25  51  1   
 52  25  52  1   
 53  26  53  1   
 54  26  54  1   
 55  26  55  1   
 56  27  29  1   
 57  28  30  1   
 58  29  30  1   
 59  29  56  1   
 60  29  57  1   
@<TRIPOS>SUBSTRUCTURE
  1 ****   3 GROUP 4 **** **** 0

# MOE 2024.06 (io_trps.svl 2023.06)
