@<TRIPOS>MOLECULE
NONAME
46 47 1 0 0 
SMALL
USER_CHARGES


@<TRIPOS>ATOM
  1 N       -0.8020    -0.3410     0.2800 N.4   1 <1>  -0.9590 
  2 C       -1.7130    -0.3230     1.4610 C.3   1 <1>   0.3430 
  3 C       -0.7370    -1.6780    -0.3870 C.3   1 <1>   0.3430 
  4 C        0.5560     0.1290     0.6880 C.3   1 <1>   0.3430 
  5 C       -3.1210    -0.7500     1.0450 C.3   1 <1>  -0.1600 
  6 C       -2.1360    -2.1250    -0.8160 C.3   1 <1>  -0.1600 
  7 C        1.3550     0.5350    -0.5450 C.3   1 <1>  -0.2400 
  8 C       -3.0940    -2.1300     0.3830 C.3   1 <1>   0.4230 
  9 N       -4.4770    -2.5670     0.0150 N.4   1 <1>  -0.9590 
 10 C       -4.5380    -4.0150    -0.3340 C.3   1 <1>   0.4380 
 11 C       -5.1830    -1.7400    -1.0140 C.3   1 <1>   0.3430 
 12 C       -5.9570    -4.5070    -0.0680 C.3   1 <1>  -0.1950 
 13 C       -6.3700    -1.0320    -0.3610 C.3   1 <1>  -0.1600 
 14 C       -6.4850    -4.6570     1.3270 C.3   1 <1>  -0.2000 
 15 C       -6.1860    -5.8730     0.4990 C.3   1 <1>  -0.2000 
 16 C       -7.1150    -0.1630    -1.3810 C.3   1 <1>  -0.2400 
 17 H       -1.1390     0.3530    -0.4040 H     1 <1>   0.4500 
 18 H       -1.7480     0.6710     1.8820 H     1 <1>   0.0800 
 19 H       -1.3370    -0.9910     2.2210 H     1 <1>   0.0800 
 20 H       -0.3140    -2.4010     0.2920 H     1 <1>   0.0800 
 21 H       -0.0980    -1.6260    -1.2560 H     1 <1>   0.0800 
 22 H        1.0770    -0.6440     1.2310 H     1 <1>   0.0800 
 23 H        0.4650     0.9890     1.3340 H     1 <1>   0.0800 
 24 H       -3.5220    -0.0050     0.3820 H     1 <1>   0.0800 
 25 H       -3.7360    -0.7840     1.9270 H     1 <1>   0.0800 
 26 H       -2.0540    -3.1140    -1.2290 H     1 <1>   0.0800 
 27 H       -2.4800    -1.4650    -1.5920 H     1 <1>   0.0800 
 28 H        1.5660    -0.3070    -1.1800 H     1 <1>   0.0800 
 29 H        2.2990     0.9430    -0.2300 H     1 <1>   0.0800 
 30 H        0.8420     1.2960    -1.1060 H     1 <1>   0.0800 
 31 H       -2.7090    -2.8290     1.1090 H     1 <1>   0.0800 
 32 H       -5.0630    -2.5070     0.8600 H     1 <1>   0.4500 
 33 H       -3.8610    -4.5700     0.2950 H     1 <1>   0.0800 
 34 H       -4.2650    -4.1810    -1.3640 H     1 <1>   0.0800 
 35 H       -5.5440    -2.3660    -1.8150 H     1 <1>   0.0800 
 36 H       -4.5190    -1.0060    -1.4370 H     1 <1>   0.0800 
 37 H       -6.6470    -4.2160    -0.8420 H     1 <1>   0.1000 
 38 H       -6.0360    -0.4010     0.4430 H     1 <1>   0.0800 
 39 H       -7.0610    -1.7580     0.0330 H     1 <1>   0.0800 
 40 H       -7.5200    -4.4320     1.5280 H     1 <1>   0.1000 
 41 H       -5.8600    -4.4900     2.1890 H     1 <1>   0.1000 
 42 H       -5.3530    -6.4920     0.7890 H     1 <1>   0.1000 
 43 H       -7.0170    -6.4580     0.1390 H     1 <1>   0.1000 
 44 H       -6.4710     0.5980    -1.7870 H     1 <1>   0.0800 
 45 H       -7.9510     0.3240    -0.9070 H     1 <1>   0.0800 
 46 H       -7.4970    -0.7630    -2.1900 H     1 <1>   0.0800 
@<TRIPOS>BOND
  1   1   2  1   
  2   1   3  1   
  3   1   4  1   
  4   1  17  1   
  5   2   5  1   
  6   2  18  1   
  7   2  19  1   
  8   3   6  1   
  9   3  20  1   
 10   3  21  1   
 11   4   7  1   
 12   4  22  1   
 13   4  23  1   
 14   5   8  1   
 15   5  24  1   
 16   5  25  1   
 17   6   8  1   
 18   6  26  1   
 19   6  27  1   
 20   7  28  1   
 21   7  29  1   
 22   7  30  1   
 23   8   9  1   
 24   8  31  1   
 25   9  10  1   
 26   9  11  1   
 27   9  32  1   
 28  10  12  1   
 29  10  33  1   
 30  10  34  1   
 31  11  13  1   
 32  11  35  1   
 33  11  36  1   
 34  12  14  1   
 35  12  15  1   
 36  12  37  1   
 37  13  16  1   
 38  13  38  1   
 39  13  39  1   
 40  14  15  1   
 41  14  40  1   
 42  14  41  1   
 43  15  42  1   
 44  15  43  1   
 45  16  44  1   
 46  16  45  1   
 47  16  46  1   
@<TRIPOS>SUBSTRUCTURE
  1 ****   8 GROUP 4 **** **** 0

# MOE 2024.06 (io_trps.svl 2023.06)
