@<TRIPOS>MOLECULE
NONAME
47 50 1 0 0 
SMALL
USER_CHARGES


@<TRIPOS>ATOM
  1 N        0.8430     1.0860     0.1260 N.pl3 1 <1>  -0.8380 
  2 C       -0.4210     0.5130    -0.0060 C.ar  1 <1>   0.1000 
  3 C        1.8330     0.4110     1.0170 C.3   1 <1>   0.2090 
  4 C        1.3810     1.8460    -1.0370 C.3   1 <1>   0.2090 
  5 C       -1.5470     1.1300     0.5420 C.ar  1 <1>  -0.1440 
  6 C       -0.5790    -0.6860    -0.6960 C.ar  1 <1>  -0.1500 
  7 C        2.9030    -0.3540     0.2130 C.3   1 <1>   0.3430 
  8 C        2.4490     1.0370    -1.8020 C.3   1 <1>   0.3430 
  9 C       -2.7940     0.5460     0.3920 C.ar  1 <1>  -0.1500 
 10 C       -1.4210     2.4390     1.3090 C.3   1 <1>  -0.0970 
 11 C       -1.8260    -1.2630    -0.8420 C.ar  1 <1>  -0.1500 
 12 N        3.5110     0.4760    -0.8940 N.4   1 <1>  -0.9590 
 13 C       -2.9370    -0.6450    -0.2970 C.ar  1 <1>  -0.1500 
 14 C        4.5530    -0.2720    -1.6390 C.3   1 <1>   0.5240 
 15 C        5.6780    -0.5620    -0.6740 C.2   1 <1>  -0.1810 
 16 C        5.8210    -1.7850     0.0200 C.ar  1 <1>   0.0000 
 17 C        6.6940     0.2520    -0.2940 C.2   1 <1>  -0.3020 
 18 C        6.9410    -1.6400     0.8310 C.ar  1 <1>  -0.1520 
 19 C        5.1090    -2.9910     0.0370 C.ar  1 <1>  -0.1500 
 20 N        7.4760    -0.3960     0.6210 N.pl3 1 <1>   0.0330 
 21 C        7.3540    -2.6700     1.6780 C.ar  1 <1>  -0.1500 
 22 C        5.5180    -4.0060     0.8720 C.ar  1 <1>  -0.1500 
 23 C        6.6390    -3.8440     1.6940 C.ar  1 <1>  -0.1500 
 24 H        1.3180    -0.2740     1.6700 H     1 <1>   0.0800 
 25 H        2.3060     1.1520     1.6380 H     1 <1>   0.0800 
 26 H        1.8050     2.7710    -0.6850 H     1 <1>   0.0800 
 27 H        0.5740     2.0940    -1.7060 H     1 <1>   0.0800 
 28 H        0.2750    -1.1720    -1.1220 H     1 <1>   0.1500 
 29 H        2.4410    -1.2310    -0.2070 H     1 <1>   0.0800 
 30 H        3.6720    -0.6840     0.8920 H     1 <1>   0.0800 
 31 H        2.8980     1.6720    -2.5480 H     1 <1>   0.0800 
 32 H        1.9500     0.2310    -2.3130 H     1 <1>   0.0800 
 33 H       -3.6670     1.0160     0.8110 H     1 <1>   0.1500 
 34 H       -0.7410     2.3140     2.1310 H     1 <1>   0.0800 
 35 H       -2.3720     2.7560     1.6960 H     1 <1>   0.0800 
 36 H       -1.0420     3.2060     0.6590 H     1 <1>   0.0800 
 37 H       -1.9390    -2.1900    -1.3760 H     1 <1>   0.1500 
 38 H        3.9990     1.2550    -0.4350 H     1 <1>   0.4500 
 39 H       -3.9110    -1.0890    -0.4080 H     1 <1>   0.1500 
 40 H        4.9310     0.3270    -2.4510 H     1 <1>   0.0800 
 41 H        4.1570    -1.1910    -2.0390 H     1 <1>   0.0800 
 42 H        6.9260     1.2550    -0.6100 H     1 <1>   0.1500 
 43 H        4.2570    -3.1290    -0.6000 H     1 <1>   0.1500 
 44 H        8.3270    -0.0390     1.0720 H     1 <1>   0.2700 
 45 H        8.2210    -2.5430     2.3040 H     1 <1>   0.1500 
 46 H        4.9850    -4.9410     0.9000 H     1 <1>   0.1500 
 47 H        6.9380    -4.6540     2.3380 H     1 <1>   0.1500 
@<TRIPOS>BOND
  1   1   2  1   
  2   1   3  1   
  3   1   4  1   
  4   2   5  ar  
  5   2   6  ar  
  6   3   7  1   
  7   3  24  1   
  8   3  25  1   
  9   4   8  1   
 10   4  26  1   
 11   4  27  1   
 12   5   9  ar  
 13   5  10  1   
 14   6  11  ar  
 15   6  28  1   
 16   7  12  1   
 17   7  29  1   
 18   7  30  1   
 19   8  12  1   
 20   8  31  1   
 21   8  32  1   
 22   9  13  ar  
 23   9  33  1   
 24  10  34  1   
 25  10  35  1   
 26  10  36  1   
 27  11  13  ar  
 28  11  37  1   
 29  12  14  1   
 30  12  38  1   
 31  13  39  1   
 32  14  15  1   
 33  14  40  1   
 34  14  41  1   
 35  15  16  1   
 36  15  17  2   
 37  16  18  ar  
 38  16  19  ar  
 39  17  20  1   
 40  17  42  1   
 41  18  20  1   
 42  18  21  ar  
 43  19  22  ar  
 44  19  43  1   
 45  20  44  1   
 46  21  23  ar  
 47  21  45  1   
 48  22  23  ar  
 49  22  46  1   
 50  23  47  1   
@<TRIPOS>SUBSTRUCTURE
  1 ****   7 GROUP 4 **** **** 0

# MOE 2024.06 (io_trps.svl 2023.06)
