@<TRIPOS>MOLECULE
NONAME
52 54 1 0 0 
SMALL
USER_CHARGES


@<TRIPOS>ATOM
  1 S       -0.1530     0.4830     0.6510 S.3   1 <1>  -0.0800 
  2 C       -0.8480    -1.0700     0.2250 C.2   1 <1>   0.1040 
  3 C        1.5050    -0.0860     0.4250 C.2   1 <1>  -0.0130 
  4 N       -2.2180    -1.2660     0.2200 N.am  1 <1>  -0.4940 
  5 C        0.1430    -1.9630    -0.0730 C.2   1 <1>  -0.0860 
  6 C        2.6090     0.8200     0.6400 C.ar  1 <1>   0.0530 
  7 C        1.4510    -1.3860     0.0480 C.2   1 <1>  -0.1500 
  8 C       -3.2820    -0.4510     0.5180 C.2   1 <1>   0.5690 
  9 C       -0.0850    -3.3250    -0.4640 C.2   1 <1>   0.8060 
 10 C        2.4830     2.0000     1.3760 C.ar  1 <1>  -0.1500 
 11 C        3.8680     0.5330     0.1090 C.ar  1 <1>  -0.1500 
 12 O       -3.1690     0.6970     0.8680 O.2   1 <1>  -0.5700 
 13 C       -4.6780    -1.0620     0.3820 C.3   1 <1>  -0.0190 
 14 O       -1.2010    -3.8080    -0.5680 O.2   1 <1>  -0.5700 
 15 O        0.9780    -4.0930    -0.7260 O.3   1 <1>  -0.4300 
 16 C        3.5560     2.8500     1.5710 C.ar  1 <1>  -0.1500 
 17 C        4.9460     1.3780     0.3010 C.ar  1 <1>  -0.1500 
 18 C       -5.2500    -0.8180    -1.0270 C.3   1 <1>  -0.1600 
 19 C       -5.6600    -0.5330     1.4470 C.3   1 <1>  -0.1600 
 20 C        0.8410    -5.4420    -1.1130 C.3   1 <1>   0.1200 
 21 C        4.7920     2.5400     1.0340 C.ar  1 <1>  -0.1500 
 22 C       -6.6540    -1.4100    -1.1800 C.3   1 <1>   0.1400 
 23 C       -7.0570    -1.1350     1.2730 C.3   1 <1>   0.1400 
 24 C        2.2380    -6.0140    -1.3320 C.3   1 <1>  -0.2400 
 25 N       -7.5420    -0.8740    -0.1100 N.am  1 <1>  -0.6600 
 26 C       -8.6880    -0.1880    -0.4270 C.2   1 <1>   0.5690 
 27 O       -9.0590    -0.0410    -1.5670 O.2   1 <1>  -0.5700 
 28 C       -9.5480     0.4200     0.6570 C.3   1 <1>  -0.1790 
 29 H       -2.4840    -2.2150    -0.0640 H     1 <1>   0.3700 
 30 H        2.3250    -1.9810    -0.1540 H     1 <1>   0.1500 
 31 H        1.5350     2.2620     1.8090 H     1 <1>   0.1500 
 32 H        4.0070    -0.3620    -0.4680 H     1 <1>   0.1500 
 33 H       -4.5880    -2.1240     0.5260 H     1 <1>   0.0800 
 34 H        3.4300     3.7530     2.1430 H     1 <1>   0.1500 
 35 H        5.9050     1.1330    -0.1210 H     1 <1>   0.1500 
 36 H       -4.6020    -1.2530    -1.7670 H     1 <1>   0.0800 
 37 H       -5.2990     0.2410    -1.2200 H     1 <1>   0.0800 
 38 H       -5.7360     0.5390     1.3750 H     1 <1>   0.0800 
 39 H       -5.2890    -0.7670     2.4290 H     1 <1>   0.0800 
 40 H        0.2620    -5.4820    -2.0210 H     1 <1>   0.0800 
 41 H        0.3260    -5.9740    -0.3300 H     1 <1>   0.0800 
 42 H        5.6290     3.2010     1.1840 H     1 <1>   0.1500 
 43 H       -6.6170    -2.4820    -1.0990 H     1 <1>   0.0800 
 44 H       -7.0400    -1.1650    -2.1550 H     1 <1>   0.0800 
 45 H       -7.7190    -0.7160     2.0090 H     1 <1>   0.0800 
 46 H       -7.0180    -2.1990     1.4330 H     1 <1>   0.0800 
 47 H        2.7460    -5.4700    -2.1080 H     1 <1>   0.0800 
 48 H        2.1660    -7.0450    -1.6280 H     1 <1>   0.0800 
 49 H        2.8090    -5.9600    -0.4220 H     1 <1>   0.0800 
 50 H       -9.9340    -0.3530     1.2930 H     1 <1>   0.0800 
 51 H      -10.3740     0.9440     0.2110 H     1 <1>   0.0800 
 52 H       -8.9700     1.1180     1.2320 H     1 <1>   0.0800 
@<TRIPOS>BOND
  1   1   2  1   
  2   1   3  1   
  3   2   4  1   
  4   2   5  2   
  5   3   6  1   
  6   3   7  2   
  7   4   8  am  
  8   4  29  1   
  9   5   7  1   
 10   5   9  1   
 11   6  10  ar  
 12   6  11  ar  
 13   7  30  1   
 14   8  12  2   
 15   8  13  1   
 16   9  14  2   
 17   9  15  1   
 18  10  16  ar  
 19  10  31  1   
 20  11  17  ar  
 21  11  32  1   
 22  13  18  1   
 23  13  19  1   
 24  13  33  1   
 25  15  20  1   
 26  16  21  ar  
 27  16  34  1   
 28  17  21  ar  
 29  17  35  1   
 30  18  22  1   
 31  18  36  1   
 32  18  37  1   
 33  19  23  1   
 34  19  38  1   
 35  19  39  1   
 36  20  24  1   
 37  20  40  1   
 38  20  41  1   
 39  21  42  1   
 40  22  25  1   
 41  22  43  1   
 42  22  44  1   
 43  23  25  1   
 44  23  45  1   
 45  23  46  1   
 46  24  47  1   
 47  24  48  1   
 48  24  49  1   
 49  25  26  am  
 50  26  27  2   
 51  26  28  1   
 52  28  50  1   
 53  28  51  1   
 54  28  52  1   
@<TRIPOS>SUBSTRUCTURE
  1 ****   4 GROUP 4 **** **** 0

# MOE 2024.06 (io_trps.svl 2023.06)
