@<TRIPOS>MOLECULE
NONAME
51 53 1 0 0 
SMALL
USER_CHARGES


@<TRIPOS>ATOM
  1 O       -5.7910    -3.2280     1.6430 O.2   1 <1>  -0.5700 
  2 C       -5.9780    -3.7480     0.5610 C.2   1 <1>   0.6340 
  3 O       -4.9230    -3.8910    -0.2490 O.3   1 <1>  -0.4300 
  4 C       -7.2820    -4.1700     0.0840 C.ar  1 <1>   0.0860 
  5 C       -3.5800    -3.6830     0.1790 C.3   1 <1>   0.2000 
  6 C       -7.4650    -4.7160    -1.1900 C.ar  1 <1>  -0.1500 
  7 C       -8.4160    -4.0360     0.8880 C.ar  1 <1>  -0.1500 
  8 C       -3.1500    -2.2010     0.0740 C.3   1 <1>   0.3430 
  9 C       -2.6640    -4.5470    -0.6960 C.3   1 <1>   0.1100 
 10 C       -8.7150    -5.0990    -1.6390 C.ar  1 <1>  -0.1500 
 11 C       -9.6690    -4.4170     0.4440 C.ar  1 <1>  -0.1500 
 12 N       -4.1120    -1.2430     0.7100 N.4   1 <1>  -0.9590 
 13 N       -1.2480    -4.2240    -0.4380 N.3   1 <1>  -0.8100 
 14 C       -9.8210    -4.9490    -0.8230 C.ar  1 <1>  -0.1500 
 15 C       -5.0210    -0.6010    -0.2980 C.3   1 <1>   0.3430 
 16 C       -3.4280    -0.2050     1.5480 C.3   1 <1>   0.3430 
 17 C       -0.7450    -4.8980     0.7850 C.3   1 <1>   0.1100 
 18 C       -0.4040    -4.6410    -1.5820 C.3   1 <1>   0.1100 
 19 C       -5.9680     0.4090     0.3770 C.3   1 <1>   0.1200 
 20 C       -4.4460     0.7920     2.1350 C.3   1 <1>   0.1200 
 21 C        0.7560    -4.6250     0.9970 C.3   1 <1>   0.1200 
 22 C        1.0870    -4.3770    -1.3050 C.3   1 <1>   0.1200 
 23 O       -5.2320     1.3420     1.1160 O.3   1 <1>  -0.5600 
 24 O        1.4840    -5.0160    -0.1280 O.3   1 <1>  -0.5600 
 25 H       -3.4950    -4.0210     1.1970 H     1 <1>   0.0800 
 26 H       -6.6210    -4.8490    -1.8450 H     1 <1>   0.1500 
 27 H       -8.3190    -3.6280     1.8800 H     1 <1>   0.1500 
 28 H       -3.0090    -1.9500    -0.9640 H     1 <1>   0.0800 
 29 H       -2.1860    -2.1130     0.5470 H     1 <1>   0.0800 
 30 H       -2.8900    -4.3350    -1.7280 H     1 <1>   0.0800 
 31 H       -2.8480    -5.5930    -0.5160 H     1 <1>   0.0800 
 32 H       -8.8330    -5.5180    -2.6250 H     1 <1>   0.1500 
 33 H      -10.5290    -4.3040     1.0840 H     1 <1>   0.1500 
 34 H       -4.7200    -1.8060     1.3420 H     1 <1>   0.4500 
 35 H      -10.7960    -5.2470    -1.1710 H     1 <1>   0.1500 
 36 H       -5.6020    -1.3540    -0.8030 H     1 <1>   0.0800 
 37 H       -4.4360    -0.0780    -1.0370 H     1 <1>   0.0800 
 38 H       -2.7210     0.3430     0.9470 H     1 <1>   0.0800 
 39 H       -2.8880    -0.6770     2.3520 H     1 <1>   0.0800 
 40 H       -0.8880    -5.9630     0.7080 H     1 <1>   0.0800 
 41 H       -1.2840    -4.5500     1.6480 H     1 <1>   0.0800 
 42 H       -0.6940    -4.0970    -2.4640 H     1 <1>   0.0800 
 43 H       -0.5360    -5.6920    -1.7770 H     1 <1>   0.0800 
 44 H       -6.6610    -0.0890     1.0340 H     1 <1>   0.0800 
 45 H       -6.5280     0.9490    -0.3670 H     1 <1>   0.0800 
 46 H       -3.9330     1.6020     2.6250 H     1 <1>   0.0800 
 47 H       -5.0910     0.3120     2.8500 H     1 <1>   0.0800 
 48 H        1.1240    -5.1890     1.8360 H     1 <1>   0.0800 
 49 H        0.9340    -3.5790     1.1760 H     1 <1>   0.0800 
 50 H        1.2760    -3.3220    -1.2060 H     1 <1>   0.0800 
 51 H        1.6910    -4.7640    -2.1070 H     1 <1>   0.0800 
@<TRIPOS>BOND
  1   1   2  2   
  2   2   3  1   
  3   2   4  1   
  4   3   5  1   
  5   4   6  ar  
  6   4   7  ar  
  7   5   8  1   
  8   5   9  1   
  9   5  25  1   
 10   6  10  ar  
 11   6  26  1   
 12   7  11  ar  
 13   7  27  1   
 14   8  12  1   
 15   8  28  1   
 16   8  29  1   
 17   9  13  1   
 18   9  30  1   
 19   9  31  1   
 20  10  14  ar  
 21  10  32  1   
 22  11  14  ar  
 23  11  33  1   
 24  12  15  1   
 25  12  16  1   
 26  12  34  1   
 27  13  17  1   
 28  13  18  1   
 29  14  35  1   
 30  15  19  1   
 31  15  36  1   
 32  15  37  1   
 33  16  20  1   
 34  16  38  1   
 35  16  39  1   
 36  17  21  1   
 37  17  40  1   
 38  17  41  1   
 39  18  22  1   
 40  18  42  1   
 41  18  43  1   
 42  19  23  1   
 43  19  44  1   
 44  19  45  1   
 45  20  23  1   
 46  20  46  1   
 47  20  47  1   
 48  21  24  1   
 49  21  48  1   
 50  21  49  1   
 51  22  24  1   
 52  22  50  1   
 53  22  51  1   
@<TRIPOS>SUBSTRUCTURE
  1 ****   5 GROUP 4 **** **** 0

# MOE 2024.06 (io_trps.svl 2023.06)
