@<TRIPOS>MOLECULE
NONAME
30 29 1 0 0 
SMALL
USER_CHARGES


@<TRIPOS>ATOM
  1 O       -0.5380     0.3770    -0.8040 O.2   1 <1>  -0.5700 
  2 C       -0.4460     1.4260    -0.1950 C.2   1 <1>   0.7060 
  3 O        0.7770     1.8550     0.1410 O.3   1 <1>  -0.4300 
  4 C       -1.5880     2.2140     0.1720 C.2   1 <1>   0.0290 
  5 C        1.9430     1.1130    -0.1680 C.3   1 <1>   0.0400 
  6 C       -1.2980     3.4920     0.7370 C.2   1 <1>   0.4950 
  7 C       -2.8700     1.7230     0.0230 C.2   1 <1>  -0.1500 
  8 O       -1.6430     3.7940     1.8520 O.2   1 <1>  -0.5700 
  9 C       -0.5630     4.5460    -0.0650 C.3   1 <1>  -0.1790 
 10 C       -4.1480     2.3290     0.1850 C.2   1 <1>   0.0650 
 11 C       -4.2410     3.7570     0.0850 C.1   1 <1>   0.4920 
 12 C       -5.2580     1.5380     0.3730 C.2   1 <1>  -0.0500 
 13 N       -4.2910     4.8890    -0.0600 N.1   1 <1>  -0.5570 
 14 N       -6.5870     1.8470     0.5270 N.pl3 1 <1>  -0.8380 
 15 C       -7.5970     0.7680     0.7110 C.3   1 <1>   0.1290 
 16 C       -7.1620     3.2250     0.5570 C.3   1 <1>   0.1290 
 17 H        2.7970     1.6500     0.2020 H     1 <1>   0.0800 
 18 H        2.0110     0.9970    -1.2360 H     1 <1>   0.0800 
 19 H        1.8780     0.1490     0.3060 H     1 <1>   0.0800 
 20 H       -2.9380     0.6900    -0.2740 H     1 <1>   0.1500 
 21 H       -0.4330     4.2350    -1.0850 H     1 <1>   0.0800 
 22 H        0.3990     4.7270     0.3780 H     1 <1>   0.0800 
 23 H       -1.1300     5.4590    -0.0500 H     1 <1>   0.0800 
 24 H       -5.0620     0.4780     0.4090 H     1 <1>   0.1500 
 25 H       -8.3350     0.8240    -0.0710 H     1 <1>   0.0800 
 26 H       -8.0820     0.8820     1.6650 H     1 <1>   0.0800 
 27 H       -7.1300    -0.2010     0.6750 H     1 <1>   0.0800 
 28 H       -8.2210     3.1920     0.7430 H     1 <1>   0.0800 
 29 H       -6.9960     3.7120    -0.3890 H     1 <1>   0.0800 
 30 H       -6.6970     3.8000     1.3400 H     1 <1>   0.0800 
@<TRIPOS>BOND
  1   1   2  2   
  2   2   3  1   
  3   2   4  1   
  4   3   5  1   
  5   4   6  1   
  6   4   7  2   
  7   5  17  1   
  8   5  18  1   
  9   5  19  1   
 10   6   8  2   
 11   6   9  1   
 12   7  10  1   
 13   7  20  1   
 14   9  21  1   
 15   9  22  1   
 16   9  23  1   
 17  10  11  1   
 18  10  12  2   
 19  11  13  3   
 20  12  14  1   
 21  12  24  1   
 22  14  15  1   
 23  14  16  1   
 24  15  25  1   
 25  15  26  1   
 26  15  27  1   
 27  16  28  1   
 28  16  29  1   
 29  16  30  1   
@<TRIPOS>SUBSTRUCTURE
  1 ****   7 GROUP 4 **** **** 0

# MOE 2024.06 (io_trps.svl 2023.06)
