@<TRIPOS>MOLECULE
NONAME
49 52 1 0 0 
SMALL
USER_CHARGES


@<TRIPOS>ATOM
  1 O       -0.7250    -0.2050     1.0090 O.3   1 <1>  -0.3630 
  2 C       -1.8330    -0.7430     0.4350 C.ar  1 <1>   0.0820 
  3 C       -0.1340    -0.7590     2.1640 C.3   1 <1>   0.0400 
  4 C       -2.2780    -0.1790    -0.7550 C.ar  1 <1>  -0.1440 
  5 C       -2.5240    -1.8180     0.9840 C.ar  1 <1>  -0.1500 
  6 C       -3.4060    -0.6900    -1.3700 C.ar  1 <1>  -0.1500 
  7 C       -1.5290     0.9890    -1.3820 C.3   1 <1>  -0.0960 
  8 C       -3.6540    -2.3330     0.3680 C.ar  1 <1>  -0.1440 
  9 C       -4.1050    -1.7530    -0.8150 C.ar  1 <1>  -0.1440 
 10 C       -4.3500    -3.5220     1.0210 C.3   1 <1>  -0.0970 
 11 C       -5.3560    -2.2350    -1.5250 C.3   1 <1>   0.4860 
 12 N       -6.5400    -1.7620    -0.7670 N.4   1 <1>  -0.9590 
 13 C       -7.8060    -2.3700    -1.2580 C.3   1 <1>   0.5230 
 14 C       -6.6170    -0.2590    -0.6700 C.3   1 <1>   0.3430 
 15 C       -8.9220    -1.8180    -0.4030 C.2   1 <1>  -0.3320 
 16 C       -7.6120     0.1770     0.4170 C.3   1 <1>   0.0210 
 17 N      -10.1700    -2.3670    -0.2670 N.pl3 1 <1>   0.0330 
 18 C       -8.8460    -0.6950     0.3440 C.2   1 <1>  -0.1810 
 19 C      -10.8860    -1.5740     0.5940 C.ar  1 <1>  -0.1520 
 20 C      -10.0810    -0.5130     0.9990 C.ar  1 <1>   0.0000 
 21 C      -12.1960    -1.6970     1.0640 C.ar  1 <1>  -0.1500 
 22 C      -10.5860     0.4420     1.8860 C.ar  1 <1>  -0.1500 
 23 C      -12.6810    -0.7510     1.9360 C.ar  1 <1>  -0.1500 
 24 C      -11.8760     0.3190     2.3470 C.ar  1 <1>  -0.1500 
 25 H        0.7430    -0.1840     2.3980 H     1 <1>   0.0800 
 26 H        0.1430    -1.7790     1.9600 H     1 <1>   0.0800 
 27 H       -0.8350    -0.7030     2.9770 H     1 <1>   0.0800 
 28 H       -2.1840    -2.2640     1.9000 H     1 <1>   0.1500 
 29 H       -3.7350    -0.2460    -2.2940 H     1 <1>   0.1500 
 30 H       -0.5150     0.6970    -1.5920 H     1 <1>   0.0800 
 31 H       -1.5090     1.8190    -0.6990 H     1 <1>   0.0800 
 32 H       -1.9890     1.3080    -2.2990 H     1 <1>   0.0800 
 33 H       -3.6870    -4.0100     1.7150 H     1 <1>   0.0800 
 34 H       -4.6360    -4.2540     0.2880 H     1 <1>   0.0800 
 35 H       -5.2170    -3.1980     1.5660 H     1 <1>   0.0800 
 36 H       -5.3450    -3.3120    -1.5710 H     1 <1>   0.0800 
 37 H       -5.3780    -1.8500    -2.5310 H     1 <1>   0.0800 
 38 H       -6.4270    -2.0850     0.2000 H     1 <1>   0.4500 
 39 H       -7.7640    -3.4430    -1.1610 H     1 <1>   0.0800 
 40 H       -7.9760    -2.1140    -2.2920 H     1 <1>   0.0800 
 41 H       -6.9360     0.1430    -1.6180 H     1 <1>   0.0800 
 42 H       -5.6490     0.1550    -0.4360 H     1 <1>   0.0800 
 43 H       -7.8790     1.2080     0.2690 H     1 <1>   0.0800 
 44 H       -7.1610     0.0840     1.3890 H     1 <1>   0.0800 
 45 H      -10.5510    -3.2120    -0.7080 H     1 <1>   0.2700 
 46 H      -12.8120    -2.5200     0.7460 H     1 <1>   0.1500 
 47 H       -9.9640     1.2600     2.1980 H     1 <1>   0.1500 
 48 H      -13.6870    -0.8230     2.3120 H     1 <1>   0.1500 
 49 H      -12.2820     1.0440     3.0310 H     1 <1>   0.1500 
@<TRIPOS>BOND
  1   1   2  1   
  2   1   3  1   
  3   2   4  ar  
  4   2   5  ar  
  5   3  25  1   
  6   3  26  1   
  7   3  27  1   
  8   4   6  ar  
  9   4   7  1   
 10   5   8  ar  
 11   5  28  1   
 12   6   9  ar  
 13   6  29  1   
 14   7  30  1   
 15   7  31  1   
 16   7  32  1   
 17   8   9  ar  
 18   8  10  1   
 19   9  11  1   
 20  10  33  1   
 21  10  34  1   
 22  10  35  1   
 23  11  12  1   
 24  11  36  1   
 25  11  37  1   
 26  12  13  1   
 27  12  14  1   
 28  12  38  1   
 29  13  15  1   
 30  13  39  1   
 31  13  40  1   
 32  14  16  1   
 33  14  41  1   
 34  14  42  1   
 35  15  17  1   
 36  15  18  2   
 37  16  18  1   
 38  16  43  1   
 39  16  44  1   
 40  17  19  1   
 41  17  45  1   
 42  18  20  1   
 43  19  20  ar  
 44  19  21  ar  
 45  20  22  ar  
 46  21  23  ar  
 47  21  46  1   
 48  22  24  ar  
 49  22  47  1   
 50  23  24  ar  
 51  23  48  1   
 52  24  49  1   
@<TRIPOS>SUBSTRUCTURE
  1 ****  12 GROUP 4 **** **** 0

# MOE 2024.06 (io_trps.svl 2023.06)
