@<TRIPOS>MOLECULE
NONAME
43 44 1 0 0 
SMALL
USER_CHARGES


@<TRIPOS>ATOM
  1 S       -0.1540    -0.0830     0.0150 S.o2  1 <1>   1.4470 
  2 O       -0.3060    -0.8460    -1.2020 O.2   1 <1>  -0.6500 
  3 O       -0.5130    -0.6620     1.2900 O.2   1 <1>  -0.6500 
  4 N       -1.1540     1.2410    -0.2230 N.am  1 <1>  -0.9140 
  5 C        1.4970     0.6590     0.1110 C.ar  1 <1>  -0.0090 
  6 C       -2.5370     0.9640     0.1030 C.3   1 <1>   0.1960 
  7 C        1.8210     1.5510     1.1260 C.ar  1 <1>  -0.1500 
  8 C        2.4830     0.3650    -0.8240 C.ar  1 <1>  -0.1500 
  9 C       -3.3690     2.1740    -0.2980 C.3   1 <1>  -0.2400 
 10 C        3.0760     2.1290     1.2040 C.ar  1 <1>  -0.1500 
 11 C        3.7400     0.9400    -0.7490 C.ar  1 <1>  -0.1500 
 12 C        4.0570     1.8360     0.2660 C.ar  1 <1>   0.1170 
 13 N        5.3170     2.4400     0.3930 N.am  1 <1>  -0.5470 
 14 C        6.3040     2.6610    -0.5300 C.2   1 <1>   0.5690 
 15 O        6.2000     2.3650    -1.6960 O.2   1 <1>  -0.5700 
 16 C        7.5900     3.3320    -0.0440 C.3   1 <1>  -0.0190 
 17 C        7.7720     4.7220    -0.6830 C.3   1 <1>  -0.1600 
 18 C        8.8250     2.4480    -0.3130 C.3   1 <1>  -0.1600 
 19 C        9.0650     5.3990    -0.2060 C.3   1 <1>  -0.1600 
 20 C       10.1180     3.1240     0.1650 C.3   1 <1>  -0.1600 
 21 C       10.2860     4.5090    -0.4720 C.3   1 <1>  -0.1600 
 22 H       -1.1140     1.3900    -1.2280 H     1 <1>   0.4200 
 23 H       -2.6340     0.7870     1.1630 H     1 <1>   0.0800 
 24 H       -2.8770     0.0880    -0.4270 H     1 <1>   0.0800 
 25 H        1.0740     1.7950     1.8640 H     1 <1>   0.1500 
 26 H        2.2680    -0.3240    -1.6240 H     1 <1>   0.1500 
 27 H       -3.0310     3.0480     0.2310 H     1 <1>   0.0800 
 28 H       -4.3990     2.0020    -0.0450 H     1 <1>   0.0800 
 29 H       -3.3020     2.3470    -1.3570 H     1 <1>   0.0800 
 30 H        3.2890     2.8170     2.0020 H     1 <1>   0.1500 
 31 H        4.4760     0.6820    -1.4890 H     1 <1>   0.1500 
 32 H        5.5140     2.8090     1.3200 H     1 <1>   0.3700 
 33 H        7.5170     3.4690     1.0200 H     1 <1>   0.0800 
 34 H        6.9290     5.3460    -0.4420 H     1 <1>   0.0800 
 35 H        7.8030     4.6160    -1.7550 H     1 <1>   0.0800 
 36 H        8.8980     2.2540    -1.3700 H     1 <1>   0.0800 
 37 H        8.7090     1.5010     0.1840 H     1 <1>   0.0800 
 38 H        8.9950     5.6040     0.8490 H     1 <1>   0.0800 
 39 H        9.1880     6.3390    -0.7170 H     1 <1>   0.0800 
 40 H       10.9620     2.5060    -0.0910 H     1 <1>   0.0800 
 41 H       10.0960     3.2240     1.2370 H     1 <1>   0.0800 
 42 H       11.1700     4.9820    -0.0790 H     1 <1>   0.0800 
 43 H       10.4180     4.3970    -1.5350 H     1 <1>   0.0800 
@<TRIPOS>BOND
  1   1   2  2   
  2   1   3  2   
  3   1   4  am  
  4   1   5  1   
  5   4   6  1   
  6   4  22  1   
  7   5   7  ar  
  8   5   8  ar  
  9   6   9  1   
 10   6  23  1   
 11   6  24  1   
 12   7  10  ar  
 13   7  25  1   
 14   8  11  ar  
 15   8  26  1   
 16   9  27  1   
 17   9  28  1   
 18   9  29  1   
 19  10  12  ar  
 20  10  30  1   
 21  11  12  ar  
 22  11  31  1   
 23  12  13  1   
 24  13  14  am  
 25  13  32  1   
 26  14  15  2   
 27  14  16  1   
 28  16  17  1   
 29  16  18  1   
 30  16  33  1   
 31  17  19  1   
 32  17  34  1   
 33  17  35  1   
 34  18  20  1   
 35  18  36  1   
 36  18  37  1   
 37  19  21  1   
 38  19  38  1   
 39  19  39  1   
 40  20  21  1   
 41  20  40  1   
 42  20  41  1   
 43  21  42  1   
 44  21  43  1   
@<TRIPOS>SUBSTRUCTURE
  1 ****  12 GROUP 4 **** **** 0

# MOE 2024.06 (io_trps.svl 2023.06)
