@<TRIPOS>MOLECULE
NONAME
42 44 1 0 0 
SMALL
USER_CHARGES


@<TRIPOS>ATOM
  1 N        0.0570    -0.3180     0.4850 N.3   1 <1>  -0.8100 
  2 C        0.4010     0.2130    -0.8600 C.3   1 <1>   0.1100 
  3 C       -1.2430    -1.0230     0.4530 C.3   1 <1>   0.1100 
  4 C        1.1290    -1.1550     1.0660 C.3   1 <1>   0.2540 
  5 C       -0.7370     1.0630    -1.4740 C.3   1 <1>   0.3430 
  6 C       -2.3850    -0.1190    -0.0770 C.3   1 <1>   0.3430 
  7 C        2.4290    -0.3650     1.1750 C.ar  1 <1>  -0.1440 
  8 N       -1.8670     1.2270    -0.5030 N.4   1 <1>  -0.9590 
  9 C        3.4790    -0.4980     0.2250 C.ar  1 <1>   0.0000 
 10 C        2.5530     0.5030     2.2290 C.ar  1 <1>  -0.1500 
 11 C       -2.9010     2.1780    -0.9760 C.3   1 <1>   0.3430 
 12 C        4.6350     0.3020     0.3890 C.ar  1 <1>   0.0000 
 13 C        3.4510    -1.3730    -0.8900 C.ar  1 <1>  -0.1500 
 14 C        3.7040     1.2780     2.3930 C.ar  1 <1>  -0.1500 
 15 C       -3.7990     2.5830     0.1870 C.3   1 <1>  -0.2400 
 16 C        4.7200     1.1770     1.4890 C.ar  1 <1>  -0.1500 
 17 C        5.6820     0.2100    -0.5500 C.ar  1 <1>  -0.1500 
 18 C        4.4820    -1.4440    -1.7840 C.ar  1 <1>  -0.1500 
 19 C        5.6120    -0.6410    -1.6150 C.ar  1 <1>  -0.1500 
 20 H        0.6370    -0.5970    -1.5290 H     1 <1>   0.0800 
 21 H        1.2770     0.8370    -0.7890 H     1 <1>   0.0800 
 22 H       -1.4970    -1.3520     1.4470 H     1 <1>   0.0800 
 23 H       -1.1690    -1.9000    -0.1690 H     1 <1>   0.0800 
 24 H        1.2550    -2.0580     0.5000 H     1 <1>   0.0800 
 25 H        0.8340    -1.4500     2.0600 H     1 <1>   0.0800 
 26 H       -1.0900     0.5860    -2.3730 H     1 <1>   0.0800 
 27 H       -0.3400     2.0270    -1.7460 H     1 <1>   0.0800 
 28 H       -3.1160     0.0020     0.7040 H     1 <1>   0.0800 
 29 H       -2.8690    -0.6080    -0.9050 H     1 <1>   0.0800 
 30 H       -1.4050     1.5960     0.3430 H     1 <1>   0.4500 
 31 H        1.7620     0.6100     2.9510 H     1 <1>   0.1500 
 32 H       -3.4890     1.7310    -1.7620 H     1 <1>   0.0800 
 33 H       -2.4240     3.0620    -1.3710 H     1 <1>   0.0800 
 34 H        2.6040    -2.0080    -1.0500 H     1 <1>   0.1500 
 35 H        3.7720     1.9470     3.2330 H     1 <1>   0.1500 
 36 H       -4.3750     1.7510     0.5480 H     1 <1>   0.0800 
 37 H       -4.4900     3.3360    -0.1480 H     1 <1>   0.0800 
 38 H       -3.2190     3.0010     0.9910 H     1 <1>   0.0800 
 39 H        5.6090     1.7710     1.6050 H     1 <1>   0.1500 
 40 H        6.5500     0.8300    -0.4100 H     1 <1>   0.1500 
 41 H        4.4450    -2.1160    -2.6240 H     1 <1>   0.1500 
 42 H        6.4160    -0.7060    -2.3280 H     1 <1>   0.1500 
@<TRIPOS>BOND
  1   1   2  1   
  2   1   3  1   
  3   1   4  1   
  4   2   5  1   
  5   2  20  1   
  6   2  21  1   
  7   3   6  1   
  8   3  22  1   
  9   3  23  1   
 10   4   7  1   
 11   4  24  1   
 12   4  25  1   
 13   5   8  1   
 14   5  26  1   
 15   5  27  1   
 16   6   8  1   
 17   6  28  1   
 18   6  29  1   
 19   7   9  ar  
 20   7  10  ar  
 21   8  11  1   
 22   8  30  1   
 23   9  12  ar  
 24   9  13  ar  
 25  10  14  ar  
 26  10  31  1   
 27  11  15  1   
 28  11  32  1   
 29  11  33  1   
 30  12  16  ar  
 31  12  17  ar  
 32  13  18  ar  
 33  13  34  1   
 34  14  16  ar  
 35  14  35  1   
 36  15  36  1   
 37  15  37  1   
 38  15  38  1   
 39  16  39  1   
 40  17  19  ar  
 41  17  40  1   
 42  18  19  ar  
 43  18  41  1   
 44  19  42  1   
@<TRIPOS>SUBSTRUCTURE
  1 ****   2 GROUP 4 **** **** 0

# MOE 2024.06 (io_trps.svl 2023.06)
