@<TRIPOS>MOLECULE
NONAME
50 53 1 0 0 
SMALL
USER_CHARGES


@<TRIPOS>ATOM
  1 S        0.3670    -1.2400     0.5910 S.3   1 <1>  -0.0800 
  2 C        1.4870     0.0550     0.2160 C.2   1 <1>   0.1240 
  3 C       -0.9890    -0.1220     0.4490 C.2   1 <1>  -0.1400 
  4 N        2.8340    -0.0590     0.1300 N.pl3 1 <1>  -0.5340 
  5 C        0.8600     1.2380     0.0060 C.2   1 <1>  -0.0860 
  6 C       -0.5690     1.1190     0.1540 C.2   1 <1>  -0.1810 
  7 C       -2.4070    -0.6010     0.6510 C.3   1 <1>   0.5230 
  8 C        3.5410     1.0560    -0.1790 C.2   1 <1>   0.6410 
  9 C        1.6970     2.3560    -0.3170 C.2   1 <1>   0.8670 
 10 C       -1.5580     2.2610    -0.0020 C.3   1 <1>   0.0210 
 11 N       -3.3250     0.4530     0.0980 N.4   1 <1>  -0.9590 
 12 S        5.2900     0.8060    -0.2690 S.3   1 <1>  -0.3710 
 13 N        3.0580     2.2240    -0.4010 N.2   1 <1>  -0.6610 
 14 O        1.2090     3.4550    -0.5260 O.2   1 <1>  -0.5700 
 15 C       -2.9480     1.8490     0.5240 C.3   1 <1>   0.3430 
 16 C       -4.7510     0.1400     0.3800 C.3   1 <1>   0.4860 
 17 C        5.9460     2.4860    -0.7250 C.3   1 <1>   0.1310 
 18 C       -5.0730    -1.2170    -0.2150 C.ar  1 <1>  -0.1430 
 19 C        7.4600     2.4690    -0.7910 C.2   1 <1>   0.6590 
 20 C       -5.1840    -1.3720    -1.5900 C.ar  1 <1>  -0.1500 
 21 C       -5.2500    -2.3170     0.6140 C.ar  1 <1>  -0.1500 
 22 O        8.0460     2.5600    -1.8400 O.2   1 <1>  -0.5700 
 23 O        8.0940     2.3710     0.3730 O.3   1 <1>  -0.4300 
 24 C       -5.4520    -2.6180    -2.1290 C.ar  1 <1>  -0.1500 
 25 C       -5.5180    -3.5610     0.0710 C.ar  1 <1>  -0.1500 
 26 C        9.5010     2.3670     0.4790 C.3   1 <1>   0.1200 
 27 C       -5.6160    -3.7120    -1.3000 C.ar  1 <1>  -0.1500 
 28 C        9.9930     3.8110     0.5500 C.3   1 <1>  -0.2400 
 29 H        3.3350    -0.9370     0.2820 H     1 <1>   0.4000 
 30 H       -2.5900    -0.7560     1.7010 H     1 <1>   0.0800 
 31 H       -2.5550    -1.5340     0.1300 H     1 <1>   0.0800 
 32 H       -1.6230     2.5450    -1.0380 H     1 <1>   0.0800 
 33 H       -1.2200     3.1210     0.5500 H     1 <1>   0.0800 
 34 H       -3.2020     0.3940    -0.9200 H     1 <1>   0.4500 
 35 H       -3.6790     2.5580     0.1710 H     1 <1>   0.0800 
 36 H       -2.9330     1.8950     1.6010 H     1 <1>   0.0800 
 37 H       -5.3920     0.8830    -0.0660 H     1 <1>   0.0800 
 38 H       -4.9300     0.1270     1.4430 H     1 <1>   0.0800 
 39 H        5.6120     3.1800     0.0230 H     1 <1>   0.0800 
 40 H        5.5310     2.7430    -1.6810 H     1 <1>   0.0800 
 41 H       -5.0690    -0.5360    -2.2590 H     1 <1>   0.1500 
 42 H       -5.1860    -2.2260     1.6860 H     1 <1>   0.1500 
 43 H       -5.5380    -2.7410    -3.1970 H     1 <1>   0.1500 
 44 H       -5.6550    -4.4150     0.7130 H     1 <1>   0.1500 
 45 H        9.9210     1.8470    -0.3660 H     1 <1>   0.0800 
 46 H        9.7580     1.8370     1.3800 H     1 <1>   0.0800 
 47 H       -5.8270    -4.6810    -1.7210 H     1 <1>   0.1500 
 48 H        9.7490     4.3330    -0.3580 H     1 <1>   0.0800 
 49 H       11.0620     3.8220     0.6680 H     1 <1>   0.0800 
 50 H        9.5500     4.3160     1.3890 H     1 <1>   0.0800 
@<TRIPOS>BOND
  1   1   2  1   
  2   1   3  1   
  3   2   4  1   
  4   2   5  2   
  5   3   6  2   
  6   3   7  1   
  7   4   8  1   
  8   4  29  1   
  9   5   6  1   
 10   5   9  1   
 11   6  10  1   
 12   7  11  1   
 13   7  30  1   
 14   7  31  1   
 15   8  12  1   
 16   8  13  2   
 17   9  13  1   
 18   9  14  2   
 19  10  15  1   
 20  10  32  1   
 21  10  33  1   
 22  11  15  1   
 23  11  16  1   
 24  11  34  1   
 25  12  17  1   
 26  15  35  1   
 27  15  36  1   
 28  16  18  1   
 29  16  37  1   
 30  16  38  1   
 31  17  19  1   
 32  17  39  1   
 33  17  40  1   
 34  18  20  ar  
 35  18  21  ar  
 36  19  22  2   
 37  19  23  1   
 38  20  24  ar  
 39  20  41  1   
 40  21  25  ar  
 41  21  42  1   
 42  23  26  1   
 43  24  27  ar  
 44  24  43  1   
 45  25  27  ar  
 46  25  44  1   
 47  26  28  1   
 48  26  45  1   
 49  26  46  1   
 50  27  47  1   
 51  28  48  1   
 52  28  49  1   
 53  28  50  1   
@<TRIPOS>SUBSTRUCTURE
  1 ****   5 GROUP 4 **** **** 0

# MOE 2024.06 (io_trps.svl 2023.06)
