@<TRIPOS>MOLECULE
NONAME
31 32 1 0 0 
SMALL
USER_CHARGES


@<TRIPOS>ATOM
  1 N       -0.0220    -0.6620    -1.2890 N.1   1 <1>  -0.5570 
  2 C       -0.0330    -1.7560    -0.9670 C.1   1 <1>   0.4840 
  3 C       -0.0390    -3.1260    -0.5820 C.ar  1 <1>   0.0730 
  4 C       -1.1840    -3.9080    -0.6350 C.ar  1 <1>   0.4100 
  5 C        1.0950    -3.7560    -0.1350 C.ar  1 <1>   0.1600 
  6 N       -1.1920    -5.1680    -0.2870 N.ar  1 <1>  -0.6200 
  7 N       -2.3970    -3.4480    -1.0530 N.pl3 1 <1>  -0.9000 
  8 N        1.1160    -5.0190     0.2200 N.ar  1 <1>  -0.6200 
  9 C       -0.0400    -5.6790     0.1280 C.ar  1 <1>   0.7200 
 10 N       -0.0330    -7.0060     0.5000 N.pl3 1 <1>  -0.8380 
 11 C       -1.2710    -7.7440     0.8790 C.3   1 <1>   0.2090 
 12 C        1.2160    -7.8120     0.6030 C.3   1 <1>   0.2090 
 13 C       -1.4120    -8.9920     0.0030 C.3   1 <1>  -0.1600 
 14 C        1.0880    -9.0700    -0.2620 C.3   1 <1>  -0.1600 
 15 C       -0.1650    -9.8860     0.0910 C.3   1 <1>  -0.0800 
 16 C       -0.3020   -11.0970    -0.8390 C.3   1 <1>  -0.2400 
 17 H        2.0190    -3.2070    -0.0670 H     1 <1>   0.1500 
 18 H       -3.1250    -4.1570    -1.1700 H     1 <1>   0.4000 
 19 H       -2.5010    -2.6120    -1.6330 H     1 <1>   0.4000 
 20 H       -2.1470    -7.1290     0.7730 H     1 <1>   0.0800 
 21 H       -1.1980    -8.0330     1.9130 H     1 <1>   0.0800 
 22 H        1.3710    -8.0860     1.6320 H     1 <1>   0.0800 
 23 H        2.0740    -7.2510     0.2750 H     1 <1>   0.0800 
 24 H       -1.5700    -8.6760    -1.0130 H     1 <1>   0.0800 
 25 H       -2.2790    -9.5430     0.3180 H     1 <1>   0.0800 
 26 H        1.9670    -9.6760    -0.1300 H     1 <1>   0.0800 
 27 H        1.0500    -8.7670    -1.2940 H     1 <1>   0.0800 
 28 H       -0.0690   -10.2420     1.1030 H     1 <1>   0.0800 
 29 H       -0.4010   -10.7800    -1.8620 H     1 <1>   0.0800 
 30 H       -1.1700   -11.6740    -0.5740 H     1 <1>   0.0800 
 31 H        0.5640   -11.7300    -0.7570 H     1 <1>   0.0800 
@<TRIPOS>BOND
  1   1   2  3   
  2   2   3  1   
  3   3   4  ar  
  4   3   5  ar  
  5   4   6  ar  
  6   4   7  1   
  7   5   8  ar  
  8   5  17  1   
  9   6   9  ar  
 10   7  18  1   
 11   7  19  1   
 12   8   9  ar  
 13   9  10  1   
 14  10  11  1   
 15  10  12  1   
 16  11  13  1   
 17  11  20  1   
 18  11  21  1   
 19  12  14  1   
 20  12  22  1   
 21  12  23  1   
 22  13  15  1   
 23  13  24  1   
 24  13  25  1   
 25  14  15  1   
 26  14  26  1   
 27  14  27  1   
 28  15  16  1   
 29  15  28  1   
 30  16  29  1   
 31  16  30  1   
 32  16  31  1   
@<TRIPOS>SUBSTRUCTURE
  1 ****   9 GROUP 4 **** **** 0

# MOE 2024.06 (io_trps.svl 2023.06)
