@<TRIPOS>MOLECULE
NONAME
47 49 1 0 0 
SMALL
USER_CHARGES


@<TRIPOS>ATOM
  1 F       -2.2310     1.7730     1.8950 F     1 <1>  -0.1900 
  2 C       -1.2820     2.3060     1.1700 C.ar  1 <1>   0.1900 
  3 C       -1.4160     2.3090    -0.2100 C.ar  1 <1>  -0.1440 
  4 C       -0.1940     2.8610     1.8150 C.ar  1 <1>  -0.1500 
  5 C       -0.4060     2.8950    -0.9620 C.ar  1 <1>  -0.1500 
  6 C       -2.6290     1.6860    -0.8720 C.3   1 <1>   0.4870 
  7 C        0.8010     3.4430     1.0510 C.ar  1 <1>  -0.1500 
  8 C        0.6930     3.4590    -0.3310 C.ar  1 <1>  -0.1500 
  9 N       -3.8590     2.4020    -0.4090 N.4   1 <1>  -0.9590 
 10 C       -5.0890     1.6900    -0.8310 C.3   1 <1>   0.3430 
 11 C       -3.8440     3.8320    -0.8200 C.3   1 <1>   0.3430 
 12 C       -6.3160     2.3800    -0.2320 C.3   1 <1>  -0.1600 
 13 C       -5.0510     4.5540    -0.2200 C.3   1 <1>  -0.1600 
 14 C       -6.3820     3.8760    -0.5900 C.3   1 <1>   0.4230 
 15 N       -7.5290     4.5400     0.1230 N.4   1 <1>  -0.9590 
 16 C       -8.8610     3.9030    -0.1690 C.3   1 <1>   0.3430 
 17 C       -7.6240     6.0170    -0.1480 C.3   1 <1>   0.3430 
 18 C       -9.9390     4.4890     0.7440 C.3   1 <1>  -0.1600 
 19 C       -8.6710     6.6570     0.7650 C.3   1 <1>  -0.1600 
 20 C      -10.0470     6.0090     0.5910 C.3   1 <1>  -0.1600 
 21 H       -0.1240     2.8370     2.8890 H     1 <1>   0.1500 
 22 H       -0.4510     2.9170    -2.0390 H     1 <1>   0.1500 
 23 H       -2.6800     0.6450    -0.5940 H     1 <1>   0.0800 
 24 H       -2.5370     1.7490    -1.9440 H     1 <1>   0.0800 
 25 H        1.6620     3.8820     1.5290 H     1 <1>   0.1500 
 26 H        1.4760     3.9110    -0.9180 H     1 <1>   0.1500 
 27 H       -3.7820     2.3630     0.6220 H     1 <1>   0.4500 
 28 H       -5.0550     0.6640    -0.4950 H     1 <1>   0.0800 
 29 H       -5.1590     1.6870    -1.9080 H     1 <1>   0.0800 
 30 H       -3.8700     3.9040    -1.8960 H     1 <1>   0.0800 
 31 H       -2.9370     4.3060    -0.4760 H     1 <1>   0.0800 
 32 H       -6.2990     2.2500     0.8360 H     1 <1>   0.0800 
 33 H       -7.1760     1.8650    -0.6200 H     1 <1>   0.0800 
 34 H       -5.0240     5.5590    -0.5980 H     1 <1>   0.0800 
 35 H       -4.9320     4.5930     0.8490 H     1 <1>   0.0800 
 36 H       -6.5310     3.9700    -1.6550 H     1 <1>   0.0800 
 37 H       -7.3860     4.4470     1.1370 H     1 <1>   0.4500 
 38 H       -8.8210     2.8410     0.0000 H     1 <1>   0.0800 
 39 H       -9.1320     4.0740    -1.1990 H     1 <1>   0.0800 
 40 H       -7.8960     6.1850    -1.1780 H     1 <1>   0.0800 
 41 H       -6.6800     6.5000     0.0370 H     1 <1>   0.0800 
 42 H       -9.7240     4.2350     1.7670 H     1 <1>   0.0800 
 43 H      -10.8880     4.0420     0.4980 H     1 <1>   0.0800 
 44 H       -8.7440     7.7060     0.5340 H     1 <1>   0.0800 
 45 H       -8.3530     6.5780     1.7900 H     1 <1>   0.0800 
 46 H      -10.7350     6.4040     1.3210 H     1 <1>   0.0800 
 47 H      -10.4380     6.2460    -0.3850 H     1 <1>   0.0800 
@<TRIPOS>BOND
  1   1   2  1   
  2   2   3  ar  
  3   2   4  ar  
  4   3   5  ar  
  5   3   6  1   
  6   4   7  ar  
  7   4  21  1   
  8   5   8  ar  
  9   5  22  1   
 10   6   9  1   
 11   6  23  1   
 12   6  24  1   
 13   7   8  ar  
 14   7  25  1   
 15   8  26  1   
 16   9  10  1   
 17   9  11  1   
 18   9  27  1   
 19  10  12  1   
 20  10  28  1   
 21  10  29  1   
 22  11  13  1   
 23  11  30  1   
 24  11  31  1   
 25  12  14  1   
 26  12  32  1   
 27  12  33  1   
 28  13  14  1   
 29  13  34  1   
 30  13  35  1   
 31  14  15  1   
 32  14  36  1   
 33  15  16  1   
 34  15  17  1   
 35  15  37  1   
 36  16  18  1   
 37  16  38  1   
 38  16  39  1   
 39  17  19  1   
 40  17  40  1   
 41  17  41  1   
 42  18  20  1   
 43  18  42  1   
 44  18  43  1   
 45  19  20  1   
 46  19  44  1   
 47  19  45  1   
 48  20  46  1   
 49  20  47  1   
@<TRIPOS>SUBSTRUCTURE
  1 ****  11 GROUP 4 **** **** 0

# MOE 2024.06 (io_trps.svl 2023.06)
