@<TRIPOS>MOLECULE
NONAME
42 42 1 0 0 
SMALL
USER_CHARGES


@<TRIPOS>ATOM
  1 S        1.0660    -0.6340    -0.1910 S.o2  1 <1>   1.3330 
  2 O        1.5220    -1.6790     0.6910 O.2   1 <1>  -0.6500 
  3 O        2.0130     0.1140    -0.9820 O.2   1 <1>  -0.6500 
  4 N        0.2370     0.5140     0.7990 N.am  1 <1>  -0.6930 
  5 C       -0.2360    -1.2820    -1.2190 C.3   1 <1>  -0.1350 
  6 C       -0.6130     1.4840     0.2700 C.ar  1 <1>   0.1990 
  7 C        0.8690     0.8080     2.1260 C.3   1 <1>   0.2570 
  8 C       -1.9140     1.5760     0.7450 C.ar  1 <1>  -0.1500 
  9 C       -0.1990     2.3660    -0.7240 C.ar  1 <1>  -0.1500 
 10 C        1.9550     1.8920     2.1020 C.2   1 <1>   0.5690 
 11 C       -2.7930     2.5180     0.2410 C.ar  1 <1>   0.0820 
 12 C       -1.0630     3.3220    -1.2260 C.ar  1 <1>  -0.1500 
 13 O        2.0890     2.5850     3.0830 O.2   1 <1>  -0.5700 
 14 N        2.7400     2.0640     1.0050 N.am  1 <1>  -0.7300 
 15 O       -4.0550     2.5190     0.7400 O.3   1 <1>  -0.3630 
 16 C       -2.3560     3.4160    -0.7390 C.ar  1 <1>   0.0820 
 17 C        3.7280     3.1320     0.8170 C.3   1 <1>   0.2780 
 18 C       -5.1030     2.2700    -0.1720 C.3   1 <1>   0.0400 
 19 O       -3.1460     4.3980    -1.2420 O.3   1 <1>  -0.3630 
 20 C        3.2780     3.9520    -0.3730 C.2   1 <1>  -0.2880 
 21 C       -3.4330     5.4560    -0.3540 C.3   1 <1>   0.0400 
 22 C        3.9270     4.0550    -1.5370 C.2   1 <1>  -0.3000 
 23 H        0.1540    -2.0380    -1.8710 H     1 <1>   0.0800 
 24 H       -0.6640    -0.5010    -1.8160 H     1 <1>   0.0800 
 25 H       -1.0050    -1.7150    -0.6110 H     1 <1>   0.0800 
 26 H        1.2970    -0.0870     2.5380 H     1 <1>   0.0800 
 27 H        0.1020     1.1330     2.8050 H     1 <1>   0.0800 
 28 H       -2.2510     0.9030     1.5110 H     1 <1>   0.1500 
 29 H        0.8060     2.3180    -1.1050 H     1 <1>   0.1500 
 30 H       -0.7370     4.0050    -1.9900 H     1 <1>   0.1500 
 31 H        2.5970     1.4730     0.1730 H     1 <1>   0.3700 
 32 H        4.6930     2.6930     0.6320 H     1 <1>   0.0800 
 33 H        3.7910     3.7520     1.6950 H     1 <1>   0.0800 
 34 H       -6.0060     2.1160     0.3900 H     1 <1>   0.0800 
 35 H       -4.8680     1.3890    -0.7420 H     1 <1>   0.0800 
 36 H       -5.2200     3.1170    -0.8230 H     1 <1>   0.0800 
 37 H        2.3490     4.4600    -0.1780 H     1 <1>   0.1500 
 38 H       -4.0160     6.1900    -0.8810 H     1 <1>   0.0800 
 39 H       -2.5070     5.8900    -0.0200 H     1 <1>   0.0800 
 40 H       -3.9910     5.0760     0.4840 H     1 <1>   0.0800 
 41 H        3.5810     4.6470    -2.3670 H     1 <1>   0.1500 
 42 H        4.8550     3.5560    -1.7620 H     1 <1>   0.1500 
@<TRIPOS>BOND
  1   1   2  2   
  2   1   3  2   
  3   1   4  am  
  4   1   5  1   
  5   4   6  1   
  6   4   7  1   
  7   5  23  1   
  8   5  24  1   
  9   5  25  1   
 10   6   8  ar  
 11   6   9  ar  
 12   7  10  1   
 13   7  26  1   
 14   7  27  1   
 15   8  11  ar  
 16   8  28  1   
 17   9  12  ar  
 18   9  29  1   
 19  10  13  2   
 20  10  14  am  
 21  11  15  1   
 22  11  16  ar  
 23  12  16  ar  
 24  12  30  1   
 25  14  17  1   
 26  14  31  1   
 27  15  18  1   
 28  16  19  1   
 29  17  20  1   
 30  17  32  1   
 31  17  33  1   
 32  18  34  1   
 33  18  35  1   
 34  18  36  1   
 35  19  21  1   
 36  20  22  2   
 37  20  37  1   
 38  21  38  1   
 39  21  39  1   
 40  21  40  1   
 41  22  41  1   
 42  22  42  1   
@<TRIPOS>SUBSTRUCTURE
  1 ****   6 GROUP 4 **** **** 0

# MOE 2024.06 (io_trps.svl 2023.06)
