@<TRIPOS>MOLECULE
NONAME
34 34 1 0 0 
SMALL
USER_CHARGES


@<TRIPOS>ATOM
  1 BR       1.4990    -0.7130    -0.6120 Br    1 <1>  -0.1110 
  2 C        0.3750    -2.0700     0.1670 C.ar  1 <1>   0.1110 
  3 C        0.6420    -2.5650     1.4300 C.ar  1 <1>   0.1900 
  4 C       -0.7040    -2.5340    -0.5640 C.ar  1 <1>  -0.1500 
  5 F        1.6620    -2.1160     2.1110 F     1 <1>  -0.1900 
  6 C       -0.1630    -3.5390     1.9900 C.ar  1 <1>  -0.1500 
  7 C       -1.5290    -3.5070    -0.0070 C.ar  1 <1>  -0.1440 
  8 C       -1.2490    -4.0080     1.2640 C.ar  1 <1>  -0.1500 
  9 C       -2.7290    -4.0220    -0.7820 C.3   1 <1>   0.4870 
 10 N       -3.9650    -3.4180    -0.2090 N.4   1 <1>  -0.9590 
 11 C       -5.1770    -4.1440    -0.7190 C.3   1 <1>   0.3430 
 12 C       -4.0120    -1.9490    -0.4810 C.3   1 <1>   0.3430 
 13 C       -6.1310    -4.5530     0.4110 C.3   1 <1>   0.1200 
 14 C       -5.1100    -1.2690     0.3380 C.3   1 <1>  -0.1600 
 15 O       -7.1660    -5.2680    -0.1610 O.3   1 <1>  -0.6800 
 16 C       -5.0260     0.2550     0.1990 C.3   1 <1>  -0.2400 
 17 H       -0.8780    -2.1310    -1.5470 H     1 <1>   0.1500 
 18 H        0.0640    -3.9180     2.9720 H     1 <1>   0.1500 
 19 H       -1.8650    -4.7740     1.7060 H     1 <1>   0.1500 
 20 H       -2.7670    -5.0960    -0.6960 H     1 <1>   0.0800 
 21 H       -2.6360    -3.7680    -1.8260 H     1 <1>   0.0800 
 22 H       -3.8940    -3.5390     0.8080 H     1 <1>   0.4500 
 23 H       -4.8760    -5.0420    -1.2330 H     1 <1>   0.0800 
 24 H       -5.7100    -3.5220    -1.4200 H     1 <1>   0.0800 
 25 H       -4.1770    -1.7680    -1.5310 H     1 <1>   0.0800 
 26 H       -3.0680    -1.5030    -0.2110 H     1 <1>   0.0800 
 27 H       -6.5520    -3.6960     0.9060 H     1 <1>   0.0800 
 28 H       -5.6400    -5.1950     1.1220 H     1 <1>   0.0800 
 29 H       -5.0040    -1.5220     1.3790 H     1 <1>   0.0800 
 30 H       -6.0810    -1.5830    -0.0040 H     1 <1>   0.0800 
 31 H       -7.8290    -5.5520     0.5050 H     1 <1>   0.4000 
 32 H       -4.0780     0.6220     0.5550 H     1 <1>   0.0800 
 33 H       -5.8040     0.7210     0.7810 H     1 <1>   0.0800 
 34 H       -5.1510     0.5550    -0.8270 H     1 <1>   0.0800 
@<TRIPOS>BOND
  1   1   2  1   
  2   2   3  ar  
  3   2   4  ar  
  4   3   5  1   
  5   3   6  ar  
  6   4   7  ar  
  7   4  17  1   
  8   6   8  ar  
  9   6  18  1   
 10   7   8  ar  
 11   7   9  1   
 12   8  19  1   
 13   9  10  1   
 14   9  20  1   
 15   9  21  1   
 16  10  11  1   
 17  10  12  1   
 18  10  22  1   
 19  11  13  1   
 20  11  23  1   
 21  11  24  1   
 22  12  14  1   
 23  12  25  1   
 24  12  26  1   
 25  13  15  1   
 26  13  27  1   
 27  13  28  1   
 28  14  16  1   
 29  14  29  1   
 30  14  30  1   
 31  15  31  1   
 32  16  32  1   
 33  16  33  1   
 34  16  34  1   
@<TRIPOS>SUBSTRUCTURE
  1 ****   7 GROUP 4 **** **** 0

# MOE 2024.06 (io_trps.svl 2023.06)
