@<TRIPOS>MOLECULE
NONAME
32 32 1 0 0 
SMALL
USER_CHARGES


@<TRIPOS>ATOM
  1 S        0.8140    -0.1480    -0.8120 S.3   1 <1>  -0.3320 
  2 C        0.4620    -1.8150    -0.1980 C.ar  1 <1>   0.1020 
  3 C       -0.7940     0.6520    -1.2500 C.3   1 <1>  -0.0100 
  4 C        1.4790    -2.5770     0.4000 C.ar  1 <1>   0.0860 
  5 C       -0.8290    -2.3090    -0.3270 C.ar  1 <1>  -0.1500 
  6 C        2.8600    -2.1540     0.5600 C.2   1 <1>   0.5440 
  7 C        1.1180    -3.8410     0.8740 C.ar  1 <1>  -0.1500 
  8 C       -1.1450    -3.5680     0.1480 C.ar  1 <1>  -0.1500 
  9 O        3.4610    -2.4390     1.5780 O.2   1 <1>  -0.5700 
 10 N        3.5150    -1.4810    -0.4360 N.am  1 <1>  -0.7300 
 11 C       -0.1670    -4.3340     0.7530 C.ar  1 <1>  -0.1500 
 12 C        4.8930    -0.9520    -0.4540 C.3   1 <1>   0.2200 
 13 C        5.9100    -2.0930    -0.2860 C.3   1 <1>  -0.1600 
 14 C        5.0240     0.1470     0.6010 C.3   1 <1>  -0.2400 
 15 C        7.3520    -1.6650    -0.5960 C.3   1 <1>  -0.2400 
 16 H       -0.5860     1.6750    -1.5110 H     1 <1>   0.0800 
 17 H       -1.4360     0.6030    -0.3890 H     1 <1>   0.0800 
 18 H       -1.2130     0.1250    -2.0880 H     1 <1>   0.0800 
 19 H       -1.6050    -1.7350    -0.7940 H     1 <1>   0.1500 
 20 H        1.8710    -4.4470     1.3500 H     1 <1>   0.1500 
 21 H       -2.1460    -3.9510     0.0490 H     1 <1>   0.1500 
 22 H        2.9170    -1.0850    -1.1650 H     1 <1>   0.3700 
 23 H       -0.4060    -5.3140     1.1300 H     1 <1>   0.1500 
 24 H        5.0510    -0.5070    -1.4220 H     1 <1>   0.0800 
 25 H        5.6410    -2.8920    -0.9550 H     1 <1>   0.0800 
 26 H        5.8670    -2.4720     0.7190 H     1 <1>   0.0800 
 27 H        4.9500    -0.2690     1.5900 H     1 <1>   0.0800 
 28 H        4.2490     0.8800     0.4690 H     1 <1>   0.0800 
 29 H        5.9740     0.6400     0.5120 H     1 <1>   0.0800 
 30 H        7.4220    -1.2640    -1.5910 H     1 <1>   0.0800 
 31 H        8.0050    -2.5170    -0.5240 H     1 <1>   0.0800 
 32 H        7.6890    -0.9240     0.1060 H     1 <1>   0.0800 
@<TRIPOS>BOND
  1   1   2  1   
  2   1   3  1   
  3   2   4  ar  
  4   2   5  ar  
  5   3  16  1   
  6   3  17  1   
  7   3  18  1   
  8   4   6  1   
  9   4   7  ar  
 10   5   8  ar  
 11   5  19  1   
 12   6   9  2   
 13   6  10  am  
 14   7  11  ar  
 15   7  20  1   
 16   8  11  ar  
 17   8  21  1   
 18  10  12  1   
 19  10  22  1   
 20  11  23  1   
 21  12  13  1   
 22  12  14  1   
 23  12  24  1   
 24  13  15  1   
 25  13  25  1   
 26  13  26  1   
 27  14  27  1   
 28  14  28  1   
 29  14  29  1   
 30  15  30  1   
 31  15  31  1   
 32  15  32  1   
@<TRIPOS>SUBSTRUCTURE
  1 ****   6 GROUP 4 **** **** 0

# MOE 2024.06 (io_trps.svl 2023.06)
