@<TRIPOS>MOLECULE
NONAME
51 53 1 0 0 
SMALL
USER_CHARGES


@<TRIPOS>ATOM
  1 N       -6.4890     7.7290    -0.7420 N.ar  1 <1>  -0.6240 
  2 C       -5.4100     7.2460    -0.1120 C.ar  1 <1>   0.1590 
  3 C       -6.6810     9.0360    -0.6040 C.ar  1 <1>   0.1530 
  4 C       -4.5750     8.0100     0.6890 C.ar  1 <1>  -0.1570 
  5 C       -5.0620     5.7660    -0.3100 C.3   1 <1>   0.3050 
  6 C       -5.9000     9.8740     0.1710 C.ar  1 <1>  -0.1570 
  7 C       -4.8210     9.3550     0.8490 C.ar  1 <1>  -0.1570 
  8 N       -6.1250     5.1600    -1.1340 N.pl3 1 <1>  -0.7180 
  9 C       -6.9080     4.1610    -0.7910 C.cat 1 <1>   1.0690 
 10 N       -6.4970     3.0190    -0.2670 N.pl3 1 <1>  -0.7040 
 11 N       -8.2410     4.1850    -0.8970 N.pl3 1 <1>  -0.7670 
 12 C       -7.6000     2.2170    -0.0490 C.ar  1 <1>   0.3030 
 13 C       -8.7060     2.9470    -0.4500 C.ar  1 <1>   0.3030 
 14 C       -9.1070     5.3470    -1.2520 C.3   1 <1>   0.3480 
 15 C       -7.7300     0.9310     0.4590 C.ar  1 <1>  -0.1160 
 16 C       -9.9820     2.4000    -0.3560 C.ar  1 <1>  -0.1160 
 17 C       -9.4850     6.1560     0.0170 C.3   1 <1>   0.3370 
 18 C       -8.9980     0.3910     0.5560 C.ar  1 <1>  -0.1570 
 19 C      -10.1170     1.1210     0.1510 C.ar  1 <1>  -0.1570 
 20 N      -10.3330     7.3810    -0.2190 N.4   1 <1>  -0.9610 
 21 C       -9.8740     8.4650     0.6930 C.3   1 <1>   0.3370 
 22 C      -11.7960     7.1470    -0.0110 C.3   1 <1>   0.3370 
 23 C      -10.3030     9.8160     0.1340 C.3   1 <1>  -0.2470 
 24 C      -12.3590     6.2210    -1.0800 C.3   1 <1>  -0.2470 
 25 H       -7.5040     9.4760    -1.1400 H     1 <1>   0.1430 
 26 H       -3.7250     7.5700     1.1830 H     1 <1>   0.1430 
 27 H       -4.9870     5.2740     0.6450 H     1 <1>   0.0720 
 28 H       -4.1180     5.6870    -0.8250 H     1 <1>   0.0720 
 29 H       -6.1270    10.9240     0.2380 H     1 <1>   0.1430 
 30 H       -4.1900     9.9770     1.4640 H     1 <1>   0.1430 
 31 H       -6.5330     5.9250    -1.6800 H     1 <1>   0.4450 
 32 H       -5.5260     2.7380    -0.1500 H     1 <1>   0.4450 
 33 H       -9.9880     4.9830    -1.7480 H     1 <1>   0.0720 
 34 H       -8.5820     5.9890    -1.9390 H     1 <1>   0.0720 
 35 H       -6.8650     0.3700     0.7680 H     1 <1>   0.1430 
 36 H      -10.8480     2.9500    -0.6740 H     1 <1>   0.1430 
 37 H       -8.5610     6.4670     0.4770 H     1 <1>   0.0720 
 38 H       -9.9920     5.5060     0.7100 H     1 <1>   0.0720 
 39 H       -9.1330    -0.6060     0.9470 H     1 <1>   0.1430 
 40 H      -11.0940     0.6700     0.2340 H     1 <1>   0.1430 
 41 H      -10.2030     7.7410    -1.1750 H     1 <1>   0.4450 
 42 H       -8.7990     8.4490     0.7670 H     1 <1>   0.0720 
 43 H      -10.2810     8.3230     1.6820 H     1 <1>   0.0720 
 44 H      -12.3210     8.0870    -0.0680 H     1 <1>   0.0720 
 45 H      -11.9720     6.7300     0.9680 H     1 <1>   0.0720 
 46 H       -9.9350     9.9580    -0.8660 H     1 <1>   0.0720 
 47 H       -9.8930    10.5950     0.7510 H     1 <1>   0.0720 
 48 H      -11.3720     9.9270     0.1440 H     1 <1>   0.0720 
 49 H      -12.0930     6.5570    -2.0670 H     1 <1>   0.0720 
 50 H      -13.4330     6.2290    -1.0100 H     1 <1>   0.0720 
 51 H      -12.0420     5.2070    -0.9270 H     1 <1>   0.0720 
@<TRIPOS>BOND
  1   1   2  ar  
  2   1   3  ar  
  3   2   4  ar  
  4   2   5  1   
  5   3   6  ar  
  6   3  25  1   
  7   4   7  ar  
  8   4  26  1   
  9   5   8  1   
 10   5  27  1   
 11   5  28  1   
 12   6   7  ar  
 13   6  29  1   
 14   7  30  1   
 15   8   9  ar  
 16   8  31  1   
 17   9  10  ar  
 18   9  11  ar  
 19  10  12  1   
 20  10  32  1   
 21  11  13  1   
 22  11  14  1   
 23  12  13  ar  
 24  12  15  ar  
 25  13  16  ar  
 26  14  17  1   
 27  14  33  1   
 28  14  34  1   
 29  15  18  ar  
 30  15  35  1   
 31  16  19  ar  
 32  16  36  1   
 33  17  20  1   
 34  17  37  1   
 35  17  38  1   
 36  18  19  ar  
 37  18  39  1   
 38  19  40  1   
 39  20  21  1   
 40  20  22  1   
 41  20  41  1   
 42  21  23  1   
 43  21  42  1   
 44  21  43  1   
 45  22  24  1   
 46  22  44  1   
 47  22  45  1   
 48  23  46  1   
 49  23  47  1   
 50  23  48  1   
 51  24  49  1   
 52  24  50  1   
 53  24  51  1   
@<TRIPOS>SUBSTRUCTURE
  1 ****  14 GROUP 4 **** **** 0

# MOE 2024.06 (io_trps.svl 2023.06)
