@<TRIPOS>MOLECULE
NONAME
44 45 1 0 0 
SMALL
USER_CHARGES


@<TRIPOS>ATOM
  1 F       -0.4570    -0.6290    -1.3060 F     1 <1>  -0.1900 
  2 C       -1.4880    -1.1440    -0.6760 C.ar  1 <1>   0.1900 
  3 C       -1.3240    -2.3400     0.0320 C.ar  1 <1>   0.1000 
  4 C       -2.6860    -0.4720    -0.7470 C.ar  1 <1>  -0.1500 
  5 N       -0.1270    -3.0460     0.1240 N.pl3 1 <1>  -0.8380 
  6 C       -2.4530    -2.8320     0.6740 C.ar  1 <1>  -0.1500 
  7 C       -3.8230    -0.9650    -0.0980 C.ar  1 <1>   0.0860 
  8 C        0.9580    -2.3990     0.9230 C.3   1 <1>   0.2090 
  9 C        0.3450    -3.7030    -1.1330 C.3   1 <1>   0.2090 
 10 C       -3.6640    -2.1660     0.6100 C.ar  1 <1>  -0.1500 
 11 C       -5.0730    -0.2400    -0.1870 C.2   1 <1>   0.4230 
 12 C        2.1330    -3.3690     1.1680 C.3   1 <1>   0.3430 
 13 C        1.5260    -4.6570    -0.8580 C.3   1 <1>   0.3430 
 14 O       -5.2030     0.7420    -0.8740 O.2   1 <1>  -0.5700 
 15 C       -6.3040    -0.6800     0.5970 C.3   1 <1>  -0.0990 
 16 N        2.6530    -3.9870    -0.1100 N.4   1 <1>  -0.9590 
 17 C       -7.0960    -1.7720    -0.1390 C.3   1 <1>  -0.1600 
 18 C        3.7650    -4.9420     0.1320 C.3   1 <1>   0.3430 
 19 C       -8.3220    -2.2100     0.6680 C.3   1 <1>  -0.2400 
 20 C        5.0200    -4.1780     0.5390 C.3   1 <1>  -0.2400 
 21 H       -2.7470     0.4440    -1.3090 H     1 <1>   0.1500 
 22 H       -2.3700    -3.7500     1.2270 H     1 <1>   0.1500 
 23 H        0.5560    -2.0820     1.8710 H     1 <1>   0.0800 
 24 H        1.3140    -1.5230     0.4090 H     1 <1>   0.0800 
 25 H        0.6430    -2.9520    -1.8440 H     1 <1>   0.0800 
 26 H       -0.4690    -4.2600    -1.5660 H     1 <1>   0.0800 
 27 H       -4.5000    -2.6020     1.1250 H     1 <1>   0.1500 
 28 H        1.7910    -4.1470     1.8300 H     1 <1>   0.0800 
 29 H        2.9230    -2.8350     1.6670 H     1 <1>   0.0800 
 30 H        1.8880    -5.0430    -1.7970 H     1 <1>   0.0800 
 31 H        1.1560    -5.4880    -0.2810 H     1 <1>   0.0800 
 32 H       -6.9380     0.1780     0.7320 H     1 <1>   0.0800 
 33 H       -6.0160    -1.0130     1.5760 H     1 <1>   0.0800 
 34 H        3.0070    -3.2250    -0.7030 H     1 <1>   0.4500 
 35 H       -6.4690    -2.6270    -0.3220 H     1 <1>   0.0800 
 36 H       -7.4170    -1.3900    -1.0940 H     1 <1>   0.0800 
 37 H        3.9720    -5.4940    -0.7710 H     1 <1>   0.0800 
 38 H        3.4920    -5.6460     0.9030 H     1 <1>   0.0800 
 39 H       -8.0260    -2.6140     1.6200 H     1 <1>   0.0800 
 40 H       -8.8650    -2.9670     0.1290 H     1 <1>   0.0800 
 41 H       -8.9800    -1.3750     0.8340 H     1 <1>   0.0800 
 42 H        5.2920    -3.4580    -0.2130 H     1 <1>   0.0800 
 43 H        5.8350    -4.8730     0.6390 H     1 <1>   0.0800 
 44 H        4.8950    -3.6870     1.4860 H     1 <1>   0.0800 
@<TRIPOS>BOND
  1   1   2  1   
  2   2   3  ar  
  3   2   4  ar  
  4   3   5  1   
  5   3   6  ar  
  6   4   7  ar  
  7   4  21  1   
  8   5   8  1   
  9   5   9  1   
 10   6  10  ar  
 11   6  22  1   
 12   7  10  ar  
 13   7  11  1   
 14   8  12  1   
 15   8  23  1   
 16   8  24  1   
 17   9  13  1   
 18   9  25  1   
 19   9  26  1   
 20  10  27  1   
 21  11  14  2   
 22  11  15  1   
 23  12  16  1   
 24  12  28  1   
 25  12  29  1   
 26  13  16  1   
 27  13  30  1   
 28  13  31  1   
 29  15  17  1   
 30  15  32  1   
 31  15  33  1   
 32  16  18  1   
 33  16  34  1   
 34  17  19  1   
 35  17  35  1   
 36  17  36  1   
 37  18  20  1   
 38  18  37  1   
 39  18  38  1   
 40  19  39  1   
 41  19  40  1   
 42  19  41  1   
 43  20  42  1   
 44  20  43  1   
 45  20  44  1   
@<TRIPOS>SUBSTRUCTURE
  1 ****   3 GROUP 4 **** **** 0

# MOE 2024.06 (io_trps.svl 2023.06)
