@<TRIPOS>MOLECULE
NONAME
51 53 1 0 0 
SMALL
USER_CHARGES


@<TRIPOS>ATOM
  1 O       -5.6450     1.2490    -1.2910 O.2   1 <1>  -0.5700 
  2 C       -5.6030     1.9550    -0.3180 C.2   1 <1>   0.6590 
  3 O       -4.5120     2.1030     0.4160 O.3   1 <1>  -0.4300 
  4 C       -6.8270     2.7450     0.1360 C.3   1 <1>  -0.0190 
  5 C       -3.3160     1.4280     0.0980 C.3   1 <1>   0.1200 
  6 C       -8.0250     1.8100     0.3950 C.3   1 <1>  -0.1600 
  7 C       -7.2020     3.8180    -0.9040 C.3   1 <1>  -0.1600 
  8 C       -2.2640     1.8150     1.1320 C.3   1 <1>  -0.2400 
  9 C       -9.2990     2.5860     0.7250 C.3   1 <1>   0.3430 
 10 C       -8.4960     4.5430    -0.5400 C.3   1 <1>   0.3430 
 11 N       -9.5960     3.5490    -0.3780 N.4   1 <1>  -0.9590 
 12 C      -10.9030     4.2590    -0.1730 C.3   1 <1>   0.3430 
 13 C      -12.1150     3.3320    -0.3010 C.3   1 <1>   0.1200 
 14 O      -13.2590     4.1210    -0.0950 O.3   1 <1>  -0.3630 
 15 C      -14.5030     3.5800    -0.1230 C.ar  1 <1>   0.0820 
 16 C      -15.5570     4.4390     0.1550 C.ar  1 <1>  -0.1500 
 17 C      -14.7590     2.2370    -0.4090 C.ar  1 <1>  -0.1500 
 18 C      -16.8490     3.9510     0.1460 C.ar  1 <1>  -0.1440 
 19 C      -16.0610     1.7610    -0.4140 C.ar  1 <1>  -0.1500 
 20 C      -17.0980     2.6320    -0.1330 C.ar  1 <1>  -0.1440 
 21 C      -18.1260     4.7050     0.4190 C.3   1 <1>  -0.0170 
 22 C      -18.5750     2.3300    -0.0840 C.3   1 <1>  -0.0170 
 23 C      -19.2230     3.7250    -0.0340 C.3   1 <1>  -0.1600 
 24 H       -6.5750     3.2380     1.0590 H     1 <1>   0.0800 
 25 H       -3.0100     1.7220    -0.8930 H     1 <1>   0.0800 
 26 H       -3.5050     0.3680     0.1160 H     1 <1>   0.0800 
 27 H       -7.7910     1.1530     1.2150 H     1 <1>   0.0800 
 28 H       -8.2040     1.1900    -0.4680 H     1 <1>   0.0800 
 29 H       -7.3090     3.3670    -1.8770 H     1 <1>   0.0800 
 30 H       -6.4040     4.5380    -0.9740 H     1 <1>   0.0800 
 31 H       -2.0910     2.8760     1.1090 H     1 <1>   0.0800 
 32 H       -1.3390     1.3130     0.9130 H     1 <1>   0.0800 
 33 H       -2.5850     1.5230     2.1160 H     1 <1>   0.0800 
 34 H       -9.1680     3.1200     1.6530 H     1 <1>   0.0800 
 35 H      -10.1140     1.8910     0.8470 H     1 <1>   0.0800 
 36 H       -8.7440     5.2450    -1.3210 H     1 <1>   0.0800 
 37 H       -8.3590     5.0920     0.3780 H     1 <1>   0.0800 
 38 H       -9.6480     3.0150    -1.2580 H     1 <1>   0.4500 
 39 H      -11.0050     5.0380    -0.9120 H     1 <1>   0.0800 
 40 H      -10.9170     4.7170     0.8020 H     1 <1>   0.0800 
 41 H      -12.1070     2.5640     0.4520 H     1 <1>   0.0800 
 42 H      -12.1750     2.9090    -1.2880 H     1 <1>   0.0800 
 43 H      -15.3650     5.4730     0.3740 H     1 <1>   0.1500 
 44 H      -13.9720     1.5450    -0.6310 H     1 <1>   0.1500 
 45 H      -16.2680     0.7280    -0.6330 H     1 <1>   0.1500 
 46 H      -18.1670     5.6270    -0.1340 H     1 <1>   0.0800 
 47 H      -18.2060     4.9050     1.4730 H     1 <1>   0.0800 
 48 H      -18.7980     1.7750     0.8100 H     1 <1>   0.0800 
 49 H      -18.8960     1.7770    -0.9500 H     1 <1>   0.0800 
 50 H      -19.5390     3.9950    -1.0260 H     1 <1>   0.0800 
 51 H      -20.0740     3.7470     0.6230 H     1 <1>   0.0800 
@<TRIPOS>BOND
  1   1   2  2   
  2   2   3  1   
  3   2   4  1   
  4   3   5  1   
  5   4   6  1   
  6   4   7  1   
  7   4  24  1   
  8   5   8  1   
  9   5  25  1   
 10   5  26  1   
 11   6   9  1   
 12   6  27  1   
 13   6  28  1   
 14   7  10  1   
 15   7  29  1   
 16   7  30  1   
 17   8  31  1   
 18   8  32  1   
 19   8  33  1   
 20   9  11  1   
 21   9  34  1   
 22   9  35  1   
 23  10  11  1   
 24  10  36  1   
 25  10  37  1   
 26  11  12  1   
 27  11  38  1   
 28  12  13  1   
 29  12  39  1   
 30  12  40  1   
 31  13  14  1   
 32  13  41  1   
 33  13  42  1   
 34  14  15  1   
 35  15  16  ar  
 36  15  17  ar  
 37  16  18  ar  
 38  16  43  1   
 39  17  19  ar  
 40  17  44  1   
 41  18  20  ar  
 42  18  21  1   
 43  19  20  ar  
 44  19  45  1   
 45  20  22  1   
 46  21  23  1   
 47  21  46  1   
 48  21  47  1   
 49  22  23  1   
 50  22  48  1   
 51  22  49  1   
 52  23  50  1   
 53  23  51  1   
@<TRIPOS>SUBSTRUCTURE
  1 ****  13 GROUP 4 **** **** 0

# MOE 2024.06 (io_trps.svl 2023.06)
