@<TRIPOS>MOLECULE
NONAME
53 55 1 0 0 
SMALL
USER_CHARGES


@<TRIPOS>ATOM
  1 O        2.1250    -2.3490     2.0520 O.2   1 <1>  -0.5700 
  2 C        1.2900    -2.1970     1.1930 C.2   1 <1>   0.5690 
  3 N        1.2190    -1.1010     0.3840 N.am  1 <1>  -0.5470 
  4 C        0.2250    -3.2730     0.9790 C.3   1 <1>   0.1710 
  5 C        1.9760     0.0760     0.4060 C.ar  1 <1>   0.1170 
  6 N       -1.0630    -2.7390     0.4480 N.3   1 <1>  -0.8100 
  7 C        3.3200     0.1270     0.0230 C.ar  1 <1>  -0.1430 
  8 C        1.3420     1.2460     0.8040 C.ar  1 <1>  -0.1500 
  9 C       -1.8020    -1.9970     1.5050 C.3   1 <1>   0.1100 
 10 C       -1.9160    -3.8390    -0.0640 C.3   1 <1>   0.1100 
 11 C        3.9920     1.3400     0.0560 C.ar  1 <1>  -0.1500 
 12 C        4.0850    -1.1070    -0.4490 C.3   1 <1>  -0.0170 
 13 C        2.0190     2.4500     0.8340 C.ar  1 <1>  -0.1500 
 14 C       -3.1620    -1.4680     1.0100 C.3   1 <1>   0.2090 
 15 C       -3.2770    -3.3320    -0.5810 C.3   1 <1>   0.2090 
 16 C        3.3490     2.4970     0.4590 C.ar  1 <1>  -0.1500 
 17 C        3.8150    -1.3810    -1.9300 C.3   1 <1>  -0.2400 
 18 N       -4.0000    -2.5830     0.4860 N.pl3 1 <1>  -0.8380 
 19 C       -5.3330    -2.2560     0.2010 C.ar  1 <1>   0.1000 
 20 C       -5.7380    -1.3660    -0.8120 C.ar  1 <1>   0.0820 
 21 C       -6.3070    -2.8600     0.9830 C.ar  1 <1>  -0.1500 
 22 O       -4.7750    -0.7710    -1.5830 O.3   1 <1>  -0.3620 
 23 C       -7.0940    -1.1150    -1.0050 C.ar  1 <1>  -0.1500 
 24 C       -7.6510    -2.6050     0.7860 C.ar  1 <1>  -0.1500 
 25 C       -5.1090     0.0870    -2.6510 C.3   1 <1>   0.0400 
 26 C       -8.0450    -1.7310    -0.2100 C.ar  1 <1>  -0.1500 
 27 H        0.3610    -1.0930    -0.1760 H     1 <1>   0.3700 
 28 H        0.0570    -3.7870     1.9090 H     1 <1>   0.0800 
 29 H        0.6310    -3.9810     0.2800 H     1 <1>   0.0800 
 30 H        0.3100     1.2110     1.0980 H     1 <1>   0.1500 
 31 H       -1.2130    -1.1630     1.8440 H     1 <1>   0.0800 
 32 H       -1.9790    -2.6430     2.3490 H     1 <1>   0.0800 
 33 H       -2.0960    -4.5580     0.7170 H     1 <1>   0.0800 
 34 H       -1.4080    -4.3380    -0.8710 H     1 <1>   0.0800 
 35 H        5.0260     1.3920    -0.2360 H     1 <1>   0.1500 
 36 H        3.8150    -1.9650     0.1370 H     1 <1>   0.0800 
 37 H        5.1410    -0.9550    -0.3050 H     1 <1>   0.0800 
 38 H        1.5160     3.3480     1.1480 H     1 <1>   0.1500 
 39 H       -2.9990    -0.7390     0.2370 H     1 <1>   0.0800 
 40 H       -3.6800    -0.9890     1.8220 H     1 <1>   0.0800 
 41 H       -3.8790    -4.1670    -0.8950 H     1 <1>   0.0800 
 42 H       -3.1170    -2.6930    -1.4320 H     1 <1>   0.0800 
 43 H        3.8840     3.4310     0.4810 H     1 <1>   0.1500 
 44 H        2.7670    -1.5680    -2.0870 H     1 <1>   0.0800 
 45 H        4.3720    -2.2410    -2.2550 H     1 <1>   0.0800 
 46 H        4.1060    -0.5330    -2.5230 H     1 <1>   0.0800 
 47 H       -5.9930    -3.5380     1.7550 H     1 <1>   0.1500 
 48 H       -7.4370    -0.4420    -1.7660 H     1 <1>   0.1500 
 49 H       -8.3860    -3.0870     1.4060 H     1 <1>   0.1500 
 50 H       -4.1950     0.4090    -3.1170 H     1 <1>   0.0800 
 51 H       -5.6410     0.9370    -2.2640 H     1 <1>   0.0800 
 52 H       -5.7090    -0.4560    -3.3600 H     1 <1>   0.0800 
 53 H       -9.0910    -1.5310    -0.3660 H     1 <1>   0.1500 
@<TRIPOS>BOND
  1   1   2  2   
  2   2   3  am  
  3   2   4  1   
  4   3   5  1   
  5   3  27  1   
  6   4   6  1   
  7   4  28  1   
  8   4  29  1   
  9   5   7  ar  
 10   5   8  ar  
 11   6   9  1   
 12   6  10  1   
 13   7  11  ar  
 14   7  12  1   
 15   8  13  ar  
 16   8  30  1   
 17   9  14  1   
 18   9  31  1   
 19   9  32  1   
 20  10  15  1   
 21  10  33  1   
 22  10  34  1   
 23  11  16  ar  
 24  11  35  1   
 25  12  17  1   
 26  12  36  1   
 27  12  37  1   
 28  13  16  ar  
 29  13  38  1   
 30  14  18  1   
 31  14  39  1   
 32  14  40  1   
 33  15  18  1   
 34  15  41  1   
 35  15  42  1   
 36  16  43  1   
 37  17  44  1   
 38  17  45  1   
 39  17  46  1   
 40  18  19  1   
 41  19  20  ar  
 42  19  21  ar  
 43  20  22  1   
 44  20  23  ar  
 45  21  24  ar  
 46  21  47  1   
 47  22  25  1   
 48  23  26  ar  
 49  23  48  1   
 50  24  26  ar  
 51  24  49  1   
 52  25  50  1   
 53  25  51  1   
 54  25  52  1   
 55  26  53  1   
@<TRIPOS>SUBSTRUCTURE
  1 ****   6 GROUP 4 **** **** 0

# MOE 2024.06 (io_trps.svl 2023.06)
