@<TRIPOS>MOLECULE
NONAME
43 45 1 0 0 
SMALL
USER_CHARGES


@<TRIPOS>ATOM
  1 S       -0.5410    -0.4570    -0.2150 S.3   1 <1>  -0.0800 
  2 C        0.9770     0.4310    -0.2740 C.2   1 <1>   0.1040 
  3 C       -1.4600     1.0280    -0.1010 C.2   1 <1>  -0.1400 
  4 N        2.1780    -0.2660    -0.3020 N.am  1 <1>  -0.4940 
  5 C        0.7530     1.7820    -0.2270 C.2   1 <1>  -0.0860 
  6 C       -0.6520     2.0970    -0.0990 C.2   1 <1>  -0.1810 
  7 C       -2.9690     0.9830    -0.0190 C.3   1 <1>   0.0200 
  8 C        2.4950    -1.5350    -0.7420 C.2   1 <1>   0.5440 
  9 C        1.7910     2.7710    -0.3340 C.2   1 <1>   0.7160 
 10 C       -1.2270     3.5050     0.0120 C.3   1 <1>   0.0210 
 11 C       -3.5240     2.3940    -0.2810 C.3   1 <1>  -0.1600 
 12 O        1.6970    -2.1640    -1.4050 O.2   1 <1>  -0.5700 
 13 C        3.7970    -2.0960    -0.4300 C.ar  1 <1>   0.0860 
 14 O        1.8010     3.8090     0.2940 O.2   1 <1>  -0.5700 
 15 N        2.8310     2.5840    -1.1780 N.am  1 <1>  -0.8000 
 16 C       -2.7060     3.4760     0.4530 C.3   1 <1>  -0.1600 
 17 C        4.9320    -1.3000    -0.2490 C.ar  1 <1>  -0.1500 
 18 C        3.9580    -3.4760    -0.2980 C.ar  1 <1>  -0.1500 
 19 C        6.1630    -1.8510     0.0650 C.ar  1 <1>  -0.1430 
 20 C        5.1820    -4.0420     0.0110 C.ar  1 <1>  -0.1430 
 21 C        6.2820    -3.2230     0.1950 C.ar  1 <1>  -0.1500 
 22 C        7.3840    -0.9690     0.2610 C.3   1 <1>  -0.0970 
 23 C        5.3270    -5.5470     0.1510 C.3   1 <1>  -0.0970 
 24 H        2.9660     0.2360     0.1020 H     1 <1>   0.3700 
 25 H       -3.2540     0.6460     0.9620 H     1 <1>   0.0800 
 26 H       -3.3590     0.2940    -0.7470 H     1 <1>   0.0800 
 27 H       -1.1410     3.9900    -0.9440 H     1 <1>   0.0800 
 28 H       -0.6700     4.0790     0.7310 H     1 <1>   0.0800 
 29 H       -4.5540     2.4370     0.0280 H     1 <1>   0.0800 
 30 H       -3.4860     2.5910    -1.3380 H     1 <1>   0.0800 
 31 H        3.4540     3.3750    -1.3360 H     1 <1>   0.3700 
 32 H        2.7540     1.9050    -1.9360 H     1 <1>   0.3700 
 33 H       -3.1450     4.4440     0.2840 H     1 <1>   0.0800 
 34 H       -2.7450     3.2790     1.5110 H     1 <1>   0.0800 
 35 H        4.8590    -0.2350    -0.3640 H     1 <1>   0.1500 
 36 H        3.0980    -4.1070    -0.4430 H     1 <1>   0.1500 
 37 H        7.2370    -3.6590     0.4370 H     1 <1>   0.1500 
 38 H        7.1010     0.0590     0.3940 H     1 <1>   0.0800 
 39 H        8.0280    -1.0440    -0.5970 H     1 <1>   0.0800 
 40 H        7.9300    -1.2850     1.1320 H     1 <1>   0.0800 
 41 H        4.4530    -6.0520    -0.2180 H     1 <1>   0.0800 
 42 H        5.4650    -5.8050     1.1860 H     1 <1>   0.0800 
 43 H        6.1790    -5.8890    -0.4100 H     1 <1>   0.0800 
@<TRIPOS>BOND
  1   1   2  1   
  2   1   3  1   
  3   2   4  1   
  4   2   5  2   
  5   3   6  2   
  6   3   7  1   
  7   4   8  am  
  8   4  24  1   
  9   5   6  1   
 10   5   9  1   
 11   6  10  1   
 12   7  11  1   
 13   7  25  1   
 14   7  26  1   
 15   8  12  2   
 16   8  13  1   
 17   9  14  2   
 18   9  15  am  
 19  10  16  1   
 20  10  27  1   
 21  10  28  1   
 22  11  16  1   
 23  11  29  1   
 24  11  30  1   
 25  13  17  ar  
 26  13  18  ar  
 27  15  31  1   
 28  15  32  1   
 29  16  33  1   
 30  16  34  1   
 31  17  19  ar  
 32  17  35  1   
 33  18  20  ar  
 34  18  36  1   
 35  19  21  ar  
 36  19  22  1   
 37  20  21  ar  
 38  20  23  1   
 39  21  37  1   
 40  22  38  1   
 41  22  39  1   
 42  22  40  1   
 43  23  41  1   
 44  23  42  1   
 45  23  43  1   
@<TRIPOS>SUBSTRUCTURE
  1 ****   4 GROUP 4 **** **** 0

# MOE 2024.06 (io_trps.svl 2023.06)
