@<TRIPOS>MOLECULE
NONAME
46 47 1 0 0 
SMALL
USER_CHARGES


@<TRIPOS>ATOM
  1 S        0.9330     0.2610    -1.4990 S.o2  1 <1>   1.3330 
  2 O        2.3260     0.2630    -1.8840 O.2   1 <1>  -0.6500 
  3 O       -0.0610    -0.3000    -2.3790 O.2   1 <1>  -0.6500 
  4 N        0.4970     1.8980    -1.1420 N.am  1 <1>  -0.6930 
  5 C        0.7920    -0.5010     0.1030 C.3   1 <1>  -0.1350 
  6 C       -0.7760     2.2500    -0.6980 C.ar  1 <1>   0.1990 
  7 C        1.5810     2.9310    -1.1510 C.3   1 <1>   0.2570 
  8 C       -0.9530     2.8680     0.5360 C.ar  1 <1>  -0.1500 
  9 C       -1.9020     1.9940    -1.4720 C.ar  1 <1>  -0.1500 
 10 C        2.5520     2.8500     0.0330 C.2   1 <1>   0.5690 
 11 C       -2.2150     3.2130     0.9840 C.ar  1 <1>  -0.1500 
 12 C       -3.1650     2.3350    -1.0260 C.ar  1 <1>  -0.1500 
 13 O        2.4420     3.6410     0.9400 O.2   1 <1>  -0.5700 
 14 N        3.5170     1.8960     0.0340 N.am  1 <1>  -0.7300 
 15 C       -3.3310     2.9460     0.2070 C.ar  1 <1>  -0.1430 
 16 C        4.5800     1.7270     1.0360 C.3   1 <1>   0.2200 
 17 C       -4.7190     3.3240     0.6990 C.3   1 <1>  -0.0170 
 18 C        5.8890     1.4650     0.3030 C.3   1 <1>  -0.1600 
 19 C        4.3460     0.4270     1.7940 C.3   1 <1>  -0.1600 
 20 C       -5.0770     4.7440     0.2570 C.3   1 <1>  -0.2400 
 21 C        5.8600    -0.0210    -0.0790 C.3   1 <1>  -0.1600 
 22 C        4.8500    -0.6850     0.8680 C.3   1 <1>  -0.1600 
 23 H        1.0860    -1.5310     0.0490 H     1 <1>   0.0800 
 24 H       -0.2230    -0.4510     0.4450 H     1 <1>   0.0800 
 25 H        1.4180     0.0030     0.8100 H     1 <1>   0.0800 
 26 H        1.1320     3.9080    -1.1470 H     1 <1>   0.0800 
 27 H        2.1420     2.8420    -2.0630 H     1 <1>   0.0800 
 28 H       -0.1010     3.0810     1.1560 H     1 <1>   0.1500 
 29 H       -1.7880     1.5270    -2.4330 H     1 <1>   0.1500 
 30 H       -2.3260     3.6920     1.9410 H     1 <1>   0.1500 
 31 H       -4.0210     2.1260    -1.6440 H     1 <1>   0.1500 
 32 H        3.5350     1.2020    -0.7280 H     1 <1>   0.3700 
 33 H        4.6320     2.5840     1.6890 H     1 <1>   0.0800 
 34 H       -4.7540     3.2600     1.7720 H     1 <1>   0.0800 
 35 H       -5.4440     2.6310     0.3080 H     1 <1>   0.0800 
 36 H        6.7020     1.6330     0.9880 H     1 <1>   0.0800 
 37 H        6.0180     2.1110    -0.5480 H     1 <1>   0.0800 
 38 H        3.3190     0.3030     2.0850 H     1 <1>   0.0800 
 39 H        4.9510     0.4410     2.6830 H     1 <1>   0.0800 
 40 H       -4.3660     5.4460     0.6560 H     1 <1>   0.0800 
 41 H       -6.0580     5.0070     0.6080 H     1 <1>   0.0800 
 42 H       -5.0620     4.8130    -0.8170 H     1 <1>   0.0800 
 43 H        6.8380    -0.4610     0.0160 H     1 <1>   0.0800 
 44 H        5.5260    -0.1320    -1.0970 H     1 <1>   0.0800 
 45 H        4.0320    -1.0850     0.2930 H     1 <1>   0.0800 
 46 H        5.3030    -1.4830     1.4310 H     1 <1>   0.0800 
@<TRIPOS>BOND
  1   1   2  2   
  2   1   3  2   
  3   1   4  am  
  4   1   5  1   
  5   4   6  1   
  6   4   7  1   
  7   5  23  1   
  8   5  24  1   
  9   5  25  1   
 10   6   8  ar  
 11   6   9  ar  
 12   7  10  1   
 13   7  26  1   
 14   7  27  1   
 15   8  11  ar  
 16   8  28  1   
 17   9  12  ar  
 18   9  29  1   
 19  10  13  2   
 20  10  14  am  
 21  11  15  ar  
 22  11  30  1   
 23  12  15  ar  
 24  12  31  1   
 25  14  16  1   
 26  14  32  1   
 27  15  17  1   
 28  16  18  1   
 29  16  19  1   
 30  16  33  1   
 31  17  20  1   
 32  17  34  1   
 33  17  35  1   
 34  18  21  1   
 35  18  36  1   
 36  18  37  1   
 37  19  22  1   
 38  19  38  1   
 39  19  39  1   
 40  20  40  1   
 41  20  41  1   
 42  20  42  1   
 43  21  22  1   
 44  21  43  1   
 45  21  44  1   
 46  22  45  1   
 47  22  46  1   
@<TRIPOS>SUBSTRUCTURE
  1 ****   4 GROUP 4 **** **** 0

# MOE 2024.06 (io_trps.svl 2023.06)
