@<TRIPOS>MOLECULE
NONAME
39 40 1 0 0 
SMALL
USER_CHARGES


@<TRIPOS>ATOM
  1 O        0.0860    -0.0880     1.1670 O.2   1 <1>  -0.5700 
  2 C        0.1600    -0.9480     0.3120 C.2   1 <1>   0.6900 
  3 N       -0.9370    -1.4060    -0.3560 N.am  1 <1>  -0.5470 
  4 N        1.3540    -1.4990    -0.0060 N.am  1 <1>  -0.7300 
  5 C       -2.2740    -0.9760    -0.3310 C.ar  1 <1>   0.1170 
  6 C        2.6430    -1.1330     0.6060 C.3   1 <1>   0.2200 
  7 C       -2.6390     0.3250    -0.0060 C.ar  1 <1>  -0.1500 
  8 C       -3.2730    -1.8810    -0.6640 C.ar  1 <1>  -0.1500 
  9 C        3.5110    -0.4550    -0.4450 C.3   1 <1>  -0.1600 
 10 C        3.4120    -2.4090     0.9260 C.3   1 <1>  -0.1600 
 11 C       -3.9730     0.7190     0.0010 C.ar  1 <1>   0.0830 
 12 C       -4.6040    -1.5050    -0.6700 C.ar  1 <1>  -0.1500 
 13 C        4.1300    -1.5880    -1.2720 C.3   1 <1>  -0.1600 
 14 C        4.0700    -2.8420    -0.3890 C.3   1 <1>  -0.1600 
 15 O       -4.3560     1.9870     0.3310 O.3   1 <1>  -0.3630 
 16 C       -4.9670    -0.2030    -0.3380 C.ar  1 <1>   0.0830 
 17 C       -3.4510     2.8910     0.9250 C.3   1 <1>   0.0400 
 18 O       -6.2680     0.2180    -0.3270 O.3   1 <1>  -0.3630 
 19 C       -7.3310    -0.6670    -0.5980 C.3   1 <1>   0.0400 
 20 H       -0.7670    -2.2590    -0.8750 H     1 <1>   0.3700 
 21 H        1.4420    -2.0890    -0.8270 H     1 <1>   0.3700 
 22 H        2.4940    -0.5160     1.4780 H     1 <1>   0.0800 
 23 H       -1.8640     1.0230     0.2340 H     1 <1>   0.1500 
 24 H       -3.0110    -2.8920    -0.9190 H     1 <1>   0.1500 
 25 H        4.2970     0.0790     0.0590 H     1 <1>   0.0800 
 26 H        2.9530     0.2440    -1.0440 H     1 <1>   0.0800 
 27 H        2.7800    -3.1700     1.3500 H     1 <1>   0.0800 
 28 H        4.1820    -2.1690     1.6380 H     1 <1>   0.0800 
 29 H       -5.3400    -2.2380    -0.9350 H     1 <1>   0.1500 
 30 H        5.1430    -1.3500    -1.5490 H     1 <1>   0.0800 
 31 H        3.5540    -1.7460    -2.1680 H     1 <1>   0.0800 
 32 H        3.4710    -3.5970    -0.8690 H     1 <1>   0.0800 
 33 H        5.0530    -3.2440    -0.2100 H     1 <1>   0.0800 
 34 H       -3.9970     3.7740     1.2030 H     1 <1>   0.0800 
 35 H       -2.6890     3.1430     0.2100 H     1 <1>   0.0800 
 36 H       -3.0230     2.4330     1.8000 H     1 <1>   0.0800 
 37 H       -8.2510    -0.1180    -0.5060 H     1 <1>   0.0800 
 38 H       -7.3100    -1.4670     0.1200 H     1 <1>   0.0800 
 39 H       -7.2270    -1.0390    -1.6010 H     1 <1>   0.0800 
@<TRIPOS>BOND
  1   1   2  2   
  2   2   3  am  
  3   2   4  am  
  4   3   5  1   
  5   3  20  1   
  6   4   6  1   
  7   4  21  1   
  8   5   7  ar  
  9   5   8  ar  
 10   6   9  1   
 11   6  10  1   
 12   6  22  1   
 13   7  11  ar  
 14   7  23  1   
 15   8  12  ar  
 16   8  24  1   
 17   9  13  1   
 18   9  25  1   
 19   9  26  1   
 20  10  14  1   
 21  10  27  1   
 22  10  28  1   
 23  11  15  1   
 24  11  16  ar  
 25  12  16  ar  
 26  12  29  1   
 27  13  14  1   
 28  13  30  1   
 29  13  31  1   
 30  14  32  1   
 31  14  33  1   
 32  15  17  1   
 33  16  18  1   
 34  17  34  1   
 35  17  35  1   
 36  17  36  1   
 37  18  19  1   
 38  19  37  1   
 39  19  38  1   
 40  19  39  1   
@<TRIPOS>SUBSTRUCTURE
  1 ****   3 GROUP 4 **** **** 0

# MOE 2024.06 (io_trps.svl 2023.06)
