@<TRIPOS>MOLECULE
NONAME
48 50 1 0 0 
SMALL
USER_CHARGES


@<TRIPOS>ATOM
  1 O       -0.1280    -0.1490     0.6790 O.2   1 <1>  -0.5700 
  2 C        0.5080    -1.1820     0.7640 C.2   1 <1>   0.5440 
  3 N        1.8700    -1.1790     0.6180 N.am  1 <1>  -0.5470 
  4 C       -0.1530    -2.4490     1.0200 C.ar  1 <1>   0.0860 
  5 C        2.8370    -0.1890     0.3810 C.ar  1 <1>   0.1170 
  6 C       -1.1850    -2.9500     0.2150 C.ar  1 <1>  -0.1440 
  7 C        0.2570    -3.2220     2.1070 C.ar  1 <1>  -0.1500 
  8 C        4.1380    -0.6380     0.1100 C.ar  1 <1>   0.1000 
  9 C        2.5760     1.1750     0.4100 C.ar  1 <1>  -0.1500 
 10 C       -1.7670    -4.1740     0.5030 C.ar  1 <1>  -0.1500 
 11 C       -1.6890    -2.1640    -0.9900 C.3   1 <1>  -0.0970 
 12 C       -0.3240    -4.4430     2.3900 C.ar  1 <1>  -0.1500 
 13 N        4.4160    -2.0190     0.0860 N.pl3 1 <1>  -0.8380 
 14 C        5.1370     0.2940    -0.1390 C.ar  1 <1>  -0.1500 
 15 C        3.5840     2.0920     0.1650 C.ar  1 <1>  -0.1500 
 16 C       -1.3390    -4.9220     1.5850 C.ar  1 <1>  -0.1500 
 17 C        5.3480    -2.5740     1.1190 C.3   1 <1>   0.2090 
 18 C        4.4980    -2.6730    -1.2600 C.3   1 <1>   0.2090 
 19 C        4.8660     1.6510    -0.1110 C.ar  1 <1>  -0.1500 
 20 C        6.7840    -2.7820     0.5970 C.3   1 <1>   0.1400 
 21 C        5.9470    -2.8330    -1.7470 C.3   1 <1>   0.1400 
 22 N        6.7940    -3.5030    -0.7130 N.am  1 <1>  -0.6600 
 23 C        7.4020    -4.7050    -0.9630 C.2   1 <1>   0.5690 
 24 O        7.2770    -5.2780    -2.0170 O.2   1 <1>  -0.5700 
 25 C        8.2600    -5.3670     0.0890 C.3   1 <1>  -0.1790 
 26 H        2.3200    -2.0980     0.5950 H     1 <1>   0.3700 
 27 H        1.0420    -2.8520     2.7450 H     1 <1>   0.1500 
 28 H        1.5860     1.5320     0.6240 H     1 <1>   0.1500 
 29 H       -2.5620    -4.5560    -0.1140 H     1 <1>   0.1500 
 30 H       -0.8650    -1.8670    -1.6140 H     1 <1>   0.0800 
 31 H       -2.2040    -1.2800    -0.6590 H     1 <1>   0.0800 
 32 H       -2.3670    -2.7510    -1.5840 H     1 <1>   0.0800 
 33 H        0.0090    -5.0200     3.2360 H     1 <1>   0.1500 
 34 H        6.1310    -0.0400    -0.3590 H     1 <1>   0.1500 
 35 H        3.3660     3.1460     0.1900 H     1 <1>   0.1500 
 36 H       -1.7980    -5.8720     1.8000 H     1 <1>   0.1500 
 37 H        4.9610    -3.5200     1.4560 H     1 <1>   0.0800 
 38 H        5.3720    -1.9120     1.9680 H     1 <1>   0.0800 
 39 H        3.9460    -2.0900    -1.9760 H     1 <1>   0.0800 
 40 H        4.0400    -3.6450    -1.2060 H     1 <1>   0.0800 
 41 H        5.6490     2.3630    -0.3050 H     1 <1>   0.1500 
 42 H        7.3450    -3.3190     1.3390 H     1 <1>   0.0800 
 43 H        7.2540    -1.8240     0.4700 H     1 <1>   0.0800 
 44 H        6.3560    -1.8630    -1.9650 H     1 <1>   0.0800 
 45 H        5.9470    -3.3970    -2.6640 H     1 <1>   0.0800 
 46 H        7.6560    -5.6440     0.9310 H     1 <1>   0.0800 
 47 H        9.0410    -4.6990     0.3980 H     1 <1>   0.0800 
 48 H        8.7090    -6.2540    -0.3190 H     1 <1>   0.0800 
@<TRIPOS>BOND
  1   1   2  2   
  2   2   3  am  
  3   2   4  1   
  4   3   5  1   
  5   3  26  1   
  6   4   6  ar  
  7   4   7  ar  
  8   5   8  ar  
  9   5   9  ar  
 10   6  10  ar  
 11   6  11  1   
 12   7  12  ar  
 13   7  27  1   
 14   8  13  1   
 15   8  14  ar  
 16   9  15  ar  
 17   9  28  1   
 18  10  16  ar  
 19  10  29  1   
 20  11  30  1   
 21  11  31  1   
 22  11  32  1   
 23  12  16  ar  
 24  12  33  1   
 25  13  17  1   
 26  13  18  1   
 27  14  19  ar  
 28  14  34  1   
 29  15  19  ar  
 30  15  35  1   
 31  16  36  1   
 32  17  20  1   
 33  17  37  1   
 34  17  38  1   
 35  18  21  1   
 36  18  39  1   
 37  18  40  1   
 38  19  41  1   
 39  20  22  1   
 40  20  42  1   
 41  20  43  1   
 42  21  22  1   
 43  21  44  1   
 44  21  45  1   
 45  22  23  am  
 46  23  24  2   
 47  23  25  1   
 48  25  46  1   
 49  25  47  1   
 50  25  48  1   
@<TRIPOS>SUBSTRUCTURE
  1 ****  13 GROUP 4 **** **** 0

# MOE 2024.06 (io_trps.svl 2023.06)
