@<TRIPOS>MOLECULE
NONAME
55 56 1 0 0 
SMALL
USER_CHARGES


@<TRIPOS>ATOM
  1 S        1.8900     0.4370    -0.0430 S.o2  1 <1>   1.3330 
  2 O        0.5520    -0.0880     0.0610 O.2   1 <1>  -0.6500 
  3 O        2.9850    -0.2560     0.5960 O.2   1 <1>  -0.6500 
  4 N        1.8810     2.0640     0.5490 N.am  1 <1>  -0.6930 
  5 C        2.2860     0.6770    -1.7620 C.3   1 <1>  -0.1350 
  6 C        0.9020     2.9560     0.1220 C.ar  1 <1>   0.1990 
  7 C        3.1080     2.6170     1.1980 C.3   1 <1>   0.3370 
  8 C        1.2170     4.0150    -0.7240 C.ar  1 <1>  -0.1500 
  9 C       -0.4160     2.8030     0.5320 C.ar  1 <1>  -0.1500 
 10 C        4.4140     2.4170     0.3940 C.2   1 <1>   0.5690 
 11 C        3.1660     2.1410     2.6580 C.3   1 <1>  -0.2400 
 12 C        0.2450     4.9030    -1.1470 C.ar  1 <1>  -0.1440 
 13 C       -1.4000     3.6810     0.1140 C.ar  1 <1>  -0.1440 
 14 O        4.6540     3.2000    -0.4960 O.2   1 <1>  -0.5700 
 15 N        5.2570     1.3810     0.6940 N.am  1 <1>  -0.5470 
 16 C       -1.0630     4.7320    -0.7240 C.ar  1 <1>  -0.1500 
 17 C        0.5940     6.0590    -2.0670 C.3   1 <1>  -0.0970 
 18 C       -2.8380     3.5000     0.5660 C.3   1 <1>  -0.0970 
 19 C        6.5730     1.1570     0.2550 C.ar  1 <1>   0.1170 
 20 C        7.6160     2.0380     0.5730 C.ar  1 <1>  -0.1430 
 21 C        6.8560     0.0070    -0.4890 C.ar  1 <1>  -0.1430 
 22 C        8.9000     1.7700     0.1230 C.ar  1 <1>  -0.1500 
 23 C        7.4220     3.2900     1.4270 C.3   1 <1>  -0.0170 
 24 C        8.1460    -0.2390    -0.9260 C.ar  1 <1>  -0.1500 
 25 C        5.7690    -1.0010    -0.8410 C.3   1 <1>  -0.0970 
 26 C        9.1670     0.6410    -0.6250 C.ar  1 <1>  -0.1500 
 27 C        7.3580     2.9320     2.9140 C.3   1 <1>  -0.2400 
 28 H        2.3440    -0.2690    -2.2620 H     1 <1>   0.0800 
 29 H        3.2270     1.1820    -1.8670 H     1 <1>   0.0800 
 30 H        1.5260     1.2680    -2.2350 H     1 <1>   0.0800 
 31 H        2.9820     3.6850     1.2540 H     1 <1>   0.0800 
 32 H        2.2330     4.1380    -1.0560 H     1 <1>   0.1500 
 33 H       -0.6620     1.9820     1.1810 H     1 <1>   0.1500 
 34 H        3.3010     1.0780     2.7260 H     1 <1>   0.0800 
 35 H        2.2560     2.4100     3.1630 H     1 <1>   0.0800 
 36 H        3.9860     2.6200     3.1610 H     1 <1>   0.0800 
 37 H        4.7850     0.5580     1.0890 H     1 <1>   0.3700 
 38 H       -1.8240     5.4190    -1.0490 H     1 <1>   0.1500 
 39 H        1.6520     6.0960    -2.2550 H     1 <1>   0.0800 
 40 H        0.2940     6.9880    -1.6180 H     1 <1>   0.0800 
 41 H        0.0830     5.9450    -3.0060 H     1 <1>   0.0800 
 42 H       -2.9920     2.5110     0.9570 H     1 <1>   0.0800 
 43 H       -3.5080     3.6450    -0.2630 H     1 <1>   0.0800 
 44 H       -3.0720     4.2170     1.3320 H     1 <1>   0.0800 
 45 H        9.7080     2.4400     0.3580 H     1 <1>   0.1500 
 46 H        6.5340     3.8170     1.1360 H     1 <1>   0.0800 
 47 H        8.2410     3.9680     1.2680 H     1 <1>   0.0800 
 48 H        8.3690    -1.1180    -1.5040 H     1 <1>   0.1500 
 49 H        4.9900    -0.5170    -1.3990 H     1 <1>   0.0800 
 50 H        5.3530    -1.4240     0.0560 H     1 <1>   0.0800 
 51 H        6.1620    -1.8030    -1.4390 H     1 <1>   0.0800 
 52 H       10.1680     0.4450    -0.9690 H     1 <1>   0.1500 
 53 H        6.5370     2.2650     3.1040 H     1 <1>   0.0800 
 54 H        7.2290     3.8210     3.5040 H     1 <1>   0.0800 
 55 H        8.2700     2.4460     3.2140 H     1 <1>   0.0800 
@<TRIPOS>BOND
  1   1   2  2   
  2   1   3  2   
  3   1   4  am  
  4   1   5  1   
  5   4   6  1   
  6   4   7  1   
  7   5  28  1   
  8   5  29  1   
  9   5  30  1   
 10   6   8  ar  
 11   6   9  ar  
 12   7  10  1   
 13   7  11  1   
 14   7  31  1   
 15   8  12  ar  
 16   8  32  1   
 17   9  13  ar  
 18   9  33  1   
 19  10  14  2   
 20  10  15  am  
 21  11  34  1   
 22  11  35  1   
 23  11  36  1   
 24  12  16  ar  
 25  12  17  1   
 26  13  16  ar  
 27  13  18  1   
 28  15  19  1   
 29  15  37  1   
 30  16  38  1   
 31  17  39  1   
 32  17  40  1   
 33  17  41  1   
 34  18  42  1   
 35  18  43  1   
 36  18  44  1   
 37  19  20  ar  
 38  19  21  ar  
 39  20  22  ar  
 40  20  23  1   
 41  21  24  ar  
 42  21  25  1   
 43  22  26  ar  
 44  22  45  1   
 45  23  27  1   
 46  23  46  1   
 47  23  47  1   
 48  24  26  ar  
 49  24  48  1   
 50  25  49  1   
 51  25  50  1   
 52  25  51  1   
 53  26  52  1   
 54  27  53  1   
 55  27  54  1   
 56  27  55  1   
@<TRIPOS>SUBSTRUCTURE
  1 ****  10 GROUP 4 **** **** 0

# MOE 2024.06 (io_trps.svl 2023.06)
