@<TRIPOS>MOLECULE
NONAME
34 35 1 0 0 
SMALL
USER_CHARGES


@<TRIPOS>ATOM
  1 S        0.4610     0.1620     0.4250 S.3   1 <1>  -0.3320 
  2 C       -1.1550     0.9430     0.2750 C.ar  1 <1>   0.1020 
  3 C        1.5320     0.9080    -0.8990 C.3   1 <1>   0.1310 
  4 C       -2.0880     0.6470     1.2520 C.ar  1 <1>  -0.1500 
  5 C       -1.4690     1.8040    -0.7650 C.ar  1 <1>  -0.1500 
  6 C        2.9710     0.4170    -0.7930 C.2   1 <1>   0.5690 
  7 C       -3.3450     1.2220     1.1950 C.ar  1 <1>  -0.1500 
  8 C       -2.7290     2.3750    -0.8150 C.ar  1 <1>  -0.1500 
  9 O        3.3980    -0.2260    -1.7240 O.2   1 <1>  -0.5700 
 10 N        3.7620     0.7200     0.2910 N.am  1 <1>  -0.6600 
 11 C       -3.6700     2.0910     0.1640 C.ar  1 <1>  -0.1430 
 12 C        5.1520     0.1850     0.4140 C.3   1 <1>   0.1400 
 13 C        3.3400     1.5200     1.4810 C.3   1 <1>   0.1400 
 14 C       -5.0510     2.7190     0.1030 C.3   1 <1>  -0.0970 
 15 C        6.1260     1.2900     0.8520 C.3   1 <1>   0.1200 
 16 C        4.4210     2.5460     1.8630 C.3   1 <1>   0.1200 
 17 O        5.6660     1.9250     2.0120 O.3   1 <1>  -0.5600 
 18 H        1.4900     1.9740    -0.7940 H     1 <1>   0.0800 
 19 H        1.1130     0.6120    -1.8430 H     1 <1>   0.0800 
 20 H       -1.8300    -0.0270     2.0490 H     1 <1>   0.1500 
 21 H       -0.7620     2.0340    -1.5370 H     1 <1>   0.1500 
 22 H       -4.0700     0.9900     1.9560 H     1 <1>   0.1500 
 23 H       -2.9780     3.0430    -1.6220 H     1 <1>   0.1500 
 24 H        5.4840    -0.2270    -0.5230 H     1 <1>   0.0800 
 25 H        5.1610    -0.6050     1.1440 H     1 <1>   0.0800 
 26 H        3.1760     0.8550     2.3110 H     1 <1>   0.0800 
 27 H        2.4210     2.0430     1.2900 H     1 <1>   0.0800 
 28 H       -5.7170     2.0800    -0.4490 H     1 <1>   0.0800 
 29 H       -5.0080     3.6780    -0.3810 H     1 <1>   0.0800 
 30 H       -5.4440     2.8580     1.0940 H     1 <1>   0.0800 
 31 H        6.2370     2.0260     0.0740 H     1 <1>   0.0800 
 32 H        7.0910     0.8680     1.0690 H     1 <1>   0.0800 
 33 H        4.1740     3.0130     2.8000 H     1 <1>   0.0800 
 34 H        4.5050     3.3080     1.1080 H     1 <1>   0.0800 
@<TRIPOS>BOND
  1   1   2  1   
  2   1   3  1   
  3   2   4  ar  
  4   2   5  ar  
  5   3   6  1   
  6   3  18  1   
  7   3  19  1   
  8   4   7  ar  
  9   4  20  1   
 10   5   8  ar  
 11   5  21  1   
 12   6   9  2   
 13   6  10  am  
 14   7  11  ar  
 15   7  22  1   
 16   8  11  ar  
 17   8  23  1   
 18  10  12  1   
 19  10  13  1   
 20  11  14  1   
 21  12  15  1   
 22  12  24  1   
 23  12  25  1   
 24  13  16  1   
 25  13  26  1   
 26  13  27  1   
 27  14  28  1   
 28  14  29  1   
 29  14  30  1   
 30  15  17  1   
 31  15  31  1   
 32  15  32  1   
 33  16  17  1   
 34  16  33  1   
 35  16  34  1   
@<TRIPOS>SUBSTRUCTURE
  1 ****   1 GROUP 4 **** **** 0

# MOE 2024.06 (io_trps.svl 2023.06)
