@<TRIPOS>MOLECULE
NONAME
39 40 1 0 0 
SMALL
USER_CHARGES


@<TRIPOS>ATOM
  1 CL       1.7040    -0.1130    -0.4450 Cl    1 <1>  -0.1770 
  2 C        0.0550     0.4680    -0.4080 C.ar  1 <1>   0.1770 
  3 C       -0.2250     1.7800    -0.0520 C.ar  1 <1>  -0.1440 
  4 C       -0.9510    -0.4190    -0.7430 C.ar  1 <1>  -0.1500 
  5 C       -1.5490     2.1940    -0.0440 C.ar  1 <1>  -0.1500 
  6 C        0.8750     2.7600     0.3220 C.3   1 <1>   0.2140 
  7 C       -2.2680     0.0050    -0.7270 C.ar  1 <1>  -0.1500 
  8 C       -2.5640     1.3120    -0.3780 C.ar  1 <1>  -0.1500 
  9 S        1.3390     3.6770    -1.1760 S.3   1 <1>  -0.4600 
 10 C        2.5240     4.9220    -0.5530 C.3   1 <1>   0.1310 
 11 C        3.7210     4.2660     0.1190 C.2   1 <1>   0.5690 
 12 O        4.1620     4.7640     1.1260 O.2   1 <1>  -0.5700 
 13 N        4.2500     3.1410    -0.4260 N.am  1 <1>  -0.7300 
 14 C        5.4110     2.4000     0.0890 C.3   1 <1>   0.2200 
 15 C        6.5310     2.4440    -0.9550 C.3   1 <1>  -0.1600 
 16 C        4.9880     0.9580     0.3880 C.3   1 <1>  -0.1600 
 17 C        7.7350     1.5990    -0.5120 C.3   1 <1>  -0.1600 
 18 C        6.1880     0.1110     0.8370 C.3   1 <1>  -0.1600 
 19 C        7.3160     0.1550    -0.2020 C.3   1 <1>  -0.1600 
 20 H       -0.7020    -1.4290    -1.0140 H     1 <1>   0.1500 
 21 H       -1.7960     3.2090     0.2180 H     1 <1>   0.1500 
 22 H        1.7540     2.2680     0.6960 H     1 <1>   0.0800 
 23 H        0.5290     3.4780     1.0440 H     1 <1>   0.0800 
 24 H       -3.0600    -0.6770    -0.9860 H     1 <1>   0.1500 
 25 H       -3.5880     1.6450    -0.3680 H     1 <1>   0.1500 
 26 H        1.9980     5.5460     0.1450 H     1 <1>   0.0800 
 27 H        2.8450     5.5060    -1.3950 H     1 <1>   0.0800 
 28 H        3.7830     2.7220    -1.2350 H     1 <1>   0.3700 
 29 H        5.7600     2.8600     1.0000 H     1 <1>   0.0800 
 30 H        6.8440     3.4630    -1.0950 H     1 <1>   0.0800 
 31 H        6.1640     2.0660    -1.8930 H     1 <1>   0.0800 
 32 H        4.5640     0.5180    -0.4970 H     1 <1>   0.0800 
 33 H        4.2420     0.9580     1.1630 H     1 <1>   0.0800 
 34 H        8.1730     2.0390     0.3680 H     1 <1>   0.0800 
 35 H        8.4820     1.6000    -1.2870 H     1 <1>   0.0800 
 36 H        5.8730    -0.9080     0.9860 H     1 <1>   0.0800 
 37 H        6.5550     0.4830     1.7780 H     1 <1>   0.0800 
 38 H        8.1650    -0.3960     0.1640 H     1 <1>   0.0800 
 39 H        6.9830    -0.3210    -1.1090 H     1 <1>   0.0800 
@<TRIPOS>BOND
  1   1   2  1   
  2   2   3  ar  
  3   2   4  ar  
  4   3   5  ar  
  5   3   6  1   
  6   4   7  ar  
  7   4  20  1   
  8   5   8  ar  
  9   5  21  1   
 10   6   9  1   
 11   6  22  1   
 12   6  23  1   
 13   7   8  ar  
 14   7  24  1   
 15   8  25  1   
 16   9  10  1   
 17  10  11  1   
 18  10  26  1   
 19  10  27  1   
 20  11  12  2   
 21  11  13  am  
 22  13  14  1   
 23  13  28  1   
 24  14  15  1   
 25  14  16  1   
 26  14  29  1   
 27  15  17  1   
 28  15  30  1   
 29  15  31  1   
 30  16  18  1   
 31  16  32  1   
 32  16  33  1   
 33  17  19  1   
 34  17  34  1   
 35  17  35  1   
 36  18  19  1   
 37  18  36  1   
 38  18  37  1   
 39  19  38  1   
 40  19  39  1   
@<TRIPOS>SUBSTRUCTURE
  1 ****   6 GROUP 4 **** **** 0

# MOE 2024.06 (io_trps.svl 2023.06)
