@<TRIPOS>MOLECULE
NONAME
47 49 1 0 0 
SMALL
USER_CHARGES


@<TRIPOS>ATOM
  1 O       -1.9660    -1.3030    -2.4920 O.2   1 <1>  -0.5700 
  2 C       -1.2340    -1.5730    -1.5710 C.2   1 <1>   0.5690 
  3 N       -1.3070    -0.9320    -0.3820 N.am  1 <1>  -0.7300 
  4 C       -0.1830    -2.6770    -1.7340 C.3   1 <1>   0.1710 
  5 C       -2.2860     0.1100    -0.0150 C.3   1 <1>   0.3200 
  6 N        0.9820    -2.5610    -0.8060 N.3   1 <1>  -0.8100 
  7 C       -2.7480    -0.0800     1.4200 C.2   1 <1>  -0.0400 
  8 C        1.7640    -3.8190    -0.7910 C.3   1 <1>   0.1100 
  9 C        1.8720    -1.4430    -1.2150 C.3   1 <1>   0.1100 
 10 O       -3.4790     0.8710     1.9710 O.3   1 <1>  -0.2800 
 11 C       -2.5490    -1.0870     2.3010 C.2   1 <1>  -0.1500 
 12 C        2.9860    -3.7350     0.1440 C.3   1 <1>   0.2090 
 13 C        3.0980    -1.3050    -0.2920 C.3   1 <1>   0.2090 
 14 C       -3.7610     0.4980     3.2030 C.2   1 <1>  -0.0100 
 15 C       -3.2140    -0.7060     3.4730 C.2   1 <1>  -0.1500 
 16 N        3.8610    -2.5830    -0.2200 N.pl3 1 <1>  -0.8380 
 17 C        5.0950    -2.5240     0.4180 C.ar  1 <1>   0.1000 
 18 C        6.2570    -2.7040    -0.3160 C.ar  1 <1>  -0.1500 
 19 C        5.1970    -2.2870     1.7840 C.ar  1 <1>  -0.1500 
 20 C        7.5010    -2.6510     0.2870 C.ar  1 <1>   0.0820 
 21 C        6.4340    -2.2310     2.4000 C.ar  1 <1>  -0.1500 
 22 O        8.5820    -2.8390    -0.5150 O.3   1 <1>  -0.3620 
 23 C        7.5880    -2.4120     1.6570 C.ar  1 <1>  -0.1500 
 24 C        9.8920    -2.8040     0.0040 C.3   1 <1>   0.0400 
 25 H       -0.6110    -1.1850     0.3250 H     1 <1>   0.3700 
 26 H        0.1600    -2.6800    -2.7540 H     1 <1>   0.0800 
 27 H       -0.6850    -3.6100    -1.5550 H     1 <1>   0.0800 
 28 H       -3.1360     0.0690    -0.6760 H     1 <1>   0.0800 
 29 H       -1.8240     1.0760    -0.1140 H     1 <1>   0.0800 
 30 H        2.1090    -4.0490    -1.7840 H     1 <1>   0.0800 
 31 H        1.1340    -4.6270    -0.4600 H     1 <1>   0.0800 
 32 H        1.3250    -0.5170    -1.2000 H     1 <1>   0.0800 
 33 H        2.2220    -1.6040    -2.2210 H     1 <1>   0.0800 
 34 H       -2.0050    -2.0040     2.1660 H     1 <1>   0.1500 
 35 H        3.5560    -4.6450     0.0730 H     1 <1>   0.0800 
 36 H        2.6500    -3.6270     1.1590 H     1 <1>   0.0800 
 37 H        2.7700    -1.0220     0.6930 H     1 <1>   0.0800 
 38 H        3.7430    -0.5300    -0.6680 H     1 <1>   0.0800 
 39 H       -4.3560     1.1490     3.8190 H     1 <1>   0.1500 
 40 H       -3.2610    -1.2800     4.3820 H     1 <1>   0.1500 
 41 H        6.1830    -2.8880    -1.3710 H     1 <1>   0.1500 
 42 H        4.3020    -2.1460     2.3600 H     1 <1>   0.1500 
 43 H        6.4990    -2.0460     3.4580 H     1 <1>   0.1500 
 44 H        8.5360    -2.3640     2.1570 H     1 <1>   0.1500 
 45 H       10.5760    -2.9770    -0.8070 H     1 <1>   0.0800 
 46 H        9.9950    -3.5800     0.7420 H     1 <1>   0.0800 
 47 H       10.0710    -1.8340     0.4330 H     1 <1>   0.0800 
@<TRIPOS>BOND
  1   1   2  2   
  2   2   3  am  
  3   2   4  1   
  4   3   5  1   
  5   3  25  1   
  6   4   6  1   
  7   4  26  1   
  8   4  27  1   
  9   5   7  1   
 10   5  28  1   
 11   5  29  1   
 12   6   8  1   
 13   6   9  1   
 14   7  10  1   
 15   7  11  2   
 16   8  12  1   
 17   8  30  1   
 18   8  31  1   
 19   9  13  1   
 20   9  32  1   
 21   9  33  1   
 22  10  14  1   
 23  11  15  1   
 24  11  34  1   
 25  12  16  1   
 26  12  35  1   
 27  12  36  1   
 28  13  16  1   
 29  13  37  1   
 30  13  38  1   
 31  14  15  2   
 32  14  39  1   
 33  15  40  1   
 34  16  17  1   
 35  17  18  ar  
 36  17  19  ar  
 37  18  20  ar  
 38  18  41  1   
 39  19  21  ar  
 40  19  42  1   
 41  20  22  1   
 42  20  23  ar  
 43  21  23  ar  
 44  21  43  1   
 45  22  24  1   
 46  23  44  1   
 47  24  45  1   
 48  24  46  1   
 49  24  47  1   
@<TRIPOS>SUBSTRUCTURE
  1 ****  13 GROUP 4 **** **** 0

# MOE 2024.06 (io_trps.svl 2023.06)
