@<TRIPOS>MOLECULE
NONAME
48 50 1 0 0 
SMALL
USER_CHARGES


@<TRIPOS>ATOM
  1 CL       0.7800     0.1390    -1.7960 Cl    1 <1>  -0.1770 
  2 C        2.2720     0.8990    -1.2790 C.ar  1 <1>   0.1770 
  3 C        2.2420     2.0810    -0.5460 C.ar  1 <1>   0.0820 
  4 C        3.4630     0.2890    -1.6210 C.ar  1 <1>  -0.1500 
  5 O        1.0280     2.6230    -0.2430 O.3   1 <1>  -0.3630 
  6 C        3.4490     2.6530    -0.1580 C.ar  1 <1>  -0.1500 
  7 C        4.6640     0.8650    -1.2250 C.ar  1 <1>   0.0830 
  8 C        0.9260     3.7780     0.5600 C.3   1 <1>   0.0400 
  9 C        4.6610     2.0550    -0.4860 C.ar  1 <1>   0.1170 
 10 O        5.8820     0.3180    -1.5220 O.3   1 <1>  -0.3630 
 11 N        5.8970     2.6060    -0.1080 N.am  1 <1>  -0.5470 
 12 C        5.9870    -0.8980    -2.2310 C.3   1 <1>   0.0400 
 13 C        6.2880     3.5360     0.8100 C.2   1 <1>   0.5690 
 14 O        5.5270     4.1760     1.4960 O.2   1 <1>  -0.5700 
 15 C        7.7970     3.7510     0.9600 C.3   1 <1>   0.1710 
 16 N        8.6230     2.6490     0.3790 N.3   1 <1>  -0.8100 
 17 C       10.0060     3.0900     0.1470 C.3   1 <1>   0.1100 
 18 C        8.5950     1.4510     1.2420 C.3   1 <1>   0.1100 
 19 C       10.7670     2.0010    -0.6100 C.3   1 <1>  -0.1600 
 20 C        9.2900     0.2950     0.5280 C.3   1 <1>  -0.1600 
 21 C       10.7170     0.6810     0.1600 C.3   1 <1>   0.5600 
 22 O       11.4800     0.7690     1.3200 O.3   1 <1>  -0.5600 
 23 O       11.2900    -0.3430    -0.5800 O.3   1 <1>  -0.5600 
 24 C       12.7500     0.2820     1.0690 C.3   1 <1>   0.1200 
 25 C       12.6330    -0.4240    -0.2680 C.3   1 <1>   0.1200 
 26 H        3.4220    -0.6200    -2.1870 H     1 <1>   0.1500 
 27 H        3.4660     3.5670     0.4000 H     1 <1>   0.1500 
 28 H       -0.1180     4.0000     0.6950 H     1 <1>   0.0800 
 29 H        1.4110     4.5970     0.0600 H     1 <1>   0.0800 
 30 H        1.3840     3.5840     1.5140 H     1 <1>   0.0800 
 31 H        6.7080     2.1260    -0.5230 H     1 <1>   0.3700 
 32 H        7.0310    -1.1350    -2.3330 H     1 <1>   0.0800 
 33 H        5.5440    -0.7760    -3.2030 H     1 <1>   0.0800 
 34 H        5.4910    -1.6730    -1.6730 H     1 <1>   0.0800 
 35 H        8.0310     3.8770     2.0030 H     1 <1>   0.0800 
 36 H        8.0290     4.6730     0.4570 H     1 <1>   0.0800 
 37 H       10.4920     3.2940     1.0880 H     1 <1>   0.0800 
 38 H       10.0070     3.9910    -0.4430 H     1 <1>   0.0800 
 39 H        7.5780     1.1670     1.4570 H     1 <1>   0.0800 
 40 H        9.0920     1.6570     2.1760 H     1 <1>   0.0800 
 41 H       11.7840     2.3070    -0.7630 H     1 <1>   0.0800 
 42 H       10.3030     1.8640    -1.5700 H     1 <1>   0.0800 
 43 H        8.7420     0.0620    -0.3660 H     1 <1>   0.0800 
 44 H        9.3050    -0.5740     1.1580 H     1 <1>   0.0800 
 45 H       13.0240    -0.3960     1.8580 H     1 <1>   0.0800 
 46 H       13.4420     1.1050     1.0270 H     1 <1>   0.0800 
 47 H       13.2000     0.0790    -1.0310 H     1 <1>   0.0800 
 48 H       12.9200    -1.4580    -0.2090 H     1 <1>   0.0800 
@<TRIPOS>BOND
  1   1   2  1   
  2   2   3  ar  
  3   2   4  ar  
  4   3   5  1   
  5   3   6  ar  
  6   4   7  ar  
  7   4  26  1   
  8   5   8  1   
  9   6   9  ar  
 10   6  27  1   
 11   7   9  ar  
 12   7  10  1   
 13   8  28  1   
 14   8  29  1   
 15   8  30  1   
 16   9  11  1   
 17  10  12  1   
 18  11  13  am  
 19  11  31  1   
 20  12  32  1   
 21  12  33  1   
 22  12  34  1   
 23  13  14  2   
 24  13  15  1   
 25  15  16  1   
 26  15  35  1   
 27  15  36  1   
 28  16  17  1   
 29  16  18  1   
 30  17  19  1   
 31  17  37  1   
 32  17  38  1   
 33  18  20  1   
 34  18  39  1   
 35  18  40  1   
 36  19  21  1   
 37  19  41  1   
 38  19  42  1   
 39  20  21  1   
 40  20  43  1   
 41  20  44  1   
 42  21  22  1   
 43  21  23  1   
 44  22  24  1   
 45  23  25  1   
 46  24  25  1   
 47  24  45  1   
 48  24  46  1   
 49  25  47  1   
 50  25  48  1   
@<TRIPOS>SUBSTRUCTURE
  1 ****  11 GROUP 4 **** **** 0

# MOE 2024.06 (io_trps.svl 2023.06)
