@<TRIPOS>MOLECULE
NONAME
39 39 1 0 0 
SMALL
USER_CHARGES


@<TRIPOS>ATOM
  1 S        0.1580    -0.0740     0.2990 S.3   1 <1>  -0.3710 
  2 C       -1.4360     0.7000     0.0000 C.2   1 <1>   0.6510 
  3 C        1.3300     1.3550     0.3450 C.3   1 <1>   0.0700 
  4 N       -1.4010     1.9720    -0.1090 N.2   1 <1>  -0.6210 
  5 N       -2.5570    -0.1100    -0.0930 N.am  1 <1>  -0.4200 
  6 C        2.7370     0.8100     0.6010 C.3   1 <1>  -0.1600 
  7 C       -2.5660     2.6350    -0.3440 C.2   1 <1>   0.0210 
  8 C       -3.7590     0.5540    -0.3540 C.2   1 <1>   0.6160 
  9 C       -2.4990    -1.6000     0.0830 C.3   1 <1>   0.2200 
 10 C        3.7680     1.9420     0.6540 C.3   1 <1>  -0.2400 
 11 O       -2.4790     3.8650    -0.4320 O.3   1 <1>  -0.8500 
 12 C       -3.7620     1.9410    -0.4730 C.2   1 <1>  -0.1240 
 13 O       -4.8050    -0.1140    -0.4770 O.2   1 <1>  -0.5700 
 14 C       -2.8830    -2.3310    -1.2190 C.3   1 <1>  -0.1600 
 15 C       -3.3170    -2.0440     1.3050 C.3   1 <1>  -0.2400 
 16 C       -5.0560     2.7040    -0.7430 C.3   1 <1>  -0.0220 
 17 C       -2.5020    -3.8190    -1.2090 C.3   1 <1>  -0.2400 
 18 C       -5.7960     2.9980     0.5650 C.3   1 <1>  -0.2400 
 19 H        1.0000     2.0130     1.1310 H     1 <1>   0.0800 
 20 H        1.2560     1.8590    -0.6030 H     1 <1>   0.0800 
 21 H        2.9970     0.1240    -0.1850 H     1 <1>   0.0800 
 22 H        2.7430     0.2760     1.5350 H     1 <1>   0.0800 
 23 H       -1.4940    -1.8980     0.2960 H     1 <1>   0.0800 
 24 H        3.7800     2.4790    -0.2790 H     1 <1>   0.0800 
 25 H        4.7490     1.5410     0.8340 H     1 <1>   0.0800 
 26 H        3.5260     2.6310     1.4440 H     1 <1>   0.0800 
 27 H       -2.3720    -1.8560    -2.0390 H     1 <1>   0.0800 
 28 H       -3.9410    -2.2490    -1.3940 H     1 <1>   0.0800 
 29 H       -4.3720    -1.9700     1.1170 H     1 <1>   0.0800 
 30 H       -3.0650    -1.4350     2.1540 H     1 <1>   0.0800 
 31 H       -3.0930    -3.0660     1.5460 H     1 <1>   0.0800 
 32 H       -5.6860     2.1350    -1.4030 H     1 <1>   0.0800 
 33 H       -4.8240     3.6320    -1.2360 H     1 <1>   0.0800 
 34 H       -1.4480    -3.9370    -1.0280 H     1 <1>   0.0800 
 35 H       -2.7350    -4.2590    -2.1620 H     1 <1>   0.0800 
 36 H       -3.0500    -4.3480    -0.4510 H     1 <1>   0.0800 
 37 H       -6.0510     2.0790     1.0600 H     1 <1>   0.0800 
 38 H       -6.6910     3.5570     0.3670 H     1 <1>   0.0800 
 39 H       -5.1550     3.5770     1.2080 H     1 <1>   0.0800 
@<TRIPOS>BOND
  1   1   2  1   
  2   1   3  1   
  3   2   4  2   
  4   2   5  1   
  5   3   6  1   
  6   3  19  1   
  7   3  20  1   
  8   4   7  1   
  9   5   8  am  
 10   5   9  1   
 11   6  10  1   
 12   6  21  1   
 13   6  22  1   
 14   7  11  1   
 15   7  12  2   
 16   8  12  1   
 17   8  13  2   
 18   9  14  1   
 19   9  15  1   
 20   9  23  1   
 21  10  24  1   
 22  10  25  1   
 23  10  26  1   
 24  12  16  1   
 25  14  17  1   
 26  14  27  1   
 27  14  28  1   
 28  15  29  1   
 29  15  30  1   
 30  15  31  1   
 31  16  18  1   
 32  16  32  1   
 33  16  33  1   
 34  17  34  1   
 35  17  35  1   
 36  17  36  1   
 37  18  37  1   
 38  18  38  1   
 39  18  39  1   
@<TRIPOS>SUBSTRUCTURE
  1 ****   2 GROUP 4 **** **** 0

# MOE 2024.06 (io_trps.svl 2023.06)
