@<TRIPOS>MOLECULE
NONAME
50 52 1 0 0 
SMALL
USER_CHARGES


@<TRIPOS>ATOM
  1 CL       7.5050     3.8800     2.0170 Cl    1 <1>  -0.1770 
  2 C        5.7910     3.8800     1.6690 C.ar  1 <1>   0.1770 
  3 C        5.2690     3.0250     0.7010 C.ar  1 <1>   0.0830 
  4 C        4.9870     4.7530     2.3770 C.ar  1 <1>  -0.1500 
  5 O        6.1180     2.1860     0.0400 O.3   1 <1>  -0.3630 
  6 C        3.8970     3.0720     0.4530 C.ar  1 <1>  -0.1500 
  7 C        3.6280     4.7870     2.1200 C.ar  1 <1>  -0.1500 
  8 C        5.6480     1.4020    -1.0490 C.3   1 <1>   0.1810 
  9 C        3.0880     3.9480     1.1600 C.ar  1 <1>  -0.1500 
 10 C        6.7790     0.5780    -1.6440 C.2   1 <1>   0.5690 
 11 O        7.4480     1.0510    -2.5320 O.2   1 <1>  -0.5700 
 12 N        7.0330    -0.6610    -1.1280 N.am  1 <1>  -0.5470 
 13 C        7.8930    -1.6490    -1.6240 C.ar  1 <1>   0.1170 
 14 C        8.9610    -2.1140    -0.8460 C.ar  1 <1>   0.0860 
 15 C        7.6770    -2.1920    -2.8850 C.ar  1 <1>  -0.1500 
 16 C        9.2620    -1.4520     0.3980 C.2   1 <1>   0.5440 
 17 C        9.7420    -3.1630    -1.3310 C.ar  1 <1>  -0.1500 
 18 C        8.4740    -3.2140    -3.3610 C.ar  1 <1>  -0.1500 
 19 O        8.4880    -1.5470     1.3320 O.2   1 <1>  -0.5700 
 20 N       10.3350    -0.5870     0.5050 N.am  1 <1>  -0.6600 
 21 C        9.5030    -3.7090    -2.5770 C.ar  1 <1>  -0.1500 
 22 C       11.0830    -0.1120    -0.6980 C.3   1 <1>   0.1400 
 23 C       10.3320     0.4430     1.5820 C.3   1 <1>   0.1400 
 24 C       10.3910     1.1420    -1.2690 C.3   1 <1>   0.3430 
 25 C        9.6000     1.6950     1.0630 C.3   1 <1>   0.3430 
 26 N       10.1790     2.2220    -0.2330 N.4   1 <1>  -0.9590 
 27 C        9.2800     3.2770    -0.7950 C.3   1 <1>   0.2630 
 28 H        5.4190     5.4000     3.1190 H     1 <1>   0.1500 
 29 H        3.4270     2.4420    -0.2790 H     1 <1>   0.1500 
 30 H        2.9920     5.4640     2.6650 H     1 <1>   0.1500 
 31 H        5.2560     2.0650    -1.8000 H     1 <1>   0.0800 
 32 H        4.8720     0.7500    -0.6930 H     1 <1>   0.0800 
 33 H        2.0290     3.9780     0.9630 H     1 <1>   0.1500 
 34 H        6.6650    -0.8540    -0.1890 H     1 <1>   0.3700 
 35 H        6.8730    -1.8150    -3.4930 H     1 <1>   0.1500 
 36 H       10.5450    -3.5450    -0.7240 H     1 <1>   0.1500 
 37 H        8.2930    -3.6330    -4.3370 H     1 <1>   0.1500 
 38 H       10.1140    -4.5180    -2.9430 H     1 <1>   0.1500 
 39 H       11.1240    -0.8750    -1.4540 H     1 <1>   0.0800 
 40 H       12.0960     0.1220    -0.4220 H     1 <1>   0.0800 
 41 H       11.3420     0.6870     1.8590 H     1 <1>   0.0800 
 42 H        9.8350     0.0710     2.4630 H     1 <1>   0.0800 
 43 H        9.4400     0.8330    -1.6640 H     1 <1>   0.0800 
 44 H       10.9700     1.5290    -2.0900 H     1 <1>   0.0800 
 45 H        9.6370     2.4620     1.8180 H     1 <1>   0.0800 
 46 H        8.5630     1.4350     0.9140 H     1 <1>   0.0800 
 47 H       11.0920     2.6430    -0.0190 H     1 <1>   0.4500 
 48 H        8.3100     2.8600    -1.0170 H     1 <1>   0.0800 
 49 H        9.6940     3.6810    -1.7040 H     1 <1>   0.0800 
 50 H        9.1530     4.0800    -0.0870 H     1 <1>   0.0800 
@<TRIPOS>BOND
  1   1   2  1   
  2   2   3  ar  
  3   2   4  ar  
  4   3   5  1   
  5   3   6  ar  
  6   4   7  ar  
  7   4  28  1   
  8   5   8  1   
  9   6   9  ar  
 10   6  29  1   
 11   7   9  ar  
 12   7  30  1   
 13   8  10  1   
 14   8  31  1   
 15   8  32  1   
 16   9  33  1   
 17  10  11  2   
 18  10  12  am  
 19  12  13  1   
 20  12  34  1   
 21  13  14  ar  
 22  13  15  ar  
 23  14  16  1   
 24  14  17  ar  
 25  15  18  ar  
 26  15  35  1   
 27  16  19  2   
 28  16  20  am  
 29  17  21  ar  
 30  17  36  1   
 31  18  21  ar  
 32  18  37  1   
 33  20  22  1   
 34  20  23  1   
 35  21  38  1   
 36  22  24  1   
 37  22  39  1   
 38  22  40  1   
 39  23  25  1   
 40  23  41  1   
 41  23  42  1   
 42  24  26  1   
 43  24  43  1   
 44  24  44  1   
 45  25  26  1   
 46  25  45  1   
 47  25  46  1   
 48  26  27  1   
 49  26  47  1   
 50  27  48  1   
 51  27  49  1   
 52  27  50  1   
@<TRIPOS>SUBSTRUCTURE
  1 ****  10 GROUP 4 **** **** 0

# MOE 2024.06 (io_trps.svl 2023.06)
