@<TRIPOS>MOLECULE
NONAME
36 36 1 0 0 
SMALL
USER_CHARGES


@<TRIPOS>ATOM
  1 F       -2.0380     0.5980     3.1730 F     1 <1>  -0.1900 
  2 C       -2.3820     1.0300     1.9910 C.ar  1 <1>   0.1900 
  3 C       -3.4990     0.4840     1.3880 C.ar  1 <1>  -0.1500 
  4 C       -1.6210     2.0130     1.3900 C.ar  1 <1>  -0.1500 
  5 C       -3.8790     0.9450     0.1340 C.ar  1 <1>  -0.1440 
  6 C       -1.9960     2.4620     0.1350 C.ar  1 <1>  -0.1500 
  7 C       -3.1160     1.9300    -0.4880 C.ar  1 <1>  -0.1500 
  8 C       -5.1080     0.3810    -0.5520 C.3   1 <1>   0.4870 
  9 N       -6.3300     0.9390     0.1170 N.4   1 <1>  -0.9590 
 10 C       -7.5690     0.1870    -0.3100 C.3   1 <1>   0.3430 
 11 C       -6.4070     2.4240    -0.1250 C.3   1 <1>   0.2630 
 12 C       -8.8610     0.5630     0.4760 C.3   1 <1>   0.3430 
 13 N      -10.1060    -0.1770     0.0390 N.4   1 <1>  -0.9590 
 14 C      -11.3160     0.3940     0.7250 C.3   1 <1>   0.2630 
 15 C      -10.0570    -1.6550     0.3090 C.3   1 <1>   0.2630 
 16 H       -4.0360    -0.2880     1.9100 H     1 <1>   0.1500 
 17 H       -0.7560     2.4110     1.8920 H     1 <1>   0.1500 
 18 H       -1.4110     3.2230    -0.3550 H     1 <1>   0.1500 
 19 H       -3.3740     2.2960    -1.4680 H     1 <1>   0.1500 
 20 H       -5.0900    -0.6940    -0.4670 H     1 <1>   0.0800 
 21 H       -5.0970     0.6410    -1.5990 H     1 <1>   0.0800 
 22 H       -6.1450     0.8050     1.1250 H     1 <1>   0.4500 
 23 H       -7.3910    -0.8680    -0.1800 H     1 <1>   0.0800 
 24 H       -7.7390     0.3680    -1.3590 H     1 <1>   0.0800 
 25 H       -6.5220     2.6320    -1.1770 H     1 <1>   0.0800 
 26 H       -5.5030     2.9050     0.2170 H     1 <1>   0.0800 
 27 H       -7.2360     2.8580     0.4090 H     1 <1>   0.0800 
 28 H       -9.0340     1.6200     0.3540 H     1 <1>   0.0800 
 29 H       -8.6970     0.3730     1.5240 H     1 <1>   0.0800 
 30 H      -10.2660    -0.0430    -0.9750 H     1 <1>   0.4500 
 31 H      -11.2400     0.2720     1.7940 H     1 <1>   0.0800 
 32 H      -12.2100    -0.1080     0.3890 H     1 <1>   0.0800 
 33 H      -11.4180     1.4450     0.5050 H     1 <1>   0.0800 
 34 H       -9.9270    -1.8440     1.3630 H     1 <1>   0.0800 
 35 H       -9.2470    -2.1180    -0.2300 H     1 <1>   0.0800 
 36 H      -10.9780    -2.1220    -0.0050 H     1 <1>   0.0800 
@<TRIPOS>BOND
  1   1   2  1   
  2   2   3  ar  
  3   2   4  ar  
  4   3   5  ar  
  5   3  16  1   
  6   4   6  ar  
  7   4  17  1   
  8   5   7  ar  
  9   5   8  1   
 10   6   7  ar  
 11   6  18  1   
 12   7  19  1   
 13   8   9  1   
 14   8  20  1   
 15   8  21  1   
 16   9  10  1   
 17   9  11  1   
 18   9  22  1   
 19  10  12  1   
 20  10  23  1   
 21  10  24  1   
 22  11  25  1   
 23  11  26  1   
 24  11  27  1   
 25  12  13  1   
 26  12  28  1   
 27  12  29  1   
 28  13  14  1   
 29  13  15  1   
 30  13  30  1   
 31  14  31  1   
 32  14  32  1   
 33  14  33  1   
 34  15  34  1   
 35  15  35  1   
 36  15  36  1   
@<TRIPOS>SUBSTRUCTURE
  1 ****   9 GROUP 4 **** **** 0

# MOE 2024.06 (io_trps.svl 2023.06)
