@<TRIPOS>MOLECULE
NONAME
36 36 1 0 0 
SMALL
USER_CHARGES


@<TRIPOS>ATOM
  1 O       -0.1920     0.0890     0.5500 O.2   1 <1>  -0.5700 
  2 C       -0.8130    -0.7900    -0.0130 C.2   1 <1>   0.6900 
  3 N       -2.1620    -0.7120    -0.1990 N.am  1 <1>  -0.5470 
  4 N       -0.2050    -1.9110    -0.4760 N.am  1 <1>  -0.7300 
  5 C       -3.1210     0.2750     0.0730 C.ar  1 <1>   0.1170 
  6 C        1.2080    -2.2920    -0.4060 C.3   1 <1>   0.3000 
  7 C       -4.4850    -0.0710     0.1800 C.ar  1 <1>   0.0860 
  8 C       -2.7440     1.6090     0.2270 C.ar  1 <1>  -0.1500 
  9 C        1.3200    -3.6590    -1.0800 C.3   1 <1>  -0.2400 
 10 C        1.6450    -2.4070     1.0550 C.3   1 <1>  -0.2400 
 11 C        2.0600    -1.2760    -1.1680 C.3   1 <1>  -0.2400 
 12 C       -4.9610    -1.4340     0.0090 C.2   1 <1>   0.6340 
 13 C       -5.3990     0.9530     0.4590 C.ar  1 <1>  -0.1500 
 14 C       -3.6680     2.5950     0.4990 C.ar  1 <1>  -0.1500 
 15 O       -4.3120    -2.3300    -0.5020 O.2   1 <1>  -0.5700 
 16 O       -6.1960    -1.7230     0.4370 O.3   1 <1>  -0.4300 
 17 C       -5.0040     2.2650     0.6180 C.ar  1 <1>  -0.1500 
 18 C       -6.7500    -3.0190     0.3190 C.3   1 <1>   0.0400 
 19 H       -2.5750    -1.6040    -0.4840 H     1 <1>   0.3700 
 20 H       -0.7740    -2.5820    -0.9820 H     1 <1>   0.3700 
 21 H       -1.7100     1.8890     0.1310 H     1 <1>   0.1500 
 22 H        1.0080    -3.6010    -2.1080 H     1 <1>   0.0800 
 23 H        0.7170    -4.3850    -0.5650 H     1 <1>   0.0800 
 24 H        2.3400    -3.9970    -1.0600 H     1 <1>   0.0800 
 25 H        1.0060    -3.0890     1.5860 H     1 <1>   0.0800 
 26 H        1.6100    -1.4480     1.5380 H     1 <1>   0.0800 
 27 H        2.6550    -2.7680     1.1120 H     1 <1>   0.0800 
 28 H        1.7110    -1.1740    -2.1790 H     1 <1>   0.0800 
 29 H        3.0860    -1.5950    -1.1900 H     1 <1>   0.0800 
 30 H        2.0230    -0.3150    -0.6880 H     1 <1>   0.0800 
 31 H       -6.4460     0.7220     0.5520 H     1 <1>   0.1500 
 32 H       -3.3490     3.6170     0.6180 H     1 <1>   0.1500 
 33 H       -5.7290     3.0320     0.8330 H     1 <1>   0.1500 
 34 H       -7.7450    -3.0030     0.7280 H     1 <1>   0.0800 
 35 H       -6.1350    -3.7120     0.8670 H     1 <1>   0.0800 
 36 H       -6.7810    -3.2910    -0.7220 H     1 <1>   0.0800 
@<TRIPOS>BOND
  1   1   2  2   
  2   2   3  am  
  3   2   4  am  
  4   3   5  1   
  5   3  19  1   
  6   4   6  1   
  7   4  20  1   
  8   5   7  ar  
  9   5   8  ar  
 10   6   9  1   
 11   6  10  1   
 12   6  11  1   
 13   7  12  1   
 14   7  13  ar  
 15   8  14  ar  
 16   8  21  1   
 17   9  22  1   
 18   9  23  1   
 19   9  24  1   
 20  10  25  1   
 21  10  26  1   
 22  10  27  1   
 23  11  28  1   
 24  11  29  1   
 25  11  30  1   
 26  12  15  2   
 27  12  16  1   
 28  13  17  ar  
 29  13  31  1   
 30  14  17  ar  
 31  14  32  1   
 32  16  18  1   
 33  17  33  1   
 34  18  34  1   
 35  18  35  1   
 36  18  36  1   
@<TRIPOS>SUBSTRUCTURE
  1 ****   3 GROUP 4 **** **** 0

# MOE 2024.06 (io_trps.svl 2023.06)
