@<TRIPOS>MOLECULE
NONAME
23 23 1 0 0 
SMALL
USER_CHARGES


@<TRIPOS>ATOM
  1 S        0.2840    -0.0230    -0.5510 S.3   1 <1>  -0.3320 
  2 C       -1.2830    -0.8590    -0.4110 C.ar  1 <1>   0.7220 
  3 C        1.2150    -0.5620     0.9610 C.3   1 <1>   0.1310 
  4 N       -1.4330    -1.6280     0.6580 N.ar  1 <1>  -0.6200 
  5 N       -2.1300    -0.6190    -1.3970 N.ar  1 <1>  -0.6200 
  6 C        2.6080     0.0340     0.9660 C.2   1 <1>   0.6590 
  7 C       -2.6000    -2.2310     0.7320 C.ar  1 <1>   0.1600 
  8 C       -3.2840    -1.2390    -1.2880 C.ar  1 <1>   0.1600 
  9 O        2.9360     0.8680     1.7710 O.2   1 <1>  -0.5700 
 10 O        3.4500    -0.4340     0.0520 O.3   1 <1>  -0.4300 
 11 C       -3.5710    -2.0670    -0.2280 C.ar  1 <1>  -0.1500 
 12 C        4.7670     0.0530    -0.0530 C.3   1 <1>   0.1200 
 13 C        5.4520    -0.6830    -1.1990 C.3   1 <1>  -0.2400 
 14 H        1.2660    -1.6340     0.9440 H     1 <1>   0.0800 
 15 H        0.6590    -0.2270     1.8160 H     1 <1>   0.0800 
 16 H       -2.7850    -2.8710     1.5790 H     1 <1>   0.1500 
 17 H       -4.0150    -1.0810    -2.0640 H     1 <1>   0.1500 
 18 H       -4.5190    -2.5660    -0.1530 H     1 <1>   0.1500 
 19 H        5.2730    -0.1250     0.8810 H     1 <1>   0.0800 
 20 H        4.7230     1.1120    -0.2440 H     1 <1>   0.0800 
 21 H        5.4790    -1.7390    -0.9990 H     1 <1>   0.0800 
 22 H        6.4610    -0.3290    -1.3060 H     1 <1>   0.0800 
 23 H        4.9260    -0.5050    -2.1200 H     1 <1>   0.0800 
@<TRIPOS>BOND
  1   1   2  1   
  2   1   3  1   
  3   2   4  ar  
  4   2   5  ar  
  5   3   6  1   
  6   3  14  1   
  7   3  15  1   
  8   4   7  ar  
  9   5   8  ar  
 10   6   9  2   
 11   6  10  1   
 12   7  11  ar  
 13   7  16  1   
 14   8  11  ar  
 15   8  17  1   
 16  10  12  1   
 17  11  18  1   
 18  12  13  1   
 19  12  19  1   
 20  12  20  1   
 21  13  21  1   
 22  13  22  1   
 23  13  23  1   
@<TRIPOS>SUBSTRUCTURE
  1 ****   1 GROUP 4 **** **** 0

# MOE 2024.06 (io_trps.svl 2023.06)
