@<TRIPOS>MOLECULE
NONAME
36 37 1 0 0 
SMALL
USER_CHARGES


@<TRIPOS>ATOM
  1 O       -4.9190     4.4700     0.5880 O.2   1 <1>  -0.5700 
  2 C       -4.9170     3.4590    -0.0400 C.2   1 <1>   0.4480 
  3 C       -3.6550     2.7390    -0.4780 C.3   1 <1>  -0.0190 
  4 C       -6.2000     2.7560    -0.3920 C.3   1 <1>  -0.0990 
  5 C       -3.6910     1.3400     0.1400 C.3   1 <1>   0.3430 
  6 C       -2.3620     3.4740    -0.0740 C.3   1 <1>  -0.2400 
  7 C       -6.1720     1.3690     0.2340 C.3   1 <1>   0.3430 
  8 N       -4.9570     0.5940    -0.2050 N.4   1 <1>  -0.9590 
  9 C       -4.9520    -0.8050     0.3480 C.3   1 <1>   0.4230 
 10 C       -3.7140    -1.5770    -0.1540 C.3   1 <1>  -0.1600 
 11 C       -6.2390    -1.5490    -0.0670 C.3   1 <1>  -0.1600 
 12 C       -3.7190    -3.0460     0.2910 C.3   1 <1>  -0.1600 
 13 C       -6.2350    -3.0190     0.3780 C.3   1 <1>  -0.1600 
 14 C       -5.0020    -3.7560    -0.1480 C.3   1 <1>  -0.1600 
 15 H       -3.6620     2.6530    -1.5500 H     1 <1>   0.0800 
 16 H       -6.3130     2.6950    -1.4590 H     1 <1>   0.0800 
 17 H       -7.0320     3.3130     0.0020 H     1 <1>   0.0800 
 18 H       -3.6070     1.4300     1.2110 H     1 <1>   0.0800 
 19 H       -2.8300     0.7990    -0.2160 H     1 <1>   0.0800 
 20 H       -2.3060     3.5910     0.9960 H     1 <1>   0.0800 
 21 H       -2.3450     4.4560    -0.5150 H     1 <1>   0.0800 
 22 H       -1.4910     2.9380    -0.4110 H     1 <1>   0.0800 
 23 H       -7.0720     0.8510    -0.0530 H     1 <1>   0.0800 
 24 H       -6.1690     1.4660     1.3080 H     1 <1>   0.0800 
 25 H       -4.9970     0.4850    -1.2280 H     1 <1>   0.4500 
 26 H       -4.9140    -0.7670     1.4250 H     1 <1>   0.0800 
 27 H       -2.8100    -1.1440     0.2330 H     1 <1>   0.0800 
 28 H       -3.6780    -1.5480    -1.2290 H     1 <1>   0.0800 
 29 H       -6.3470    -1.5200    -1.1370 H     1 <1>   0.0800 
 30 H       -7.1040    -1.0970     0.3810 H     1 <1>   0.0800 
 31 H       -3.6310    -3.1030     1.3630 H     1 <1>   0.0800 
 32 H       -2.8690    -3.5560    -0.1320 H     1 <1>   0.0800 
 33 H       -7.1230    -3.5100     0.0160 H     1 <1>   0.0800 
 34 H       -6.2500    -3.0740     1.4540 H     1 <1>   0.0800 
 35 H       -5.0000    -4.7670     0.2250 H     1 <1>   0.0800 
 36 H       -5.0400    -3.8070    -1.2240 H     1 <1>   0.0800 
@<TRIPOS>BOND
  1   1   2  2   
  2   2   3  1   
  3   2   4  1   
  4   3   5  1   
  5   3   6  1   
  6   3  15  1   
  7   4   7  1   
  8   4  16  1   
  9   4  17  1   
 10   5   8  1   
 11   5  18  1   
 12   5  19  1   
 13   6  20  1   
 14   6  21  1   
 15   6  22  1   
 16   7   8  1   
 17   7  23  1   
 18   7  24  1   
 19   8   9  1   
 20   8  25  1   
 21   9  10  1   
 22   9  11  1   
 23   9  26  1   
 24  10  12  1   
 25  10  27  1   
 26  10  28  1   
 27  11  13  1   
 28  11  29  1   
 29  11  30  1   
 30  12  14  1   
 31  12  31  1   
 32  12  32  1   
 33  13  14  1   
 34  13  33  1   
 35  13  34  1   
 36  14  35  1   
 37  14  36  1   
@<TRIPOS>SUBSTRUCTURE
  1 ****   8 GROUP 4 **** **** 0

# MOE 2024.06 (io_trps.svl 2023.06)
