@<TRIPOS>MOLECULE
Structure2292
25 26 1 0 0 
SMALL
USER_CHARGES


@<TRIPOS>ATOM
  1 CL      -0.0010     0.0580     0.0730 Cl    1 <1>  -0.1770 
  2 C       -0.8990    -1.4320     0.2000 C.ar  1 <1>   0.1770 
  3 C       -2.2330    -1.4450    -0.1620 C.ar  1 <1>  -0.1500 
  4 C       -0.2660    -2.5690     0.6570 C.ar  1 <1>  -0.1500 
  5 C       -2.9730    -2.6170    -0.0590 C.ar  1 <1>  -0.1440 
  6 C       -0.9880    -3.7450     0.7470 C.ar  1 <1>  -0.1500 
  7 C       -2.3270    -3.7680     0.3880 C.ar  1 <1>  -0.1500 
  8 C       -4.4510    -2.6120    -0.4600 C.3   1 <1>   0.0640 
  9 C       -5.2020    -1.3880     0.0800 C.3   1 <1>   0.3430 
 10 C       -5.2800    -3.7950     0.0460 C.3   1 <1>  -0.1600 
 11 N       -6.5610    -1.8550     0.4920 N.4   1 <1>  -0.9060 
 12 C       -6.7040    -3.2710     0.0780 C.3   1 <1>   0.3430 
 13 H       -2.6580    -0.5270    -0.5250 H     1 <1>   0.1500 
 14 H        0.7740    -2.5330     0.9330 H     1 <1>   0.1500 
 15 H       -0.5060    -4.6440     1.0930 H     1 <1>   0.1500 
 16 H       -2.8420    -4.7090     0.4610 H     1 <1>   0.1500 
 17 H       -4.5040    -2.5850    -1.5360 H     1 <1>   0.0800 
 18 H       -5.2640    -0.6250    -0.6790 H     1 <1>   0.0800 
 19 H       -4.6780    -0.9900     0.9350 H     1 <1>   0.0800 
 20 H       -4.9940    -4.0640     1.0480 H     1 <1>   0.0800 
 21 H       -5.1870    -4.6580    -0.5900 H     1 <1>   0.0800 
 22 H       -7.3030    -1.2680     0.0890 H     1 <1>   0.4500 
 23 H       -6.6380    -1.7920     1.5160 H     1 <1>   0.4500 
 24 H       -7.3240    -3.8310     0.7610 H     1 <1>   0.0800 
 25 H       -7.1280    -3.3220    -0.9130 H     1 <1>   0.0800 
@<TRIPOS>BOND
  1   1   2  1   
  2   2   3  ar  
  3   2   4  ar  
  4   3   5  ar  
  5   3  13  1   
  6   4   6  ar  
  7   4  14  1   
  8   5   7  ar  
  9   5   8  1   
 10   6   7  ar  
 11   6  15  1   
 12   7  16  1   
 13   8   9  1   
 14   8  10  1   
 15   8  17  1   
 16   9  11  1   
 17   9  18  1   
 18   9  19  1   
 19  10  12  1   
 20  10  20  1   
 21  10  21  1   
 22  11  12  1   
 23  11  22  1   
 24  11  23  1   
 25  12  24  1   
 26  12  25  1   
@<TRIPOS>SUBSTRUCTURE
  1 ****   5 GROUP 4 **** **** 0

# MOE 2024.06 (io_trps.svl 2023.06)
