@<TRIPOS>MOLECULE
NONAME
48 50 1 0 0 
SMALL
USER_CHARGES


@<TRIPOS>ATOM
  1 S        0.3720    -0.7790     0.0430 S.o2  1 <1>   1.4470 
  2 O        0.8030    -0.2210     1.3060 O.2   1 <1>  -0.6500 
  3 O        1.2320    -1.7060    -0.6530 O.2   1 <1>  -0.6500 
  4 N        0.2090     0.5820    -1.0110 N.am  1 <1>  -0.6930 
  5 C       -1.3200    -1.4250     0.1300 C.ar  1 <1>  -0.0090 
  6 C       -0.7650     1.5450    -0.7900 C.ar  1 <1>   0.1990 
  7 C        1.3980     0.9490    -1.8440 C.3   1 <1>   0.2570 
  8 C       -2.2590    -0.8580     0.9880 C.ar  1 <1>  -0.1500 
  9 C       -1.7300    -2.4790    -0.6820 C.ar  1 <1>  -0.1500 
 10 C       -1.8640     1.6170    -1.6350 C.ar  1 <1>  -0.1500 
 11 C       -0.6810     2.4380     0.2720 C.ar  1 <1>  -0.1500 
 12 C        2.4980     1.7470    -1.1300 C.2   1 <1>   0.5690 
 13 C       -3.5630    -1.3200     1.0400 C.ar  1 <1>  -0.1500 
 14 C       -3.0310    -2.9520    -0.6390 C.ar  1 <1>  -0.1500 
 15 C       -2.8590     2.5540    -1.4240 C.ar  1 <1>  -0.1500 
 16 C       -1.6740     3.3760     0.4840 C.ar  1 <1>  -0.1500 
 17 O        3.1760     2.4880    -1.8040 O.2   1 <1>  -0.5700 
 18 N        2.7000     1.6150     0.2120 N.am  1 <1>  -0.5790 
 19 C       -3.9410    -2.3700     0.2210 C.ar  1 <1>   0.1010 
 20 C       -2.7690     3.4400    -0.3630 C.ar  1 <1>  -0.1430 
 21 C        3.7040     2.3270     1.0090 C.3   1 <1>   0.0490 
 22 S       -5.6140    -3.0340     0.2180 S.3   1 <1>  -0.3320 
 23 C       -3.8610     4.4690    -0.1320 C.3   1 <1>  -0.0970 
 24 C        4.3170     1.6050     2.1610 C.3   1 <1>  -0.2000 
 25 C        3.3360     2.7120     2.4030 C.3   1 <1>  -0.2000 
 26 C       -6.5770    -2.0580     1.4560 C.3   1 <1>  -0.0100 
 27 H        1.0580     1.5430    -2.6730 H     1 <1>   0.0800 
 28 H        1.8420     0.0610    -2.2560 H     1 <1>   0.0800 
 29 H       -1.9650    -0.0370     1.6220 H     1 <1>   0.1500 
 30 H       -1.0250    -2.9360    -1.3570 H     1 <1>   0.1500 
 31 H       -1.9400     0.9300    -2.4590 H     1 <1>   0.1500 
 32 H        0.1620     2.4010     0.9360 H     1 <1>   0.1500 
 33 H       -4.2580    -0.8570     1.7120 H     1 <1>   0.1500 
 34 H       -3.3410    -3.7680    -1.2680 H     1 <1>   0.1500 
 35 H       -3.7050     2.5910    -2.0890 H     1 <1>   0.1500 
 36 H       -1.5900     4.0590     1.3120 H     1 <1>   0.1500 
 37 H        2.0990     0.9850     0.7590 H     1 <1>   0.3700 
 38 H        4.3190     2.9970     0.4290 H     1 <1>   0.1000 
 39 H       -4.6480     4.0380     0.4600 H     1 <1>   0.0800 
 40 H       -4.2710     4.7970    -1.0700 H     1 <1>   0.0800 
 41 H       -3.4680     5.3270     0.3840 H     1 <1>   0.0800 
 42 H        5.3530     1.7830     2.3890 H     1 <1>   0.1000 
 43 H        4.0180     0.5890     2.3520 H     1 <1>   0.1000 
 44 H        2.3560     2.4630     2.7710 H     1 <1>   0.1000 
 45 H        3.7050     3.6420     2.7960 H     1 <1>   0.1000 
 46 H       -7.5800    -2.4460     1.4640 H     1 <1>   0.0800 
 47 H       -6.5700    -1.0290     1.1460 H     1 <1>   0.0800 
 48 H       -6.1110    -2.1860     2.4160 H     1 <1>   0.0800 
@<TRIPOS>BOND
  1   1   2  2   
  2   1   3  2   
  3   1   4  am  
  4   1   5  1   
  5   4   6  1   
  6   4   7  1   
  7   5   8  ar  
  8   5   9  ar  
  9   6  10  ar  
 10   6  11  ar  
 11   7  12  1   
 12   7  27  1   
 13   7  28  1   
 14   8  13  ar  
 15   8  29  1   
 16   9  14  ar  
 17   9  30  1   
 18  10  15  ar  
 19  10  31  1   
 20  11  16  ar  
 21  11  32  1   
 22  12  17  2   
 23  12  18  am  
 24  13  19  ar  
 25  13  33  1   
 26  14  19  ar  
 27  14  34  1   
 28  15  20  ar  
 29  15  35  1   
 30  16  20  ar  
 31  16  36  1   
 32  18  21  1   
 33  18  37  1   
 34  19  22  1   
 35  20  23  1   
 36  21  24  1   
 37  21  25  1   
 38  21  38  1   
 39  22  26  1   
 40  23  39  1   
 41  23  40  1   
 42  23  41  1   
 43  24  25  1   
 44  24  42  1   
 45  24  43  1   
 46  25  44  1   
 47  25  45  1   
 48  26  46  1   
 49  26  47  1   
 50  26  48  1   
@<TRIPOS>SUBSTRUCTURE
  1 ****   6 GROUP 4 **** **** 0

# MOE 2024.06 (io_trps.svl 2023.06)
