@<TRIPOS>MOLECULE
NONAME
43 43 1 0 0 
SMALL
USER_CHARGES


@<TRIPOS>ATOM
  1 S        0.0150    -0.1500    -0.0370 S.o2  1 <1>   1.4470 
  2 O       -0.3590    -0.5310    -1.3830 O.2   1 <1>  -0.6500 
  3 O       -0.4230    -1.0010     1.0500 O.2   1 <1>  -0.6500 
  4 N       -0.5880     1.4240     0.2190 N.am  1 <1>  -0.8490 
  5 C        1.8250    -0.0070    -0.0260 C.ar  1 <1>  -0.0090 
  6 C       -1.9710     1.5940    -0.2460 C.3   1 <1>   0.2760 
  7 C       -0.2040     2.2020     1.4130 C.3   1 <1>   0.2760 
  8 C        2.5980    -0.6110     0.9590 C.ar  1 <1>  -0.1500 
  9 C        2.4900     0.7160    -1.0090 C.ar  1 <1>  -0.1500 
 10 C       -2.1840     3.0160    -0.7690 C.3   1 <1>  -0.2400 
 11 C       -2.9980     1.2300     0.8290 C.3   1 <1>  -0.2400 
 12 C        1.0820     2.9780     1.1360 C.3   1 <1>  -0.2400 
 13 C       -0.0920     1.3980     2.7080 C.3   1 <1>  -0.2400 
 14 C        3.9760    -0.4870     0.9690 C.ar  1 <1>  -0.1500 
 15 C        3.8670     0.8440    -1.0040 C.ar  1 <1>  -0.1500 
 16 C        4.6340     0.2470    -0.0090 C.ar  1 <1>   0.1170 
 17 N        6.0310     0.3420     0.0420 N.am  1 <1>  -0.5470 
 18 C        6.9000     1.2240    -0.5190 C.2   1 <1>   0.7800 
 19 O        6.5770     2.1750    -1.2020 O.2   1 <1>  -0.5700 
 20 O        8.1850     0.9880    -0.2600 O.3   1 <1>  -0.4300 
 21 C        9.1980     1.8310    -0.7730 C.3   1 <1>   0.0400 
 22 H       -2.1460     0.9430    -1.0870 H     1 <1>   0.0800 
 23 H       -0.9570     2.9490     1.5910 H     1 <1>   0.0800 
 24 H        2.1120    -1.1890     1.7280 H     1 <1>   0.1500 
 25 H        1.9150     1.1870    -1.7900 H     1 <1>   0.1500 
 26 H       -2.1650     3.7440     0.0190 H     1 <1>   0.0800 
 27 H       -3.1410     3.0780    -1.2540 H     1 <1>   0.0800 
 28 H       -1.4260     3.2530    -1.4940 H     1 <1>   0.0800 
 29 H       -2.9650     1.9110     1.6580 H     1 <1>   0.0800 
 30 H       -2.8300     0.2280     1.1810 H     1 <1>   0.0800 
 31 H       -3.9860     1.2690     0.4070 H     1 <1>   0.0800 
 32 H        1.9450     2.3430     1.1680 H     1 <1>   0.0800 
 33 H        1.2110     3.7350     1.8870 H     1 <1>   0.0800 
 34 H        1.0250     3.4620     0.1780 H     1 <1>   0.0800 
 35 H        0.0460     2.0700     3.5350 H     1 <1>   0.0800 
 36 H       -0.9910     0.8360     2.8860 H     1 <1>   0.0800 
 37 H        0.7490     0.7310     2.6880 H     1 <1>   0.0800 
 38 H        4.5420    -0.9650     1.7470 H     1 <1>   0.1500 
 39 H        4.3410     1.4100    -1.7850 H     1 <1>   0.1500 
 40 H        6.5070    -0.3390     0.6270 H     1 <1>   0.3700 
 41 H       10.1510     1.4580    -0.4430 H     1 <1>   0.0800 
 42 H        9.0420     2.8290    -0.4020 H     1 <1>   0.0800 
 43 H        9.1480     1.8220    -1.8480 H     1 <1>   0.0800 
@<TRIPOS>BOND
  1   1   2  2   
  2   1   3  2   
  3   1   4  am  
  4   1   5  1   
  5   4   6  1   
  6   4   7  1   
  7   5   8  ar  
  8   5   9  ar  
  9   6  10  1   
 10   6  11  1   
 11   6  22  1   
 12   7  12  1   
 13   7  13  1   
 14   7  23  1   
 15   8  14  ar  
 16   8  24  1   
 17   9  15  ar  
 18   9  25  1   
 19  10  26  1   
 20  10  27  1   
 21  10  28  1   
 22  11  29  1   
 23  11  30  1   
 24  11  31  1   
 25  12  32  1   
 26  12  33  1   
 27  12  34  1   
 28  13  35  1   
 29  13  36  1   
 30  13  37  1   
 31  14  16  ar  
 32  14  38  1   
 33  15  16  ar  
 34  15  39  1   
 35  16  17  1   
 36  17  18  am  
 37  17  40  1   
 38  18  19  2   
 39  18  20  1   
 40  20  21  1   
 41  21  41  1   
 42  21  42  1   
 43  21  43  1   
@<TRIPOS>SUBSTRUCTURE
  1 ****   5 GROUP 4 **** **** 0

# MOE 2024.06 (io_trps.svl 2023.06)
