@<TRIPOS>MOLECULE
NONAME
50 51 1 0 0 
SMALL
USER_CHARGES


@<TRIPOS>ATOM
  1 O       -0.6120     1.5780    -3.6700 O.2   1 <1>  -0.5700 
  2 C       -0.2690     2.0620    -2.6170 C.2   1 <1>   0.6590 
  3 O       -1.0580     2.1580    -1.5410 O.3   1 <1>  -0.0870 
  4 C        1.1230     2.6410    -2.4480 C.3   1 <1>   0.1810 
  5 N       -2.3400     1.7640    -1.5000 N.2   1 <1>  -0.5130 
  6 O        1.7040     2.2130    -1.2260 O.3   1 <1>  -0.3620 
  7 C       -2.9040     1.7180    -0.3530 C.2   1 <1>   0.4140 
  8 C        2.9200     2.6660    -0.8330 C.ar  1 <1>   0.0830 
  9 N       -2.1800     2.0340     0.7810 N.pl3 1 <1>  -0.8500 
 10 C       -4.2880     1.3080    -0.1870 C.ar  1 <1>   0.0860 
 11 C        3.7060     3.5350    -1.5800 C.ar  1 <1>  -0.1500 
 12 C        3.3850     2.2240     0.3920 C.ar  1 <1>  -0.1500 
 13 C       -5.0750     1.7840     0.8650 C.ar  1 <1>  -0.1500 
 14 C       -4.8890     0.4140    -1.0750 C.ar  1 <1>  -0.1500 
 15 C        4.9330     3.9530    -1.0950 C.ar  1 <1>  -0.1500 
 16 C        4.6120     2.6460     0.8700 C.ar  1 <1>  -0.1500 
 17 C       -6.3880     1.3810     1.0330 C.ar  1 <1>  -0.1500 
 18 C       -6.1990     0.0050    -0.9150 C.ar  1 <1>  -0.1500 
 19 C        5.4120     3.5190     0.1400 C.ar  1 <1>  -0.1430 
 20 C       -6.9600     0.4810     0.1400 C.ar  1 <1>   0.0830 
 21 C        6.7740     3.9620     0.7190 C.3   1 <1>   0.1440 
 22 O       -8.2340     0.0320     0.2310 O.3   1 <1>  -0.3620 
 23 C        6.5520     4.6810     2.0580 C.3   1 <1>  -0.2400 
 24 C        7.6630     2.7300     0.9410 C.3   1 <1>  -0.2400 
 25 C        7.5400     4.9270    -0.2030 C.3   1 <1>  -0.2400 
 26 C       -9.1020     0.4750     1.2500 C.3   1 <1>   0.0400 
 27 H        1.0580     3.7130    -2.4360 H     1 <1>   0.0800 
 28 H        1.7500     2.3140    -3.2560 H     1 <1>   0.0800 
 29 H       -1.1800     2.1080     0.5800 H     1 <1>   0.4000 
 30 H       -2.3660     1.4320     1.5830 H     1 <1>   0.4000 
 31 H        3.3890     3.8990    -2.5380 H     1 <1>   0.1500 
 32 H        2.7820     1.5490     0.9710 H     1 <1>   0.1500 
 33 H       -4.6520     2.4900     1.5570 H     1 <1>   0.1500 
 34 H       -4.3140     0.0360    -1.9040 H     1 <1>   0.1500 
 35 H        5.5030     4.6250    -1.7080 H     1 <1>   0.1500 
 36 H        4.9380     2.2810     1.8270 H     1 <1>   0.1500 
 37 H       -6.9480     1.7770     1.8580 H     1 <1>   0.1500 
 38 H       -6.6430    -0.6850    -1.6090 H     1 <1>   0.1500 
 39 H        5.9010     5.5260     1.9190 H     1 <1>   0.0800 
 40 H        7.4860     5.0310     2.4610 H     1 <1>   0.0800 
 41 H        6.1030     4.0260     2.7810 H     1 <1>   0.0800 
 42 H        8.6310     3.0210     1.3100 H     1 <1>   0.0800 
 43 H        7.7960     2.2000     0.0150 H     1 <1>   0.0800 
 44 H        7.2250     2.0570     1.6550 H     1 <1>   0.0800 
 45 H        8.4790     5.2070     0.2400 H     1 <1>   0.0800 
 46 H        6.9710     5.8240    -0.3690 H     1 <1>   0.0800 
 47 H        7.7470     4.4600    -1.1500 H     1 <1>   0.0800 
 48 H      -10.0530    -0.0080     1.1120 H     1 <1>   0.0800 
 49 H       -9.2190     1.5410     1.1700 H     1 <1>   0.0800 
 50 H       -8.6880     0.2010     2.2040 H     1 <1>   0.0800 
@<TRIPOS>BOND
  1   1   2  2   
  2   2   3  1   
  3   2   4  1   
  4   3   5  1   
  5   4   6  1   
  6   4  27  1   
  7   4  28  1   
  8   5   7  2   
  9   6   8  1   
 10   7   9  1   
 11   7  10  1   
 12   8  11  ar  
 13   8  12  ar  
 14   9  29  1   
 15   9  30  1   
 16  10  13  ar  
 17  10  14  ar  
 18  11  15  ar  
 19  11  31  1   
 20  12  16  ar  
 21  12  32  1   
 22  13  17  ar  
 23  13  33  1   
 24  14  18  ar  
 25  14  34  1   
 26  15  19  ar  
 27  15  35  1   
 28  16  19  ar  
 29  16  36  1   
 30  17  20  ar  
 31  17  37  1   
 32  18  20  ar  
 33  18  38  1   
 34  19  21  1   
 35  20  22  1   
 36  21  23  1   
 37  21  24  1   
 38  21  25  1   
 39  22  26  1   
 40  23  39  1   
 41  23  40  1   
 42  23  41  1   
 43  24  42  1   
 44  24  43  1   
 45  24  44  1   
 46  25  45  1   
 47  25  46  1   
 48  25  47  1   
 49  26  48  1   
 50  26  49  1   
 51  26  50  1   
@<TRIPOS>SUBSTRUCTURE
  1 ****   3 GROUP 4 **** **** 0

# MOE 2024.06 (io_trps.svl 2023.06)
