@<TRIPOS>MOLECULE
NONAME
43 44 1 0 0 
SMALL
USER_CHARGES


@<TRIPOS>ATOM
  1 N       -0.1260    -0.3870    -0.4060 N.4   1 <1>  -0.9590 
  2 C       -1.3050     0.4970    -0.6410 C.3   1 <1>   0.3430 
  3 C       -0.2170    -1.1680     0.8610 C.3   1 <1>   0.3430 
  4 C        1.1370     0.4250    -0.4210 C.3   1 <1>   0.2630 
  5 C       -2.5930    -0.3320    -0.6440 C.3   1 <1>  -0.1600 
  6 C       -1.4930    -2.0130     0.8640 C.3   1 <1>  -0.1600 
  7 C       -2.7320    -1.1430     0.6490 C.3   1 <1>   0.4230 
  8 N       -3.9270    -2.0190     0.5900 N.4   1 <1>  -0.9060 
  9 C       -5.2320    -1.3010     0.6580 C.3   1 <1>   0.3430 
 10 C       -6.3940    -2.3020     0.6110 C.3   1 <1>  -0.0800 
 11 C       -6.4040    -3.1340    -0.6910 C.3   1 <1>  -0.1600 
 12 C       -7.7230    -1.5390     0.7650 C.3   1 <1>  -0.1600 
 13 C       -7.6120    -4.0800    -0.7400 C.3   1 <1>  -0.1600 
 14 C       -8.9270    -2.4880     0.7190 C.3   1 <1>  -0.1600 
 15 C       -8.9290    -3.3140    -0.5720 C.3   1 <1>  -0.1600 
 16 H       -0.0520    -1.0510    -1.1950 H     1 <1>   0.4500 
 17 H       -1.2000     1.0060    -1.5870 H     1 <1>   0.0800 
 18 H       -1.3560     1.2460     0.1340 H     1 <1>   0.0800 
 19 H       -0.2220    -0.4940     1.7040 H     1 <1>   0.0800 
 20 H        0.6440    -1.8130     0.9580 H     1 <1>   0.0800 
 21 H        1.1340     1.1460     0.3810 H     1 <1>   0.0800 
 22 H        1.2350     0.9540    -1.3560 H     1 <1>   0.0800 
 23 H        1.9980    -0.2140    -0.3020 H     1 <1>   0.0800 
 24 H       -2.5850    -0.9810    -1.5030 H     1 <1>   0.0800 
 25 H       -3.4190     0.3490    -0.7460 H     1 <1>   0.0800 
 26 H       -1.5600    -2.5110     1.8160 H     1 <1>   0.0800 
 27 H       -1.4130    -2.7630     0.0970 H     1 <1>   0.0800 
 28 H       -2.8290    -0.4650     1.4840 H     1 <1>   0.0800 
 29 H       -3.9090    -2.6900     1.3700 H     1 <1>   0.4500 
 30 H       -3.9230    -2.5870    -0.2660 H     1 <1>   0.4500 
 31 H       -5.3280    -0.6190    -0.1720 H     1 <1>   0.0800 
 32 H       -5.2940    -0.7330     1.5730 H     1 <1>   0.0800 
 33 H       -6.3090    -2.9710     1.4510 H     1 <1>   0.0800 
 34 H       -5.5160    -3.7330    -0.7750 H     1 <1>   0.0800 
 35 H       -6.4510    -2.4780    -1.5440 H     1 <1>   0.0800 
 36 H       -7.8270    -0.8140    -0.0260 H     1 <1>   0.0800 
 37 H       -7.7400    -1.0080     1.7030 H     1 <1>   0.0800 
 38 H       -7.5300    -4.8150     0.0430 H     1 <1>   0.0800 
 39 H       -7.6250    -4.6050    -1.6800 H     1 <1>   0.0800 
 40 H       -9.8390    -1.9190     0.7790 H     1 <1>   0.0800 
 41 H       -8.9000    -3.1510     1.5660 H     1 <1>   0.0800 
 42 H       -9.7500    -4.0100    -0.5520 H     1 <1>   0.0800 
 43 H       -9.0760    -2.6610    -1.4160 H     1 <1>   0.0800 
@<TRIPOS>BOND
  1   1   2  1   
  2   1   3  1   
  3   1   4  1   
  4   1  16  1   
  5   2   5  1   
  6   2  17  1   
  7   2  18  1   
  8   3   6  1   
  9   3  19  1   
 10   3  20  1   
 11   4  21  1   
 12   4  22  1   
 13   4  23  1   
 14   5   7  1   
 15   5  24  1   
 16   5  25  1   
 17   6   7  1   
 18   6  26  1   
 19   6  27  1   
 20   7   8  1   
 21   7  28  1   
 22   8   9  1   
 23   8  29  1   
 24   8  30  1   
 25   9  10  1   
 26   9  31  1   
 27   9  32  1   
 28  10  11  1   
 29  10  12  1   
 30  10  33  1   
 31  11  13  1   
 32  11  34  1   
 33  11  35  1   
 34  12  14  1   
 35  12  36  1   
 36  12  37  1   
 37  13  15  1   
 38  13  38  1   
 39  13  39  1   
 40  14  15  1   
 41  14  40  1   
 42  14  41  1   
 43  15  42  1   
 44  15  43  1   
@<TRIPOS>SUBSTRUCTURE
  1 ****   8 GROUP 4 **** **** 0

# MOE 2024.06 (io_trps.svl 2023.06)
