@<TRIPOS>MOLECULE
NONAME
41 43 1 0 0 
SMALL
USER_CHARGES


@<TRIPOS>ATOM
  1 O        0.4640    -0.1230    -0.6700 O.2   1 <1>  -0.5700 
  2 C        0.9620    -1.1790    -0.3270 C.2   1 <1>   0.5440 
  3 N        0.1270    -2.2230     0.0180 N.am  1 <1>  -0.6600 
  4 C        2.4050    -1.2950    -0.2840 C.ar  1 <1>   0.0860 
  5 C        0.5420    -3.4250     0.8010 C.3   1 <1>   0.1400 
  6 C       -1.3460    -2.1610    -0.2160 C.3   1 <1>   0.1400 
  7 C        3.1750    -0.3860     0.4390 C.ar  1 <1>  -0.1500 
  8 C        3.0840    -2.3010    -0.9710 C.ar  1 <1>  -0.1500 
  9 C       -0.0800    -4.6980     0.2030 C.3   1 <1>   0.1200 
 10 C       -1.8660    -3.5070    -0.7500 C.3   1 <1>   0.1200 
 11 C        4.5520    -0.4870     0.4910 C.ar  1 <1>  -0.1500 
 12 C        4.4610    -2.4050    -0.9210 C.ar  1 <1>  -0.1500 
 13 O       -1.4680    -4.5620     0.0820 O.3   1 <1>  -0.5600 
 14 C        5.2210    -1.5020    -0.1830 C.ar  1 <1>   0.1170 
 15 N        6.6150    -1.5570    -0.1140 N.am  1 <1>  -0.5470 
 16 C        7.4910    -2.6030    -0.2720 C.2   1 <1>   0.7160 
 17 O        7.0730    -3.7400    -0.3700 O.2   1 <1>  -0.5700 
 18 C        8.9060    -2.3180    -0.2920 C.2   1 <1>  -0.0860 
 19 C        9.9750    -3.1230    -0.0250 C.2   1 <1>  -0.0400 
 20 C        9.4930    -1.0730    -0.6170 C.2   1 <1>  -0.1500 
 21 O       11.1040    -2.4700    -0.1550 O.3   1 <1>  -0.2800 
 22 C       10.0580    -4.5810     0.3850 C.3   1 <1>  -0.0600 
 23 C       10.8260    -1.2370    -0.5120 C.2   1 <1>  -0.0100 
 24 H        0.1990    -3.3160     1.8150 H     1 <1>   0.0800 
 25 H        1.6110    -3.5250     0.8270 H     1 <1>   0.0800 
 26 H       -1.5820    -1.3870    -0.9250 H     1 <1>   0.0800 
 27 H       -1.8430    -1.9270     0.7090 H     1 <1>   0.0800 
 28 H        2.6720     0.4100     0.9620 H     1 <1>   0.1500 
 29 H        2.5180    -3.0050    -1.5560 H     1 <1>   0.1500 
 30 H        0.1120    -5.5410     0.8430 H     1 <1>   0.0800 
 31 H        0.3330    -4.9010    -0.7700 H     1 <1>   0.0800 
 32 H       -1.4890    -3.6880    -1.7410 H     1 <1>   0.0800 
 33 H       -2.9410    -3.5010    -0.7830 H     1 <1>   0.0800 
 34 H        5.1100     0.2310     1.0640 H     1 <1>   0.1500 
 35 H        4.9480    -3.1930    -1.4680 H     1 <1>   0.1500 
 36 H        7.0720    -0.6940     0.1680 H     1 <1>   0.3700 
 37 H        8.9650    -0.1810    -0.9020 H     1 <1>   0.1500 
 38 H        9.0810    -5.0100     0.5040 H     1 <1>   0.0800 
 39 H       10.5870    -4.6650     1.3160 H     1 <1>   0.0800 
 40 H       10.5890    -5.1360    -0.3670 H     1 <1>   0.0800 
 41 H       11.6380    -0.5490    -0.6720 H     1 <1>   0.1500 
@<TRIPOS>BOND
  1   1   2  2   
  2   2   3  am  
  3   2   4  1   
  4   3   5  1   
  5   3   6  1   
  6   4   7  ar  
  7   4   8  ar  
  8   5   9  1   
  9   5  24  1   
 10   5  25  1   
 11   6  10  1   
 12   6  26  1   
 13   6  27  1   
 14   7  11  ar  
 15   7  28  1   
 16   8  12  ar  
 17   8  29  1   
 18   9  13  1   
 19   9  30  1   
 20   9  31  1   
 21  10  13  1   
 22  10  32  1   
 23  10  33  1   
 24  11  14  ar  
 25  11  34  1   
 26  12  14  ar  
 27  12  35  1   
 28  14  15  1   
 29  15  16  am  
 30  15  36  1   
 31  16  17  2   
 32  16  18  1   
 33  18  19  2   
 34  18  20  1   
 35  19  21  1   
 36  19  22  1   
 37  20  23  2   
 38  20  37  1   
 39  21  23  1   
 40  22  38  1   
 41  22  39  1   
 42  22  40  1   
 43  23  41  1   
@<TRIPOS>SUBSTRUCTURE
  1 ****  12 GROUP 4 **** **** 0

# MOE 2024.06 (io_trps.svl 2023.06)
