@<TRIPOS>MOLECULE
NONAME
43 45 1 0 0 
SMALL
USER_CHARGES


@<TRIPOS>ATOM
  1 O       -1.9300     1.0300     0.6590 O.3   1 <1>  -0.3630 
  2 C       -1.0600     2.0330     0.3530 C.ar  1 <1>   0.0820 
  3 C       -1.5980     0.0490     1.6230 C.3   1 <1>   0.0400 
  4 C       -1.3790     2.8480    -0.7280 C.ar  1 <1>  -0.1440 
  5 C        0.1070     2.2740     1.0740 C.ar  1 <1>  -0.1500 
  6 C       -0.5370     3.8930    -1.0760 C.ar  1 <1>  -0.1500 
  7 C       -2.6440     2.6040    -1.5230 C.3   1 <1>   0.4870 
  8 C        0.9420     3.3190     0.7220 C.ar  1 <1>  -0.1500 
  9 C        0.6200     4.1360    -0.3570 C.ar  1 <1>   0.0820 
 10 N       -3.8010     2.7680    -0.6140 N.4   1 <1>  -0.9590 
 11 O        1.3750     5.1850    -0.7690 O.3   1 <1>  -0.3620 
 12 C       -5.0720     2.2780    -1.2010 C.3   1 <1>   0.4860 
 13 C       -3.9410     4.1530    -0.0820 C.3   1 <1>   0.3430 
 14 C        2.6180     5.4720    -0.1640 C.3   1 <1>   0.0400 
 15 C       -6.2110     2.4280    -0.2040 C.ar  1 <1>  -0.1430 
 16 C       -4.8900     4.1510     1.1170 C.3   1 <1>  -0.0160 
 17 C       -6.1350     3.3100     0.8710 C.ar  1 <1>  -0.1430 
 18 C       -7.3580     1.6690    -0.3840 C.ar  1 <1>  -0.1500 
 19 C       -7.2030     3.4200     1.7470 C.ar  1 <1>  -0.1500 
 20 C       -8.4200     1.7840     0.4950 C.ar  1 <1>  -0.1500 
 21 C       -8.3430     2.6610     1.5600 C.ar  1 <1>  -0.1500 
 22 H       -1.5050     0.5170     2.5870 H     1 <1>   0.0800 
 23 H       -0.6760    -0.4270     1.3370 H     1 <1>   0.0800 
 24 H       -2.3880    -0.6810     1.6500 H     1 <1>   0.0800 
 25 H        0.3850     1.6640     1.9130 H     1 <1>   0.1500 
 26 H       -0.7560     4.5370    -1.9090 H     1 <1>   0.1500 
 27 H       -2.6200     1.5990    -1.9120 H     1 <1>   0.0800 
 28 H       -2.7090     3.2950    -2.3470 H     1 <1>   0.0800 
 29 H        1.8350     3.4840     1.2960 H     1 <1>   0.1500 
 30 H       -3.5830     2.1570     0.1910 H     1 <1>   0.4500 
 31 H       -4.9740     1.2400    -1.4710 H     1 <1>   0.0800 
 32 H       -5.3090     2.8420    -2.0880 H     1 <1>   0.0800 
 33 H       -4.3360     4.7980    -0.8500 H     1 <1>   0.0800 
 34 H       -2.9820     4.5380     0.2270 H     1 <1>   0.0800 
 35 H        3.0490     6.3160    -0.6720 H     1 <1>   0.0800 
 36 H        3.2640     4.6170    -0.2670 H     1 <1>   0.0800 
 37 H        2.4580     5.7120     0.8720 H     1 <1>   0.0800 
 38 H       -5.1720     5.1650     1.3400 H     1 <1>   0.0800 
 39 H       -4.3700     3.7630     1.9750 H     1 <1>   0.0800 
 40 H       -7.4440     0.9800    -1.2070 H     1 <1>   0.1500 
 41 H       -7.1570     4.0970     2.5840 H     1 <1>   0.1500 
 42 H       -9.3090     1.1930     0.3510 H     1 <1>   0.1500 
 43 H       -9.1700     2.7510     2.2440 H     1 <1>   0.1500 
@<TRIPOS>BOND
  1   1   2  1   
  2   1   3  1   
  3   2   4  ar  
  4   2   5  ar  
  5   3  22  1   
  6   3  23  1   
  7   3  24  1   
  8   4   6  ar  
  9   4   7  1   
 10   5   8  ar  
 11   5  25  1   
 12   6   9  ar  
 13   6  26  1   
 14   7  10  1   
 15   7  27  1   
 16   7  28  1   
 17   8   9  ar  
 18   8  29  1   
 19   9  11  1   
 20  10  12  1   
 21  10  13  1   
 22  10  30  1   
 23  11  14  1   
 24  12  15  1   
 25  12  31  1   
 26  12  32  1   
 27  13  16  1   
 28  13  33  1   
 29  13  34  1   
 30  14  35  1   
 31  14  36  1   
 32  14  37  1   
 33  15  17  ar  
 34  15  18  ar  
 35  16  17  1   
 36  16  38  1   
 37  16  39  1   
 38  17  19  ar  
 39  18  20  ar  
 40  18  40  1   
 41  19  21  ar  
 42  19  41  1   
 43  20  21  ar  
 44  20  42  1   
 45  21  43  1   
@<TRIPOS>SUBSTRUCTURE
  1 ****  10 GROUP 4 **** **** 0

# MOE 2024.06 (io_trps.svl 2023.06)
