@<TRIPOS>MOLECULE
NONAME
42 43 1 0 0 
SMALL
USER_CHARGES


@<TRIPOS>ATOM
  1 O        0.1910    -0.3650    -1.1780 O.2   1 <1>  -0.5700 
  2 C        1.2580    -0.8400    -0.8700 C.2   1 <1>   0.4950 
  3 C        2.3830    -0.0600    -0.5080 C.2   1 <1>  -0.1360 
  4 C        1.4030    -2.3490    -0.8890 C.3   1 <1>  -0.0990 
  5 C        3.5930    -0.5550    -0.1390 C.2   1 <1>  -0.0380 
  6 C        2.4710    -2.8140     0.1150 C.3   1 <1>   0.0640 
  7 N        4.6920     0.1930     0.1850 N.pl3 1 <1>  -0.8690 
  8 C        3.8010    -2.0620    -0.0710 C.3   1 <1>  -0.0220 
  9 C        2.6750    -4.3260     0.0520 C.ar  1 <1>  -0.1430 
 10 C        4.7920     1.6680     0.1590 C.3   1 <1>   0.2090 
 11 C        2.4060    -5.1060     1.1680 C.ar  1 <1>  -0.1500 
 12 C        3.1280    -4.9440    -1.1050 C.ar  1 <1>  -0.1500 
 13 C        6.2670     2.0600     0.0560 C.3   1 <1>  -0.1600 
 14 C        2.5870    -6.4770     1.1290 C.ar  1 <1>  -0.1500 
 15 C        3.3100    -6.3160    -1.1460 C.ar  1 <1>  -0.1500 
 16 C        6.4950     3.5810     0.1250 C.3   1 <1>  -0.0800 
 17 C        3.0390    -7.0840    -0.0280 C.ar  1 <1>  -0.1500 
 18 C        5.8540     4.3150    -1.0610 C.3   1 <1>  -0.2400 
 19 C        7.9980     3.8780     0.1550 C.3   1 <1>  -0.2400 
 20 H        2.2150     0.9970    -0.5480 H     1 <1>   0.1500 
 21 H        1.6660    -2.6460    -1.8860 H     1 <1>   0.0800 
 22 H        0.4590    -2.7980    -0.6420 H     1 <1>   0.0800 
 23 H        2.1070    -2.5600     1.0970 H     1 <1>   0.0800 
 24 H        5.5630    -0.2700     0.4730 H     1 <1>   0.4000 
 25 H        4.4460    -2.3030     0.7560 H     1 <1>   0.0800 
 26 H        4.2910    -2.3780    -0.9750 H     1 <1>   0.0800 
 27 H        4.3630     2.0680     1.0630 H     1 <1>   0.0800 
 28 H        4.2460     2.0480    -0.6860 H     1 <1>   0.0800 
 29 H        2.0530    -4.6520     2.0780 H     1 <1>   0.1500 
 30 H        3.3450    -4.3650    -1.9860 H     1 <1>   0.1500 
 31 H        6.6660     1.6780    -0.8670 H     1 <1>   0.0800 
 32 H        6.7960     1.5980     0.8710 H     1 <1>   0.0800 
 33 H        2.3750    -7.0730     2.0000 H     1 <1>   0.1500 
 34 H        3.6620    -6.7850    -2.0480 H     1 <1>   0.1500 
 35 H        6.0610     3.9580     1.0370 H     1 <1>   0.0800 
 36 H        3.1800    -8.1500    -0.0590 H     1 <1>   0.1500 
 37 H        6.2250     3.9260    -1.9930 H     1 <1>   0.0800 
 38 H        6.0850     5.3650    -1.0160 H     1 <1>   0.0800 
 39 H        4.7840     4.2160    -1.0460 H     1 <1>   0.0800 
 40 H        8.4750     3.5220    -0.7410 H     1 <1>   0.0800 
 41 H        8.4590     3.4010     1.0020 H     1 <1>   0.0800 
 42 H        8.1690     4.9380     0.2350 H     1 <1>   0.0800 
@<TRIPOS>BOND
  1   1   2  2   
  2   2   3  1   
  3   2   4  1   
  4   3   5  2   
  5   3  20  1   
  6   4   6  1   
  7   4  21  1   
  8   4  22  1   
  9   5   7  1   
 10   5   8  1   
 11   6   8  1   
 12   6   9  1   
 13   6  23  1   
 14   7  10  1   
 15   7  24  1   
 16   8  25  1   
 17   8  26  1   
 18   9  11  ar  
 19   9  12  ar  
 20  10  13  1   
 21  10  27  1   
 22  10  28  1   
 23  11  14  ar  
 24  11  29  1   
 25  12  15  ar  
 26  12  30  1   
 27  13  16  1   
 28  13  31  1   
 29  13  32  1   
 30  14  17  ar  
 31  14  33  1   
 32  15  17  ar  
 33  15  34  1   
 34  16  18  1   
 35  16  19  1   
 36  16  35  1   
 37  17  36  1   
 38  18  37  1   
 39  18  38  1   
 40  18  39  1   
 41  19  40  1   
 42  19  41  1   
 43  19  42  1   
@<TRIPOS>SUBSTRUCTURE
  1 ****   8 GROUP 4 **** **** 0

# MOE 2024.06 (io_trps.svl 2023.06)
