@<TRIPOS>MOLECULE
NONAME
43 44 1 0 0 
SMALL
USER_CHARGES


@<TRIPOS>ATOM
  1 O        0.0670    -0.1340     0.3220 O.2   1 <1>  -0.5700 
  2 C        0.1900    -1.3370     0.1910 C.2   1 <1>   0.7150 
  3 N        1.4270    -1.9050     0.0120 N.am  1 <1>  -0.5470 
  4 C       -0.9650    -2.2030     0.2060 C.2   1 <1>   0.0550 
  5 C        2.7180    -1.3540    -0.0340 C.ar  1 <1>   0.1170 
  6 O       -0.8340    -3.5180     0.0400 O.3   1 <1>  -0.2800 
  7 C       -2.2870    -1.9200     0.3700 C.2   1 <1>  -0.1500 
  8 C        3.7100    -2.0360    -0.7260 C.ar  1 <1>  -0.1500 
  9 C        3.0540    -0.1640     0.6000 C.ar  1 <1>  -0.1500 
 10 C       -2.0250    -4.0720     0.0940 C.2   1 <1>  -0.0100 
 11 C       -2.9730    -3.1330     0.2980 C.2   1 <1>  -0.1500 
 12 C        5.0090    -1.5430    -0.7900 C.ar  1 <1>   0.0830 
 13 C        4.3430     0.3330     0.5430 C.ar  1 <1>  -0.1500 
 14 O        6.0120    -2.1820    -1.4680 O.3   1 <1>  -0.3630 
 15 C        5.3390    -0.3460    -0.1470 C.ar  1 <1>   0.1170 
 16 C        5.7750    -3.3800    -2.1760 C.3   1 <1>   0.0400 
 17 N        6.6690     0.1120    -0.2380 N.am  1 <1>  -0.5470 
 18 C        7.3500     1.1340     0.3550 C.2   1 <1>   0.5690 
 19 O        6.8650     1.9070     1.1440 O.2   1 <1>  -0.5700 
 20 C        8.8140     1.2950    -0.0080 C.3   1 <1>  -0.0990 
 21 C        9.6920     0.1930     0.6090 C.3   1 <1>  -0.1600 
 22 C       11.1680     0.3850     0.2410 C.3   1 <1>  -0.1600 
 23 C       12.0360    -0.7150     0.8580 C.3   1 <1>  -0.2400 
 24 H        1.3660    -2.9090    -0.1470 H     1 <1>   0.3700 
 25 H       -2.7300    -0.9510     0.5270 H     1 <1>   0.1500 
 26 H        3.4440    -2.9520    -1.2140 H     1 <1>   0.1500 
 27 H        2.3100     0.3860     1.1490 H     1 <1>   0.1500 
 28 H       -2.1150    -5.1390    -0.0200 H     1 <1>   0.1500 
 29 H       -4.0370    -3.2600     0.3890 H     1 <1>   0.1500 
 30 H        4.5620     1.2580     1.0430 H     1 <1>   0.1500 
 31 H        6.6980    -3.6860    -2.6350 H     1 <1>   0.0800 
 32 H        5.0350    -3.1970    -2.9350 H     1 <1>   0.0800 
 33 H        5.4440    -4.1350    -1.4860 H     1 <1>   0.0800 
 34 H        7.2270    -0.4930    -0.8430 H     1 <1>   0.3700 
 35 H        9.1460     2.2560     0.3440 H     1 <1>   0.0800 
 36 H        8.9080     1.2880    -1.0780 H     1 <1>   0.0800 
 37 H        9.3600    -0.7710     0.2650 H     1 <1>   0.0800 
 38 H        9.5830     0.2180     1.6810 H     1 <1>   0.0800 
 39 H       11.5080     1.3440     0.5960 H     1 <1>   0.0800 
 40 H       11.2820     0.3660    -0.8300 H     1 <1>   0.0800 
 41 H       11.9540    -0.7000     1.9310 H     1 <1>   0.0800 
 42 H       13.0670    -0.5630     0.5930 H     1 <1>   0.0800 
 43 H       11.7300    -1.6820     0.5000 H     1 <1>   0.0800 
@<TRIPOS>BOND
  1   1   2  2   
  2   2   3  am  
  3   2   4  1   
  4   3   5  1   
  5   3  24  1   
  6   4   6  1   
  7   4   7  2   
  8   5   8  ar  
  9   5   9  ar  
 10   6  10  1   
 11   7  11  1   
 12   7  25  1   
 13   8  12  ar  
 14   8  26  1   
 15   9  13  ar  
 16   9  27  1   
 17  10  11  2   
 18  10  28  1   
 19  11  29  1   
 20  12  14  1   
 21  12  15  ar  
 22  13  15  ar  
 23  13  30  1   
 24  14  16  1   
 25  15  17  1   
 26  16  31  1   
 27  16  32  1   
 28  16  33  1   
 29  17  18  am  
 30  17  34  1   
 31  18  19  2   
 32  18  20  1   
 33  20  21  1   
 34  20  35  1   
 35  20  36  1   
 36  21  22  1   
 37  21  37  1   
 38  21  38  1   
 39  22  23  1   
 40  22  39  1   
 41  22  40  1   
 42  23  41  1   
 43  23  42  1   
 44  23  43  1   
@<TRIPOS>SUBSTRUCTURE
  1 ****   8 GROUP 4 **** **** 0

# MOE 2024.06 (io_trps.svl 2023.06)
