@<TRIPOS>MOLECULE
NONAME
42 43 1 0 0 
SMALL
USER_CHARGES


@<TRIPOS>ATOM
  1 S       -0.1660    -0.6300     1.1480 S.o2  1 <1>   1.4470 
  2 O        0.4840    -1.4860     2.1180 O.2   1 <1>  -0.6500 
  3 O       -0.1600     0.8020     1.3450 O.2   1 <1>  -0.6500 
  4 N        0.5780    -0.9240    -0.3460 N.am  1 <1>  -0.8490 
  5 C       -1.8690    -1.1870     0.8750 C.ar  1 <1>  -0.0090 
  6 C        1.8630    -0.2160    -0.4520 C.3   1 <1>   0.1960 
  7 C        0.7930    -2.3580    -0.6030 C.3   1 <1>   0.1960 
  8 C       -2.5980    -0.7310    -0.2160 C.ar  1 <1>  -0.1500 
  9 C       -2.4860    -2.0750     1.7460 C.ar  1 <1>  -0.1500 
 10 C        2.5400    -0.4920    -1.8070 C.3   1 <1>   0.1200 
 11 C        1.4850    -2.5770    -1.9600 C.3   1 <1>   0.1200 
 12 C       -3.9000    -1.1440    -0.4450 C.ar  1 <1>  -0.1430 
 13 C       -3.7860    -2.4990     1.5360 C.ar  1 <1>  -0.1500 
 14 O        2.6910    -1.8680    -2.0160 O.3   1 <1>  -0.5600 
 15 C       -4.5020    -2.0340     0.4380 C.ar  1 <1>   0.0830 
 16 C       -4.6560    -0.6150    -1.6560 C.3   1 <1>  -0.0970 
 17 O       -5.7800    -2.4070     0.1810 O.3   1 <1>  -0.3630 
 18 C       -6.5190    -3.2200     1.0840 C.3   1 <1>   0.1810 
 19 C       -7.9520    -3.4130     0.6040 C.2   1 <1>   0.5690 
 20 O       -8.6860    -4.1220     1.2500 O.2   1 <1>  -0.5700 
 21 N       -8.3640    -2.7840    -0.5300 N.am  1 <1>  -0.7300 
 22 C       -9.7180    -2.8660    -1.1300 C.3   1 <1>   0.0600 
 23 H        2.5220    -0.5250     0.3430 H     1 <1>   0.0800 
 24 H        1.7010     0.8440    -0.3560 H     1 <1>   0.0800 
 25 H       -0.1530    -2.8720    -0.6060 H     1 <1>   0.0800 
 26 H        1.4070    -2.7900     0.1700 H     1 <1>   0.0800 
 27 H       -2.1270    -0.0380    -0.8930 H     1 <1>   0.1500 
 28 H       -1.9410    -2.4400     2.6010 H     1 <1>   0.1500 
 29 H        3.5190    -0.0470    -1.8310 H     1 <1>   0.0800 
 30 H        1.9520    -0.0840    -2.6110 H     1 <1>   0.0800 
 31 H        0.8530    -2.2460    -2.7660 H     1 <1>   0.0800 
 32 H        1.7110    -3.6190    -2.1000 H     1 <1>   0.0800 
 33 H       -4.2150    -3.1880     2.2380 H     1 <1>   0.1500 
 34 H       -4.0430     0.0480    -2.2400 H     1 <1>   0.0800 
 35 H       -5.5290    -0.0760    -1.3330 H     1 <1>   0.0800 
 36 H       -4.9650    -1.4340    -2.2800 H     1 <1>   0.0800 
 37 H       -6.5320    -2.7390     2.0440 H     1 <1>   0.0800 
 38 H       -6.0380    -4.1770     1.1550 H     1 <1>   0.0800 
 39 H       -7.6720    -2.2060    -1.0170 H     1 <1>   0.3700 
 40 H      -10.3530    -3.5000    -0.5340 H     1 <1>   0.0800 
 41 H       -9.6520    -3.2750    -2.1230 H     1 <1>   0.0800 
 42 H      -10.1550    -1.8830    -1.1780 H     1 <1>   0.0800 
@<TRIPOS>BOND
  1   1   2  2   
  2   1   3  2   
  3   1   4  am  
  4   1   5  1   
  5   4   6  1   
  6   4   7  1   
  7   5   8  ar  
  8   5   9  ar  
  9   6  10  1   
 10   6  23  1   
 11   6  24  1   
 12   7  11  1   
 13   7  25  1   
 14   7  26  1   
 15   8  12  ar  
 16   8  27  1   
 17   9  13  ar  
 18   9  28  1   
 19  10  14  1   
 20  10  29  1   
 21  10  30  1   
 22  11  14  1   
 23  11  31  1   
 24  11  32  1   
 25  12  15  ar  
 26  12  16  1   
 27  13  15  ar  
 28  13  33  1   
 29  15  17  1   
 30  16  34  1   
 31  16  35  1   
 32  16  36  1   
 33  17  18  1   
 34  18  19  1   
 35  18  37  1   
 36  18  38  1   
 37  19  20  2   
 38  19  21  am  
 39  21  22  1   
 40  21  39  1   
 41  22  40  1   
 42  22  41  1   
 43  22  42  1   
@<TRIPOS>SUBSTRUCTURE
  1 ****   8 GROUP 4 **** **** 0

# MOE 2024.06 (io_trps.svl 2023.06)
