@<TRIPOS>MOLECULE
NONAME
41 42 1 0 0 
SMALL
USER_CHARGES


@<TRIPOS>ATOM
  1 O        0.3970    -0.0650     0.8280 O.2   1 <1>  -0.5700 
  2 C       -0.1460    -1.0870     0.4800 C.2   1 <1>   0.5690 
  3 N        0.5300    -2.2320     0.1910 N.am  1 <1>  -0.4930 
  4 C       -1.6640    -1.0970     0.3580 C.3   1 <1>   0.1810 
  5 C        1.8910    -2.5210     0.2200 C.2   1 <1>   0.3520 
  6 O       -2.1190    -2.3740    -0.0640 O.3   1 <1>  -0.3630 
  7 N        2.3370    -3.6890    -0.0870 N.2   1 <1>  -0.4100 
  8 C        2.9400    -1.6660     0.5600 C.2   1 <1>  -0.1500 
  9 C       -3.4360    -2.6820    -0.1780 C.ar  1 <1>   0.0830 
 10 O        3.6390    -3.6230     0.0410 O.3   1 <1>  -0.0190 
 11 C        4.0280    -2.4350     0.4240 C.2   1 <1>  -0.0400 
 12 C       -3.7850    -4.0050    -0.4620 C.ar  1 <1>  -0.1440 
 13 C       -4.4300    -1.7180    -0.0190 C.ar  1 <1>  -0.1500 
 14 C        5.5010    -2.1510     0.6300 C.3   1 <1>  -0.0600 
 15 C       -5.1310    -4.3280    -0.5790 C.ar  1 <1>  -0.1500 
 16 C       -2.7600    -5.1370    -0.6510 C.3   1 <1>   0.0630 
 17 C       -5.7630    -2.0620    -0.1390 C.ar  1 <1>  -0.1500 
 18 C       -6.1140    -3.3680    -0.4190 C.ar  1 <1>  -0.1500 
 19 C       -1.9070    -5.4140     0.6030 C.3   1 <1>  -0.1600 
 20 C       -1.8770    -4.8970    -1.8830 C.3   1 <1>  -0.2400 
 21 C       -2.7580    -5.7210     1.8420 C.3   1 <1>  -0.2400 
 22 H       -0.0520    -3.0220    -0.0920 H     1 <1>   0.3700 
 23 H       -1.9700    -0.3670    -0.3680 H     1 <1>   0.0800 
 24 H       -2.1010    -0.8780     1.3150 H     1 <1>   0.0800 
 25 H        2.8490    -0.6380     0.8550 H     1 <1>   0.1500 
 26 H       -4.1940    -0.6940     0.1960 H     1 <1>   0.1500 
 27 H        5.6420    -1.1330     0.9430 H     1 <1>   0.0800 
 28 H        6.0350    -2.3130    -0.2880 H     1 <1>   0.0800 
 29 H        5.8950    -2.8070     1.3850 H     1 <1>   0.0800 
 30 H       -5.4290    -5.3380    -0.7960 H     1 <1>   0.1500 
 31 H       -3.3040    -6.0440    -0.8490 H     1 <1>   0.0800 
 32 H       -6.5290    -1.3160    -0.0150 H     1 <1>   0.1500 
 33 H       -7.1510    -3.6400    -0.5130 H     1 <1>   0.1500 
 34 H       -1.2720    -4.5750     0.8180 H     1 <1>   0.0800 
 35 H       -1.2670    -6.2570     0.4090 H     1 <1>   0.0800 
 36 H       -1.2360    -4.0470    -1.7480 H     1 <1>   0.0800 
 37 H       -2.4960    -4.7230    -2.7450 H     1 <1>   0.0800 
 38 H       -1.2620    -5.7590    -2.0730 H     1 <1>   0.0800 
 39 H       -3.3630    -4.8710     2.1060 H     1 <1>   0.0800 
 40 H       -2.1210    -5.9550     2.6770 H     1 <1>   0.0800 
 41 H       -3.4040    -6.5620     1.6580 H     1 <1>   0.0800 
@<TRIPOS>BOND
  1   1   2  2   
  2   2   3  am  
  3   2   4  1   
  4   3   5  1   
  5   3  22  1   
  6   4   6  1   
  7   4  23  1   
  8   4  24  1   
  9   5   7  2   
 10   5   8  1   
 11   6   9  1   
 12   7  10  1   
 13   8  11  2   
 14   8  25  1   
 15   9  12  ar  
 16   9  13  ar  
 17  10  11  1   
 18  11  14  1   
 19  12  15  ar  
 20  12  16  1   
 21  13  17  ar  
 22  13  26  1   
 23  14  27  1   
 24  14  28  1   
 25  14  29  1   
 26  15  18  ar  
 27  15  30  1   
 28  16  19  1   
 29  16  20  1   
 30  16  31  1   
 31  17  18  ar  
 32  17  32  1   
 33  18  33  1   
 34  19  21  1   
 35  19  34  1   
 36  19  35  1   
 37  20  36  1   
 38  20  37  1   
 39  20  38  1   
 40  21  39  1   
 41  21  40  1   
 42  21  41  1   
@<TRIPOS>SUBSTRUCTURE
  1 ****   6 GROUP 4 **** **** 0

# MOE 2024.06 (io_trps.svl 2023.06)
