@<TRIPOS>MOLECULE
NONAME
40 41 1 0 0 
SMALL
USER_CHARGES


@<TRIPOS>ATOM
  1 BR       2.7490     1.2800     1.9500 Br    1 <1>  -0.1110 
  2 C        3.3760    -0.3130     1.0740 C.ar  1 <1>   0.1110 
  3 C        3.0260    -1.5430     1.5930 C.ar  1 <1>  -0.1500 
  4 C        4.1620    -0.1900    -0.0550 C.ar  1 <1>  -0.1500 
  5 C        3.4820    -2.6840     0.9550 C.ar  1 <1>  -0.1500 
  6 C        4.6080    -1.3440    -0.6770 C.ar  1 <1>  -0.1500 
  7 C        4.2790    -2.6050    -0.1860 C.ar  1 <1>  -0.0090 
  8 S        4.8960    -4.1040    -1.0040 S.o2  1 <1>   1.4470 
  9 O        4.8270    -3.9660    -2.4370 O.2   1 <1>  -0.6500 
 10 O        4.3810    -5.2950    -0.3690 O.2   1 <1>  -0.6500 
 11 N        6.5390    -4.0810    -0.6720 N.am  1 <1>  -0.9140 
 12 C        6.8760    -4.5890     0.6780 C.3   1 <1>   0.2570 
 13 C        8.3680    -4.5060     1.0230 C.2   1 <1>   0.5690 
 14 O        8.8020    -5.2070     1.9050 O.2   1 <1>  -0.5700 
 15 N        9.1550    -3.6470     0.3240 N.am  1 <1>  -0.7300 
 16 C       10.5970    -3.4360     0.5260 C.3   1 <1>   0.2200 
 17 C       10.8330    -1.9780     0.9320 C.3   1 <1>  -0.1600 
 18 C       11.3340    -3.7800    -0.7730 C.3   1 <1>  -0.1600 
 19 C       12.3330    -1.6710     1.0520 C.3   1 <1>  -0.1600 
 20 C       12.8350    -3.4760    -0.6550 C.3   1 <1>  -0.1600 
 21 C       13.0760    -2.0170    -0.2460 C.3   1 <1>  -0.1600 
 22 H        2.4100    -1.6030     2.4730 H     1 <1>   0.1500 
 23 H        4.4150     0.7840    -0.4350 H     1 <1>   0.1500 
 24 H        3.2130    -3.6510     1.3500 H     1 <1>   0.1500 
 25 H        5.2220    -1.2670    -1.5600 H     1 <1>   0.1500 
 26 H        6.9220    -4.7390    -1.3510 H     1 <1>   0.4200 
 27 H        6.5760    -5.6200     0.7680 H     1 <1>   0.0800 
 28 H        6.3410    -4.0230     1.4200 H     1 <1>   0.0800 
 29 H        8.7180    -3.0840    -0.4090 H     1 <1>   0.3700 
 30 H       10.9510    -4.0830     1.3130 H     1 <1>   0.0800 
 31 H       10.3560    -1.7920     1.8780 H     1 <1>   0.0800 
 32 H       10.4010    -1.3240     0.1950 H     1 <1>   0.0800 
 33 H       10.9240    -3.2040    -1.5840 H     1 <1>   0.0800 
 34 H       11.2000    -4.8250    -0.9910 H     1 <1>   0.0800 
 35 H       12.7500    -2.2440     1.8630 H     1 <1>   0.0800 
 36 H       12.4720    -0.6280     1.2810 H     1 <1>   0.0800 
 37 H       13.3190    -3.6720    -1.5970 H     1 <1>   0.0800 
 38 H       13.2740    -4.1290     0.0810 H     1 <1>   0.0800 
 39 H       14.1310    -1.8500    -0.1120 H     1 <1>   0.0800 
 40 H       12.7380    -1.3650    -1.0340 H     1 <1>   0.0800 
@<TRIPOS>BOND
  1   1   2  1   
  2   2   3  ar  
  3   2   4  ar  
  4   3   5  ar  
  5   3  22  1   
  6   4   6  ar  
  7   4  23  1   
  8   5   7  ar  
  9   5  24  1   
 10   6   7  ar  
 11   6  25  1   
 12   7   8  1   
 13   8   9  2   
 14   8  10  2   
 15   8  11  am  
 16  11  12  1   
 17  11  26  1   
 18  12  13  1   
 19  12  27  1   
 20  12  28  1   
 21  13  14  2   
 22  13  15  am  
 23  15  16  1   
 24  15  29  1   
 25  16  17  1   
 26  16  18  1   
 27  16  30  1   
 28  17  19  1   
 29  17  31  1   
 30  17  32  1   
 31  18  20  1   
 32  18  33  1   
 33  18  34  1   
 34  19  21  1   
 35  19  35  1   
 36  19  36  1   
 37  20  21  1   
 38  20  37  1   
 39  20  38  1   
 40  21  39  1   
 41  21  40  1   
@<TRIPOS>SUBSTRUCTURE
  1 ****  11 GROUP 4 **** **** 0

# MOE 2024.06 (io_trps.svl 2023.06)
