@<TRIPOS>MOLECULE
NONAME
43 44 1 0 0 
SMALL
USER_CHARGES


@<TRIPOS>ATOM
  1 CL      -0.4020    -0.5880    -1.1170 Cl    1 <1>  -0.1770 
  2 C       -1.0780     0.8400    -0.3580 C.ar  1 <1>   0.1770 
  3 C       -0.2240     1.8800     0.0150 C.ar  1 <1>   0.1170 
  4 C       -2.4450     0.8890    -0.1540 C.ar  1 <1>  -0.1500 
  5 N        1.1590     1.7500    -0.2300 N.am  1 <1>  -0.5470 
  6 C       -0.8000     3.0010     0.6080 C.ar  1 <1>  -0.1500 
  7 C       -2.9990     2.0100     0.4410 C.ar  1 <1>  -0.1500 
  8 C        2.2380     2.4780     0.1890 C.2   1 <1>   0.5690 
  9 C       -2.1670     3.0520     0.8130 C.ar  1 <1>   0.1770 
 10 O        2.1480     3.4400     0.9110 O.2   1 <1>  -0.5700 
 11 C        3.6190     2.0150    -0.2790 C.3   1 <1>  -0.0190 
 12 CL      -2.8670     4.4650     1.5580 Cl    1 <1>  -0.1770 
 13 C        4.2460     1.0380     0.7290 C.3   1 <1>  -0.1600 
 14 C        4.5910     3.1840    -0.5190 C.3   1 <1>  -0.1600 
 15 C        5.6500     0.6050     0.2980 C.3   1 <1>   0.1960 
 16 C        5.9730     2.6730    -0.9290 C.3   1 <1>   0.1960 
 17 N        6.5100     1.7760     0.1010 N.am  1 <1>  -0.8490 
 18 S        8.1180     1.3350    -0.2060 S.o2  1 <1>   1.3330 
 19 O        8.2900     1.2970    -1.6410 O.2   1 <1>  -0.6500 
 20 O        8.4220     0.1590     0.5800 O.2   1 <1>  -0.6500 
 21 C        9.0430     2.7150     0.4760 C.3   1 <1>  -0.0550 
 22 C       10.5670     2.5710     0.3340 C.3   1 <1>  -0.1600 
 23 C       11.3000     3.7770     0.9310 C.3   1 <1>  -0.2400 
 24 H       -3.0650     0.0630    -0.4560 H     1 <1>   0.1500 
 25 H        1.3910     0.9220    -0.7810 H     1 <1>   0.3700 
 26 H       -0.2060     3.8410     0.9130 H     1 <1>   0.1500 
 27 H       -4.0580     2.0820     0.6150 H     1 <1>   0.1500 
 28 H        3.4960     1.5000    -1.2150 H     1 <1>   0.0800 
 29 H        3.6240     0.1670     0.8320 H     1 <1>   0.0800 
 30 H        4.3120     1.5080     1.6950 H     1 <1>   0.0800 
 31 H        4.6930     3.7710     0.3780 H     1 <1>   0.0800 
 32 H        4.2030     3.8260    -1.2890 H     1 <1>   0.0800 
 33 H        5.6060     0.0290    -0.6130 H     1 <1>   0.0800 
 34 H        6.0600    -0.0240     1.0710 H     1 <1>   0.0800 
 35 H        6.6330     3.5140    -1.0590 H     1 <1>   0.0800 
 36 H        5.9070     2.1520    -1.8710 H     1 <1>   0.0800 
 37 H        8.8000     2.8090     1.5170 H     1 <1>   0.0800 
 38 H        8.7360     3.6180    -0.0130 H     1 <1>   0.0800 
 39 H       10.8220     2.4760    -0.7080 H     1 <1>   0.0800 
 40 H       10.8880     1.6720     0.8350 H     1 <1>   0.0800 
 41 H       11.0110     4.6830     0.4280 H     1 <1>   0.0800 
 42 H       12.3630     3.6510     0.8220 H     1 <1>   0.0800 
 43 H       11.0750     3.8740     1.9790 H     1 <1>   0.0800 
@<TRIPOS>BOND
  1   1   2  1   
  2   2   3  ar  
  3   2   4  ar  
  4   3   5  1   
  5   3   6  ar  
  6   4   7  ar  
  7   4  24  1   
  8   5   8  am  
  9   5  25  1   
 10   6   9  ar  
 11   6  26  1   
 12   7   9  ar  
 13   7  27  1   
 14   8  10  2   
 15   8  11  1   
 16   9  12  1   
 17  11  13  1   
 18  11  14  1   
 19  11  28  1   
 20  13  15  1   
 21  13  29  1   
 22  13  30  1   
 23  14  16  1   
 24  14  31  1   
 25  14  32  1   
 26  15  17  1   
 27  15  33  1   
 28  15  34  1   
 29  16  17  1   
 30  16  35  1   
 31  16  36  1   
 32  17  18  am  
 33  18  19  2   
 34  18  20  2   
 35  18  21  1   
 36  21  22  1   
 37  21  37  1   
 38  21  38  1   
 39  22  23  1   
 40  22  39  1   
 41  22  40  1   
 42  23  41  1   
 43  23  42  1   
 44  23  43  1   
@<TRIPOS>SUBSTRUCTURE
  1 ****  11 GROUP 4 **** **** 0

# MOE 2024.06 (io_trps.svl 2023.06)
