@<TRIPOS>MOLECULE
NONAME
46 47 1 0 0 
SMALL
USER_CHARGES


@<TRIPOS>ATOM
  1 O       -2.5290     0.8250     0.7120 O.3   1 <1>  -0.5600 
  2 C       -2.0620     2.1240     0.4620 C.3   1 <1>   0.1200 
  3 C       -3.2320     0.2530    -0.3570 C.3   1 <1>   0.1200 
  4 C       -3.2200     3.0740     0.0780 C.3   1 <1>   0.3430 
  5 C       -4.4660     1.1060    -0.7330 C.3   1 <1>   0.3430 
  6 N       -4.5440     2.3630     0.0940 N.4   1 <1>  -0.9590 
  7 C       -5.6820     3.2580    -0.2480 C.3   1 <1>   0.3430 
  8 C       -7.0090     2.5860     0.0970 C.3   1 <1>  -0.1600 
  9 C       -8.1780     3.5420    -0.1350 C.3   1 <1>   0.1200 
 10 O       -9.3530     2.8410     0.1800 O.3   1 <1>  -0.3630 
 11 C      -10.5720     3.4310     0.0690 C.ar  1 <1>   0.0820 
 12 C      -10.7640     4.7440    -0.3530 C.ar  1 <1>  -0.1500 
 13 C      -11.6710     2.6540     0.4020 C.ar  1 <1>  -0.1500 
 14 C      -12.0460     5.2600    -0.4370 C.ar  1 <1>  -0.1500 
 15 C      -12.9520     3.1710     0.3180 C.ar  1 <1>  -0.1500 
 16 C      -13.1440     4.4830    -0.1040 C.ar  1 <1>   0.0820 
 17 O      -14.3630     5.0730    -0.2160 O.3   1 <1>  -0.3620 
 18 C      -15.5420     4.3690     0.0990 C.3   1 <1>   0.1200 
 19 C      -16.7310     5.3030    -0.1290 C.3   1 <1>  -0.1600 
 20 C      -18.0580     4.6070     0.1930 C.3   1 <1>  -0.2400 
 21 H       -1.3260     2.0810    -0.3230 H     1 <1>   0.0800 
 22 H       -1.5760     2.4740     1.3570 H     1 <1>   0.0800 
 23 H       -3.5410    -0.7330    -0.0560 H     1 <1>   0.0800 
 24 H       -2.5650     0.1550    -1.1960 H     1 <1>   0.0800 
 25 H       -3.0300     3.4750    -0.9040 H     1 <1>   0.0800 
 26 H       -3.2360     3.9020     0.7680 H     1 <1>   0.0800 
 27 H       -5.3530     0.5120    -0.5860 H     1 <1>   0.0800 
 28 H       -4.4140     1.3540    -1.7800 H     1 <1>   0.0800 
 29 H       -4.6500     2.0300     1.0660 H     1 <1>   0.4500 
 30 H       -5.6570     3.5060    -1.2970 H     1 <1>   0.0800 
 31 H       -5.6000     4.1730     0.3170 H     1 <1>   0.0800 
 32 H       -7.0100     2.2940     1.1330 H     1 <1>   0.0800 
 33 H       -7.1600     1.7200    -0.5220 H     1 <1>   0.0800 
 34 H       -8.2360     3.8470    -1.1670 H     1 <1>   0.0800 
 35 H       -8.1160     4.4020     0.5100 H     1 <1>   0.0800 
 36 H       -9.9430     5.3790    -0.6200 H     1 <1>   0.1500 
 37 H      -11.5170     1.6410     0.7270 H     1 <1>   0.1500 
 38 H      -12.2060     6.2720    -0.7610 H     1 <1>   0.1500 
 39 H      -13.7790     2.5400     0.5840 H     1 <1>   0.1500 
 40 H      -15.4900     4.0640     1.1300 H     1 <1>   0.0800 
 41 H      -15.6060     3.5090    -0.5440 H     1 <1>   0.0800 
 42 H      -16.7380     5.6210    -1.1570 H     1 <1>   0.0800 
 43 H      -16.6240     6.1710     0.4990 H     1 <1>   0.0800 
 44 H      -18.1940     3.7440    -0.4350 H     1 <1>   0.0800 
 45 H      -18.8780     5.2840     0.0250 H     1 <1>   0.0800 
 46 H      -18.0800     4.2950     1.2230 H     1 <1>   0.0800 
@<TRIPOS>BOND
  1   1   2  1   
  2   1   3  1   
  3   2   4  1   
  4   2  21  1   
  5   2  22  1   
  6   3   5  1   
  7   3  23  1   
  8   3  24  1   
  9   4   6  1   
 10   4  25  1   
 11   4  26  1   
 12   5   6  1   
 13   5  27  1   
 14   5  28  1   
 15   6   7  1   
 16   6  29  1   
 17   7   8  1   
 18   7  30  1   
 19   7  31  1   
 20   8   9  1   
 21   8  32  1   
 22   8  33  1   
 23   9  10  1   
 24   9  34  1   
 25   9  35  1   
 26  10  11  1   
 27  11  12  ar  
 28  11  13  ar  
 29  12  14  ar  
 30  12  36  1   
 31  13  15  ar  
 32  13  37  1   
 33  14  16  ar  
 34  14  38  1   
 35  15  16  ar  
 36  15  39  1   
 37  16  17  1   
 38  17  18  1   
 39  18  19  1   
 40  18  40  1   
 41  18  41  1   
 42  19  20  1   
 43  19  42  1   
 44  19  43  1   
 45  20  44  1   
 46  20  45  1   
 47  20  46  1   
@<TRIPOS>SUBSTRUCTURE
  1 ****  10 GROUP 4 **** **** 0

# MOE 2024.06 (io_trps.svl 2023.06)
