@<TRIPOS>MOLECULE
NONAME
26 26 1 0 0 
SMALL
USER_CHARGES


@<TRIPOS>ATOM
  1 O        0.1310     0.3540     0.2910 O.2   1 <1>  -0.5700 
  2 C        0.1620     1.5560     0.1570 C.2   1 <1>   0.4950 
  3 C        1.3490     2.2750     0.0910 C.2   1 <1>  -0.1360 
  4 C       -1.1580     2.2900     0.0160 C.3   1 <1>  -0.0990 
  5 C        1.3450     3.6130     0.0220 C.2   1 <1>  -0.0380 
  6 C       -1.4930     3.8580     0.0140 C.3   1 <1>   0.0000 
  7 N        2.4670     4.3980    -0.0560 N.pl3 1 <1>  -0.8690 
  8 C        0.0270     4.3740     0.0610 C.3   1 <1>  -0.0220 
  9 C       -3.0610     3.4810    -0.0290 C.3   1 <1>  -0.2400 
 10 C       -1.9780     5.3960    -0.0030 C.3   1 <1>  -0.2400 
 11 C        3.8720     3.9250    -0.1420 C.3   1 <1>   0.1290 
 12 H        2.2510     1.6980     0.1040 H     1 <1>   0.1500 
 13 H       -1.7120     1.8280     0.8200 H     1 <1>   0.0800 
 14 H       -1.5070     1.8870    -0.9210 H     1 <1>   0.0800 
 15 H        2.3720     5.4220    -0.0460 H     1 <1>   0.4000 
 16 H        0.1630     5.0470    -0.7740 H     1 <1>   0.0800 
 17 H        0.1440     4.9250     0.9810 H     1 <1>   0.0800 
 18 H       -3.3730     2.4820    -0.2950 H     1 <1>   0.0800 
 19 H       -3.6410     4.0480    -0.7420 H     1 <1>   0.0800 
 20 H       -3.4910     3.6290     0.9490 H     1 <1>   0.0800 
 21 H       -1.2910     6.1870     0.2540 H     1 <1>   0.0800 
 22 H       -2.7810     5.6160     0.6860 H     1 <1>   0.0800 
 23 H       -2.3010     5.6600    -0.9970 H     1 <1>   0.0800 
 24 H        3.9220     2.9960    -0.6830 H     1 <1>   0.0800 
 25 H        4.2670     3.7800     0.8490 H     1 <1>   0.0800 
 26 H        4.4700     4.6550    -0.6580 H     1 <1>   0.0800 
@<TRIPOS>BOND
  1   1   2  2   
  2   2   3  1   
  3   2   4  1   
  4   3   5  2   
  5   3  12  1   
  6   4   6  1   
  7   4  13  1   
  8   4  14  1   
  9   5   7  1   
 10   5   8  1   
 11   6   8  1   
 12   6   9  1   
 13   6  10  1   
 14   7  11  1   
 15   7  15  1   
 16   8  16  1   
 17   8  17  1   
 18   9  18  1   
 19   9  19  1   
 20   9  20  1   
 21  10  21  1   
 22  10  22  1   
 23  10  23  1   
 24  11  24  1   
 25  11  25  1   
 26  11  26  1   
@<TRIPOS>SUBSTRUCTURE
  1 ****   8 GROUP 4 **** **** 0

# MOE 2024.06 (io_trps.svl 2023.06)
