@<TRIPOS>MOLECULE
NONAME
30 31 1 0 0 
SMALL
USER_CHARGES


@<TRIPOS>ATOM
  1 O        0.3830    -0.2990     0.2080 O.3   1 <1>  -0.5600 
  2 C        0.4560    -1.6930     0.2770 C.3   1 <1>   0.1200 
  3 C        1.4910     0.3750     0.7330 C.3   1 <1>   0.1200 
  4 C        1.6810    -2.2020    -0.5080 C.3   1 <1>   0.3430 
  5 C        2.7700    -0.0290    -0.0240 C.3   1 <1>   0.3430 
  6 N        2.9440    -1.5260    -0.0550 N.4   1 <1>  -0.9590 
  7 C        4.1170    -1.9270    -0.8780 C.3   1 <1>   0.4860 
  8 C        5.3690    -1.3610    -0.2370 C.ar  1 <1>  -0.1440 
  9 C        5.9820    -0.2390    -0.7800 C.ar  1 <1>  -0.1500 
 10 C        5.9100    -1.9570     0.8970 C.ar  1 <1>  -0.1500 
 11 C        7.1120     0.2920    -0.1860 C.ar  1 <1>  -0.1500 
 12 C        7.0420    -1.4270     1.4910 C.ar  1 <1>  -0.1500 
 13 C        7.6370    -0.3010     0.9470 C.ar  1 <1>   0.0820 
 14 O        8.7320     0.2290     1.5090 O.3   1 <1>  -0.5330 
 15 H       -0.4500    -2.0880    -0.1510 H     1 <1>   0.0800 
 16 H        0.5020    -1.9890     1.3110 H     1 <1>   0.0800 
 17 H        1.5700     0.1510     1.7830 H     1 <1>   0.0800 
 18 H        1.3130     1.4310     0.6220 H     1 <1>   0.0800 
 19 H        1.5150    -2.0030    -1.5540 H     1 <1>   0.0800 
 20 H        1.7650    -3.2690    -0.3830 H     1 <1>   0.0800 
 21 H        3.6230     0.4330     0.4480 H     1 <1>   0.0800 
 22 H        2.7020     0.3520    -1.0290 H     1 <1>   0.0800 
 23 H        3.1460    -1.8170     0.9090 H     1 <1>   0.4500 
 24 H        4.0150    -1.5510    -1.8840 H     1 <1>   0.0800 
 25 H        4.1940    -3.0010    -0.9210 H     1 <1>   0.0800 
 26 H        5.5950     0.2350    -1.6670 H     1 <1>   0.1500 
 27 H        5.4640    -2.8370     1.3280 H     1 <1>   0.1500 
 28 H        7.5980     1.1610    -0.5950 H     1 <1>   0.1500 
 29 H        7.4590    -1.8900     2.3680 H     1 <1>   0.1500 
 30 H        9.0610    -0.2680     2.2790 H     1 <1>   0.4500 
@<TRIPOS>BOND
  1   1   2  1   
  2   1   3  1   
  3   2   4  1   
  4   2  15  1   
  5   2  16  1   
  6   3   5  1   
  7   3  17  1   
  8   3  18  1   
  9   4   6  1   
 10   4  19  1   
 11   4  20  1   
 12   5   6  1   
 13   5  21  1   
 14   5  22  1   
 15   6   7  1   
 16   6  23  1   
 17   7   8  1   
 18   7  24  1   
 19   7  25  1   
 20   8   9  ar  
 21   8  10  ar  
 22   9  11  ar  
 23   9  26  1   
 24  10  12  ar  
 25  10  27  1   
 26  11  13  ar  
 27  11  28  1   
 28  12  13  ar  
 29  12  29  1   
 30  13  14  1   
 31  14  30  1   
@<TRIPOS>SUBSTRUCTURE
  1 ****   8 GROUP 4 **** **** 0

# MOE 2024.06 (io_trps.svl 2023.06)
