@<TRIPOS>MOLECULE
NONAME
48 50 1 0 0 
SMALL
USER_CHARGES


@<TRIPOS>ATOM
  1 S       -0.4120    -1.9840     1.7370 S.o2  1 <1>   1.4470 
  2 O       -1.3810    -1.7430     2.7800 O.2   1 <1>  -0.6500 
  3 O        0.2050    -3.2770     1.5710 O.2   1 <1>  -0.6500 
  4 N       -1.1990    -1.7340     0.2320 N.am  1 <1>  -0.7570 
  5 C        0.8580    -0.6880     1.7200 C.ar  1 <1>  -0.0090 
  6 C       -1.8020    -0.5630    -0.1990 C.ar  1 <1>   0.1990 
  7 C        2.1580    -0.9540     1.3120 C.ar  1 <1>  -0.1500 
  8 C        0.5560     0.6150     2.0910 C.ar  1 <1>  -0.1500 
  9 C       -1.5310    -0.0840    -1.4750 C.ar  1 <1>  -0.1500 
 10 C       -2.6780     0.1550     0.6070 C.ar  1 <1>  -0.1500 
 11 C        3.1460     0.0260     1.2620 C.ar  1 <1>   0.0860 
 12 C        1.5170     1.6090     2.0630 C.ar  1 <1>  -0.1500 
 13 C       -2.1010     1.0920    -1.9260 C.ar  1 <1>  -0.1500 
 14 C       -3.2490     1.3320     0.1580 C.ar  1 <1>  -0.1500 
 15 C        2.8080     1.3240     1.6580 C.ar  1 <1>  -0.1430 
 16 C        4.4740    -0.3260     0.7970 C.2   1 <1>   0.5440 
 17 C       -2.9600     1.8100    -1.1100 C.ar  1 <1>  -0.1430 
 18 C        3.8550     2.4310     1.6580 C.3   1 <1>  -0.0970 
 19 O        5.2380    -0.8930     1.5530 O.2   1 <1>  -0.5700 
 20 N        4.8800    -0.0490    -0.4910 N.am  1 <1>  -0.6600 
 21 C       -3.5880     3.1010    -1.6050 C.3   1 <1>  -0.0970 
 22 C        6.2400    -0.4070    -0.9950 C.3   1 <1>   0.1400 
 23 C        4.0010     0.5390    -1.5460 C.3   1 <1>   0.1400 
 24 C        6.1360    -1.2220    -2.2950 C.3   1 <1>   0.1200 
 25 C        4.0230    -0.3360    -2.8100 C.3   1 <1>   0.1200 
 26 O        5.3370    -0.5580    -3.2360 O.3   1 <1>  -0.5600 
 27 H       -0.8150    -2.3670    -0.4600 H     1 <1>   0.4200 
 28 H        2.4260    -1.9580     1.0250 H     1 <1>   0.1500 
 29 H       -0.4450     0.8570     2.4100 H     1 <1>   0.1500 
 30 H       -0.8690    -0.6320    -2.1180 H     1 <1>   0.1500 
 31 H       -2.9260    -0.2090     1.5870 H     1 <1>   0.1500 
 32 H        1.2480     2.6070     2.3660 H     1 <1>   0.1500 
 33 H       -1.8780     1.4480    -2.9170 H     1 <1>   0.1500 
 34 H       -3.9250     1.8720     0.7980 H     1 <1>   0.1500 
 35 H        4.1630     2.6540     0.6520 H     1 <1>   0.0800 
 36 H        4.7180     2.1210     2.2220 H     1 <1>   0.0800 
 37 H        3.4690     3.3300     2.1030 H     1 <1>   0.0800 
 38 H       -3.8050     3.7560    -0.7800 H     1 <1>   0.0800 
 39 H       -4.5040     2.8830    -2.1240 H     1 <1>   0.0800 
 40 H       -2.9220     3.6110    -2.2760 H     1 <1>   0.0800 
 41 H        6.7820    -0.9800    -0.2630 H     1 <1>   0.0800 
 42 H        6.7960     0.4940    -1.1850 H     1 <1>   0.0800 
 43 H        4.3590     1.5230    -1.7940 H     1 <1>   0.0800 
 44 H        2.9890     0.6320    -1.1980 H     1 <1>   0.0800 
 45 H        5.7090    -2.1900    -2.0990 H     1 <1>   0.0800 
 46 H        7.1110    -1.3560    -2.7280 H     1 <1>   0.0800 
 47 H        3.4980     0.1550    -3.6110 H     1 <1>   0.0800 
 48 H        3.5570    -1.2870    -2.6210 H     1 <1>   0.0800 
@<TRIPOS>BOND
  1   1   2  2   
  2   1   3  2   
  3   1   4  am  
  4   1   5  1   
  5   4   6  1   
  6   4  27  1   
  7   5   7  ar  
  8   5   8  ar  
  9   6   9  ar  
 10   6  10  ar  
 11   7  11  ar  
 12   7  28  1   
 13   8  12  ar  
 14   8  29  1   
 15   9  13  ar  
 16   9  30  1   
 17  10  14  ar  
 18  10  31  1   
 19  11  15  ar  
 20  11  16  1   
 21  12  15  ar  
 22  12  32  1   
 23  13  17  ar  
 24  13  33  1   
 25  14  17  ar  
 26  14  34  1   
 27  15  18  1   
 28  16  19  2   
 29  16  20  am  
 30  17  21  1   
 31  18  35  1   
 32  18  36  1   
 33  18  37  1   
 34  20  22  1   
 35  20  23  1   
 36  21  38  1   
 37  21  39  1   
 38  21  40  1   
 39  22  24  1   
 40  22  41  1   
 41  22  42  1   
 42  23  25  1   
 43  23  43  1   
 44  23  44  1   
 45  24  26  1   
 46  24  45  1   
 47  24  46  1   
 48  25  26  1   
 49  25  47  1   
 50  25  48  1   
@<TRIPOS>SUBSTRUCTURE
  1 ****   7 GROUP 4 **** **** 0

# MOE 2024.06 (io_trps.svl 2023.06)
