@<TRIPOS>MOLECULE
NONAME
25 26 1 0 0 
SMALL
USER_CHARGES


@<TRIPOS>ATOM
  1 S       -0.0430    -0.1870    -0.0550 S.3   1 <1>  -0.0800 
  2 C        1.2750     0.8910     0.2950 C.2   1 <1>   0.4620 
  3 C       -1.1250     1.1390     0.2350 C.2   1 <1>   0.1980 
  4 N        0.8560     2.0750     0.5810 N.2   1 <1>  -0.3380 
  5 N        2.5770     0.4330     0.2380 N.pl3 1 <1>  -0.8220 
  6 N       -0.5020     2.2090     0.5460 N.2   1 <1>  -0.3380 
  7 C       -2.6240     0.8620     0.0860 C.3   1 <1>   1.2000 
  8 C        3.7020     1.3980     0.4140 C.3   1 <1>   0.2090 
  9 C        2.9240    -0.9970    -0.0210 C.3   1 <1>   0.2090 
 10 F       -3.0480    -0.0880     0.9150 F     1 <1>  -0.3400 
 11 F       -2.9420     0.4470    -1.1370 F     1 <1>  -0.3400 
 12 F       -3.3890     1.9240     0.3230 F     1 <1>  -0.3400 
 13 C        4.8940     0.9780    -0.4520 C.3   1 <1>  -0.1600 
 14 C        4.3220    -1.3210     0.5150 C.3   1 <1>  -0.1600 
 15 C        5.4130    -0.4280    -0.1020 C.3   1 <1>  -0.1600 
 16 H        3.9900     1.4190     1.4510 H     1 <1>   0.0800 
 17 H        3.3870     2.3880     0.1310 H     1 <1>   0.0800 
 18 H        2.8920    -1.1790    -1.0820 H     1 <1>   0.0800 
 19 H        2.2090    -1.6430     0.4590 H     1 <1>   0.0800 
 20 H        5.6880     1.6950    -0.3440 H     1 <1>   0.0800 
 21 H        4.5780     1.0000    -1.4810 H     1 <1>   0.0800 
 22 H        4.5520    -2.3540     0.3250 H     1 <1>   0.0800 
 23 H        4.3080    -1.1850     1.5830 H     1 <1>   0.0800 
 24 H        6.2290    -0.3500     0.5960 H     1 <1>   0.0800 
 25 H        5.7950    -0.8870    -0.9980 H     1 <1>   0.0800 
@<TRIPOS>BOND
  1   1   2  1   
  2   1   3  1   
  3   2   4  2   
  4   2   5  1   
  5   3   6  2   
  6   3   7  1   
  7   4   6  1   
  8   5   8  1   
  9   5   9  1   
 10   7  10  1   
 11   7  11  1   
 12   7  12  1   
 13   8  13  1   
 14   8  16  1   
 15   8  17  1   
 16   9  14  1   
 17   9  18  1   
 18   9  19  1   
 19  13  15  1   
 20  13  20  1   
 21  13  21  1   
 22  14  15  1   
 23  14  22  1   
 24  14  23  1   
 25  15  24  1   
 26  15  25  1   
@<TRIPOS>SUBSTRUCTURE
  1 ****   2 GROUP 4 **** **** 0

# MOE 2024.06 (io_trps.svl 2023.06)
