@<TRIPOS>MOLECULE
NONAME
45 46 1 0 0 
SMALL
USER_CHARGES


@<TRIPOS>ATOM
  1 CL      -1.5360     0.6800    -0.3590 Cl    1 <1>  -0.1770 
  2 C       -0.5150     2.0250     0.0780 C.ar  1 <1>   0.1770 
  3 C       -0.3840     3.0900    -0.7910 C.ar  1 <1>  -0.1500 
  4 C        0.1500     2.0080     1.2880 C.ar  1 <1>  -0.1500 
  5 C        0.4310     4.1530    -0.4380 C.ar  1 <1>  -0.1500 
  6 C        0.9610     3.0790     1.6290 C.ar  1 <1>  -0.1500 
  7 C        1.1170     4.1680     0.7740 C.ar  1 <1>  -0.0090 
  8 S        2.1860     5.5670     1.2150 S.o2  1 <1>   1.4470 
  9 O        2.8970     5.2810     2.4430 O.2   1 <1>  -0.6500 
 10 O        1.4280     6.7930     1.0950 O.2   1 <1>  -0.6500 
 11 N        3.3370     5.5730    -0.0300 N.am  1 <1>  -0.8490 
 12 C        4.0580     6.8600    -0.0840 C.3   1 <1>   0.1960 
 13 C        4.3060     4.4670     0.0970 C.3   1 <1>   0.1960 
 14 C        5.0460     6.9080    -1.2610 C.3   1 <1>   0.1400 
 15 C        5.3040     4.4400    -1.0750 C.3   1 <1>   0.1400 
 16 N        5.9950     5.7560    -1.2060 N.am  1 <1>  -0.6600 
 17 C        7.2990     5.9460    -0.8400 C.2   1 <1>   0.6900 
 18 O        7.6610     6.9980    -0.3490 O.2   1 <1>  -0.5700 
 19 N        8.1890     4.9450    -1.0410 N.am  1 <1>  -0.7300 
 20 C        9.6190     5.0040    -0.6820 C.3   1 <1>   0.1400 
 21 C       10.0690     3.6250    -0.2010 C.3   1 <1>  -0.1600 
 22 C       11.5470     3.6380     0.2100 C.3   1 <1>  -0.1600 
 23 C       11.9950     2.2570     0.6960 C.3   1 <1>  -0.2400 
 24 H       -0.9140     3.0840    -1.7280 H     1 <1>   0.1500 
 25 H        0.0310     1.1700     1.9520 H     1 <1>   0.1500 
 26 H        0.5380     4.9890    -1.1100 H     1 <1>   0.1500 
 27 H        1.4790     3.0700     2.5750 H     1 <1>   0.1500 
 28 H        4.5960     7.0230     0.8360 H     1 <1>   0.0800 
 29 H        3.3540     7.6670    -0.2020 H     1 <1>   0.0800 
 30 H        3.7800     3.5280     0.1240 H     1 <1>   0.0800 
 31 H        4.8590     4.5640     1.0180 H     1 <1>   0.0800 
 32 H        5.5830     7.8410    -1.2380 H     1 <1>   0.0800 
 33 H        4.4980     6.8700    -2.1850 H     1 <1>   0.0800 
 34 H        4.7760     4.2250    -1.9880 H     1 <1>   0.0800 
 35 H        6.0150     3.6520    -0.9060 H     1 <1>   0.0800 
 36 H        7.9210     4.2210    -1.7010 H     1 <1>   0.3700 
 37 H        9.7680     5.7330     0.0980 H     1 <1>   0.0800 
 38 H       10.1890     5.3070    -1.5440 H     1 <1>   0.0800 
 39 H        9.9260     2.9080    -0.9890 H     1 <1>   0.0800 
 40 H        9.4690     3.3370     0.6450 H     1 <1>   0.0800 
 41 H       11.6960     4.3560     0.9990 H     1 <1>   0.0800 
 42 H       12.1560     3.9330    -0.6290 H     1 <1>   0.0800 
 43 H       11.4130     1.9510     1.5470 H     1 <1>   0.0800 
 44 H       13.0310     2.2870     0.9830 H     1 <1>   0.0800 
 45 H       11.8790     1.5260    -0.0850 H     1 <1>   0.0800 
@<TRIPOS>BOND
  1   1   2  1   
  2   2   3  ar  
  3   2   4  ar  
  4   3   5  ar  
  5   3  24  1   
  6   4   6  ar  
  7   4  25  1   
  8   5   7  ar  
  9   5  26  1   
 10   6   7  ar  
 11   6  27  1   
 12   7   8  1   
 13   8   9  2   
 14   8  10  2   
 15   8  11  am  
 16  11  12  1   
 17  11  13  1   
 18  12  14  1   
 19  12  28  1   
 20  12  29  1   
 21  13  15  1   
 22  13  30  1   
 23  13  31  1   
 24  14  16  1   
 25  14  32  1   
 26  14  33  1   
 27  15  16  1   
 28  15  34  1   
 29  15  35  1   
 30  16  17  am  
 31  17  18  2   
 32  17  19  am  
 33  19  20  1   
 34  19  36  1   
 35  20  21  1   
 36  20  37  1   
 37  20  38  1   
 38  21  22  1   
 39  21  39  1   
 40  21  40  1   
 41  22  23  1   
 42  22  41  1   
 43  22  42  1   
 44  23  43  1   
 45  23  44  1   
 46  23  45  1   
@<TRIPOS>SUBSTRUCTURE
  1 ****  13 GROUP 4 **** **** 0

# MOE 2024.06 (io_trps.svl 2023.06)
