@<TRIPOS>MOLECULE
NONAME
51 52 1 0 0 
SMALL
USER_CHARGES


@<TRIPOS>ATOM
  1 O        0.6400     8.1630     0.2370 O.3   1 <1>  -0.3630 
  2 C        1.8740     7.6010     0.1580 C.ar  1 <1>   0.0830 
  3 C       -0.5210     7.4120    -0.0160 C.3   1 <1>   0.1200 
  4 C        2.9520     8.4290     0.4300 C.ar  1 <1>  -0.1500 
  5 C        2.1030     6.2680    -0.1750 C.ar  1 <1>  -0.1500 
  6 C       -1.7190     8.3470     0.1620 C.3   1 <1>  -0.1600 
  7 C        4.2430     7.9380     0.3710 C.ar  1 <1>  -0.1500 
  8 C        3.3960     5.7770    -0.2330 C.ar  1 <1>  -0.1500 
  9 C       -3.0520     7.6260    -0.0850 C.3   1 <1>  -0.1600 
 10 C        4.4760     6.6130     0.0410 C.ar  1 <1>   0.0830 
 11 C       -4.2230     8.5950     0.0970 C.3   1 <1>   0.3430 
 12 O        5.7740     6.2130     0.0060 O.3   1 <1>  -0.3620 
 13 N       -5.5130     7.9330    -0.2420 N.4   1 <1>  -0.9590 
 14 C        6.1180     4.8870    -0.3200 C.3   1 <1>   0.1200 
 15 C       -6.5810     8.9540    -0.4510 C.3   1 <1>   0.3430 
 16 C       -5.9240     6.9270     0.7850 C.3   1 <1>   0.3430 
 17 C        7.6380     4.7690    -0.2700 C.3   1 <1>  -0.2400 
 18 C       -7.8590     8.2720    -0.9420 C.3   1 <1>  -0.1600 
 19 C       -7.1880     6.2020     0.3210 C.3   1 <1>  -0.1600 
 20 C       -8.3310     7.1860     0.0340 C.3   1 <1>  -0.0800 
 21 C       -9.5510     6.4480    -0.5270 C.3   1 <1>  -0.2400 
 22 H       -0.5560     6.5980     0.6880 H     1 <1>   0.0800 
 23 H       -0.4680     7.0370    -1.0240 H     1 <1>   0.0800 
 24 H        2.7730     9.4570     0.6860 H     1 <1>   0.1500 
 25 H        1.2930     5.6000    -0.3920 H     1 <1>   0.1500 
 26 H       -1.6160     9.1670    -0.5280 H     1 <1>   0.0800 
 27 H       -1.6990     8.7390     1.1650 H     1 <1>   0.0800 
 28 H        5.0800     8.5800     0.5820 H     1 <1>   0.1500 
 29 H        3.5440     4.7460    -0.4930 H     1 <1>   0.1500 
 30 H       -3.1330     6.8080     0.6090 H     1 <1>   0.0800 
 31 H       -3.0570     7.2370    -1.0880 H     1 <1>   0.0800 
 32 H       -4.0720     9.4400    -0.5560 H     1 <1>   0.0800 
 33 H       -4.2470     8.9580     1.1120 H     1 <1>   0.0800 
 34 H       -5.3960     7.4340    -1.1330 H     1 <1>   0.4500 
 35 H        5.7520     4.6730    -1.3100 H     1 <1>   0.0800 
 36 H        5.6620     4.2290     0.3990 H     1 <1>   0.0800 
 37 H       -6.2620     9.6800    -1.1810 H     1 <1>   0.0800 
 38 H       -6.7820     9.4690     0.4750 H     1 <1>   0.0800 
 39 H       -6.1160     7.4200     1.7240 H     1 <1>   0.0800 
 40 H       -5.1380     6.2040     0.9350 H     1 <1>   0.0800 
 41 H        8.0840     5.4420    -0.9800 H     1 <1>   0.0800 
 42 H        7.9340     3.7650    -0.5150 H     1 <1>   0.0800 
 43 H        7.9940     5.0010     0.7180 H     1 <1>   0.0800 
 44 H       -7.6850     7.8490    -1.9170 H     1 <1>   0.0800 
 45 H       -8.6300     9.0160    -1.0480 H     1 <1>   0.0800 
 46 H       -7.4940     5.5140     1.0890 H     1 <1>   0.0800 
 47 H       -6.9640     5.6230    -0.5580 H     1 <1>   0.0800 
 48 H       -8.6220     7.6570     0.9600 H     1 <1>   0.0800 
 49 H       -9.3140     5.9580    -1.4560 H     1 <1>   0.0800 
 50 H      -10.3590     7.1370    -0.7020 H     1 <1>   0.0800 
 51 H       -9.8940     5.7040     0.1720 H     1 <1>   0.0800 
@<TRIPOS>BOND
  1   1   2  1   
  2   1   3  1   
  3   2   4  ar  
  4   2   5  ar  
  5   3   6  1   
  6   3  22  1   
  7   3  23  1   
  8   4   7  ar  
  9   4  24  1   
 10   5   8  ar  
 11   5  25  1   
 12   6   9  1   
 13   6  26  1   
 14   6  27  1   
 15   7  10  ar  
 16   7  28  1   
 17   8  10  ar  
 18   8  29  1   
 19   9  11  1   
 20   9  30  1   
 21   9  31  1   
 22  10  12  1   
 23  11  13  1   
 24  11  32  1   
 25  11  33  1   
 26  12  14  1   
 27  13  15  1   
 28  13  16  1   
 29  13  34  1   
 30  14  17  1   
 31  14  35  1   
 32  14  36  1   
 33  15  18  1   
 34  15  37  1   
 35  15  38  1   
 36  16  19  1   
 37  16  39  1   
 38  16  40  1   
 39  17  41  1   
 40  17  42  1   
 41  17  43  1   
 42  18  20  1   
 43  18  44  1   
 44  18  45  1   
 45  19  20  1   
 46  19  46  1   
 47  19  47  1   
 48  20  21  1   
 49  20  48  1   
 50  21  49  1   
 51  21  50  1   
 52  21  51  1   
@<TRIPOS>SUBSTRUCTURE
  1 ****   3 GROUP 4 **** **** 0

# MOE 2024.06 (io_trps.svl 2023.06)
