@<TRIPOS>MOLECULE
NONAME
38 40 1 0 0 
SMALL
USER_CHARGES


@<TRIPOS>ATOM
  1 BR       0.0510     0.1330     1.8940 Br    1 <1>  -0.1110 
  2 C        1.6230    -0.7640     1.2000 C.ar  1 <1>   0.1110 
  3 C        2.6380    -0.0630     0.5680 C.ar  1 <1>   0.4100 
  4 C        1.7400    -2.1150     1.3470 C.ar  1 <1>   0.1600 
  5 N        3.6990    -0.7010     0.1240 N.ar  1 <1>  -0.6200 
  6 N        2.5900     1.3060     0.3690 N.pl3 1 <1>  -0.8380 
  7 N        2.7950    -2.7630     0.8980 N.ar  1 <1>  -0.6200 
  8 C        3.7340    -2.0200     0.3080 C.ar  1 <1>   0.7200 
  9 C        3.8610     2.0850     0.4450 C.3   1 <1>   0.2090 
 10 C        1.7000     1.8160    -0.7120 C.3   1 <1>   0.2090 
 11 N        4.8510    -2.6860    -0.1610 N.pl3 1 <1>  -0.8380 
 12 C        3.5700     3.5950     0.5130 C.3   1 <1>   0.1200 
 13 C        1.5110     3.3390    -0.5850 C.3   1 <1>   0.1200 
 14 C        4.8250    -4.1320    -0.5230 C.3   1 <1>   0.2090 
 15 C        6.1040    -1.9750    -0.5450 C.3   1 <1>   0.2090 
 16 O        2.7480     3.9990    -0.5500 O.3   1 <1>  -0.5600 
 17 C        6.0210    -4.8430     0.1150 C.3   1 <1>  -0.1600 
 18 C        7.3110    -2.6820     0.0800 C.3   1 <1>  -0.1600 
 19 C        7.3490    -4.1760    -0.2700 C.3   1 <1>  -0.1600 
 20 H        0.9640    -2.6770     1.8360 H     1 <1>   0.1500 
 21 H        4.4640     1.8770    -0.4220 H     1 <1>   0.0800 
 22 H        4.4140     1.7830     1.3180 H     1 <1>   0.0800 
 23 H        0.7430     1.3300    -0.6610 H     1 <1>   0.0800 
 24 H        2.1390     1.5920    -1.6700 H     1 <1>   0.0800 
 25 H        4.4870     4.1520     0.4490 H     1 <1>   0.0800 
 26 H        3.0790     3.8380     1.4380 H     1 <1>   0.0800 
 27 H        0.9710     3.5730     0.3150 H     1 <1>   0.0800 
 28 H        0.9620     3.7160    -1.4280 H     1 <1>   0.0800 
 29 H        4.8780    -4.2210    -1.5940 H     1 <1>   0.0800 
 30 H        3.9150    -4.6060    -0.2000 H     1 <1>   0.0800 
 31 H        6.0910    -0.9530    -0.2100 H     1 <1>   0.0800 
 32 H        6.1900    -1.9750    -1.6180 H     1 <1>   0.0800 
 33 H        6.0280    -5.8720    -0.1960 H     1 <1>   0.0800 
 34 H        5.8990    -4.8230     1.1840 H     1 <1>   0.0800 
 35 H        7.2580    -2.5630     1.1480 H     1 <1>   0.0800 
 36 H        8.2140    -2.2070    -0.2590 H     1 <1>   0.0800 
 37 H        7.5150    -4.2930    -1.3270 H     1 <1>   0.0800 
 38 H        8.1610    -4.6530     0.2520 H     1 <1>   0.0800 
@<TRIPOS>BOND
  1   1   2  1   
  2   2   3  ar  
  3   2   4  ar  
  4   3   5  ar  
  5   3   6  1   
  6   4   7  ar  
  7   4  20  1   
  8   5   8  ar  
  9   6   9  1   
 10   6  10  1   
 11   7   8  ar  
 12   8  11  1   
 13   9  12  1   
 14   9  21  1   
 15   9  22  1   
 16  10  13  1   
 17  10  23  1   
 18  10  24  1   
 19  11  14  1   
 20  11  15  1   
 21  12  16  1   
 22  12  25  1   
 23  12  26  1   
 24  13  16  1   
 25  13  27  1   
 26  13  28  1   
 27  14  17  1   
 28  14  29  1   
 29  14  30  1   
 30  15  18  1   
 31  15  31  1   
 32  15  32  1   
 33  17  19  1   
 34  17  33  1   
 35  17  34  1   
 36  18  19  1   
 37  18  35  1   
 38  18  36  1   
 39  19  37  1   
 40  19  38  1   
@<TRIPOS>SUBSTRUCTURE
  1 ****   5 GROUP 4 **** **** 0

# MOE 2024.06 (io_trps.svl 2023.06)
