@<TRIPOS>MOLECULE
NONAME
41 43 1 0 0 
SMALL
USER_CHARGES


@<TRIPOS>ATOM
  1 O        1.4660    -2.3810     1.6270 O.co2 1 <1>  -0.9000 
  2 C        2.1700    -1.3800     1.8210 C.2   1 <1>   0.9060 
  3 O        2.2280    -0.8440     2.9370 O.co2 1 <1>  -0.9000 
  4 C        3.0170    -0.7920     0.6680 C.3   1 <1>  -0.1060 
  5 C        4.5150    -0.8180     1.0590 C.3   1 <1>  -0.1600 
  6 C        2.6130     0.6770     0.3900 C.3   1 <1>  -0.1600 
  7 C        2.8510    -1.5910    -0.6520 C.3   1 <1>  -0.1600 
  8 C        5.4220    -0.2190    -0.0490 C.3   1 <1>   0.0000 
  9 C        3.4770     1.2840    -0.7320 C.3   1 <1>  -0.0800 
 10 C        3.7120    -0.9910    -1.7770 C.3   1 <1>  -0.0800 
 11 C        6.9350    -0.2670     0.3290 C.3   1 <1>   0.2200 
 12 C        4.9570     1.2370    -0.3090 C.3   1 <1>  -0.1600 
 13 C        5.1890    -1.0280    -1.3520 C.3   1 <1>  -0.1600 
 14 C        3.2880     0.4670    -2.0200 C.3   1 <1>  -0.1600 
 15 N        7.3520    -1.6530     0.6170 N.am  1 <1>  -0.7300 
 16 C        7.3410     0.5690     1.5470 C.3   1 <1>  -0.2400 
 17 C        8.3180    -2.3410    -0.0310 C.2   1 <1>   0.5690 
 18 O        9.0130    -1.8510    -0.8860 O.2   1 <1>  -0.5700 
 19 C        8.5190    -3.7850     0.3420 C.3   1 <1>  -0.1790 
 20 H        4.7860    -1.8380     1.2630 H     1 <1>   0.0800 
 21 H        4.6320    -0.2660     1.9740 H     1 <1>   0.0800 
 22 H        2.7260     1.2520     1.2920 H     1 <1>   0.0800 
 23 H        1.5740     0.7120     0.1160 H     1 <1>   0.0800 
 24 H        1.8140    -1.5870    -0.9400 H     1 <1>   0.0800 
 25 H        3.1280    -2.6170    -0.4840 H     1 <1>   0.0800 
 26 H        3.1790     2.3040    -0.9010 H     1 <1>   0.0800 
 27 H        3.5770    -1.5640    -2.6770 H     1 <1>   0.0800 
 28 H        7.4990     0.0920    -0.5170 H     1 <1>   0.0800 
 29 H        5.5640     1.6840    -1.0760 H     1 <1>   0.0800 
 30 H        5.0640     1.8260     0.5840 H     1 <1>   0.0800 
 31 H        5.4780    -2.0540    -1.2080 H     1 <1>   0.0800 
 32 H        5.8010    -0.6290    -2.1420 H     1 <1>   0.0800 
 33 H        2.2550     0.4980    -2.3200 H     1 <1>   0.0800 
 34 H        3.8760     0.8920    -2.8140 H     1 <1>   0.0800 
 35 H        6.7560    -2.1250     1.2970 H     1 <1>   0.3700 
 36 H        8.3930     0.4470     1.7310 H     1 <1>   0.0800 
 37 H        6.7960     0.2700     2.4230 H     1 <1>   0.0800 
 38 H        7.1630     1.6120     1.3670 H     1 <1>   0.0800 
 39 H        7.5970    -4.3210     0.2210 H     1 <1>   0.0800 
 40 H        8.8440    -3.8520     1.3620 H     1 <1>   0.0800 
 41 H        9.2650    -4.2240    -0.2950 H     1 <1>   0.0800 
@<TRIPOS>BOND
  1   1   2  ar  
  2   2   3  ar  
  3   2   4  1   
  4   4   5  1   
  5   4   6  1   
  6   4   7  1   
  7   5   8  1   
  8   5  20  1   
  9   5  21  1   
 10   6   9  1   
 11   6  22  1   
 12   6  23  1   
 13   7  10  1   
 14   7  24  1   
 15   7  25  1   
 16   8  11  1   
 17   8  12  1   
 18   8  13  1   
 19   9  12  1   
 20   9  14  1   
 21   9  26  1   
 22  10  13  1   
 23  10  14  1   
 24  10  27  1   
 25  11  15  1   
 26  11  16  1   
 27  11  28  1   
 28  12  29  1   
 29  12  30  1   
 30  13  31  1   
 31  13  32  1   
 32  14  33  1   
 33  14  34  1   
 34  15  17  am  
 35  15  35  1   
 36  16  36  1   
 37  16  37  1   
 38  16  38  1   
 39  17  18  2   
 40  17  19  1   
 41  19  39  1   
 42  19  40  1   
 43  19  41  1   
@<TRIPOS>SUBSTRUCTURE
  1 ****   8 GROUP 4 **** **** 0

# MOE 2024.06 (io_trps.svl 2023.06)
