@<TRIPOS>MOLECULE
NONAME
46 47 1 0 0 
SMALL
USER_CHARGES


@<TRIPOS>ATOM
  1 N        0.1910     0.1230     0.3840 N.4   1 <1>  -0.9590 
  2 C        1.3700     1.0290     0.1340 C.3   1 <1>   0.4230 
  3 C        0.2260    -1.1400    -0.4610 C.3   1 <1>   0.3430 
  4 C       -1.1330     0.8500     0.2140 C.3   1 <1>   0.3430 
  5 C        2.6880     0.2390     0.2630 C.3   1 <1>  -0.1600 
  6 C        1.3270     2.1880     1.1380 C.3   1 <1>  -0.2400 
  7 C       -1.0270    -2.0500    -0.3050 C.3   1 <1>   0.3430 
  8 C       -2.3870    -0.0590     0.3670 C.3   1 <1>   0.3430 
  9 C        3.9670     1.0730     0.0780 C.3   1 <1>  -0.0160 
 10 N       -2.3340    -1.3110    -0.4800 N.4   1 <1>  -0.9590 
 11 C        5.1570     0.1360    -0.0200 C.ar  1 <1>  -0.1430 
 12 C       -3.4850    -2.2230    -0.1980 C.3   1 <1>   0.3430 
 13 C        5.7600    -0.3490     1.1310 C.ar  1 <1>  -0.1500 
 14 C        5.6460    -0.2510    -1.2590 C.ar  1 <1>  -0.1500 
 15 C       -4.7720    -1.6060    -0.7330 C.3   1 <1>  -0.2400 
 16 C        6.8340    -1.2180     1.0440 C.ar  1 <1>  -0.1500 
 17 C        6.7200    -1.1200    -1.3460 C.ar  1 <1>  -0.1500 
 18 C        7.3130    -1.6050    -0.1940 C.ar  1 <1>  -0.1500 
 19 H        0.2850    -0.1500     1.3740 H     1 <1>   0.4500 
 20 H        1.3110     1.4330    -0.8650 H     1 <1>   0.0800 
 21 H        1.0940    -1.7250    -0.2030 H     1 <1>   0.0800 
 22 H        0.3230    -0.8700    -1.5010 H     1 <1>   0.0800 
 23 H       -1.1630     1.3090    -0.7610 H     1 <1>   0.0800 
 24 H       -1.2090     1.6430     0.9400 H     1 <1>   0.0800 
 25 H        2.7300    -0.5200    -0.4970 H     1 <1>   0.0800 
 26 H        2.7400    -0.2410     1.2250 H     1 <1>   0.0800 
 27 H        1.3910     1.8290     2.1500 H     1 <1>   0.0800 
 28 H        0.4490     2.7950     1.0240 H     1 <1>   0.0800 
 29 H        2.1560     2.8520     0.9750 H     1 <1>   0.0800 
 30 H       -1.0000    -2.4990     0.6750 H     1 <1>   0.0800 
 31 H       -0.9670    -2.8520    -1.0240 H     1 <1>   0.0800 
 32 H       -3.2630     0.5150     0.1100 H     1 <1>   0.0800 
 33 H       -2.4820    -0.3340     1.4050 H     1 <1>   0.0800 
 34 H        4.1230     1.7380     0.9100 H     1 <1>   0.0800 
 35 H        3.9070     1.6680    -0.8170 H     1 <1>   0.0800 
 36 H       -2.4330    -1.0440    -1.4730 H     1 <1>   0.4500 
 37 H       -3.5760    -2.4050     0.8620 H     1 <1>   0.0800 
 38 H       -3.3300    -3.1720    -0.6890 H     1 <1>   0.0800 
 39 H        5.4030    -0.0550     2.1020 H     1 <1>   0.1500 
 40 H        5.2010     0.1200    -2.1650 H     1 <1>   0.1500 
 41 H       -5.0360    -0.7080    -0.2060 H     1 <1>   0.0800 
 42 H       -5.5770    -2.3070    -0.5940 H     1 <1>   0.0800 
 43 H       -4.6970    -1.4040    -1.7870 H     1 <1>   0.0800 
 44 H        7.2990    -1.5920     1.9400 H     1 <1>   0.1500 
 45 H        7.0970    -1.4170    -2.3090 H     1 <1>   0.1500 
 46 H        8.1480    -2.2800    -0.2620 H     1 <1>   0.1500 
@<TRIPOS>BOND
  1   1   2  1   
  2   1   3  1   
  3   1   4  1   
  4   1  19  1   
  5   2   5  1   
  6   2   6  1   
  7   2  20  1   
  8   3   7  1   
  9   3  21  1   
 10   3  22  1   
 11   4   8  1   
 12   4  23  1   
 13   4  24  1   
 14   5   9  1   
 15   5  25  1   
 16   5  26  1   
 17   6  27  1   
 18   6  28  1   
 19   6  29  1   
 20   7  10  1   
 21   7  30  1   
 22   7  31  1   
 23   8  10  1   
 24   8  32  1   
 25   8  33  1   
 26   9  11  1   
 27   9  34  1   
 28   9  35  1   
 29  10  12  1   
 30  10  36  1   
 31  11  13  ar  
 32  11  14  ar  
 33  12  15  1   
 34  12  37  1   
 35  12  38  1   
 36  13  16  ar  
 37  13  39  1   
 38  14  17  ar  
 39  14  40  1   
 40  15  41  1   
 41  15  42  1   
 42  15  43  1   
 43  16  18  ar  
 44  16  44  1   
 45  17  18  ar  
 46  17  45  1   
 47  18  46  1   
@<TRIPOS>SUBSTRUCTURE
  1 ****   5 GROUP 4 **** **** 0

# MOE 2024.06 (io_trps.svl 2023.06)
