@<TRIPOS>MOLECULE
NONAME
30 30 1 0 0 
SMALL
USER_CHARGES


@<TRIPOS>ATOM
  1 BR       0.4090    -0.3970     0.6040 Br    1 <1>  -0.1110 
  2 C       -1.5080    -0.2000     0.4780 C.ar  1 <1>   0.1110 
  3 C       -2.3370    -0.9170     1.3290 C.ar  1 <1>  -0.1440 
  4 C       -2.0010     0.6700    -0.4750 C.ar  1 <1>  -0.1500 
  5 C       -3.7060    -0.7420     1.1940 C.ar  1 <1>  -0.1500 
  6 C       -1.7750    -1.8580     2.3840 C.3   1 <1>  -0.0960 
  7 C       -3.3700     0.8250    -0.5910 C.ar  1 <1>  -0.1500 
  8 C       -4.2400     0.1150     0.2340 C.ar  1 <1>   0.1990 
  9 N       -5.6230     0.2300     0.0950 N.am  1 <1>  -0.6930 
 10 S       -6.4600     1.7480     0.0710 S.o2  1 <1>   1.3330 
 11 C       -6.4400    -0.9870    -0.1980 C.3   1 <1>   0.2570 
 12 O       -7.7240     1.5340     0.7310 O.2   1 <1>  -0.6500 
 13 O       -5.5430     2.7620     0.5290 O.2   1 <1>  -0.6500 
 14 C       -6.7630     2.0190    -1.6640 C.3   1 <1>  -0.1350 
 15 C       -6.3750    -1.3870    -1.6730 C.2   1 <1>   0.5690 
 16 O       -7.3650    -1.3200    -2.3550 O.2   1 <1>  -0.5700 
 17 N       -5.2100    -1.7900    -2.2220 N.am  1 <1>  -0.8000 
 18 H       -1.3240     1.2160    -1.1080 H     1 <1>   0.1500 
 19 H       -4.3760    -1.2670     1.8490 H     1 <1>   0.1500 
 20 H       -1.1920    -2.6320     1.9160 H     1 <1>   0.0800 
 21 H       -2.5640    -2.3200     2.9500 H     1 <1>   0.0800 
 22 H       -1.1460    -1.3120     3.0640 H     1 <1>   0.0800 
 23 H       -3.7620     1.5030    -1.3240 H     1 <1>   0.1500 
 24 H       -7.4680    -0.8170     0.0700 H     1 <1>   0.0800 
 25 H       -6.0880    -1.8120     0.3930 H     1 <1>   0.0800 
 26 H       -7.4170     1.2650    -2.0530 H     1 <1>   0.0800 
 27 H       -5.8450     2.0020    -2.2150 H     1 <1>   0.0800 
 28 H       -7.2300     2.9730    -1.8050 H     1 <1>   0.0800 
 29 H       -5.1770    -2.0500    -3.2090 H     1 <1>   0.3700 
 30 H       -4.3180    -1.7780    -1.7220 H     1 <1>   0.3700 
@<TRIPOS>BOND
  1   1   2  1   
  2   2   3  ar  
  3   2   4  ar  
  4   3   5  ar  
  5   3   6  1   
  6   4   7  ar  
  7   4  18  1   
  8   5   8  ar  
  9   5  19  1   
 10   6  20  1   
 11   6  21  1   
 12   6  22  1   
 13   7   8  ar  
 14   7  23  1   
 15   8   9  1   
 16   9  10  am  
 17   9  11  1   
 18  10  12  2   
 19  10  13  2   
 20  10  14  1   
 21  11  15  1   
 22  11  24  1   
 23  11  25  1   
 24  14  26  1   
 25  14  27  1   
 26  14  28  1   
 27  15  16  2   
 28  15  17  am  
 29  17  29  1   
 30  17  30  1   
@<TRIPOS>SUBSTRUCTURE
  1 ****   8 GROUP 4 **** **** 0

# MOE 2024.06 (io_trps.svl 2023.06)
