@<TRIPOS>MOLECULE
NONAME
42 42 1 0 0 
SMALL
USER_CHARGES


@<TRIPOS>ATOM
  1 F       -0.6490    -0.9120     1.4580 F     1 <1>  -0.1900 
  2 C       -1.7730    -1.3110     0.9300 C.ar  1 <1>   0.1900 
  3 C       -2.5170    -2.2690     1.5890 C.ar  1 <1>  -0.1500 
  4 C       -2.1770    -0.7620    -0.2710 C.ar  1 <1>  -0.1500 
  5 C       -3.7120    -2.6860     1.0270 C.ar  1 <1>  -0.1500 
  6 C       -3.3740    -1.1840    -0.8260 C.ar  1 <1>  -0.1500 
  7 C       -4.1490    -2.1400    -0.1760 C.ar  1 <1>  -0.1430 
  8 C       -5.4690    -2.5840    -0.7770 C.3   1 <1>   0.4870 
  9 N       -6.5760    -1.9510     0.0100 N.4   1 <1>  -0.9590 
 10 C       -7.8970    -2.6250    -0.2750 C.3   1 <1>   0.3430 
 11 C       -6.5860    -0.4650    -0.2340 C.3   1 <1>   0.2630 
 12 C       -9.0600    -2.1890     0.6650 C.3   1 <1>   0.3430 
 13 N      -10.4020    -2.8160     0.3660 N.4   1 <1>  -0.9590 
 14 C      -11.4570    -2.1630     1.1980 C.3   1 <1>   0.3430 
 15 C      -10.4390    -4.2970     0.5720 C.3   1 <1>   0.3430 
 16 C      -12.8180    -2.3700     0.5450 C.3   1 <1>  -0.2400 
 17 C      -10.3240    -4.9880    -0.7800 C.3   1 <1>  -0.2400 
 18 H       -2.1580    -2.6760     2.5190 H     1 <1>   0.1500 
 19 H       -1.5610    -0.0240    -0.7550 H     1 <1>   0.1500 
 20 H       -4.2800    -3.4440     1.5410 H     1 <1>   0.1500 
 21 H       -3.6810    -0.7590    -1.7670 H     1 <1>   0.1500 
 22 H       -5.5310    -3.6590    -0.7200 H     1 <1>   0.0800 
 23 H       -5.5220    -2.2920    -1.8130 H     1 <1>   0.0800 
 24 H       -6.2900    -2.0950     0.9930 H     1 <1>   0.4500 
 25 H       -7.7670    -3.6900    -0.1760 H     1 <1>   0.0800 
 26 H       -8.1790    -2.4170    -1.2940 H     1 <1>   0.0800 
 27 H       -6.8000    -0.2520    -1.2700 H     1 <1>   0.0800 
 28 H       -5.6230    -0.0410     0.0060 H     1 <1>   0.0800 
 29 H       -7.3250     0.0210     0.3810 H     1 <1>   0.0800 
 30 H       -9.1640    -1.1190     0.5910 H     1 <1>   0.0800 
 31 H       -8.7880    -2.4240     1.6810 H     1 <1>   0.0800 
 32 H      -10.6820    -2.6370    -0.6110 H     1 <1>   0.4500 
 33 H      -11.2700    -1.1020     1.2670 H     1 <1>   0.0800 
 34 H      -11.4580    -2.5700     2.1980 H     1 <1>   0.0800 
 35 H      -11.3760    -4.5870     1.0240 H     1 <1>   0.0800 
 36 H       -9.6460    -4.6140     1.2300 H     1 <1>   0.0800 
 37 H      -12.8400    -1.9530    -0.4460 H     1 <1>   0.0800 
 38 H      -13.5670    -1.8630     1.1280 H     1 <1>   0.0800 
 39 H      -13.0900    -3.4100     0.5060 H     1 <1>   0.0800 
 40 H      -11.1440    -4.7100    -1.4200 H     1 <1>   0.0800 
 41 H      -10.3790    -6.0530    -0.6330 H     1 <1>   0.0800 
 42 H       -9.3930    -4.7750    -1.2710 H     1 <1>   0.0800 
@<TRIPOS>BOND
  1   1   2  1   
  2   2   3  ar  
  3   2   4  ar  
  4   3   5  ar  
  5   3  18  1   
  6   4   6  ar  
  7   4  19  1   
  8   5   7  ar  
  9   5  20  1   
 10   6   7  ar  
 11   6  21  1   
 12   7   8  1   
 13   8   9  1   
 14   8  22  1   
 15   8  23  1   
 16   9  10  1   
 17   9  11  1   
 18   9  24  1   
 19  10  12  1   
 20  10  25  1   
 21  10  26  1   
 22  11  27  1   
 23  11  28  1   
 24  11  29  1   
 25  12  13  1   
 26  12  30  1   
 27  12  31  1   
 28  13  14  1   
 29  13  15  1   
 30  13  32  1   
 31  14  16  1   
 32  14  33  1   
 33  14  34  1   
 34  15  17  1   
 35  15  35  1   
 36  15  36  1   
 37  16  37  1   
 38  16  38  1   
 39  16  39  1   
 40  17  40  1   
 41  17  41  1   
 42  17  42  1   
@<TRIPOS>SUBSTRUCTURE
  1 ****   9 GROUP 4 **** **** 0

# MOE 2024.06 (io_trps.svl 2023.06)
