@<TRIPOS>MOLECULE
NONAME
53 56 1 0 0 
SMALL
USER_CHARGES


@<TRIPOS>ATOM
  1 O        0.4060    -1.1590     1.4060 O.2   1 <1>  -0.5740 
  2 C        0.0370    -1.8800     0.5170 C.2   1 <1>   0.4900 
  3 C       -1.3290    -2.1940     0.3040 C.2   1 <1>  -0.1310 
  4 C        1.0650    -2.5040    -0.4100 C.3   1 <1>  -0.1060 
  5 C       -1.7610    -3.1130    -0.5900 C.2   1 <1>   0.1580 
  6 C       -2.3170    -1.4000     1.1520 C.3   1 <1>   0.7130 
  7 C        0.6400    -3.9080    -0.8980 C.3   1 <1>  -0.0080 
  8 N       -3.1070    -3.3990    -0.7190 N.pl3 1 <1>  -0.6930 
  9 C       -0.7890    -3.8690    -1.4880 C.3   1 <1>  -0.0290 
 10 N       -3.6720    -2.0060     1.0700 N.pl3 1 <1>  -0.4620 
 11 C       -2.4290     0.0280     0.6220 C.ar  1 <1>  -0.1500 
 12 C        1.6240    -4.3890    -1.9740 C.3   1 <1>  -0.2460 
 13 C        0.6930    -4.9040     0.2770 C.3   1 <1>  -0.2460 
 14 C       -3.9990    -2.8740     0.1410 C.cat 1 <1>   1.0690 
 15 N       -4.7650    -1.6590     1.8140 N.2   1 <1>  -0.2660 
 16 C       -2.7410     0.2780    -0.7090 C.ar  1 <1>  -0.1570 
 17 C       -2.2210     1.1050     1.4690 C.ar  1 <1>  -0.1570 
 18 N       -5.2820    -3.1120     0.2440 N.pl3 1 <1>  -0.7030 
 19 C       -5.7170    -2.3400     1.2890 C.2   1 <1>   0.4990 
 20 C       -2.8620     1.5680    -1.1970 C.ar  1 <1>   0.0750 
 21 C       -2.3330     2.4030     1.0020 C.ar  1 <1>   0.0750 
 22 O       -3.1680     1.6400    -2.5230 O.3   1 <1>  -0.3680 
 23 C       -2.6820     2.6530    -0.3290 C.ar  1 <1>   0.0750 
 24 O       -2.1010     3.3940     1.8980 O.3   1 <1>  -0.3680 
 25 C       -2.7510     2.7380    -3.3060 C.3   1 <1>   0.0330 
 26 O       -2.8580     3.9340    -0.7560 O.3   1 <1>  -0.3680 
 27 C       -0.9440     4.1720     1.6840 C.3   1 <1>   0.0330 
 28 C       -4.0360     4.5690    -0.3130 C.3   1 <1>   0.0330 
 29 H        2.0100    -2.5620     0.1020 H     1 <1>   0.0730 
 30 H        1.1940    -1.8450    -1.2500 H     1 <1>   0.0730 
 31 H       -2.0040    -1.3960     2.1830 H     1 <1>   0.0730 
 32 H       -3.4280    -4.0650    -1.4240 H     1 <1>   0.4450 
 33 H       -0.7710    -3.3820    -2.4470 H     1 <1>   0.0730 
 34 H       -1.1330    -4.8780    -1.6420 H     1 <1>   0.0730 
 35 H        1.6320    -3.7190    -2.8170 H     1 <1>   0.0730 
 36 H        1.3570    -5.3710    -2.3260 H     1 <1>   0.0730 
 37 H        2.6240    -4.4370    -1.5780 H     1 <1>   0.0730 
 38 H        0.0180    -4.6310     1.0680 H     1 <1>   0.0730 
 39 H        1.6870    -4.9420     0.6900 H     1 <1>   0.0730 
 40 H        0.4390    -5.8960    -0.0540 H     1 <1>   0.0730 
 41 H       -2.8960    -0.5220    -1.4080 H     1 <1>   0.1430 
 42 H       -1.9630     0.9610     2.5040 H     1 <1>   0.1430 
 43 H       -5.8520    -3.7290    -0.3280 H     1 <1>   0.4450 
 44 H       -6.7470    -2.3180     1.6190 H     1 <1>   0.1430 
 45 H       -2.7850     2.4460    -4.3400 H     1 <1>   0.0730 
 46 H       -1.7460     3.0070    -3.0320 H     1 <1>   0.0730 
 47 H       -3.4230     3.5600    -3.1400 H     1 <1>   0.0730 
 48 H       -0.8310     4.8420     2.5160 H     1 <1>   0.0730 
 49 H       -1.0560     4.7340     0.7740 H     1 <1>   0.0730 
 50 H       -0.0930     3.5180     1.6170 H     1 <1>   0.0730 
 51 H       -4.0810     5.5450    -0.7600 H     1 <1>   0.0730 
 52 H       -4.0100     4.6570     0.7590 H     1 <1>   0.0730 
 53 H       -4.8830     3.9810    -0.6210 H     1 <1>   0.0730 
@<TRIPOS>BOND
  1   1   2  2   
  2   2   3  1   
  3   2   4  1   
  4   3   5  2   
  5   3   6  1   
  6   4   7  1   
  7   4  29  1   
  8   4  30  1   
  9   5   8  1   
 10   5   9  1   
 11   6  10  1   
 12   6  11  1   
 13   6  31  1   
 14   7   9  1   
 15   7  12  1   
 16   7  13  1   
 17   8  14  ar  
 18   8  32  1   
 19   9  33  1   
 20   9  34  1   
 21  10  14  ar  
 22  10  15  1   
 23  11  16  ar  
 24  11  17  ar  
 25  12  35  1   
 26  12  36  1   
 27  12  37  1   
 28  13  38  1   
 29  13  39  1   
 30  13  40  1   
 31  14  18  ar  
 32  15  19  2   
 33  16  20  ar  
 34  16  41  1   
 35  17  21  ar  
 36  17  42  1   
 37  18  19  1   
 38  18  43  1   
 39  19  44  1   
 40  20  22  1   
 41  20  23  ar  
 42  21  23  ar  
 43  21  24  1   
 44  22  25  1   
 45  23  26  1   
 46  24  27  1   
 47  25  45  1   
 48  25  46  1   
 49  25  47  1   
 50  26  28  1   
 51  27  48  1   
 52  27  49  1   
 53  27  50  1   
 54  28  51  1   
 55  28  52  1   
 56  28  53  1   
@<TRIPOS>SUBSTRUCTURE
  1 ****  11 GROUP 4 **** **** 0

# MOE 2024.06 (io_trps.svl 2023.06)
