@<TRIPOS>MOLECULE
NONAME
35 36 1 0 0 
SMALL
USER_CHARGES


@<TRIPOS>ATOM
  1 F       -0.9690    -0.8580     1.8570 F     1 <1>  -0.3400 
  2 C       -0.0640    -1.3050     0.9960 C.3   1 <1>   1.1640 
  3 F        1.1130    -0.8840     1.4470 F     1 <1>  -0.3400 
  4 F       -0.2750    -0.6550    -0.1420 F     1 <1>  -0.3400 
  5 C       -0.1340    -2.8290     0.8170 C.ar  1 <1>  -0.1440 
  6 C       -1.3080    -3.4120     0.3520 C.ar  1 <1>  -0.1500 
  7 C        0.9470    -3.6570     1.1060 C.ar  1 <1>  -0.1500 
  8 C       -1.4150    -4.7850     0.1760 C.ar  1 <1>   0.1170 
  9 C        0.8510    -5.0260     0.9340 C.ar  1 <1>  -0.1500 
 10 N       -2.5730    -5.4270    -0.2900 N.am  1 <1>  -0.5470 
 11 C       -0.3210    -5.6080     0.4700 C.ar  1 <1>   0.1000 
 12 C       -3.8050    -4.9930    -0.6720 C.2   1 <1>   0.5690 
 13 N       -0.4170    -7.0000     0.2960 N.pl3 1 <1>  -0.8380 
 14 O       -4.1500    -3.8390    -0.6740 O.2   1 <1>  -0.5700 
 15 C       -4.7930    -6.0400    -1.1200 C.3   1 <1>  -0.1790 
 16 C        0.4620    -7.5720    -0.7700 C.3   1 <1>   0.2090 
 17 C       -0.3390    -7.8070     1.5520 C.3   1 <1>   0.2090 
 18 C        0.2060    -9.0790    -0.9470 C.3   1 <1>   0.1200 
 19 C       -0.5560    -9.3030     1.2610 C.3   1 <1>   0.1200 
 20 O        0.3310    -9.7550     0.2740 O.3   1 <1>  -0.5600 
 21 H       -2.1510    -2.7840     0.1240 H     1 <1>   0.1500 
 22 H        1.8750    -3.2450     1.4690 H     1 <1>   0.1500 
 23 H        1.6950    -5.6500     1.1620 H     1 <1>   0.1500 
 24 H       -2.4000    -6.4350    -0.3320 H     1 <1>   0.3700 
 25 H       -4.4050    -6.5650    -1.9710 H     1 <1>   0.0800 
 26 H       -5.7200    -5.5700    -1.3930 H     1 <1>   0.0800 
 27 H       -4.9760    -6.7320    -0.3200 H     1 <1>   0.0800 
 28 H        1.4960    -7.4200    -0.5120 H     1 <1>   0.0800 
 29 H        0.2720    -7.0630    -1.6990 H     1 <1>   0.0800 
 30 H       -1.0890    -7.4630     2.2430 H     1 <1>   0.0800 
 31 H        0.6250    -7.6770     2.0120 H     1 <1>   0.0800 
 32 H        0.9230    -9.5000    -1.6290 H     1 <1>   0.0800 
 33 H       -0.7830    -9.2490    -1.3350 H     1 <1>   0.0800 
 34 H       -1.5630    -9.4790     0.9250 H     1 <1>   0.0800 
 35 H       -0.3810    -9.8840     2.1490 H     1 <1>   0.0800 
@<TRIPOS>BOND
  1   1   2  1   
  2   2   3  1   
  3   2   4  1   
  4   2   5  1   
  5   5   6  ar  
  6   5   7  ar  
  7   6   8  ar  
  8   6  21  1   
  9   7   9  ar  
 10   7  22  1   
 11   8  10  1   
 12   8  11  ar  
 13   9  11  ar  
 14   9  23  1   
 15  10  12  am  
 16  10  24  1   
 17  11  13  1   
 18  12  14  2   
 19  12  15  1   
 20  13  16  1   
 21  13  17  1   
 22  15  25  1   
 23  15  26  1   
 24  15  27  1   
 25  16  18  1   
 26  16  28  1   
 27  16  29  1   
 28  17  19  1   
 29  17  30  1   
 30  17  31  1   
 31  18  20  1   
 32  18  32  1   
 33  18  33  1   
 34  19  20  1   
 35  19  34  1   
 36  19  35  1   
@<TRIPOS>SUBSTRUCTURE
  1 ****   8 GROUP 4 **** **** 0

# MOE 2024.06 (io_trps.svl 2023.06)
