@<TRIPOS>MOLECULE
NONAME
39 40 1 0 0 
SMALL
USER_CHARGES


@<TRIPOS>ATOM
  1 O        0.6760     0.0470     0.2280 O.3   1 <1>  -0.5600 
  2 C        0.2450    -1.2870     0.2880 C.3   1 <1>   0.2000 
  3 C        1.6830     0.3720    -0.6980 C.3   1 <1>   0.2000 
  4 C        1.4270    -2.2280     0.6490 C.3   1 <1>   0.3430 
  5 C       -0.4590    -1.6590    -1.0230 C.3   1 <1>  -0.2400 
  6 C        2.7590    -0.7400    -0.7960 C.3   1 <1>   0.3430 
  7 C        2.2860     1.6920    -0.2180 C.3   1 <1>  -0.2400 
  8 N        2.7670    -1.5770     0.4490 N.4   1 <1>  -0.9590 
  9 C        3.9130    -2.5200     0.5320 C.3   1 <1>   0.4860 
 10 C        5.1990    -1.7210     0.4480 C.ar  1 <1>  -0.1440 
 11 C        5.5870    -0.9030     1.5000 C.ar  1 <1>  -0.1500 
 12 C        5.9920    -1.7920    -0.6890 C.ar  1 <1>  -0.1500 
 13 C        6.7450    -0.1540     1.4060 C.ar  1 <1>  -0.1500 
 14 C        7.1530    -1.0440    -0.7820 C.ar  1 <1>  -0.1500 
 15 C        7.5330    -0.2150     0.2690 C.ar  1 <1>   0.0820 
 16 O        8.6480     0.5540     0.2600 O.3   1 <1>  -0.3620 
 17 C        9.5650     0.5150    -0.8120 C.3   1 <1>   0.0400 
 18 H       -0.4850    -1.3380     1.0790 H     1 <1>   0.0800 
 19 H        1.2230     0.5250    -1.6600 H     1 <1>   0.0800 
 20 H        1.3520    -3.1160     0.0440 H     1 <1>   0.0800 
 21 H        1.3230    -2.5310     1.6780 H     1 <1>   0.0800 
 22 H        0.2230    -1.7020    -1.8530 H     1 <1>   0.0800 
 23 H       -1.2320    -0.9410    -1.2360 H     1 <1>   0.0800 
 24 H       -0.9250    -2.6230    -0.9250 H     1 <1>   0.0800 
 25 H        3.7220    -0.2820    -0.9550 H     1 <1>   0.0800 
 26 H        2.5470    -1.3600    -1.6510 H     1 <1>   0.0800 
 27 H        2.7290     1.5800     0.7550 H     1 <1>   0.0800 
 28 H        1.5190     2.4450    -0.1700 H     1 <1>   0.0800 
 29 H        3.0420     2.0290    -0.9040 H     1 <1>   0.0800 
 30 H        2.8710    -0.8900     1.2080 H     1 <1>   0.4500 
 31 H        3.8700    -3.2330    -0.2750 H     1 <1>   0.0800 
 32 H        3.8870    -3.0560     1.4670 H     1 <1>   0.0800 
 33 H        5.0030    -0.8370     2.4020 H     1 <1>   0.1500 
 34 H        5.7210    -2.4280    -1.5150 H     1 <1>   0.1500 
 35 H        7.0540     0.4840     2.2150 H     1 <1>   0.1500 
 36 H        7.7490    -1.1160    -1.6720 H     1 <1>   0.1500 
 37 H       10.3760     1.1830    -0.5810 H     1 <1>   0.0800 
 38 H        9.0700     0.8380    -1.7090 H     1 <1>   0.0800 
 39 H        9.9390    -0.4890    -0.9150 H     1 <1>   0.0800 
@<TRIPOS>BOND
  1   1   2  1   
  2   1   3  1   
  3   2   4  1   
  4   2   5  1   
  5   2  18  1   
  6   3   6  1   
  7   3   7  1   
  8   3  19  1   
  9   4   8  1   
 10   4  20  1   
 11   4  21  1   
 12   5  22  1   
 13   5  23  1   
 14   5  24  1   
 15   6   8  1   
 16   6  25  1   
 17   6  26  1   
 18   7  27  1   
 19   7  28  1   
 20   7  29  1   
 21   8   9  1   
 22   8  30  1   
 23   9  10  1   
 24   9  31  1   
 25   9  32  1   
 26  10  11  ar  
 27  10  12  ar  
 28  11  13  ar  
 29  11  33  1   
 30  12  14  ar  
 31  12  34  1   
 32  13  15  ar  
 33  13  35  1   
 34  14  15  ar  
 35  14  36  1   
 36  15  16  1   
 37  16  17  1   
 38  17  37  1   
 39  17  38  1   
 40  17  39  1   
@<TRIPOS>SUBSTRUCTURE
  1 ****  10 GROUP 4 **** **** 0

# MOE 2024.06 (io_trps.svl 2023.06)
