@<TRIPOS>MOLECULE
NONAME
43 43 1 0 0 
SMALL
USER_CHARGES


@<TRIPOS>ATOM
  1 O       -8.2380     0.0790    -0.1170 O.3   1 <1>  -0.3630 
  2 C       -9.5760    -0.0460    -0.2690 C.ar  1 <1>   0.0830 
  3 C       -7.7630     0.0380     1.2150 C.3   1 <1>   0.1200 
  4 C      -10.1850    -1.3030    -0.2240 C.ar  1 <1>  -0.1440 
  5 C      -10.3240     1.1110    -0.4630 C.ar  1 <1>  -0.1440 
  6 C       -6.5440     0.9620     1.3250 C.3   1 <1>   0.3430 
  7 C      -11.5710    -1.3830    -0.3280 C.ar  1 <1>  -0.1440 
  8 C       -9.3540    -2.5770    -0.0740 C.3   1 <1>  -0.0970 
  9 C      -11.6980     1.0080    -0.5760 C.ar  1 <1>  -0.1500 
 10 C       -9.6700     2.4820    -0.5550 C.3   1 <1>  -0.0960 
 11 N       -5.6730     0.8470     0.1130 N.4   1 <1>  -0.9590 
 12 C      -12.3140    -0.2270    -0.5020 C.ar  1 <1>  -0.1500 
 13 C      -12.3150    -2.7110    -0.2580 C.3   1 <1>  -0.0970 
 14 C       -4.8080    -0.3620     0.1540 C.3   1 <1>   0.3430 
 15 C       -4.9180     2.1050    -0.1250 C.3   1 <1>   0.3430 
 16 C       -5.1490    -1.2440    -1.0390 C.3   1 <1>  -0.2400 
 17 C       -4.3860     2.1370    -1.5520 C.3   1 <1>  -0.2400 
 18 H       -7.5030    -0.9790     1.4490 H     1 <1>   0.0800 
 19 H       -8.5430     0.3640     1.8830 H     1 <1>   0.0800 
 20 H       -5.9870     0.7410     2.2210 H     1 <1>   0.0800 
 21 H       -6.9100     1.9720     1.4060 H     1 <1>   0.0800 
 22 H       -8.3370    -2.4200    -0.3770 H     1 <1>   0.0800 
 23 H       -9.7470    -3.3600    -0.6960 H     1 <1>   0.0800 
 24 H       -9.3700    -2.9050     0.9490 H     1 <1>   0.0800 
 25 H      -12.3030     1.8860    -0.7220 H     1 <1>   0.1500 
 26 H       -9.3080     2.7810     0.4110 H     1 <1>   0.0800 
 27 H      -10.3750     3.2180    -0.8990 H     1 <1>   0.0800 
 28 H       -8.8510     2.4530    -1.2510 H     1 <1>   0.0800 
 29 H       -6.3400     0.7140    -0.6680 H     1 <1>   0.4500 
 30 H      -13.3850    -0.2790    -0.5880 H     1 <1>   0.1500 
 31 H      -11.9910    -3.2780     0.5950 H     1 <1>   0.0800 
 32 H      -12.1340    -3.2800    -1.1520 H     1 <1>   0.0800 
 33 H      -13.3750    -2.5540    -0.1680 H     1 <1>   0.0800 
 34 H       -4.9750    -0.9120     1.0660 H     1 <1>   0.0800 
 35 H       -3.7680    -0.0810     0.1150 H     1 <1>   0.0800 
 36 H       -4.1040     2.1910     0.5770 H     1 <1>   0.0800 
 37 H       -5.5750     2.9500     0.0160 H     1 <1>   0.0800 
 38 H       -6.1770    -1.5560    -1.0040 H     1 <1>   0.0800 
 39 H       -4.5340    -2.1260    -1.0160 H     1 <1>   0.0800 
 40 H       -4.9620    -0.7330    -1.9650 H     1 <1>   0.0800 
 41 H       -3.6450     1.3760    -1.7120 H     1 <1>   0.0800 
 42 H       -3.9200     3.0900    -1.7330 H     1 <1>   0.0800 
 43 H       -5.1870     2.0200    -2.2610 H     1 <1>   0.0800 
@<TRIPOS>BOND
  1   1   2  1   
  2   1   3  1   
  3   2   4  ar  
  4   2   5  ar  
  5   3   6  1   
  6   3  18  1   
  7   3  19  1   
  8   4   7  ar  
  9   4   8  1   
 10   5   9  ar  
 11   5  10  1   
 12   6  11  1   
 13   6  20  1   
 14   6  21  1   
 15   7  12  ar  
 16   7  13  1   
 17   8  22  1   
 18   8  23  1   
 19   8  24  1   
 20   9  12  ar  
 21   9  25  1   
 22  10  26  1   
 23  10  27  1   
 24  10  28  1   
 25  11  14  1   
 26  11  15  1   
 27  11  29  1   
 28  12  30  1   
 29  13  31  1   
 30  13  32  1   
 31  13  33  1   
 32  14  16  1   
 33  14  34  1   
 34  14  35  1   
 35  15  17  1   
 36  15  36  1   
 37  15  37  1   
 38  16  38  1   
 39  16  39  1   
 40  16  40  1   
 41  17  41  1   
 42  17  42  1   
 43  17  43  1   
@<TRIPOS>SUBSTRUCTURE
  1 ****   1 GROUP 4 **** **** 0

# MOE 2024.06 (io_trps.svl 2023.06)
