@<TRIPOS>MOLECULE
NONAME
46 47 1 0 0 
SMALL
USER_CHARGES


@<TRIPOS>ATOM
  1 S       -1.3740    -0.4290    -1.3680 S.o2  1 <1>   1.3330 
  2 O       -2.5380    -0.7900    -2.1420 O.2   1 <1>  -0.6500 
  3 O       -0.1390    -0.1600    -2.0670 O.2   1 <1>  -0.6500 
  4 N       -1.0790    -1.7040    -0.2980 N.am  1 <1>  -0.8490 
  5 C       -1.7090     0.9950    -0.3480 C.3   1 <1>  -0.1350 
  6 C       -0.2230    -2.7070    -0.9410 C.3   1 <1>   0.3390 
  7 C       -2.3260    -2.3220     0.2480 C.3   1 <1>   0.2570 
  8 C        0.1370    -3.8510     0.0020 C.ar  1 <1>  -0.1440 
  9 C       -3.2250    -1.3980     1.0930 C.2   1 <1>   0.5690 
 10 C        0.7070    -3.5770     1.2400 C.ar  1 <1>  -0.1500 
 11 C       -0.1030    -5.1690    -0.3730 C.ar  1 <1>  -0.1500 
 12 O       -2.7400    -0.9710     2.1170 O.2   1 <1>  -0.5700 
 13 N       -4.5140    -1.0580     0.7360 N.am  1 <1>  -0.6600 
 14 C        1.0390    -4.6070     2.1040 C.ar  1 <1>  -0.1500 
 15 C        0.2250    -6.2080     0.4820 C.ar  1 <1>  -0.1500 
 16 C       -5.3770    -0.2670     1.6650 C.3   1 <1>   0.1400 
 17 C       -5.2050    -1.4080    -0.5420 C.3   1 <1>   0.1400 
 18 C        0.7900    -5.9070     1.7060 C.ar  1 <1>   0.1900 
 19 C       -5.8400     1.0220     0.9820 C.3   1 <1>  -0.1600 
 20 C       -5.6820    -0.1330    -1.2460 C.3   1 <1>  -0.1600 
 21 F        1.1000    -6.8840     2.5150 F     1 <1>  -0.1900 
 22 C       -6.5710     0.7280    -0.3360 C.3   1 <1>  -0.0800 
 23 C       -6.9630     2.0310    -1.0400 C.3   1 <1>  -0.2400 
 24 H       -1.7230     1.8790    -0.9530 H     1 <1>   0.0800 
 25 H       -0.9450     1.1010     0.3980 H     1 <1>   0.0800 
 26 H       -2.6580     0.9100     0.1390 H     1 <1>   0.0800 
 27 H        0.7010    -2.2480    -1.2530 H     1 <1>   0.0800 
 28 H       -0.7130    -3.0880    -1.8220 H     1 <1>   0.0800 
 29 H       -2.0550    -3.1180     0.9160 H     1 <1>   0.0800 
 30 H       -2.8800    -2.7740    -0.5500 H     1 <1>   0.0800 
 31 H        0.8870    -2.5550     1.5320 H     1 <1>   0.1500 
 32 H       -0.5410    -5.3930    -1.3300 H     1 <1>   0.1500 
 33 H        1.4780    -4.4090     3.0640 H     1 <1>   0.1500 
 34 H        0.0480    -7.2330     0.2100 H     1 <1>   0.1500 
 35 H       -4.8480    -0.0200     2.5700 H     1 <1>   0.0800 
 36 H       -6.2310    -0.8620     1.9380 H     1 <1>   0.0800 
 37 H       -6.0530    -2.0330    -0.3180 H     1 <1>   0.0800 
 38 H       -4.5670    -1.9500    -1.2120 H     1 <1>   0.0800 
 39 H       -4.9820     1.6450     0.8010 H     1 <1>   0.0800 
 40 H       -6.4960     1.5540     1.6480 H     1 <1>   0.0800 
 41 H       -6.2280    -0.4070    -2.1310 H     1 <1>   0.0800 
 42 H       -4.8230     0.4320    -1.5600 H     1 <1>   0.0800 
 43 H       -7.4700     0.1770    -0.1140 H     1 <1>   0.0800 
 44 H       -6.0890     2.6110    -1.2810 H     1 <1>   0.0800 
 45 H       -7.6020     2.6200    -0.4070 H     1 <1>   0.0800 
 46 H       -7.4940     1.8180    -1.9510 H     1 <1>   0.0800 
@<TRIPOS>BOND
  1   1   2  2   
  2   1   3  2   
  3   1   4  am  
  4   1   5  1   
  5   4   6  1   
  6   4   7  1   
  7   5  24  1   
  8   5  25  1   
  9   5  26  1   
 10   6   8  1   
 11   6  27  1   
 12   6  28  1   
 13   7   9  1   
 14   7  29  1   
 15   7  30  1   
 16   8  10  ar  
 17   8  11  ar  
 18   9  12  2   
 19   9  13  am  
 20  10  14  ar  
 21  10  31  1   
 22  11  15  ar  
 23  11  32  1   
 24  13  16  1   
 25  13  17  1   
 26  14  18  ar  
 27  14  33  1   
 28  15  18  ar  
 29  15  34  1   
 30  16  19  1   
 31  16  35  1   
 32  16  36  1   
 33  17  20  1   
 34  17  37  1   
 35  17  38  1   
 36  18  21  1   
 37  19  22  1   
 38  19  39  1   
 39  19  40  1   
 40  20  22  1   
 41  20  41  1   
 42  20  42  1   
 43  22  23  1   
 44  22  43  1   
 45  23  44  1   
 46  23  45  1   
 47  23  46  1   
@<TRIPOS>SUBSTRUCTURE
  1 ****   7 GROUP 4 **** **** 0

# MOE 2024.06 (io_trps.svl 2023.06)
