@<TRIPOS>MOLECULE
NONAME
32 33 1 0 0 
SMALL
USER_CHARGES


@<TRIPOS>ATOM
  1 O       -1.3990     0.0870    -0.8690 O.2   1 <1>  -0.5700 
  2 C       -2.4340     0.6230    -0.5070 C.2   1 <1>   0.8050 
  3 O       -3.5110    -0.1500    -0.3040 O.3   1 <1>  -0.4300 
  4 C       -2.5450     2.0330    -0.2920 C.2   1 <1>  -0.2370 
  5 C       -3.4830    -1.5570    -0.4350 C.3   1 <1>   0.1200 
  6 N       -3.7220     2.7490    -0.1230 N.pl3 1 <1>   0.0480 
  7 C       -1.5120     2.9360    -0.2150 C.2   1 <1>   0.0830 
  8 C       -2.9960    -2.1660     0.8790 C.3   1 <1>  -0.2400 
  9 C       -3.3980     4.0540     0.0550 C.2   1 <1>  -0.3320 
 10 C       -5.1120     2.2180    -0.0590 C.3   1 <1>   0.0960 
 11 N       -0.1600     2.6200    -0.3220 N.pl3 1 <1>  -0.8830 
 12 C       -2.0410     4.2130     0.0030 C.2   1 <1>   0.0190 
 13 C       -4.4490     5.1350     0.2730 C.3   1 <1>   0.0200 
 14 C       -6.1680     3.3360    -0.0910 C.3   1 <1>  -0.1600 
 15 C       -1.2710     5.4150     0.1360 C.1   1 <1>   0.5380 
 16 C       -5.7580     4.5260     0.7880 C.3   1 <1>  -0.1600 
 17 N       -0.6780     6.3870     0.2230 N.1   1 <1>  -0.5570 
 18 H       -2.8460    -1.8300    -1.2600 H     1 <1>   0.0800 
 19 H       -4.4860    -1.8840    -0.6480 H     1 <1>   0.0800 
 20 H       -1.9870    -1.8530     1.0840 H     1 <1>   0.0800 
 21 H       -3.0080    -3.2380     0.8060 H     1 <1>   0.0800 
 22 H       -3.6380    -1.8700     1.6890 H     1 <1>   0.0800 
 23 H       -5.2080     1.6600     0.8550 H     1 <1>   0.0800 
 24 H       -5.2750     1.5510    -0.8870 H     1 <1>   0.0800 
 25 H        0.3940     3.2680    -0.8910 H     1 <1>   0.4000 
 26 H       -0.0170     1.6500    -0.6450 H     1 <1>   0.4000 
 27 H       -4.6330     5.6300    -0.6650 H     1 <1>   0.0800 
 28 H       -4.0890     5.8710     0.9720 H     1 <1>   0.0800 
 29 H       -7.1110     2.9410     0.2420 H     1 <1>   0.0800 
 30 H       -6.2960     3.6680    -1.1070 H     1 <1>   0.0800 
 31 H       -6.5310     5.2750     0.7790 H     1 <1>   0.0800 
 32 H       -5.6220     4.1950     1.8030 H     1 <1>   0.0800 
@<TRIPOS>BOND
  1   1   2  2   
  2   2   3  1   
  3   2   4  1   
  4   3   5  1   
  5   4   6  1   
  6   4   7  2   
  7   5   8  1   
  8   5  18  1   
  9   5  19  1   
 10   6   9  1   
 11   6  10  1   
 12   7  11  1   
 13   7  12  1   
 14   8  20  1   
 15   8  21  1   
 16   8  22  1   
 17   9  12  2   
 18   9  13  1   
 19  10  14  1   
 20  10  23  1   
 21  10  24  1   
 22  11  25  1   
 23  11  26  1   
 24  12  15  1   
 25  13  16  1   
 26  13  27  1   
 27  13  28  1   
 28  14  16  1   
 29  14  29  1   
 30  14  30  1   
 31  15  17  3   
 32  16  31  1   
 33  16  32  1   
@<TRIPOS>SUBSTRUCTURE
  1 ****   4 GROUP 4 **** **** 0

# MOE 2024.06 (io_trps.svl 2023.06)
