@<TRIPOS>MOLECULE
NONAME
28 28 1 0 0 
SMALL
USER_CHARGES


@<TRIPOS>ATOM
  1 S       -0.7110     0.7240     0.0870 S.3   1 <1>  -0.3310 
  2 C        1.0410     1.2140    -0.0530 C.2   1 <1>   0.1150 
  3 C       -0.8020    -1.1210     0.1420 C.3   1 <1>   0.0700 
  4 C        2.1150     0.3170     0.2460 C.2   1 <1>   0.6160 
  5 C        1.3540     2.4740    -0.4720 C.2   1 <1>   0.1150 
  6 C       -2.2620    -1.5200    -0.0570 C.3   1 <1>  -0.2400 
  7 O        1.9670    -0.8220     0.6850 O.2   1 <1>  -0.5700 
  8 N        3.4090     0.8000     0.0330 N.am  1 <1>  -0.2980 
  9 S        0.1360     3.7480    -0.8510 S.3   1 <1>  -0.3310 
 10 C        2.7070     2.8470    -0.6560 C.2   1 <1>   0.3760 
 11 N        3.7070     2.0610    -0.4190 N.2   1 <1>  -0.5120 
 12 C        4.5700    -0.0810     0.3090 C.3   1 <1>   0.0600 
 13 C       -0.8020     4.0110     0.7210 C.3   1 <1>   0.0700 
 14 C       -2.2790     4.1530     0.3640 C.3   1 <1>  -0.2400 
 15 H       -0.1750    -1.5040    -0.6450 H     1 <1>   0.0800 
 16 H       -0.4330    -1.4380     1.1030 H     1 <1>   0.0800 
 17 H       -2.3550    -2.5900    -0.0310 H     1 <1>   0.0800 
 18 H       -2.6160    -1.1640    -1.0080 H     1 <1>   0.0800 
 19 H       -2.8700    -1.1000     0.7250 H     1 <1>   0.0800 
 20 H        2.9040     3.8430    -1.0100 H     1 <1>   0.0600 
 21 H        4.5030    -0.9650    -0.2990 H     1 <1>   0.0800 
 22 H        4.5670    -0.3630     1.3470 H     1 <1>   0.0800 
 23 H        5.4870     0.4350     0.0850 H     1 <1>   0.0800 
 24 H       -0.6270     3.1700     1.3670 H     1 <1>   0.0800 
 25 H       -0.4170     4.9070     1.1750 H     1 <1>   0.0800 
 26 H       -2.8580     4.3140     1.2550 H     1 <1>   0.0800 
 27 H       -2.6300     3.2570    -0.1170 H     1 <1>   0.0800 
 28 H       -2.4230     4.9870    -0.2990 H     1 <1>   0.0800 
@<TRIPOS>BOND
  1   1   2  1   
  2   1   3  1   
  3   2   4  1   
  4   2   5  2   
  5   3   6  1   
  6   3  15  1   
  7   3  16  1   
  8   4   7  2   
  9   4   8  am  
 10   5   9  1   
 11   5  10  1   
 12   6  17  1   
 13   6  18  1   
 14   6  19  1   
 15   8  11  1   
 16   8  12  1   
 17   9  13  1   
 18  10  11  2   
 19  10  20  1   
 20  12  21  1   
 21  12  22  1   
 22  12  23  1   
 23  13  14  1   
 24  13  24  1   
 25  13  25  1   
 26  14  26  1   
 27  14  27  1   
 28  14  28  1   
@<TRIPOS>SUBSTRUCTURE
  1 ****   2 GROUP 4 **** **** 0

# MOE 2024.06 (io_trps.svl 2023.06)
