@<TRIPOS>MOLECULE
NONAME
40 40 1 0 0 
SMALL
USER_CHARGES


@<TRIPOS>ATOM
  1 O        0.2490     1.5900     1.9060 O.2   1 <1>  -0.5700 
  2 C        0.0150     2.0020     0.7870 C.2   1 <1>   0.5440 
  3 N        0.9890     1.9150    -0.1680 N.am  1 <1>  -0.7300 
  4 C       -1.2850     2.5610     0.4570 C.ar  1 <1>   0.0860 
  5 C        2.3470     1.3480     0.0220 C.3   1 <1>   0.2200 
  6 C       -2.4360     2.1360     1.1200 C.ar  1 <1>  -0.1500 
  7 C       -1.4420     3.5360    -0.5290 C.ar  1 <1>  -0.1500 
  8 C        3.3910     2.4540    -0.3040 C.3   1 <1>  -0.0800 
  9 C        2.5260     0.0430    -0.8170 C.3   1 <1>  -0.0800 
 10 C       -3.6830     2.6470     0.8080 C.ar  1 <1>  -0.1500 
 11 C       -2.6860     4.0500    -0.8470 C.ar  1 <1>  -0.1500 
 12 C        4.8440     1.9940    -0.0950 C.3   1 <1>  -0.2400 
 13 C        3.1710     3.7190     0.5470 C.3   1 <1>  -0.2400 
 14 C        1.2190    -0.5940    -1.3330 C.3   1 <1>  -0.2400 
 15 C        3.2650    -1.0290     0.0040 C.3   1 <1>  -0.2400 
 16 C       -3.8160     3.6080    -0.1800 C.ar  1 <1>  -0.1430 
 17 C       -5.1840     4.1670    -0.5270 C.3   1 <1>  -0.0970 
 18 H        0.7550     2.1360    -1.1330 H     1 <1>   0.3700 
 19 H        2.4560     1.0940     1.0630 H     1 <1>   0.0800 
 20 H       -2.3440     1.3920     1.8930 H     1 <1>   0.1500 
 21 H       -0.5780     3.9060    -1.0510 H     1 <1>   0.1500 
 22 H        3.2810     2.7240    -1.3400 H     1 <1>   0.0800 
 23 H        3.1270     0.2710    -1.6800 H     1 <1>   0.0800 
 24 H       -4.5490     2.2920     1.3380 H     1 <1>   0.1500 
 25 H       -2.7730     4.7990    -1.6140 H     1 <1>   0.1500 
 26 H        4.9910     1.6580     0.9160 H     1 <1>   0.0800 
 27 H        5.5250     2.8050    -0.2860 H     1 <1>   0.0800 
 28 H        5.0990     1.1960    -0.7690 H     1 <1>   0.0800 
 29 H        3.2120     3.4770     1.5950 H     1 <1>   0.0800 
 30 H        2.2130     4.1620     0.3420 H     1 <1>   0.0800 
 31 H        3.9240     4.4570     0.3340 H     1 <1>   0.0800 
 32 H        0.5570    -0.8110    -0.5120 H     1 <1>   0.0800 
 33 H        1.4280    -1.5130    -1.8520 H     1 <1>   0.0800 
 34 H        0.7170     0.0610    -2.0210 H     1 <1>   0.0800 
 35 H        2.6700    -1.3230     0.8520 H     1 <1>   0.0800 
 36 H        4.2080    -0.6640     0.3680 H     1 <1>   0.0800 
 37 H        3.4550    -1.9000    -0.5980 H     1 <1>   0.0800 
 38 H       -5.6420     3.5640    -1.2890 H     1 <1>   0.0800 
 39 H       -5.0980     5.1770    -0.8870 H     1 <1>   0.0800 
 40 H       -5.8190     4.1710     0.3410 H     1 <1>   0.0800 
@<TRIPOS>BOND
  1   1   2  2   
  2   2   3  am  
  3   2   4  1   
  4   3   5  1   
  5   3  18  1   
  6   4   6  ar  
  7   4   7  ar  
  8   5   8  1   
  9   5   9  1   
 10   5  19  1   
 11   6  10  ar  
 12   6  20  1   
 13   7  11  ar  
 14   7  21  1   
 15   8  12  1   
 16   8  13  1   
 17   8  22  1   
 18   9  14  1   
 19   9  15  1   
 20   9  23  1   
 21  10  16  ar  
 22  10  24  1   
 23  11  16  ar  
 24  11  25  1   
 25  12  26  1   
 26  12  27  1   
 27  12  28  1   
 28  13  29  1   
 29  13  30  1   
 30  13  31  1   
 31  14  32  1   
 32  14  33  1   
 33  14  34  1   
 34  15  35  1   
 35  15  36  1   
 36  15  37  1   
 37  16  17  1   
 38  17  38  1   
 39  17  39  1   
 40  17  40  1   
@<TRIPOS>SUBSTRUCTURE
  1 ****   2 GROUP 4 **** **** 0

# MOE 2024.06 (io_trps.svl 2023.06)
