@<TRIPOS>MOLECULE
NONAME
42 43 1 0 0 
SMALL
USER_CHARGES


@<TRIPOS>ATOM
  1 BR       1.2550    -0.5660    -2.4480 Br    1 <1>  -0.1110 
  2 C        0.3650    -2.0660    -1.6200 C.ar  1 <1>   0.1110 
  3 C        1.0340    -2.8320    -0.6760 C.ar  1 <1>   0.0820 
  4 C       -0.9350    -2.3270    -2.0040 C.ar  1 <1>  -0.1500 
  5 O        2.3130    -2.4940    -0.3630 O.3   1 <1>  -0.3630 
  6 C        0.3560    -3.9030    -0.1010 C.ar  1 <1>  -0.1500 
  7 C       -1.6050    -3.3940    -1.4250 C.ar  1 <1>  -0.1430 
  8 C        3.0880    -3.2510     0.5400 C.3   1 <1>   0.0400 
  9 C       -0.9590    -4.1840    -0.4740 C.ar  1 <1>   0.0830 
 10 C       -3.0360    -3.6960    -1.8310 C.3   1 <1>   0.4870 
 11 O       -1.6730    -5.2110     0.0640 O.3   1 <1>  -0.3630 
 12 N       -3.9010    -3.5810    -0.6320 N.4   1 <1>  -0.9590 
 13 C       -1.0510    -6.2000     0.8620 C.3   1 <1>   0.0400 
 14 C       -5.2600    -4.1650    -0.8460 C.3   1 <1>   0.3430 
 15 C       -3.9460    -2.2080    -0.0650 C.3   1 <1>   0.3430 
 16 C       -6.2290    -3.8240     0.3060 C.3   1 <1>  -0.0800 
 17 C       -4.5220    -2.2670     1.3560 C.3   1 <1>  -0.1600 
 18 C       -5.4870    -3.4430     1.5990 C.3   1 <1>  -0.1600 
 19 C       -7.1870    -4.9940     0.5670 C.3   1 <1>  -0.2400 
 20 H       -1.3950    -1.6970    -2.7460 H     1 <1>   0.1500 
 21 H        0.8500    -4.5060     0.6320 H     1 <1>   0.1500 
 22 H        4.0620    -2.8000     0.6010 H     1 <1>   0.0800 
 23 H        3.1760    -4.2570     0.1690 H     1 <1>   0.0800 
 24 H        2.6190    -3.2330     1.5070 H     1 <1>   0.0800 
 25 H       -3.0810    -4.6990    -2.2220 H     1 <1>   0.0800 
 26 H       -3.3630    -3.0110    -2.5960 H     1 <1>   0.0800 
 27 H       -3.4180    -4.1640     0.0730 H     1 <1>   0.4500 
 28 H       -0.6990    -5.7500     1.7730 H     1 <1>   0.0800 
 29 H       -0.2360    -6.6370     0.3100 H     1 <1>   0.0800 
 30 H       -1.7790    -6.9590     1.0910 H     1 <1>   0.0800 
 31 H       -5.1690    -5.2370    -0.9230 H     1 <1>   0.0800 
 32 H       -5.6790    -3.8020    -1.7700 H     1 <1>   0.0800 
 33 H       -4.5720    -1.5860    -0.6830 H     1 <1>   0.0800 
 34 H       -2.9590    -1.7740    -0.0330 H     1 <1>   0.0800 
 35 H       -6.8230    -2.9800    -0.0020 H     1 <1>   0.0800 
 36 H       -5.0350    -1.3390     1.5410 H     1 <1>   0.0800 
 37 H       -3.7140    -2.3200     2.0650 H     1 <1>   0.0800 
 38 H       -4.9270    -4.2950     1.9490 H     1 <1>   0.0800 
 39 H       -6.1900    -3.1800     2.3720 H     1 <1>   0.0800 
 40 H       -6.6500    -5.8700     0.8870 H     1 <1>   0.0800 
 41 H       -7.7420    -5.2370    -0.3230 H     1 <1>   0.0800 
 42 H       -7.8940    -4.7320     1.3360 H     1 <1>   0.0800 
@<TRIPOS>BOND
  1   1   2  1   
  2   2   3  ar  
  3   2   4  ar  
  4   3   5  1   
  5   3   6  ar  
  6   4   7  ar  
  7   4  20  1   
  8   5   8  1   
  9   6   9  ar  
 10   6  21  1   
 11   7   9  ar  
 12   7  10  1   
 13   8  22  1   
 14   8  23  1   
 15   8  24  1   
 16   9  11  1   
 17  10  12  1   
 18  10  25  1   
 19  10  26  1   
 20  11  13  1   
 21  12  14  1   
 22  12  15  1   
 23  12  27  1   
 24  13  28  1   
 25  13  29  1   
 26  13  30  1   
 27  14  16  1   
 28  14  31  1   
 29  14  32  1   
 30  15  17  1   
 31  15  33  1   
 32  15  34  1   
 33  16  18  1   
 34  16  19  1   
 35  16  35  1   
 36  17  18  1   
 37  17  36  1   
 38  17  37  1   
 39  18  38  1   
 40  18  39  1   
 41  19  40  1   
 42  19  41  1   
 43  19  42  1   
@<TRIPOS>SUBSTRUCTURE
  1 ****   7 GROUP 4 **** **** 0

# MOE 2024.06 (io_trps.svl 2023.06)
