@<TRIPOS>MOLECULE
NONAME
48 49 1 0 0 
SMALL
USER_CHARGES


@<TRIPOS>ATOM
  1 S        0.3230    -0.0790     0.3630 S.o2  1 <1>   1.4470 
  2 O        0.3000     0.2150     1.7810 O.2   1 <1>  -0.6500 
  3 O       -0.8270     0.2570    -0.4480 O.2   1 <1>  -0.6500 
  4 N        1.6450     0.7610    -0.2850 N.am  1 <1>  -0.8490 
  5 C        0.7610    -1.8190     0.0860 C.ar  1 <1>  -0.0090 
  6 C        2.8730     0.5420     0.4980 C.3   1 <1>   0.1960 
  7 C        1.3530     2.1930    -0.3930 C.3   1 <1>   0.1960 
  8 C        0.8890    -2.3230    -1.2030 C.ar  1 <1>  -0.1500 
  9 C        0.9990    -2.6850     1.1480 C.ar  1 <1>  -0.1500 
 10 C        4.0770     1.1760    -0.2120 C.3   1 <1>  -0.0190 
 11 C        2.4970     2.9180    -1.1120 C.3   1 <1>  -0.1600 
 12 C        1.2440    -3.6420    -1.4250 C.ar  1 <1>  -0.1500 
 13 C        1.3540    -4.0060     0.9380 C.ar  1 <1>  -0.1500 
 14 C        5.3580     0.9100     0.5650 C.2   1 <1>   0.5690 
 15 C        3.8450     2.6830    -0.4160 C.3   1 <1>  -0.1600 
 16 C        1.4810    -4.4930    -0.3590 C.ar  1 <1>   0.0830 
 17 O        5.3270     0.8480     1.7700 O.2   1 <1>  -0.5700 
 18 N        6.5120     0.7500    -0.1260 N.am  1 <1>  -0.7300 
 19 O        1.8270    -5.7680    -0.6590 O.3   1 <1>  -0.3630 
 20 C        7.8270     0.5200     0.4830 C.3   1 <1>   0.2780 
 21 C        2.0690    -6.7230     0.3480 C.3   1 <1>   0.1200 
 22 C        8.8450     1.2370    -0.3760 C.2   1 <1>  -0.2880 
 23 C        2.4210    -8.0450    -0.3280 C.3   1 <1>  -0.2400 
 24 C        9.7990     0.6460    -1.1020 C.2   1 <1>  -0.3000 
 25 H        3.0560    -0.5130     0.6090 H     1 <1>   0.0800 
 26 H        2.7630     0.9670     1.4840 H     1 <1>   0.0800 
 27 H        1.2080     2.6120     0.5900 H     1 <1>   0.0800 
 28 H        0.4450     2.3380    -0.9560 H     1 <1>   0.0800 
 29 H        0.7090    -1.6710    -2.0410 H     1 <1>   0.1500 
 30 H        0.9040    -2.3190     2.1580 H     1 <1>   0.1500 
 31 H        4.1700     0.7020    -1.1720 H     1 <1>   0.0800 
 32 H        2.2850     3.9710    -1.1440 H     1 <1>   0.0800 
 33 H        2.5440     2.5620    -2.1270 H     1 <1>   0.0800 
 34 H        1.3390    -4.0210    -2.4270 H     1 <1>   0.1500 
 35 H        1.5280    -4.6360     1.7900 H     1 <1>   0.1500 
 36 H        4.6420     3.1060    -1.0030 H     1 <1>   0.0800 
 37 H        3.8410     3.1740     0.5440 H     1 <1>   0.0800 
 38 H        6.5290     0.8100    -1.1440 H     1 <1>   0.3700 
 39 H        8.0280    -0.5380     0.5070 H     1 <1>   0.0800 
 40 H        7.8480     0.9000     1.4920 H     1 <1>   0.0800 
 41 H        1.1760    -6.8250     0.9410 H     1 <1>   0.0800 
 42 H        2.8860    -6.3770     0.9560 H     1 <1>   0.0800 
 43 H        8.7200     2.3060    -0.3420 H     1 <1>   0.1500 
 44 H        1.6040    -8.3730    -0.9460 H     1 <1>   0.0800 
 45 H        2.6110    -8.7960     0.4170 H     1 <1>   0.0800 
 46 H        3.3030    -7.9280    -0.9310 H     1 <1>   0.0800 
 47 H       10.5130     1.1830    -1.7040 H     1 <1>   0.1500 
 48 H        9.9510    -0.4190    -1.1570 H     1 <1>   0.1500 
@<TRIPOS>BOND
  1   1   2  2   
  2   1   3  2   
  3   1   4  am  
  4   1   5  1   
  5   4   6  1   
  6   4   7  1   
  7   5   8  ar  
  8   5   9  ar  
  9   6  10  1   
 10   6  25  1   
 11   6  26  1   
 12   7  11  1   
 13   7  27  1   
 14   7  28  1   
 15   8  12  ar  
 16   8  29  1   
 17   9  13  ar  
 18   9  30  1   
 19  10  14  1   
 20  10  15  1   
 21  10  31  1   
 22  11  15  1   
 23  11  32  1   
 24  11  33  1   
 25  12  16  ar  
 26  12  34  1   
 27  13  16  ar  
 28  13  35  1   
 29  14  17  2   
 30  14  18  am  
 31  15  36  1   
 32  15  37  1   
 33  16  19  1   
 34  18  20  1   
 35  18  38  1   
 36  19  21  1   
 37  20  22  1   
 38  20  39  1   
 39  20  40  1   
 40  21  23  1   
 41  21  41  1   
 42  21  42  1   
 43  22  24  2   
 44  22  43  1   
 45  23  44  1   
 46  23  45  1   
 47  23  46  1   
 48  24  47  1   
 49  24  48  1   
@<TRIPOS>SUBSTRUCTURE
  1 ****   6 GROUP 4 **** **** 0

# MOE 2024.06 (io_trps.svl 2023.06)
