@<TRIPOS>MOLECULE
NONAME
52 54 1 0 0 
SMALL
USER_CHARGES


@<TRIPOS>ATOM
  1 O       -2.1410     0.7220     0.1250 O.3   1 <1>  -0.3630 
  2 C       -1.2280     1.6700    -0.2470 C.ar  1 <1>   0.0820 
  3 C       -1.7090    -0.5510     0.5710 C.3   1 <1>   0.0400 
  4 C       -0.0120     1.8960     0.4190 C.ar  1 <1>   0.0820 
  5 C       -1.5680     2.4520    -1.3470 C.ar  1 <1>  -0.1440 
  6 O        0.2830     1.1790     1.5410 O.3   1 <1>  -0.3620 
  7 C        0.8550     2.8710    -0.0680 C.ar  1 <1>  -0.1500 
  8 C       -0.6930     3.4200    -1.8130 C.ar  1 <1>  -0.1500 
  9 C       -2.9050     2.2550    -2.0360 C.3   1 <1>   0.4860 
 10 C        1.4740     1.3760     2.2730 C.3   1 <1>   0.0400 
 11 C        0.5170     3.6230    -1.1780 C.ar  1 <1>  -0.1500 
 12 N       -3.9810     2.4960    -1.0420 N.4   1 <1>  -0.9590 
 13 C       -5.3100     2.0390    -1.5210 C.3   1 <1>   0.3430 
 14 C       -3.9880     3.8960    -0.5370 C.3   1 <1>   0.3430 
 15 C       -6.3190     2.1290    -0.3780 C.3   1 <1>  -0.1600 
 16 C       -4.9790     4.0130     0.6220 C.3   1 <1>  -0.1600 
 17 C       -6.3880     3.5470     0.2190 C.3   1 <1>  -0.0800 
 18 C       -7.3500     3.6190     1.4200 C.3   1 <1>  -0.0170 
 19 C       -8.7600     3.1980     1.0320 C.ar  1 <1>  -0.1430 
 20 C       -9.5640     4.0540     0.2950 C.ar  1 <1>  -0.1500 
 21 C       -9.2520     1.9570     1.4060 C.ar  1 <1>  -0.1500 
 22 C      -10.8420     3.6690    -0.0740 C.ar  1 <1>  -0.1500 
 23 C      -10.5300     1.5710     1.0380 C.ar  1 <1>  -0.1500 
 24 C      -11.3240     2.4260     0.2960 C.ar  1 <1>  -0.1500 
 25 H       -1.5040    -0.5000     1.6250 H     1 <1>   0.0800 
 26 H       -0.8250    -0.8380     0.0280 H     1 <1>   0.0800 
 27 H       -2.4970    -1.2600     0.3920 H     1 <1>   0.0800 
 28 H        1.8000     3.0670     0.4010 H     1 <1>   0.1500 
 29 H       -0.9360     4.0240    -2.6720 H     1 <1>   0.1500 
 30 H       -2.9620     1.2430    -2.4020 H     1 <1>   0.0800 
 31 H       -3.0040     2.9320    -2.8690 H     1 <1>   0.0800 
 32 H        1.5050     2.3920     2.6260 H     1 <1>   0.0800 
 33 H        2.3160     1.1600     1.6390 H     1 <1>   0.0800 
 34 H        1.4680     0.7010     3.1100 H     1 <1>   0.0800 
 35 H        1.2000     4.3720    -1.5440 H     1 <1>   0.1500 
 36 H       -3.7000     1.8950    -0.2470 H     1 <1>   0.4500 
 37 H       -5.2500     1.0190    -1.8660 H     1 <1>   0.0800 
 38 H       -5.6380     2.6590    -2.3390 H     1 <1>   0.0800 
 39 H       -4.2750     4.5700    -1.3280 H     1 <1>   0.0800 
 40 H       -3.0040     4.1710    -0.1920 H     1 <1>   0.0800 
 41 H       -6.0570     1.4160     0.3850 H     1 <1>   0.0800 
 42 H       -7.2840     1.8480    -0.7610 H     1 <1>   0.0800 
 43 H       -5.0160     5.0400     0.9410 H     1 <1>   0.0800 
 44 H       -4.6160     3.4310     1.4520 H     1 <1>   0.0800 
 45 H       -6.7600     4.2150    -0.5410 H     1 <1>   0.0800 
 46 H       -7.3840     4.6260     1.7990 H     1 <1>   0.0800 
 47 H       -6.9920     2.9900     2.2170 H     1 <1>   0.0800 
 48 H       -9.2030     5.0240     0.0040 H     1 <1>   0.1500 
 49 H       -8.6470     1.2820     1.9860 H     1 <1>   0.1500 
 50 H      -11.4620     4.3370    -0.6470 H     1 <1>   0.1500 
 51 H      -10.9070     0.6070     1.3300 H     1 <1>   0.1500 
 52 H      -12.3180     2.1270     0.0100 H     1 <1>   0.1500 
@<TRIPOS>BOND
  1   1   2  1   
  2   1   3  1   
  3   2   4  ar  
  4   2   5  ar  
  5   3  25  1   
  6   3  26  1   
  7   3  27  1   
  8   4   6  1   
  9   4   7  ar  
 10   5   8  ar  
 11   5   9  1   
 12   6  10  1   
 13   7  11  ar  
 14   7  28  1   
 15   8  11  ar  
 16   8  29  1   
 17   9  12  1   
 18   9  30  1   
 19   9  31  1   
 20  10  32  1   
 21  10  33  1   
 22  10  34  1   
 23  11  35  1   
 24  12  13  1   
 25  12  14  1   
 26  12  36  1   
 27  13  15  1   
 28  13  37  1   
 29  13  38  1   
 30  14  16  1   
 31  14  39  1   
 32  14  40  1   
 33  15  17  1   
 34  15  41  1   
 35  15  42  1   
 36  16  17  1   
 37  16  43  1   
 38  16  44  1   
 39  17  18  1   
 40  17  45  1   
 41  18  19  1   
 42  18  46  1   
 43  18  47  1   
 44  19  20  ar  
 45  19  21  ar  
 46  20  22  ar  
 47  20  48  1   
 48  21  23  ar  
 49  21  49  1   
 50  22  24  ar  
 51  22  50  1   
 52  23  24  ar  
 53  23  51  1   
 54  24  52  1   
@<TRIPOS>SUBSTRUCTURE
  1 ****  12 GROUP 4 **** **** 0

# MOE 2024.06 (io_trps.svl 2023.06)
