@<TRIPOS>MOLECULE
NONAME
38 39 1 0 0 
SMALL
USER_CHARGES


@<TRIPOS>ATOM
  1 O        0.4870     0.8130    -0.3310 O.2   1 <1>  -0.5700 
  2 C        0.0830     1.4780     0.6020 C.2   1 <1>   0.6900 
  3 N       -1.2280     1.8170     0.7430 N.am  1 <1>  -0.5470 
  4 N        0.9460     1.9290     1.5440 N.am  1 <1>  -0.7300 
  5 C       -2.3640     1.4340     0.0090 C.ar  1 <1>   0.1170 
  6 C        2.4080     1.6330     1.5560 C.3   1 <1>   0.1400 
  7 C       -3.4570     2.3030    -0.1040 C.ar  1 <1>  -0.1430 
  8 C       -2.4310     0.1790    -0.5900 C.ar  1 <1>  -0.1500 
  9 C        3.1480     2.2750     0.3710 C.3   1 <1>   0.2000 
 10 C       -4.5810     1.8860    -0.8070 C.ar  1 <1>  -0.1500 
 11 C       -3.3840     3.6920     0.5470 C.3   1 <1>  -0.0170 
 12 C       -3.5520    -0.2200    -1.2890 C.ar  1 <1>  -0.1500 
 13 O        4.5180     2.1880     0.5870 O.3   1 <1>  -0.5600 
 14 C        2.9030     3.7680     0.1830 C.3   1 <1>  -0.1600 
 15 C       -4.6310     0.6350    -1.3970 C.ar  1 <1>  -0.1500 
 16 C       -4.5550     4.6370     0.2510 C.3   1 <1>  -0.2400 
 17 C        5.1780     3.1050    -0.2240 C.3   1 <1>   0.1200 
 18 C        4.2000     4.2570    -0.4430 C.3   1 <1>  -0.1600 
 19 H       -1.3890     2.5590     1.4110 H     1 <1>   0.3700 
 20 H        0.5720     2.2960     2.4160 H     1 <1>   0.3700 
 21 H        2.5510     0.5670     1.5170 H     1 <1>   0.0800 
 22 H        2.8310     2.0060     2.4720 H     1 <1>   0.0800 
 23 H       -1.6000    -0.4960    -0.5070 H     1 <1>   0.1500 
 24 H        2.9290     1.7390    -0.5380 H     1 <1>   0.0800 
 25 H       -5.4410     2.5190    -0.9160 H     1 <1>   0.1500 
 26 H       -2.4820     4.1750     0.2110 H     1 <1>   0.0800 
 27 H       -3.3150     3.5670     1.6130 H     1 <1>   0.0800 
 28 H       -3.5830    -1.1930    -1.7480 H     1 <1>   0.1500 
 29 H        2.7510     4.2360     1.1390 H     1 <1>   0.0800 
 30 H        2.0460     3.9460    -0.4420 H     1 <1>   0.0800 
 31 H       -5.5080     0.3290    -1.9400 H     1 <1>   0.1500 
 32 H       -4.6530     4.7910    -0.8100 H     1 <1>   0.0800 
 33 H       -4.3820     5.5900     0.7170 H     1 <1>   0.0800 
 34 H       -5.4730     4.2330     0.6380 H     1 <1>   0.0800 
 35 H        5.4200     2.6160    -1.1520 H     1 <1>   0.0800 
 36 H        6.0790     3.4200     0.2750 H     1 <1>   0.0800 
 37 H        4.5510     5.1560     0.0320 H     1 <1>   0.0800 
 38 H        4.0820     4.4390    -1.4970 H     1 <1>   0.0800 
@<TRIPOS>BOND
  1   1   2  2   
  2   2   3  am  
  3   2   4  am  
  4   3   5  1   
  5   3  19  1   
  6   4   6  1   
  7   4  20  1   
  8   5   7  ar  
  9   5   8  ar  
 10   6   9  1   
 11   6  21  1   
 12   6  22  1   
 13   7  10  ar  
 14   7  11  1   
 15   8  12  ar  
 16   8  23  1   
 17   9  13  1   
 18   9  14  1   
 19   9  24  1   
 20  10  15  ar  
 21  10  25  1   
 22  11  16  1   
 23  11  26  1   
 24  11  27  1   
 25  12  15  ar  
 26  12  28  1   
 27  13  17  1   
 28  14  18  1   
 29  14  29  1   
 30  14  30  1   
 31  15  31  1   
 32  16  32  1   
 33  16  33  1   
 34  16  34  1   
 35  17  18  1   
 36  17  35  1   
 37  17  36  1   
 38  18  37  1   
 39  18  38  1   
@<TRIPOS>SUBSTRUCTURE
  1 ****   2 GROUP 4 **** **** 0

# MOE 2024.06 (io_trps.svl 2023.06)
