@<TRIPOS>MOLECULE
NONAME
29 29 1 0 0 
SMALL
USER_CHARGES


@<TRIPOS>ATOM
  1 BR      -1.7590    -1.6010     1.5100 Br    1 <1>  -0.1110 
  2 C       -2.5920     0.0820     1.0900 C.ar  1 <1>   0.1110 
  3 C       -3.4740     0.1390     0.0310 C.ar  1 <1>  -0.1500 
  4 C       -2.2830     1.1870     1.8610 C.ar  1 <1>  -0.1500 
  5 C       -4.0810     1.3490    -0.2750 C.ar  1 <1>   0.1990 
  6 C       -2.8870     2.3940     1.5530 C.ar  1 <1>  -0.1500 
  7 N       -4.9660     1.4220    -1.3370 N.am  1 <1>  -0.7570 
  8 C       -3.7770     2.4700     0.4930 C.ar  1 <1>  -0.1500 
  9 S       -6.6420     1.7350    -1.1660 S.o2  1 <1>   1.3330 
 10 O       -6.7710     2.8230    -0.2300 O.2   1 <1>  -0.6500 
 11 O       -7.1070     1.8730    -2.5230 O.2   1 <1>  -0.6500 
 12 C       -7.2560     0.2030    -0.4640 C.3   1 <1>  -0.0550 
 13 C       -8.7770     0.1940    -0.2370 C.3   1 <1>  -0.1600 
 14 C       -9.2420    -1.1370     0.3640 C.3   1 <1>  -0.1600 
 15 C      -10.7570    -1.1370     0.5860 C.3   1 <1>  -0.2400 
 16 H       -3.6870    -0.7380    -0.5500 H     1 <1>   0.1500 
 17 H       -1.5900     1.1030     2.6790 H     1 <1>   0.1500 
 18 H       -2.6680     3.2720     2.1360 H     1 <1>   0.1500 
 19 H       -4.6420     1.9390    -2.1500 H     1 <1>   0.4200 
 20 H       -4.2480     3.4100     0.2610 H     1 <1>   0.1500 
 21 H       -6.7660     0.0320     0.4750 H     1 <1>   0.0800 
 22 H       -6.9990    -0.6060    -1.1200 H     1 <1>   0.0800 
 23 H       -9.2750     0.3610    -1.1780 H     1 <1>   0.0800 
 24 H       -9.0390     1.0030     0.4250 H     1 <1>   0.0800 
 25 H       -8.7480    -1.3040     1.3060 H     1 <1>   0.0800 
 26 H       -8.9840    -1.9460    -0.2980 H     1 <1>   0.0800 
 27 H      -11.0390    -0.3490     1.2630 H     1 <1>   0.0800 
 28 H      -11.0680    -2.0760     1.0080 H     1 <1>   0.0800 
 29 H      -11.2750    -0.9940    -0.3460 H     1 <1>   0.0800 
@<TRIPOS>BOND
  1   1   2  1   
  2   2   3  ar  
  3   2   4  ar  
  4   3   5  ar  
  5   3  16  1   
  6   4   6  ar  
  7   4  17  1   
  8   5   7  1   
  9   5   8  ar  
 10   6   8  ar  
 11   6  18  1   
 12   7   9  am  
 13   7  19  1   
 14   8  20  1   
 15   9  10  2   
 16   9  11  2   
 17   9  12  1   
 18  12  13  1   
 19  12  21  1   
 20  12  22  1   
 21  13  14  1   
 22  13  23  1   
 23  13  24  1   
 24  14  15  1   
 25  14  25  1   
 26  14  26  1   
 27  15  27  1   
 28  15  28  1   
 29  15  29  1   
@<TRIPOS>SUBSTRUCTURE
  1 ****   5 GROUP 4 **** **** 0

# MOE 2024.06 (io_trps.svl 2023.06)
