@<TRIPOS>MOLECULE
NONAME
39 40 1 0 0 
SMALL
USER_CHARGES


@<TRIPOS>ATOM
  1 F        1.8770    -0.4690    -1.7060 F     1 <1>  -0.3400 
  2 C        2.3030    -1.5610    -1.0870 C.3   1 <1>   1.1580 
  3 F        3.5410    -1.2980    -0.6880 F     1 <1>  -0.3400 
  4 F        2.4080    -2.5060    -2.0100 F     1 <1>  -0.3400 
  5 C        1.3810    -1.9750     0.0680 C.2   1 <1>  -0.1670 
  6 C       -0.0030    -2.2910    -0.1840 C.ar  1 <1>   0.0280 
  7 C        1.8280    -2.0550     1.3480 C.2   1 <1>  -0.1360 
  8 C       -0.8050    -2.6580     0.9120 C.ar  1 <1>   0.0830 
  9 C       -0.6260    -2.2620    -1.4380 C.ar  1 <1>  -0.1500 
 10 C        0.9820    -2.4370     2.4290 C.2   1 <1>   0.7060 
 11 O       -0.2910    -2.7160     2.1590 O.3   1 <1>  -0.2320 
 12 C       -2.1460    -2.9740     0.7630 C.ar  1 <1>  -0.1500 
 13 C       -1.9610    -2.5800    -1.5860 C.ar  1 <1>  -0.1500 
 14 O        1.3630    -2.5210     3.5760 O.2   1 <1>  -0.5700 
 15 C       -2.7340    -2.9410    -0.4920 C.ar  1 <1>   0.0830 
 16 O       -4.0290    -3.2420    -0.7390 O.3   1 <1>  -0.3630 
 17 C       -4.9320    -3.7150     0.2550 C.3   1 <1>   0.2610 
 18 C       -5.9940    -4.6240    -0.4010 C.2   1 <1>   0.6590 
 19 C       -5.5000    -2.4900     1.0060 C.3   1 <1>  -0.1600 
 20 O       -7.1500    -4.2950    -0.4850 O.2   1 <1>  -0.5700 
 21 O       -5.6320    -5.8240    -0.8540 O.3   1 <1>  -0.4300 
 22 C       -6.2230    -2.8760     2.3060 C.3   1 <1>  -0.2400 
 23 C       -4.3080    -6.2360    -1.1070 C.3   1 <1>   0.1200 
 24 C       -4.3570    -7.6660    -1.6330 C.3   1 <1>  -0.2400 
 25 H        2.8420    -1.8390     1.6350 H     1 <1>   0.1500 
 26 H       -0.0790    -1.9900    -2.3230 H     1 <1>   0.1500 
 27 H       -2.6980    -3.2330     1.6460 H     1 <1>   0.1500 
 28 H       -2.4220    -2.5510    -2.5580 H     1 <1>   0.1500 
 29 H       -4.3820    -4.3290     0.9420 H     1 <1>   0.0800 
 30 H       -6.1860    -1.9670     0.3620 H     1 <1>   0.0800 
 31 H       -4.7010    -1.8150     1.2550 H     1 <1>   0.0800 
 32 H       -7.0680    -3.5100     2.0990 H     1 <1>   0.0800 
 33 H       -6.5840    -1.9900     2.7980 H     1 <1>   0.0800 
 34 H       -5.5570    -3.3900     2.9760 H     1 <1>   0.0800 
 35 H       -3.7430    -6.1900    -0.1920 H     1 <1>   0.0800 
 36 H       -3.8780    -5.5780    -1.8430 H     1 <1>   0.0800 
 37 H       -4.8040    -8.3160    -0.9020 H     1 <1>   0.0800 
 38 H       -3.3620    -8.0150    -1.8400 H     1 <1>   0.0800 
 39 H       -4.9290    -7.7050    -2.5430 H     1 <1>   0.0800 
@<TRIPOS>BOND
  1   1   2  1   
  2   2   3  1   
  3   2   4  1   
  4   2   5  1   
  5   5   6  1   
  6   5   7  2   
  7   6   8  ar  
  8   6   9  ar  
  9   7  10  1   
 10   7  25  1   
 11   8  11  1   
 12   8  12  ar  
 13   9  13  ar  
 14   9  26  1   
 15  10  11  1   
 16  10  14  2   
 17  12  15  ar  
 18  12  27  1   
 19  13  15  ar  
 20  13  28  1   
 21  15  16  1   
 22  16  17  1   
 23  17  18  1   
 24  17  19  1   
 25  17  29  1   
 26  18  20  2   
 27  18  21  1   
 28  19  22  1   
 29  19  30  1   
 30  19  31  1   
 31  21  23  1   
 32  22  32  1   
 33  22  33  1   
 34  22  34  1   
 35  23  24  1   
 36  23  35  1   
 37  23  36  1   
 38  24  37  1   
 39  24  38  1   
 40  24  39  1   
@<TRIPOS>SUBSTRUCTURE
  1 ****  12 GROUP 4 **** **** 0

# MOE 2024.06 (io_trps.svl 2023.06)
