@<TRIPOS>MOLECULE
NONAME
38 40 1 0 0 
SMALL
USER_CHARGES


@<TRIPOS>ATOM
  1 F        1.6010    -0.1950     1.8510 F     1 <1>  -0.1900 
  2 C        2.2430    -0.9210     0.9740 C.ar  1 <1>   0.1900 
  3 C        1.7140    -2.1200     0.5270 C.ar  1 <1>   0.1900 
  4 C        3.4630    -0.4660     0.5070 C.ar  1 <1>  -0.1500 
  5 F        0.5610    -2.5440     0.9750 F     1 <1>  -0.1900 
  6 C        2.3950    -2.8870    -0.3980 C.ar  1 <1>  -0.1500 
  7 C        4.1630    -1.2340    -0.4190 C.ar  1 <1>  -0.1440 
  8 C        3.6220    -2.4380    -0.8690 C.ar  1 <1>  -0.1500 
  9 C        5.5100    -0.7600    -0.9390 C.3   1 <1>   0.4870 
 10 N        6.5290    -0.9400     0.1280 N.4   1 <1>  -0.9590 
 11 C        7.8380    -0.2770    -0.2470 C.3   1 <1>   0.3430 
 12 C        6.7240    -2.4060     0.4640 C.3   1 <1>   0.3430 
 13 C        8.9560    -0.5170     0.7920 C.3   1 <1>   0.2090 
 14 C        7.8360    -2.6290     1.5090 C.3   1 <1>   0.2090 
 15 N        9.0950    -1.9780     1.0450 N.pl3 1 <1>  -0.8380 
 16 C       10.0140    -2.6880     0.3070 C.ar  1 <1>   0.7200 
 17 N       11.2370    -2.1790     0.2380 N.ar  1 <1>  -0.6200 
 18 N        9.5730    -3.7890    -0.2990 N.ar  1 <1>  -0.6200 
 19 C       12.1090    -2.8690    -0.4570 C.ar  1 <1>   0.1600 
 20 C       10.4690    -4.4580    -0.9870 C.ar  1 <1>   0.1600 
 21 C       11.7710    -4.0360    -1.0970 C.ar  1 <1>  -0.1500 
 22 H        3.8350     0.4760     0.8710 H     1 <1>   0.1500 
 23 H        1.9680    -3.8150    -0.7410 H     1 <1>   0.1500 
 24 H        4.1440    -3.0400    -1.5950 H     1 <1>   0.1500 
 25 H        5.4370     0.2800    -1.2120 H     1 <1>   0.0800 
 26 H        5.7870    -1.3230    -1.8160 H     1 <1>   0.0800 
 27 H        6.1720    -0.4860     0.9770 H     1 <1>   0.4500 
 28 H        7.6940     0.7840    -0.3650 H     1 <1>   0.0800 
 29 H        8.1820    -0.6710    -1.1900 H     1 <1>   0.0800 
 30 H        6.9990    -2.9490    -0.4250 H     1 <1>   0.0800 
 31 H        5.8040    -2.8250     0.8370 H     1 <1>   0.0800 
 32 H        8.7240    -0.0140     1.7140 H     1 <1>   0.0800 
 33 H        9.8790    -0.1030     0.4230 H     1 <1>   0.0800 
 34 H        7.9930    -3.6850     1.6570 H     1 <1>   0.0800 
 35 H        7.5440    -2.2130     2.4570 H     1 <1>   0.0800 
 36 H       13.1180    -2.4940    -0.5170 H     1 <1>   0.1500 
 37 H       10.1600    -5.3670    -1.4770 H     1 <1>   0.1500 
 38 H       12.4960    -4.5940    -1.6600 H     1 <1>   0.1500 
@<TRIPOS>BOND
  1   1   2  1   
  2   2   3  ar  
  3   2   4  ar  
  4   3   5  1   
  5   3   6  ar  
  6   4   7  ar  
  7   4  22  1   
  8   6   8  ar  
  9   6  23  1   
 10   7   8  ar  
 11   7   9  1   
 12   8  24  1   
 13   9  10  1   
 14   9  25  1   
 15   9  26  1   
 16  10  11  1   
 17  10  12  1   
 18  10  27  1   
 19  11  13  1   
 20  11  28  1   
 21  11  29  1   
 22  12  14  1   
 23  12  30  1   
 24  12  31  1   
 25  13  15  1   
 26  13  32  1   
 27  13  33  1   
 28  14  15  1   
 29  14  34  1   
 30  14  35  1   
 31  15  16  1   
 32  16  17  ar  
 33  16  18  ar  
 34  17  19  ar  
 35  18  20  ar  
 36  19  21  ar  
 37  19  36  1   
 38  20  21  ar  
 39  20  37  1   
 40  21  38  1   
@<TRIPOS>SUBSTRUCTURE
  1 ****  12 GROUP 4 **** **** 0

# MOE 2024.06 (io_trps.svl 2023.06)
