@<TRIPOS>MOLECULE
NONAME
48 51 1 0 0 
SMALL
USER_CHARGES


@<TRIPOS>ATOM
  1 CL       2.7870    -0.3950     3.5700 Cl    1 <1>  -0.1770 
  2 C        3.0290    -0.8000     1.8890 C.ar  1 <1>   0.1770 
  3 C        4.1840    -0.3930     1.2560 C.ar  1 <1>  -0.1500 
  4 C        2.0590    -1.5220     1.2220 C.ar  1 <1>  -0.1500 
  5 C        4.3900    -0.7070    -0.0820 C.ar  1 <1>   0.1000 
  6 C        2.2570    -1.8400    -0.1110 C.ar  1 <1>  -0.1500 
  7 N        5.5550    -0.2950    -0.7260 N.pl3 1 <1>  -0.8380 
  8 C        3.4130    -1.4380    -0.7640 C.ar  1 <1>  -0.1430 
  9 C        6.8350    -0.9810    -0.3850 C.3   1 <1>   0.2090 
 10 C        5.6990     1.1470    -1.0800 C.3   1 <1>   0.2090 
 11 C        3.6110    -1.7980    -2.2290 C.3   1 <1>  -0.0970 
 12 C        7.7100    -0.1450     0.5690 C.3   1 <1>   0.1100 
 13 C        6.6160     1.9040    -0.0980 C.3   1 <1>   0.1100 
 14 N        7.9270     1.2390     0.0750 N.3   1 <1>  -0.8100 
 15 C        8.7790     1.9960     1.0150 C.3   1 <1>   0.2900 
 16 C       10.2080     1.4840     0.9520 C.2   1 <1>   0.0060 
 17 N       10.7490     1.1060    -0.2330 N.pl3 1 <1>   0.0330 
 18 N       11.0080     1.3450     1.9570 N.2   1 <1>  -0.5650 
 19 C       11.9870     0.6880     0.0620 C.2   1 <1>  -0.0880 
 20 C       12.1550     0.8360     1.4090 C.2   1 <1>   0.1410 
 21 N       12.9930     0.1690    -0.7630 N.am  1 <1>  -0.4240 
 22 C       13.4120     0.4550     2.0010 C.2   1 <1>   0.7160 
 23 C       14.2030    -0.1950    -0.1830 C.2   1 <1>   0.6900 
 24 C       12.7650     0.0320    -2.2260 C.3   1 <1>   0.0600 
 25 O       13.6950     0.5320     3.1830 O.2   1 <1>  -0.5700 
 26 N       14.3700    -0.0410     1.1610 N.am  1 <1>  -0.4900 
 27 O       15.1230    -0.6500    -0.8310 O.2   1 <1>  -0.5700 
 28 H        4.9190     0.1660     1.7980 H     1 <1>   0.1500 
 29 H        1.1680    -1.8290     1.7380 H     1 <1>   0.1500 
 30 H        1.5050    -2.4030    -0.6360 H     1 <1>   0.1500 
 31 H        7.3820    -1.1650    -1.2930 H     1 <1>   0.0800 
 32 H        6.6210    -1.9330     0.0690 H     1 <1>   0.0800 
 33 H        4.7270     1.6100    -1.0900 H     1 <1>   0.0800 
 34 H        6.1070     1.2210    -2.0720 H     1 <1>   0.0800 
 35 H        3.7080    -0.9000    -2.8120 H     1 <1>   0.0800 
 36 H        2.7830    -2.3680    -2.6080 H     1 <1>   0.0800 
 37 H        4.5090    -2.3770    -2.3410 H     1 <1>   0.0800 
 38 H        8.6550    -0.6450     0.6850 H     1 <1>   0.0800 
 39 H        7.2370    -0.1190     1.5360 H     1 <1>   0.0800 
 40 H        6.1160     1.9820     0.8520 H     1 <1>   0.0800 
 41 H        6.7680     2.9000    -0.4740 H     1 <1>   0.0800 
 42 H        8.4050     1.9100     2.0220 H     1 <1>   0.0800 
 43 H        8.7840     3.0370     0.7430 H     1 <1>   0.0800 
 44 H       10.2450     1.1010    -1.1230 H     1 <1>   0.2700 
 45 H       11.8470    -0.4990    -2.4020 H     1 <1>   0.0800 
 46 H       13.5690    -0.5130    -2.6890 H     1 <1>   0.0800 
 47 H       12.7070     1.0090    -2.6740 H     1 <1>   0.0800 
 48 H       15.2580    -0.3090     1.5650 H     1 <1>   0.3700 
@<TRIPOS>BOND
  1   1   2  1   
  2   2   3  ar  
  3   2   4  ar  
  4   3   5  ar  
  5   3  28  1   
  6   4   6  ar  
  7   4  29  1   
  8   5   7  1   
  9   5   8  ar  
 10   6   8  ar  
 11   6  30  1   
 12   7   9  1   
 13   7  10  1   
 14   8  11  1   
 15   9  12  1   
 16   9  31  1   
 17   9  32  1   
 18  10  13  1   
 19  10  33  1   
 20  10  34  1   
 21  11  35  1   
 22  11  36  1   
 23  11  37  1   
 24  12  14  1   
 25  12  38  1   
 26  12  39  1   
 27  13  14  1   
 28  13  40  1   
 29  13  41  1   
 30  14  15  1   
 31  15  16  1   
 32  15  42  1   
 33  15  43  1   
 34  16  17  1   
 35  16  18  2   
 36  17  19  1   
 37  17  44  1   
 38  18  20  1   
 39  19  20  2   
 40  19  21  1   
 41  20  22  1   
 42  21  23  am  
 43  21  24  1   
 44  22  25  2   
 45  22  26  am  
 46  23  26  am  
 47  23  27  2   
 48  24  45  1   
 49  24  46  1   
 50  24  47  1   
 51  26  48  1   
@<TRIPOS>SUBSTRUCTURE
  1 ****  12 GROUP 4 **** **** 0

# MOE 2024.06 (io_trps.svl 2023.06)
