@<TRIPOS>MOLECULE
NONAME
30 30 1 0 0 
SMALL
USER_CHARGES


@<TRIPOS>ATOM
  1 F        0.3520    -1.2920     0.6640 F     1 <1>  -0.3400 
  2 C       -0.9100    -1.3380     0.2470 C.3   1 <1>   1.0200 
  3 F       -1.5290    -0.3590     0.9050 F     1 <1>  -0.3400 
  4 F       -0.8890    -0.9540    -1.0270 F     1 <1>  -0.3400 
  5 C       -1.5980    -2.7550     0.4390 C.3   1 <1>   0.4240 
  6 O       -1.5110    -3.2220     1.7590 O.3   1 <1>  -0.6800 
  7 C       -3.1230    -2.6670     0.1710 C.ar  1 <1>  -0.1440 
  8 C       -0.9320    -3.8570    -0.4170 C.3   1 <1>  -0.0990 
  9 C       -3.9570    -2.1000     1.1340 C.ar  1 <1>  -0.1500 
 10 C       -3.7150    -3.1250    -1.0060 C.ar  1 <1>  -0.1500 
 11 C        0.5480    -4.0670    -0.1560 C.2   1 <1>   0.4480 
 12 C       -5.3240    -2.0110     0.9420 C.ar  1 <1>  -0.1500 
 13 C       -5.0830    -3.0360    -1.1990 C.ar  1 <1>  -0.1500 
 14 O        1.3410    -3.6840    -0.9610 O.2   1 <1>  -0.5700 
 15 C        0.9790    -4.7950     1.1140 C.3   1 <1>  -0.0990 
 16 C       -5.8900    -2.4820    -0.2260 C.ar  1 <1>  -0.1500 
 17 C        2.2830    -5.5930     0.9520 C.3   1 <1>  -0.2400 
 18 H       -2.3860    -3.5860     2.0080 H     1 <1>   0.4000 
 19 H       -1.0150    -3.5880    -1.4540 H     1 <1>   0.0800 
 20 H       -1.4500    -4.7890    -0.2860 H     1 <1>   0.0800 
 21 H       -3.5520    -1.7060     2.0530 H     1 <1>   0.1500 
 22 H       -3.1420    -3.5570    -1.8050 H     1 <1>   0.1500 
 23 H       -5.9470    -1.5700     1.7010 H     1 <1>   0.1500 
 24 H       -5.5220    -3.3980    -2.1140 H     1 <1>   0.1500 
 25 H        0.1990    -5.4690     1.4180 H     1 <1>   0.0800 
 26 H        1.1080    -4.0660     1.8940 H     1 <1>   0.0800 
 27 H       -6.9540    -2.4140    -0.3780 H     1 <1>   0.1500 
 28 H        2.1780    -6.3260     0.1710 H     1 <1>   0.0800 
 29 H        2.5300    -6.0940     1.8700 H     1 <1>   0.0800 
 30 H        3.0920    -4.9310     0.6920 H     1 <1>   0.0800 
@<TRIPOS>BOND
  1   1   2  1   
  2   2   3  1   
  3   2   4  1   
  4   2   5  1   
  5   5   6  1   
  6   5   7  1   
  7   5   8  1   
  8   6  18  1   
  9   7   9  ar  
 10   7  10  ar  
 11   8  11  1   
 12   8  19  1   
 13   8  20  1   
 14   9  12  ar  
 15   9  21  1   
 16  10  13  ar  
 17  10  22  1   
 18  11  14  2   
 19  11  15  1   
 20  12  16  ar  
 21  12  23  1   
 22  13  16  ar  
 23  13  24  1   
 24  15  17  1   
 25  15  25  1   
 26  15  26  1   
 27  16  27  1   
 28  17  28  1   
 29  17  29  1   
 30  17  30  1   
@<TRIPOS>SUBSTRUCTURE
  1 ****   5 GROUP 4 **** **** 0

# MOE 2024.06 (io_trps.svl 2023.06)
