@<TRIPOS>MOLECULE
NONAME
33 34 1 0 0 
SMALL
USER_CHARGES


@<TRIPOS>ATOM
  1 BR       1.2130    -1.2360    -3.0830 Br    1 <1>  -0.1110 
  2 C        0.4420    -2.1860    -1.6000 C.ar  1 <1>   0.1110 
  3 C       -0.7680    -2.8270    -1.7780 C.ar  1 <1>  -0.1500 
  4 C        1.1220    -2.1990    -0.3960 C.ar  1 <1>  -0.1500 
  5 C       -1.3490    -3.5170    -0.7140 C.ar  1 <1>   0.0860 
  6 C        0.5600    -2.8870     0.6660 C.ar  1 <1>  -0.1500 
  7 C       -0.6550    -3.5320     0.4970 C.ar  1 <1>   0.1770 
  8 C       -2.6160    -4.1870    -0.8820 C.2   1 <1>   0.5440 
  9 CL      -1.3130    -4.3840     1.8730 Cl    1 <1>  -0.1770 
 10 O       -2.6570    -5.2130    -1.5320 O.2   1 <1>  -0.5700 
 11 N       -3.7790    -3.6730    -0.3550 N.am  1 <1>  -0.6600 
 12 C       -3.8400    -2.3570     0.3560 C.3   1 <1>   0.1400 
 13 C       -5.1040    -4.3360    -0.5570 C.3   1 <1>   0.1400 
 14 C       -5.2880    -1.9180     0.6560 C.3   1 <1>   0.2000 
 15 C       -6.1880    -3.3380    -1.0370 C.3   1 <1>   0.2000 
 16 O       -6.0650    -2.0470    -0.4950 O.3   1 <1>  -0.5600 
 17 C       -5.3700    -0.4570     1.0900 C.3   1 <1>  -0.2400 
 18 C       -7.5990    -3.8270    -0.7160 C.3   1 <1>  -0.2400 
 19 H       -1.2630    -2.7990    -2.7330 H     1 <1>   0.1500 
 20 H        2.0650    -1.6880    -0.2970 H     1 <1>   0.1500 
 21 H        1.0580    -2.9270     1.6190 H     1 <1>   0.1500 
 22 H       -3.3700    -1.6070    -0.2560 H     1 <1>   0.0800 
 23 H       -3.2980    -2.4250     1.2820 H     1 <1>   0.0800 
 24 H       -5.4090    -4.7760     0.3760 H     1 <1>   0.0800 
 25 H       -5.0280    -5.1350    -1.2740 H     1 <1>   0.0800 
 26 H       -5.7150    -2.5420     1.4230 H     1 <1>   0.0800 
 27 H       -6.0940    -3.2260    -2.1030 H     1 <1>   0.0800 
 28 H       -4.9880     0.1850     0.3170 H     1 <1>   0.0800 
 29 H       -4.7950    -0.3040     1.9850 H     1 <1>   0.0800 
 30 H       -6.3930    -0.1960     1.2920 H     1 <1>   0.0800 
 31 H       -7.7340    -3.9180     0.3460 H     1 <1>   0.0800 
 32 H       -7.7680    -4.7870    -1.1700 H     1 <1>   0.0800 
 33 H       -8.3220    -3.1340    -1.1080 H     1 <1>   0.0800 
@<TRIPOS>BOND
  1   1   2  1   
  2   2   3  ar  
  3   2   4  ar  
  4   3   5  ar  
  5   3  19  1   
  6   4   6  ar  
  7   4  20  1   
  8   5   7  ar  
  9   5   8  1   
 10   6   7  ar  
 11   6  21  1   
 12   7   9  1   
 13   8  10  2   
 14   8  11  am  
 15  11  12  1   
 16  11  13  1   
 17  12  14  1   
 18  12  22  1   
 19  12  23  1   
 20  13  15  1   
 21  13  24  1   
 22  13  25  1   
 23  14  16  1   
 24  14  17  1   
 25  14  26  1   
 26  15  16  1   
 27  15  18  1   
 28  15  27  1   
 29  17  28  1   
 30  17  29  1   
 31  17  30  1   
 32  18  31  1   
 33  18  32  1   
 34  18  33  1   
@<TRIPOS>SUBSTRUCTURE
  1 ****  11 GROUP 4 **** **** 0

# MOE 2024.06 (io_trps.svl 2023.06)
