@<TRIPOS>MOLECULE
NONAME
33 34 1 0 0 
SMALL
USER_CHARGES


@<TRIPOS>ATOM
  1 CL      -0.1210    -0.3260    -0.5370 Cl    1 <1>  -0.1770 
  2 C        1.5060    -0.9420    -0.4090 C.ar  1 <1>   0.1770 
  3 C        2.0530    -1.6350    -1.4740 C.ar  1 <1>  -0.1500 
  4 C        2.2200    -0.7260     0.7570 C.ar  1 <1>  -0.1500 
  5 C        3.3450    -2.1220    -1.3690 C.ar  1 <1>  -0.1500 
  6 C        3.5130    -1.2120     0.8640 C.ar  1 <1>  -0.1500 
  7 C        4.0650    -1.9070    -0.2050 C.ar  1 <1>   0.1020 
  8 S        5.7390    -2.5700    -0.1550 S.3   1 <1>  -0.3320 
  9 C        6.4710    -2.0490     1.4740 C.3   1 <1>   0.1310 
 10 C        7.9060    -2.5410     1.6260 C.2   1 <1>   0.5690 
 11 O        8.1180    -3.3200     2.5260 O.2   1 <1>  -0.5700 
 12 N        8.9170    -2.0940     0.8070 N.am  1 <1>  -0.6600 
 13 C        8.7150    -1.0990    -0.2920 C.3   1 <1>   0.1400 
 14 C       10.2960    -2.6510     0.9660 C.3   1 <1>   0.1400 
 15 C       10.0050    -0.3150    -0.5550 C.3   1 <1>  -0.1600 
 16 C       11.0450    -2.6450    -0.3700 C.3   1 <1>  -0.1600 
 17 C       11.1720    -1.2310    -0.9620 C.3   1 <1>  -0.1600 
 18 H        1.4750    -1.7900    -2.3670 H     1 <1>   0.1500 
 19 H        1.7640    -0.1840     1.5670 H     1 <1>   0.1500 
 20 H        3.7950    -2.6660    -2.1810 H     1 <1>   0.1500 
 21 H        4.0600    -1.0460     1.7700 H     1 <1>   0.1500 
 22 H        5.8580    -2.4800     2.2430 H     1 <1>   0.0800 
 23 H        6.4300    -0.9790     1.5270 H     1 <1>   0.0800 
 24 H        7.9320    -0.4090    -0.0340 H     1 <1>   0.0800 
 25 H        8.4230    -1.6230    -1.1870 H     1 <1>   0.0800 
 26 H       10.2410    -3.6610     1.3370 H     1 <1>   0.0800 
 27 H       10.8310    -2.0590     1.6890 H     1 <1>   0.0800 
 28 H       10.2620     0.2190     0.3440 H     1 <1>   0.0800 
 29 H        9.8340     0.4150    -1.3260 H     1 <1>   0.0800 
 30 H       10.5090    -3.2780    -1.0560 H     1 <1>   0.0800 
 31 H       12.0240    -3.0710    -0.2380 H     1 <1>   0.0800 
 32 H       12.0930    -0.7810    -0.6340 H     1 <1>   0.0800 
 33 H       11.2140    -1.3100    -2.0350 H     1 <1>   0.0800 
@<TRIPOS>BOND
  1   1   2  1   
  2   2   3  ar  
  3   2   4  ar  
  4   3   5  ar  
  5   3  18  1   
  6   4   6  ar  
  7   4  19  1   
  8   5   7  ar  
  9   5  20  1   
 10   6   7  ar  
 11   6  21  1   
 12   7   8  1   
 13   8   9  1   
 14   9  10  1   
 15   9  22  1   
 16   9  23  1   
 17  10  11  2   
 18  10  12  am  
 19  12  13  1   
 20  12  14  1   
 21  13  15  1   
 22  13  24  1   
 23  13  25  1   
 24  14  16  1   
 25  14  26  1   
 26  14  27  1   
 27  15  17  1   
 28  15  28  1   
 29  15  29  1   
 30  16  17  1   
 31  16  30  1   
 32  16  31  1   
 33  17  32  1   
 34  17  33  1   
@<TRIPOS>SUBSTRUCTURE
  1 ****   8 GROUP 4 **** **** 0

# MOE 2024.06 (io_trps.svl 2023.06)
