@<TRIPOS>MOLECULE
NONAME
41 43 1 0 0 
SMALL
USER_CHARGES


@<TRIPOS>ATOM
  1 N        1.3270     3.6330     0.6440 N.4   1 <1>  -0.8970 
  2 C        1.7320     3.6990    -0.7930 C.3   1 <1>   0.4720 
  3 C        2.5630     2.8290     0.9290 C.3   1 <1>   0.4720 
  4 C        0.0560     2.9280     0.9200 C.3   1 <1>   0.4860 
  5 C        3.2020     3.4840    -0.3230 C.3   1 <1>   0.0000 
  6 C        1.3830     5.0430    -1.4260 C.3   1 <1>  -0.2400 
  7 C       -1.0950     3.7980     0.4610 C.ar  1 <1>  -0.1430 
  8 C        4.0420     4.7420     0.0110 C.3   1 <1>  -0.1600 
  9 C        3.9800     2.4840    -1.2000 C.3   1 <1>  -0.1600 
 10 C       -1.8020     3.4700    -0.6870 C.ar  1 <1>  -0.1500 
 11 C       -1.4490     4.9320     1.1800 C.ar  1 <1>  -0.1500 
 12 C        5.3960     4.3610     0.6270 C.3   1 <1>  -0.1600 
 13 C        5.3340     2.1230    -0.5740 C.3   1 <1>  -0.1600 
 14 C       -2.8440     4.2730    -1.1170 C.ar  1 <1>  -0.1500 
 15 C       -2.4900     5.7340     0.7470 C.ar  1 <1>  -0.1500 
 16 C        6.1610     3.3790    -0.2700 C.3   1 <1>  -0.1600 
 17 C       -3.1860     5.4050    -0.4020 C.ar  1 <1>  -0.1500 
 18 H        1.3630     4.5670     1.0590 H     1 <1>   0.4500 
 19 H        1.3500     2.8520    -1.3340 H     1 <1>   0.0000 
 20 H        2.3790     1.7770     0.8090 H     1 <1>   0.0000 
 21 H        3.0220     3.1020     1.8620 H     1 <1>   0.0000 
 22 H       -0.0400     2.7390     1.9770 H     1 <1>   0.0800 
 23 H        0.0310     1.9840     0.4000 H     1 <1>   0.0800 
 24 H        1.6480     5.8710    -0.7960 H     1 <1>   0.0800 
 25 H        0.3300     5.0910    -1.6370 H     1 <1>   0.0800 
 26 H        1.9070     5.1430    -2.3600 H     1 <1>   0.0800 
 27 H        3.5210     5.3950     0.6900 H     1 <1>   0.0800 
 28 H        4.2270     5.2940    -0.8960 H     1 <1>   0.0800 
 29 H        4.1550     2.9270    -2.1670 H     1 <1>   0.0800 
 30 H        3.4090     1.5840    -1.3550 H     1 <1>   0.0800 
 31 H       -1.5570     2.5910    -1.2590 H     1 <1>   0.1500 
 32 H       -0.9280     5.2050     2.0820 H     1 <1>   0.1500 
 33 H        5.2490     3.9170     1.5970 H     1 <1>   0.0800 
 34 H        5.9900     5.2490     0.7650 H     1 <1>   0.0800 
 35 H        5.8860     1.4920    -1.2510 H     1 <1>   0.0800 
 36 H        5.1850     1.5660     0.3360 H     1 <1>   0.0800 
 37 H       -3.3930     4.0180    -2.0080 H     1 <1>   0.1500 
 38 H       -2.7660     6.6140     1.3040 H     1 <1>   0.1500 
 39 H        7.0810     3.0960     0.2120 H     1 <1>   0.0800 
 40 H        6.4180     3.8680    -1.1950 H     1 <1>   0.0800 
 41 H       -3.9980     6.0300    -0.7370 H     1 <1>   0.1500 
@<TRIPOS>BOND
  1   1   2  1   
  2   1   3  1   
  3   1   4  1   
  4   1  18  1   
  5   2   5  1   
  6   2   6  1   
  7   2  19  1   
  8   3   5  1   
  9   3  20  1   
 10   3  21  1   
 11   4   7  1   
 12   4  22  1   
 13   4  23  1   
 14   5   8  1   
 15   5   9  1   
 16   6  24  1   
 17   6  25  1   
 18   6  26  1   
 19   7  10  ar  
 20   7  11  ar  
 21   8  12  1   
 22   8  27  1   
 23   8  28  1   
 24   9  13  1   
 25   9  29  1   
 26   9  30  1   
 27  10  14  ar  
 28  10  31  1   
 29  11  15  ar  
 30  11  32  1   
 31  12  16  1   
 32  12  33  1   
 33  12  34  1   
 34  13  16  1   
 35  13  35  1   
 36  13  36  1   
 37  14  17  ar  
 38  14  37  1   
 39  15  17  ar  
 40  15  38  1   
 41  16  39  1   
 42  16  40  1   
 43  17  41  1   
@<TRIPOS>SUBSTRUCTURE
  1 ****   1 GROUP 4 **** **** 0

# MOE 2024.06 (io_trps.svl 2023.06)
