@<TRIPOS>MOLECULE
NONAME
45 46 1 0 0 
SMALL
USER_CHARGES


@<TRIPOS>ATOM
  1 O       -0.2060    -0.2660    -1.0690 O.2   1 <1>  -0.5700 
  2 C       -0.1130    -1.2880    -0.4180 C.2   1 <1>   0.5440 
  3 N        1.1230    -1.7050    -0.0120 N.am  1 <1>  -0.7300 
  4 C       -1.3000    -2.0450    -0.0630 C.ar  1 <1>   0.0860 
  5 C        2.4000    -1.0270    -0.3010 C.3   1 <1>   0.2200 
  6 C       -2.5210    -1.4050     0.1250 C.ar  1 <1>  -0.1500 
  7 C       -1.2740    -3.4300     0.1030 C.ar  1 <1>  -0.1500 
  8 C        3.3160    -2.0430    -0.9920 C.3   1 <1>  -0.1600 
  9 C        2.9410    -0.4600     1.0190 C.3   1 <1>  -0.1600 
 10 C       -3.6770    -2.0930     0.4610 C.ar  1 <1>   0.1170 
 11 C       -2.4130    -4.1320     0.4510 C.ar  1 <1>  -0.1500 
 12 C        4.7370    -1.5390    -1.2950 C.3   1 <1>  -0.1600 
 13 C        4.0890     0.5370     0.8000 C.3   1 <1>  -0.1600 
 14 N       -4.8840    -1.4050     0.6400 N.am  1 <1>  -0.5470 
 15 C       -3.6180    -3.4750     0.6340 C.ar  1 <1>  -0.1430 
 16 C        5.6030    -1.4290    -0.0320 C.3   1 <1>  -0.1600 
 17 C        5.4890    -0.0920     0.7170 C.3   1 <1>  -0.1600 
 18 C       -5.5320    -0.5200    -0.1590 C.2   1 <1>   0.5690 
 19 C       -4.8580    -4.2780     1.0090 C.3   1 <1>  -0.0970 
 20 O       -6.5770    -0.0460     0.2000 O.2   1 <1>  -0.5700 
 21 C       -4.9810    -0.1330    -1.5120 C.3   1 <1>  -0.1790 
 22 H        1.1960    -2.4910     0.6310 H     1 <1>   0.3700 
 23 H        2.2190    -0.2100    -0.9800 H     1 <1>   0.0800 
 24 H       -2.5580    -0.3360     0.0120 H     1 <1>   0.1500 
 25 H       -0.3550    -3.9660    -0.0490 H     1 <1>   0.1500 
 26 H        2.8550    -2.3100    -1.9270 H     1 <1>   0.0800 
 27 H        3.3810    -2.9360    -0.3950 H     1 <1>   0.0800 
 28 H        3.2480    -1.2500     1.6810 H     1 <1>   0.0800 
 29 H        2.1380     0.0780     1.4920 H     1 <1>   0.0800 
 30 H       -2.3550    -5.2010     0.5740 H     1 <1>   0.1500 
 31 H        4.7060    -0.6000    -1.8210 H     1 <1>   0.0800 
 32 H        5.2010    -2.2550    -1.9510 H     1 <1>   0.0800 
 33 H        4.0940     1.2400     1.6160 H     1 <1>   0.0800 
 34 H        3.9000     1.1070    -0.0930 H     1 <1>   0.0800 
 35 H       -5.4250    -1.6490     1.4690 H     1 <1>   0.3700 
 36 H        6.6350    -1.5590    -0.3110 H     1 <1>   0.0800 
 37 H        5.3640    -2.2360     0.6390 H     1 <1>   0.0800 
 38 H        5.8600    -0.2420     1.7170 H     1 <1>   0.0800 
 39 H        6.1430     0.6230     0.2480 H     1 <1>   0.0800 
 40 H       -5.6490    -4.0860     0.3060 H     1 <1>   0.0800 
 41 H       -5.1920    -4.0020     1.9940 H     1 <1>   0.0800 
 42 H       -4.6530    -5.3330     1.0040 H     1 <1>   0.0800 
 43 H       -4.5380    -0.9840    -1.9940 H     1 <1>   0.0800 
 44 H       -4.2440     0.6390    -1.3960 H     1 <1>   0.0800 
 45 H       -5.7760     0.2380    -2.1310 H     1 <1>   0.0800 
@<TRIPOS>BOND
  1   1   2  2   
  2   2   3  am  
  3   2   4  1   
  4   3   5  1   
  5   3  22  1   
  6   4   6  ar  
  7   4   7  ar  
  8   5   8  1   
  9   5   9  1   
 10   5  23  1   
 11   6  10  ar  
 12   6  24  1   
 13   7  11  ar  
 14   7  25  1   
 15   8  12  1   
 16   8  26  1   
 17   8  27  1   
 18   9  13  1   
 19   9  28  1   
 20   9  29  1   
 21  10  14  1   
 22  10  15  ar  
 23  11  15  ar  
 24  11  30  1   
 25  12  16  1   
 26  12  31  1   
 27  12  32  1   
 28  13  17  1   
 29  13  33  1   
 30  13  34  1   
 31  14  18  am  
 32  14  35  1   
 33  15  19  1   
 34  16  17  1   
 35  16  36  1   
 36  16  37  1   
 37  17  38  1   
 38  17  39  1   
 39  18  20  2   
 40  18  21  1   
 41  19  40  1   
 42  19  41  1   
 43  19  42  1   
 44  21  43  1   
 45  21  44  1   
 46  21  45  1   
@<TRIPOS>SUBSTRUCTURE
  1 ****   2 GROUP 4 **** **** 0

# MOE 2024.06 (io_trps.svl 2023.06)
