@<TRIPOS>MOLECULE
NONAME
37 38 1 0 0 
SMALL
USER_CHARGES


@<TRIPOS>ATOM
  1 O        0.5520    -0.1370    -0.9240 O.3   1 <1>  -0.3630 
  2 C        0.4700    -1.4590    -0.6210 C.ar  1 <1>   0.0830 
  3 C        0.1270     0.7430     0.0920 C.3   1 <1>   0.0400 
  4 C        1.3200    -2.0710     0.3170 C.ar  1 <1>   0.1000 
  5 C       -0.4960    -2.1980    -1.2800 C.ar  1 <1>  -0.1500 
  6 N        2.3570    -1.4100     0.9880 N.pl3 1 <1>  -0.8690 
  7 C        1.1270    -3.4200     0.5870 C.ar  1 <1>  -0.1500 
  8 C       -0.6580    -3.5440    -1.0030 C.ar  1 <1>  -0.1500 
  9 C        3.4210    -0.8200     0.1560 C.3   1 <1>   0.2890 
 10 C        0.1520    -4.1600    -0.0630 C.ar  1 <1>  -0.1430 
 11 C        4.5370    -1.8540    -0.0280 C.3   1 <1>  -0.1600 
 12 C        3.9440     0.4410     0.8500 C.3   1 <1>  -0.1600 
 13 C       -0.0320    -5.6340     0.2500 C.3   1 <1>  -0.0970 
 14 C        5.7290    -1.2580    -0.7920 C.3   1 <1>  -0.1600 
 15 C        5.1360     1.0430     0.0920 C.3   1 <1>  -0.1600 
 16 C        6.2530     0.0080    -0.0990 C.3   1 <1>  -0.1600 
 17 H        0.2210     1.7490    -0.2740 H     1 <1>   0.0800 
 18 H        0.7450     0.6080     0.9610 H     1 <1>   0.0800 
 19 H       -0.8990     0.5270     0.3280 H     1 <1>   0.0800 
 20 H       -1.1220    -1.7140    -2.0060 H     1 <1>   0.1500 
 21 H        2.7740    -1.9700     1.7330 H     1 <1>   0.4000 
 22 H        1.7570    -3.8970     1.3130 H     1 <1>   0.1500 
 23 H       -1.4170    -4.1050    -1.5190 H     1 <1>   0.1500 
 24 H        3.0290    -0.5510    -0.8110 H     1 <1>   0.0800 
 25 H        4.1500    -2.6960    -0.5750 H     1 <1>   0.0800 
 26 H        4.8740    -2.1940     0.9350 H     1 <1>   0.0800 
 27 H        4.2490     0.1960     1.8520 H     1 <1>   0.0800 
 28 H        3.1520     1.1660     0.9030 H     1 <1>   0.0800 
 29 H        0.8820    -6.0580     0.6240 H     1 <1>   0.0800 
 30 H       -0.3160    -6.1720    -0.6370 H     1 <1>   0.0800 
 31 H       -0.8010    -5.7540     0.9920 H     1 <1>   0.0800 
 32 H        5.4210    -1.0130    -1.7950 H     1 <1>   0.0800 
 33 H        6.5170    -1.9870    -0.8570 H     1 <1>   0.0800 
 34 H        5.5170     1.8920     0.6340 H     1 <1>   0.0800 
 35 H        4.8040     1.3900    -0.8720 H     1 <1>   0.0800 
 36 H        7.0460     0.4380    -0.6870 H     1 <1>   0.0800 
 37 H        6.6620    -0.2550     0.8620 H     1 <1>   0.0800 
@<TRIPOS>BOND
  1   1   2  1   
  2   1   3  1   
  3   2   4  ar  
  4   2   5  ar  
  5   3  17  1   
  6   3  18  1   
  7   3  19  1   
  8   4   6  1   
  9   4   7  ar  
 10   5   8  ar  
 11   5  20  1   
 12   6   9  1   
 13   6  21  1   
 14   7  10  ar  
 15   7  22  1   
 16   8  10  ar  
 17   8  23  1   
 18   9  11  1   
 19   9  12  1   
 20   9  24  1   
 21  10  13  1   
 22  11  14  1   
 23  11  25  1   
 24  11  26  1   
 25  12  15  1   
 26  12  27  1   
 27  12  28  1   
 28  13  29  1   
 29  13  30  1   
 30  13  31  1   
 31  14  16  1   
 32  14  32  1   
 33  14  33  1   
 34  15  16  1   
 35  15  34  1   
 36  15  35  1   
 37  16  36  1   
 38  16  37  1   
@<TRIPOS>SUBSTRUCTURE
  1 ****   4 GROUP 4 **** **** 0

# MOE 2024.06 (io_trps.svl 2023.06)
