@<TRIPOS>MOLECULE
NONAME
52 54 1 0 0 
SMALL
USER_CHARGES


@<TRIPOS>ATOM
  1 O       -0.3320    -0.8820    -0.4210 O.3   1 <1>  -0.3630 
  2 C       -1.5420    -1.4730    -0.5630 C.ar  1 <1>   0.0830 
  3 C        0.4400    -1.0470     0.7480 C.3   1 <1>   0.1200 
  4 C       -2.1630    -1.3290    -1.7920 C.ar  1 <1>  -0.1500 
  5 C       -2.1750    -2.2010     0.4400 C.ar  1 <1>  -0.1500 
  6 C        1.7600    -0.3000     0.5580 C.3   1 <1>  -0.1600 
  7 C       -3.4020    -1.8970    -2.0260 C.ar  1 <1>  -0.1500 
  8 C       -3.4150    -2.7700     0.2070 C.ar  1 <1>  -0.1500 
  9 C        2.6580    -0.4340     1.7950 C.3   1 <1>  -0.1600 
 10 C       -4.0390    -2.6160    -1.0250 C.ar  1 <1>  -0.1430 
 11 C        3.9790     0.3150     1.5990 C.3   1 <1>  -0.2400 
 12 C       -5.4060    -3.2220    -1.2760 C.3   1 <1>   0.4860 
 13 N       -6.4270    -2.4020    -0.5720 N.4   1 <1>  -0.9590 
 14 C       -7.7940    -3.0310    -0.6270 C.3   1 <1>   0.3430 
 15 C       -6.4690    -0.9850    -1.0930 C.3   1 <1>   0.3430 
 16 C       -8.8570    -2.1880     0.1060 C.3   1 <1>   0.2090 
 17 C       -7.5240    -0.1240    -0.3690 C.3   1 <1>   0.2090 
 18 N       -8.8690    -0.7740    -0.3760 N.pl3 1 <1>  -0.8380 
 19 C       -9.8580    -0.0020     0.1930 C.ar  1 <1>   0.4100 
 20 N       -9.7580     0.2020     1.5000 N.ar  1 <1>  -0.6200 
 21 C      -10.8810     0.5130    -0.5970 C.ar  1 <1>  -0.1500 
 22 C      -10.7140     0.9460     2.0350 C.ar  1 <1>   0.1600 
 23 C      -11.8660     1.2840    -0.0260 C.ar  1 <1>  -0.1500 
 24 C      -11.7700     1.5020     1.3340 C.ar  1 <1>  -0.1500 
 25 H        0.6170    -2.0990     0.8930 H     1 <1>   0.0800 
 26 H       -0.1090    -0.6400     1.5790 H     1 <1>   0.0800 
 27 H       -1.6600    -0.7690    -2.5620 H     1 <1>   0.1500 
 28 H       -1.7140    -2.3340     1.4010 H     1 <1>   0.1500 
 29 H        1.5510     0.7410     0.3790 H     1 <1>   0.0800 
 30 H        2.2700    -0.7020    -0.3000 H     1 <1>   0.0800 
 31 H       -3.8520    -1.7710    -2.9960 H     1 <1>   0.1500 
 32 H       -3.8790    -3.3360     0.9970 H     1 <1>   0.1500 
 33 H        2.8670    -1.4750     1.9800 H     1 <1>   0.0800 
 34 H        2.1510    -0.0360     2.6570 H     1 <1>   0.0800 
 35 H        4.5150    -0.0810     0.7540 H     1 <1>   0.0800 
 36 H        4.5960     0.2100     2.4740 H     1 <1>   0.0800 
 37 H        3.7970     1.3620     1.4330 H     1 <1>   0.0800 
 38 H       -5.4200    -4.2340    -0.9040 H     1 <1>   0.0800 
 39 H       -5.6090    -3.2440    -2.3350 H     1 <1>   0.0800 
 40 H       -6.1400    -2.3380     0.4120 H     1 <1>   0.4500 
 41 H       -7.7660    -4.0140    -0.1860 H     1 <1>   0.0800 
 42 H       -8.1030    -3.1360    -1.6530 H     1 <1>   0.0800 
 43 H       -6.7060    -0.9920    -2.1430 H     1 <1>   0.0800 
 44 H       -5.5030    -0.5210    -0.9740 H     1 <1>   0.0800 
 45 H       -8.6660    -2.2060     1.1660 H     1 <1>   0.0800 
 46 H       -9.8300    -2.6210    -0.0560 H     1 <1>   0.0800 
 47 H       -7.5940     0.8350    -0.8550 H     1 <1>   0.0800 
 48 H       -7.2120     0.0500     0.6470 H     1 <1>   0.0800 
 49 H      -10.8860     0.2990    -1.6480 H     1 <1>   0.1500 
 50 H      -10.6530     1.1250     3.0950 H     1 <1>   0.1500 
 51 H      -12.6720     1.6980    -0.6080 H     1 <1>   0.1500 
 52 H      -12.5060     2.0960     1.8440 H     1 <1>   0.1500 
@<TRIPOS>BOND
  1   1   2  1   
  2   1   3  1   
  3   2   4  ar  
  4   2   5  ar  
  5   3   6  1   
  6   3  25  1   
  7   3  26  1   
  8   4   7  ar  
  9   4  27  1   
 10   5   8  ar  
 11   5  28  1   
 12   6   9  1   
 13   6  29  1   
 14   6  30  1   
 15   7  10  ar  
 16   7  31  1   
 17   8  10  ar  
 18   8  32  1   
 19   9  11  1   
 20   9  33  1   
 21   9  34  1   
 22  10  12  1   
 23  11  35  1   
 24  11  36  1   
 25  11  37  1   
 26  12  13  1   
 27  12  38  1   
 28  12  39  1   
 29  13  14  1   
 30  13  15  1   
 31  13  40  1   
 32  14  16  1   
 33  14  41  1   
 34  14  42  1   
 35  15  17  1   
 36  15  43  1   
 37  15  44  1   
 38  16  18  1   
 39  16  45  1   
 40  16  46  1   
 41  17  18  1   
 42  17  47  1   
 43  17  48  1   
 44  18  19  1   
 45  19  20  ar  
 46  19  21  ar  
 47  20  22  ar  
 48  21  23  ar  
 49  21  49  1   
 50  22  24  ar  
 51  22  50  1   
 52  23  24  ar  
 53  23  51  1   
 54  24  52  1   
@<TRIPOS>SUBSTRUCTURE
  1 ****  15 GROUP 4 **** **** 0

# MOE 2024.06 (io_trps.svl 2023.06)
