@<TRIPOS>MOLECULE
NONAME
57 59 1 0 0 
SMALL
USER_CHARGES


@<TRIPOS>ATOM
  1 S       -0.0920     0.3110    -0.5070 S.o2  1 <1>   1.4470 
  2 O       -0.2890     0.1210    -1.9280 O.2   1 <1>  -0.6500 
  3 O        0.1400    -0.8410     0.3360 O.2   1 <1>  -0.6500 
  4 N       -1.4940     1.0680     0.0700 N.am  1 <1>  -0.8490 
  5 C        1.2000     1.5510    -0.2100 C.ar  1 <1>  -0.0090 
  6 C       -1.9600     2.1440    -0.8030 C.3   1 <1>   0.1960 
  7 C       -2.5550     0.0900     0.3510 C.3   1 <1>   0.1960 
  8 C        1.3030     2.1960     1.0170 C.ar  1 <1>  -0.1500 
  9 C        2.1200     1.8850    -1.1980 C.ar  1 <1>  -0.1500 
 10 C       -2.9960     3.0060    -0.0650 C.3   1 <1>  -0.1600 
 11 C       -3.9230     0.7500     0.5930 C.3   1 <1>  -0.1600 
 12 C        2.2820     3.1470     1.2470 C.ar  1 <1>  -0.1500 
 13 C        3.1040     2.8350    -0.9780 C.ar  1 <1>  -0.1500 
 14 C       -3.7840     2.2260     1.0100 C.3   1 <1>  -0.0190 
 15 C        3.1880     3.4750     0.2540 C.ar  1 <1>   0.0830 
 16 C       -5.1210     2.8850     1.3360 C.2   1 <1>   0.5690 
 17 O        4.1140     4.4160     0.5570 O.3   1 <1>  -0.3630 
 18 O       -5.2570     3.4270     2.4050 O.2   1 <1>  -0.5700 
 19 N       -6.1170     2.8460     0.4130 N.am  1 <1>  -0.7300 
 20 C        5.0990     4.8060    -0.3700 C.3   1 <1>   0.1200 
 21 C       -7.4550     3.4330     0.5850 C.3   1 <1>   0.2200 
 22 C        5.9790     5.8640     0.2900 C.3   1 <1>  -0.2400 
 23 C       -8.5000     2.3160     0.4960 C.3   1 <1>  -0.1600 
 24 C       -7.6750     4.4890    -0.5030 C.3   1 <1>  -0.1600 
 25 C       -9.9260     2.8830     0.5600 C.3   1 <1>  -0.1600 
 26 C       -9.1000     5.0610    -0.4410 C.3   1 <1>  -0.1600 
 27 C      -10.1500     3.9440    -0.5260 C.3   1 <1>  -0.1600 
 28 H       -2.3960     1.7180    -1.6920 H     1 <1>   0.0800 
 29 H       -1.1340     2.7690    -1.1040 H     1 <1>   0.0800 
 30 H       -2.2730    -0.4680     1.2300 H     1 <1>   0.0800 
 31 H       -2.6380    -0.6100    -0.4660 H     1 <1>   0.0800 
 32 H        0.6060     1.9510     1.8010 H     1 <1>   0.1500 
 33 H        2.0640     1.3950    -2.1560 H     1 <1>   0.1500 
 34 H       -3.6650     3.4230    -0.7960 H     1 <1>   0.0800 
 35 H       -2.4940     3.8310     0.4100 H     1 <1>   0.0800 
 36 H       -4.4510     0.2010     1.3520 H     1 <1>   0.0800 
 37 H       -4.5000     0.6810    -0.3120 H     1 <1>   0.0800 
 38 H        2.3490     3.6400     2.2010 H     1 <1>   0.1500 
 39 H        3.7910     3.0600    -1.7720 H     1 <1>   0.1500 
 40 H       -3.1990     2.2410     1.9150 H     1 <1>   0.0800 
 41 H       -5.9640     2.3770    -0.4770 H     1 <1>   0.3700 
 42 H        4.6090     5.2090    -1.2400 H     1 <1>   0.0800 
 43 H        5.6800     3.9390    -0.6350 H     1 <1>   0.0800 
 44 H       -7.5260     3.9040     1.5520 H     1 <1>   0.0800 
 45 H        5.3860     6.7180     0.5650 H     1 <1>   0.0800 
 46 H        6.7430     6.1820    -0.3950 H     1 <1>   0.0800 
 47 H        6.4510     5.4570     1.1660 H     1 <1>   0.0800 
 48 H       -8.3560     1.6300     1.3130 H     1 <1>   0.0800 
 49 H       -8.3800     1.7790    -0.4280 H     1 <1>   0.0800 
 50 H       -7.5180     4.0500    -1.4720 H     1 <1>   0.0800 
 51 H       -6.9670     5.2880    -0.3690 H     1 <1>   0.0800 
 52 H      -10.0890     3.3260     1.5280 H     1 <1>   0.0800 
 53 H      -10.6390     2.0860     0.4390 H     1 <1>   0.0800 
 54 H       -9.2460     5.7570    -1.2490 H     1 <1>   0.0800 
 55 H       -9.2270     5.5980     0.4840 H     1 <1>   0.0800 
 56 H      -11.1340     4.3680    -0.4180 H     1 <1>   0.0800 
 57 H      -10.0980     3.4790    -1.4960 H     1 <1>   0.0800 
@<TRIPOS>BOND
  1   1   2  2   
  2   1   3  2   
  3   1   4  am  
  4   1   5  1   
  5   4   6  1   
  6   4   7  1   
  7   5   8  ar  
  8   5   9  ar  
  9   6  10  1   
 10   6  28  1   
 11   6  29  1   
 12   7  11  1   
 13   7  30  1   
 14   7  31  1   
 15   8  12  ar  
 16   8  32  1   
 17   9  13  ar  
 18   9  33  1   
 19  10  14  1   
 20  10  34  1   
 21  10  35  1   
 22  11  14  1   
 23  11  36  1   
 24  11  37  1   
 25  12  15  ar  
 26  12  38  1   
 27  13  15  ar  
 28  13  39  1   
 29  14  16  1   
 30  14  40  1   
 31  15  17  1   
 32  16  18  2   
 33  16  19  am  
 34  17  20  1   
 35  19  21  1   
 36  19  41  1   
 37  20  22  1   
 38  20  42  1   
 39  20  43  1   
 40  21  23  1   
 41  21  24  1   
 42  21  44  1   
 43  22  45  1   
 44  22  46  1   
 45  22  47  1   
 46  23  25  1   
 47  23  48  1   
 48  23  49  1   
 49  24  26  1   
 50  24  50  1   
 51  24  51  1   
 52  25  27  1   
 53  25  52  1   
 54  25  53  1   
 55  26  27  1   
 56  26  54  1   
 57  26  55  1   
 58  27  56  1   
 59  27  57  1   
@<TRIPOS>SUBSTRUCTURE
  1 ****  10 GROUP 4 **** **** 0

# MOE 2024.06 (io_trps.svl 2023.06)
