@<TRIPOS>MOLECULE
NONAME
45 47 1 0 0 
SMALL
USER_CHARGES


@<TRIPOS>ATOM
  1 S       -2.2910     1.9500     1.9050 S.3   1 <1>  -0.0800 
  2 C       -0.9600     2.9470     1.3410 C.2   1 <1>   0.1240 
  3 C       -2.3840     1.1230     0.3630 C.2   1 <1>  -0.1400 
  4 N       -0.4360     3.8230     2.2570 N.pl3 1 <1>  -0.8840 
  5 C       -0.6440     2.6590     0.0340 C.2   1 <1>  -0.0860 
  6 C       -1.4790     1.6070    -0.4990 C.2   1 <1>  -0.1810 
  7 C       -3.3980     0.0220     0.1460 C.3   1 <1>   0.0200 
  8 C        0.3800     3.3360    -0.7090 C.2   1 <1>   0.7160 
  9 C       -1.3840     1.0520    -1.9150 C.3   1 <1>   0.0210 
 10 C       -3.0360    -0.7530    -1.1380 C.3   1 <1>  -0.0800 
 11 O        0.9800     2.8110    -1.6330 O.2   1 <1>  -0.5700 
 12 N        0.6860     4.6190    -0.3460 N.am  1 <1>  -0.5470 
 13 C       -2.6250     0.2080    -2.2750 C.3   1 <1>  -0.1600 
 14 C       -4.1980    -1.6520    -1.5780 C.3   1 <1>  -0.2400 
 15 C        1.8430     5.3870    -0.5400 C.ar  1 <1>   0.1170 
 16 C        2.3130     6.1710     0.5200 C.ar  1 <1>   0.0830 
 17 C        2.5240     5.4050    -1.7500 C.ar  1 <1>  -0.1500 
 18 O        1.6170     6.1120     1.6970 O.3   1 <1>  -0.3630 
 19 C        3.4480     6.9580     0.3480 C.ar  1 <1>  -0.1500 
 20 C        3.6530     6.1870    -1.9140 C.ar  1 <1>  -0.1500 
 21 C        1.9390     6.9610     2.7740 C.3   1 <1>   0.1200 
 22 C        4.1140     6.9640    -0.8660 C.ar  1 <1>  -0.1500 
 23 C        0.9510     6.6850     3.9040 C.3   1 <1>  -0.2400 
 24 H        0.4710     4.3030     2.1530 H     1 <1>   0.4000 
 25 H       -0.8030     3.8530     3.2140 H     1 <1>   0.4000 
 26 H       -4.3730     0.4670     0.0570 H     1 <1>   0.0800 
 27 H       -3.4000    -0.6470     0.9880 H     1 <1>   0.0800 
 28 H       -0.4970     0.4470    -1.9860 H     1 <1>   0.0800 
 29 H       -1.2940     1.8590    -2.6210 H     1 <1>   0.0800 
 30 H       -2.1880    -1.3810    -0.9160 H     1 <1>   0.0800 
 31 H        0.1120     4.9330     0.4390 H     1 <1>   0.3700 
 32 H       -2.4180    -0.3480    -3.1720 H     1 <1>   0.0800 
 33 H       -3.4450     0.8740    -2.4820 H     1 <1>   0.0800 
 34 H       -5.0620    -1.0610    -1.8270 H     1 <1>   0.0800 
 35 H       -4.4610    -2.3340    -0.7900 H     1 <1>   0.0800 
 36 H       -3.9160    -2.2280    -2.4420 H     1 <1>   0.0800 
 37 H        2.1690     4.8050    -2.5680 H     1 <1>   0.1500 
 38 H        3.8340     7.5700     1.1400 H     1 <1>   0.1500 
 39 H        4.1710     6.1890    -2.8570 H     1 <1>   0.1500 
 40 H        1.8590     7.9820     2.4390 H     1 <1>   0.0800 
 41 H        2.9460     6.7490     3.0910 H     1 <1>   0.0800 
 42 H        4.9930     7.5730    -0.9970 H     1 <1>   0.1500 
 43 H       -0.0550     6.8630     3.5680 H     1 <1>   0.0800 
 44 H        1.1560     7.3400     4.7310 H     1 <1>   0.0800 
 45 H        1.0480     5.6700     4.2420 H     1 <1>   0.0800 
@<TRIPOS>BOND
  1   1   2  1   
  2   1   3  1   
  3   2   4  1   
  4   2   5  2   
  5   3   6  2   
  6   3   7  1   
  7   4  24  1   
  8   4  25  1   
  9   5   6  1   
 10   5   8  1   
 11   6   9  1   
 12   7  10  1   
 13   7  26  1   
 14   7  27  1   
 15   8  11  2   
 16   8  12  am  
 17   9  13  1   
 18   9  28  1   
 19   9  29  1   
 20  10  13  1   
 21  10  14  1   
 22  10  30  1   
 23  12  15  1   
 24  12  31  1   
 25  13  32  1   
 26  13  33  1   
 27  14  34  1   
 28  14  35  1   
 29  14  36  1   
 30  15  16  ar  
 31  15  17  ar  
 32  16  18  1   
 33  16  19  ar  
 34  17  20  ar  
 35  17  37  1   
 36  18  21  1   
 37  19  22  ar  
 38  19  38  1   
 39  20  22  ar  
 40  20  39  1   
 41  21  23  1   
 42  21  40  1   
 43  21  41  1   
 44  22  42  1   
 45  23  43  1   
 46  23  44  1   
 47  23  45  1   
@<TRIPOS>SUBSTRUCTURE
  1 ****   8 GROUP 4 **** **** 0

# MOE 2024.06 (io_trps.svl 2023.06)
