@<TRIPOS>MOLECULE
NONAME
50 53 1 0 0 
SMALL
USER_CHARGES


@<TRIPOS>ATOM
  1 O       -1.4590    -0.7540     1.7110 O.3   1 <1>  -0.3680 
  2 C       -2.1590    -1.1780     0.6180 C.ar  1 <1>   0.0750 
  3 C       -1.0680     0.5850     1.9100 C.3   1 <1>   0.0320 
  4 C       -2.7100    -0.3830    -0.4050 C.ar  1 <1>   0.0750 
  5 C       -2.3150    -2.5520     0.5640 C.ar  1 <1>  -0.1570 
  6 O       -2.5820     0.9760    -0.3730 O.3   1 <1>  -0.3680 
  7 C       -3.3910    -1.0120    -1.4450 C.ar  1 <1>  -0.1570 
  8 C       -2.9960    -3.1750    -0.4720 C.ar  1 <1>  -0.1510 
  9 C       -3.1930     1.8210    -1.3240 C.3   1 <1>   0.0320 
 10 C       -3.5330    -2.3880    -1.4790 C.ar  1 <1>  -0.1570 
 11 C       -3.1520    -4.6930    -0.5090 C.3   1 <1>   0.5730 
 12 N       -3.7380    -5.1920     0.7600 N.pl3 1 <1>  -0.4620 
 13 C       -1.7890    -5.3620    -0.7560 C.3   1 <1>  -0.1670 
 14 N       -4.7120    -4.5800     1.5040 N.2   1 <1>  -0.2660 
 15 C       -3.3460    -6.3060     1.3410 C.cat 1 <1>   1.0690 
 16 C       -1.8250    -6.8700    -0.4820 C.3   1 <1>   0.3860 
 17 C       -4.8500    -5.3440     2.5210 C.2   1 <1>   0.4980 
 18 N       -4.0180    -6.4330     2.4600 N.pl3 1 <1>  -0.7030 
 19 N       -2.4430    -7.1280     0.8220 N.pl3 1 <1>  -0.7180 
 20 C       -0.4420    -7.4970    -0.4600 C.ar  1 <1>  -0.1510 
 21 C        0.5220    -7.0980     0.4590 C.ar  1 <1>  -0.1570 
 22 C       -0.1340    -8.5010    -1.3670 C.ar  1 <1>  -0.1570 
 23 C        1.7710    -7.6940     0.4740 C.ar  1 <1>  -0.1570 
 24 C        1.1140    -9.0970    -1.3520 C.ar  1 <1>  -0.1570 
 25 C        2.0730    -8.7020    -0.4360 C.ar  1 <1>   0.0750 
 26 O        3.2680    -9.3390    -0.4890 O.3   1 <1>  -0.3680 
 27 C        4.3260    -8.9930     0.3760 C.3   1 <1>   0.0320 
 28 H       -0.4680     0.6310     2.8010 H     1 <1>   0.0720 
 29 H       -1.9480     1.1900     2.0320 H     1 <1>   0.0720 
 30 H       -0.4910     0.9100     1.0630 H     1 <1>   0.0720 
 31 H       -1.8870    -3.1260     1.3650 H     1 <1>   0.1430 
 32 H       -3.8240    -0.4460    -2.2470 H     1 <1>   0.1430 
 33 H       -2.9750     2.8380    -1.0530 H     1 <1>   0.0720 
 34 H       -4.2560     1.6580    -1.3050 H     1 <1>   0.0720 
 35 H       -2.7830     1.6070    -2.2950 H     1 <1>   0.0720 
 36 H       -4.0700    -2.8300    -2.3010 H     1 <1>   0.1430 
 37 H       -3.8250    -4.9590    -1.3060 H     1 <1>   0.0720 
 38 H       -1.0440    -4.8970    -0.1370 H     1 <1>   0.0720 
 39 H       -1.4900    -5.1910    -1.7750 H     1 <1>   0.0720 
 40 H       -2.4200    -7.3520    -1.2410 H     1 <1>   0.0720 
 41 H       -5.5360    -5.1700     3.3380 H     1 <1>   0.1430 
 42 H       -3.9480    -7.1840     3.1420 H     1 <1>   0.4450 
 43 H       -2.0730    -7.9460     1.3100 H     1 <1>   0.4450 
 44 H        0.3200    -6.3200     1.1740 H     1 <1>   0.1430 
 45 H       -0.8520    -8.8360    -2.0960 H     1 <1>   0.1430 
 46 H        2.4960    -7.3640     1.1930 H     1 <1>   0.1430 
 47 H        1.3570    -9.8760    -2.0530 H     1 <1>   0.1430 
 48 H        5.1680    -9.6200     0.1400 H     1 <1>   0.0720 
 49 H        4.0170    -9.1640     1.3920 H     1 <1>   0.0720 
 50 H        4.5840    -7.9610     0.2170 H     1 <1>   0.0720 
@<TRIPOS>BOND
  1   1   2  1   
  2   1   3  1   
  3   2   4  ar  
  4   2   5  ar  
  5   3  28  1   
  6   3  29  1   
  7   3  30  1   
  8   4   6  1   
  9   4   7  ar  
 10   5   8  ar  
 11   5  31  1   
 12   6   9  1   
 13   7  10  ar  
 14   7  32  1   
 15   8  10  ar  
 16   8  11  1   
 17   9  33  1   
 18   9  34  1   
 19   9  35  1   
 20  10  36  1   
 21  11  12  1   
 22  11  13  1   
 23  11  37  1   
 24  12  14  1   
 25  12  15  ar  
 26  13  16  1   
 27  13  38  1   
 28  13  39  1   
 29  14  17  2   
 30  15  18  ar  
 31  15  19  ar  
 32  16  19  1   
 33  16  20  1   
 34  16  40  1   
 35  17  18  1   
 36  17  41  1   
 37  18  42  1   
 38  19  43  1   
 39  20  21  ar  
 40  20  22  ar  
 41  21  23  ar  
 42  21  44  1   
 43  22  24  ar  
 44  22  45  1   
 45  23  25  ar  
 46  23  46  1   
 47  24  25  ar  
 48  24  47  1   
 49  25  26  1   
 50  26  27  1   
 51  27  48  1   
 52  27  49  1   
 53  27  50  1   
@<TRIPOS>SUBSTRUCTURE
  1 ****  13 GROUP 4 **** **** 0

# MOE 2024.06 (io_trps.svl 2023.06)
