@<TRIPOS>MOLECULE
NONAME
36 37 1 0 0 
SMALL
USER_CHARGES


@<TRIPOS>ATOM
  1 S       -0.2370     0.0280     0.5420 S.o2  1 <1>   1.4470 
  2 O       -0.2210     1.3410    -0.0650 O.2   1 <1>  -0.6500 
  3 O       -0.6120    -0.1020     1.9350 O.2   1 <1>  -0.6500 
  4 N       -1.3370    -0.9020    -0.3500 N.am  1 <1>  -0.8490 
  5 C        1.3440    -0.8080     0.2350 C.ar  1 <1>  -0.0090 
  6 C       -2.6410    -0.2770    -0.4620 C.3   1 <1>   0.1960 
  7 C       -1.5850    -2.2280     0.1870 C.3   1 <1>   0.1960 
  8 C        1.8000    -1.0160    -1.0600 C.ar  1 <1>  -0.1500 
  9 C        2.1370    -1.2660     1.2800 C.ar  1 <1>  -0.1500 
 10 C       -3.5660    -1.3980    -0.9220 C.3   1 <1>  -0.1600 
 11 C       -2.8480    -2.6900    -0.5290 C.3   1 <1>  -0.1600 
 12 C        3.0000    -1.6610    -1.3060 C.ar  1 <1>  -0.1500 
 13 C        3.3380    -1.9110     1.0410 C.ar  1 <1>  -0.1500 
 14 C        3.7820    -2.1160    -0.2560 C.ar  1 <1>  -0.1430 
 15 C        5.1040    -2.8260    -0.5410 C.3   1 <1>   0.0630 
 16 C        5.0770    -4.2630    -0.0110 C.3   1 <1>  -0.2400 
 17 C        6.2810    -2.0480     0.0540 C.3   1 <1>  -0.2400 
 18 H       -2.6160     0.5430    -1.1620 H     1 <1>   0.0800 
 19 H       -2.9580     0.0870     0.5040 H     1 <1>   0.0800 
 20 H       -1.7740    -2.1760     1.2480 H     1 <1>   0.0800 
 21 H       -0.7530    -2.8870     0.0010 H     1 <1>   0.0800 
 22 H        1.2030    -0.6670    -1.8860 H     1 <1>   0.1500 
 23 H        1.8110    -1.1150     2.2960 H     1 <1>   0.1500 
 24 H       -3.6920    -1.3500    -1.9900 H     1 <1>   0.0800 
 25 H       -4.5290    -1.3110    -0.4510 H     1 <1>   0.0800 
 26 H       -3.4480    -3.3110     0.1110 H     1 <1>   0.0800 
 27 H       -2.5780    -3.2470    -1.4090 H     1 <1>   0.0800 
 28 H        3.3200    -1.8030    -2.3230 H     1 <1>   0.1500 
 29 H        3.9260    -2.2520     1.8750 H     1 <1>   0.1500 
 30 H        5.2480    -2.8730    -1.6070 H     1 <1>   0.0800 
 31 H        4.9850    -4.2760     1.0600 H     1 <1>   0.0800 
 32 H        5.9810    -4.7770    -0.2840 H     1 <1>   0.0800 
 33 H        4.2420    -4.7930    -0.4330 H     1 <1>   0.0800 
 34 H        6.2160    -2.0120     1.1270 H     1 <1>   0.0800 
 35 H        6.2800    -1.0400    -0.3220 H     1 <1>   0.0800 
 36 H        7.2110    -2.5140    -0.2180 H     1 <1>   0.0800 
@<TRIPOS>BOND
  1   1   2  2   
  2   1   3  2   
  3   1   4  am  
  4   1   5  1   
  5   4   6  1   
  6   4   7  1   
  7   5   8  ar  
  8   5   9  ar  
  9   6  10  1   
 10   6  18  1   
 11   6  19  1   
 12   7  11  1   
 13   7  20  1   
 14   7  21  1   
 15   8  12  ar  
 16   8  22  1   
 17   9  13  ar  
 18   9  23  1   
 19  10  11  1   
 20  10  24  1   
 21  10  25  1   
 22  11  26  1   
 23  11  27  1   
 24  12  14  ar  
 25  12  28  1   
 26  13  14  ar  
 27  13  29  1   
 28  14  15  1   
 29  15  16  1   
 30  15  17  1   
 31  15  30  1   
 32  16  31  1   
 33  16  32  1   
 34  16  33  1   
 35  17  34  1   
 36  17  35  1   
 37  17  36  1   
@<TRIPOS>SUBSTRUCTURE
  1 ****   5 GROUP 4 **** **** 0

# MOE 2024.06 (io_trps.svl 2023.06)
