@<TRIPOS>MOLECULE
NONAME
46 48 1 0 0 
SMALL
USER_CHARGES


@<TRIPOS>ATOM
  1 BR       0.3930     2.2620    -1.7220 Br    1 <1>  -0.1110 
  2 C        2.0110     1.4420    -1.0790 C.ar  1 <1>   0.1110 
  3 C        2.1120     1.1300     0.2620 C.ar  1 <1>  -0.1500 
  4 C        3.0290     1.1860    -1.9760 C.ar  1 <1>  -0.1500 
  5 C        3.2790     0.5400     0.7200 C.ar  1 <1>  -0.1500 
  6 C        4.1910     0.5970    -1.5060 C.ar  1 <1>  -0.1500 
  7 C        4.3220     0.2730    -0.1600 C.ar  1 <1>  -0.1430 
  8 C        5.6060    -0.3710     0.3420 C.3   1 <1>   0.2540 
  9 N        6.7540     0.5400     0.1560 N.3   1 <1>  -0.8100 
 10 C        6.5860     1.8130     0.9050 C.3   1 <1>   0.1100 
 11 C        8.0330    -0.1120     0.5210 C.3   1 <1>   0.1100 
 12 C        7.8060     2.7550     0.7590 C.3   1 <1>   0.3430 
 13 C        9.2520     0.8150     0.2830 C.3   1 <1>   0.3430 
 14 N        8.8200     2.1740    -0.1850 N.4   1 <1>  -0.9590 
 15 C        9.9500     3.0560    -0.5750 C.3   1 <1>   0.4230 
 16 C       10.7400     3.5550     0.6450 C.3   1 <1>  -0.1600 
 17 C        9.4350     4.2300    -1.4180 C.3   1 <1>  -0.1600 
 18 C       11.9050     4.4550     0.2060 C.3   1 <1>  -0.1600 
 19 C       10.5970     5.1300    -1.8630 C.3   1 <1>  -0.1600 
 20 C       11.4100     5.6230    -0.6590 C.3   1 <1>  -0.1600 
 21 H        1.2950     1.3420     0.9290 H     1 <1>   0.1500 
 22 H        2.9140     1.4400    -3.0140 H     1 <1>   0.1500 
 23 H        3.3660     0.2900     1.7630 H     1 <1>   0.1500 
 24 H        4.9970     0.3890    -2.1880 H     1 <1>   0.1500 
 25 H        5.7730    -1.2770    -0.2160 H     1 <1>   0.0800 
 26 H        5.5080    -0.6330     1.3820 H     1 <1>   0.0800 
 27 H        6.4200     1.6090     1.9490 H     1 <1>   0.0800 
 28 H        5.7160     2.3340     0.5390 H     1 <1>   0.0800 
 29 H        8.1600    -1.0060    -0.0660 H     1 <1>   0.0800 
 30 H        8.0110    -0.4060     1.5570 H     1 <1>   0.0800 
 31 H        8.2510     2.9110     1.7270 H     1 <1>   0.0800 
 32 H        7.4630     3.7090     0.3970 H     1 <1>   0.0800 
 33 H        9.8930     0.3630    -0.4550 H     1 <1>   0.0800 
 34 H        9.8140     0.9010     1.1980 H     1 <1>   0.0800 
 35 H        8.2590     1.9650    -1.0260 H     1 <1>   0.4500 
 36 H       10.6270     2.4900    -1.1960 H     1 <1>   0.0800 
 37 H       11.1410     2.7240     1.1960 H     1 <1>   0.0800 
 38 H       10.1030     4.1270     1.2960 H     1 <1>   0.0800 
 39 H        8.7460     4.8290    -0.8490 H     1 <1>   0.0800 
 40 H        8.9300     3.8590    -2.2920 H     1 <1>   0.0800 
 41 H       12.6200     3.8770    -0.3550 H     1 <1>   0.0800 
 42 H       12.4110     4.8440     1.0740 H     1 <1>   0.0800 
 43 H       10.2120     5.9780    -2.4050 H     1 <1>   0.0800 
 44 H       11.2440     4.5850    -2.5310 H     1 <1>   0.0800 
 45 H       12.2550     6.1940    -1.0060 H     1 <1>   0.0800 
 46 H       10.8010     6.2800    -0.0600 H     1 <1>   0.0800 
@<TRIPOS>BOND
  1   1   2  1   
  2   2   3  ar  
  3   2   4  ar  
  4   3   5  ar  
  5   3  21  1   
  6   4   6  ar  
  7   4  22  1   
  8   5   7  ar  
  9   5  23  1   
 10   6   7  ar  
 11   6  24  1   
 12   7   8  1   
 13   8   9  1   
 14   8  25  1   
 15   8  26  1   
 16   9  10  1   
 17   9  11  1   
 18  10  12  1   
 19  10  27  1   
 20  10  28  1   
 21  11  13  1   
 22  11  29  1   
 23  11  30  1   
 24  12  14  1   
 25  12  31  1   
 26  12  32  1   
 27  13  14  1   
 28  13  33  1   
 29  13  34  1   
 30  14  15  1   
 31  14  35  1   
 32  15  16  1   
 33  15  17  1   
 34  15  36  1   
 35  16  18  1   
 36  16  37  1   
 37  16  38  1   
 38  17  19  1   
 39  17  39  1   
 40  17  40  1   
 41  18  20  1   
 42  18  41  1   
 43  18  42  1   
 44  19  20  1   
 45  19  43  1   
 46  19  44  1   
 47  20  45  1   
 48  20  46  1   
@<TRIPOS>SUBSTRUCTURE
  1 ****  10 GROUP 4 **** **** 0

# MOE 2024.06 (io_trps.svl 2023.06)
