@<TRIPOS>MOLECULE
NONAME
42 43 1 0 0 
SMALL
USER_CHARGES


@<TRIPOS>ATOM
  1 O       -5.6730     2.8200     0.2840 O.3   1 <1>  -0.3630 
  2 C       -4.4220     2.2970     0.2120 C.ar  1 <1>   0.0830 
  3 C       -6.8300     2.0920    -0.0380 C.3   1 <1>   0.1200 
  4 C       -3.3520     3.1400     0.5200 C.ar  1 <1>   0.0730 
  5 C       -4.1840     0.9730    -0.1520 C.ar  1 <1>  -0.1500 
  6 C       -8.0110     3.0440     0.1530 C.3   1 <1>  -0.1600 
  7 C       -3.5730     4.5070     0.8960 C.1   1 <1>   0.4840 
  8 C       -2.0580     2.6330     0.4560 C.ar  1 <1>  -0.1500 
  9 C       -2.8910     0.4890    -0.2110 C.ar  1 <1>  -0.1500 
 10 C       -9.3330     2.3660    -0.2000 C.3   1 <1>   0.3430 
 11 N       -3.7410     5.5960     1.1940 N.1   1 <1>  -0.5570 
 12 C       -1.8260     1.3190     0.0930 C.ar  1 <1>  -0.1500 
 13 N      -10.4780     3.2670     0.1110 N.4   1 <1>  -0.9590 
 14 C      -11.7610     2.5050     0.1220 C.3   1 <1>   0.3430 
 15 C      -10.5530     4.4400    -0.8150 C.3   1 <1>   0.3430 
 16 C      -12.8980     3.4120     0.5940 C.3   1 <1>  -0.1600 
 17 C      -11.6670     5.3850    -0.3640 C.3   1 <1>  -0.1600 
 18 C      -13.0220     4.6660    -0.2820 C.3   1 <1>  -0.0800 
 19 C      -14.0990     5.6060     0.2690 C.3   1 <1>  -0.2400 
 20 H       -6.8940     1.2470     0.6260 H     1 <1>   0.0800 
 21 H       -6.7490     1.7660    -1.0610 H     1 <1>   0.0800 
 22 H       -4.9870     0.3030    -0.3940 H     1 <1>   0.1500 
 23 H       -7.8520     3.8990    -0.4780 H     1 <1>   0.0800 
 24 H       -8.0290     3.3580     1.1820 H     1 <1>   0.0800 
 25 H       -1.2240     3.2720     0.6910 H     1 <1>   0.1500 
 26 H       -2.7080    -0.5340    -0.4930 H     1 <1>   0.1500 
 27 H       -9.4230     1.4610     0.3810 H     1 <1>   0.0800 
 28 H       -9.3450     2.0980    -1.2450 H     1 <1>   0.0800 
 29 H       -0.8190     0.9400     0.0480 H     1 <1>   0.1500 
 30 H      -10.3430     3.6430     1.0590 H     1 <1>   0.4500 
 31 H      -11.6840     1.6570     0.7840 H     1 <1>   0.0800 
 32 H      -11.9800     2.1420    -0.8700 H     1 <1>   0.0800 
 33 H      -10.7520     4.1010    -1.8190 H     1 <1>   0.0800 
 34 H       -9.6180     4.9760    -0.8170 H     1 <1>   0.0800 
 35 H      -12.7310     3.6870     1.6210 H     1 <1>   0.0800 
 36 H      -13.8210     2.8590     0.5560 H     1 <1>   0.0800 
 37 H      -11.7370     6.1980    -1.0660 H     1 <1>   0.0800 
 38 H      -11.4090     5.8070     0.5910 H     1 <1>   0.0800 
 39 H      -13.3150     4.3670    -1.2760 H     1 <1>   0.0800 
 40 H      -13.8540     5.9360     1.2630 H     1 <1>   0.0800 
 41 H      -15.0520     5.1060     0.3020 H     1 <1>   0.0800 
 42 H      -14.2000     6.4720    -0.3620 H     1 <1>   0.0800 
@<TRIPOS>BOND
  1   1   2  1   
  2   1   3  1   
  3   2   4  ar  
  4   2   5  ar  
  5   3   6  1   
  6   3  20  1   
  7   3  21  1   
  8   4   7  1   
  9   4   8  ar  
 10   5   9  ar  
 11   5  22  1   
 12   6  10  1   
 13   6  23  1   
 14   6  24  1   
 15   7  11  3   
 16   8  12  ar  
 17   8  25  1   
 18   9  12  ar  
 19   9  26  1   
 20  10  13  1   
 21  10  27  1   
 22  10  28  1   
 23  12  29  1   
 24  13  14  1   
 25  13  15  1   
 26  13  30  1   
 27  14  16  1   
 28  14  31  1   
 29  14  32  1   
 30  15  17  1   
 31  15  33  1   
 32  15  34  1   
 33  16  18  1   
 34  16  35  1   
 35  16  36  1   
 36  17  18  1   
 37  17  37  1   
 38  17  38  1   
 39  18  19  1   
 40  18  39  1   
 41  19  40  1   
 42  19  41  1   
 43  19  42  1   
@<TRIPOS>SUBSTRUCTURE
  1 ****   6 GROUP 4 **** **** 0

# MOE 2024.06 (io_trps.svl 2023.06)
