@<TRIPOS>MOLECULE
NONAME
38 39 1 0 0 
SMALL
USER_CHARGES


@<TRIPOS>ATOM
  1 S       -0.1740    -0.2290     0.1700 S.o2  1 <1>   1.4470 
  2 O       -0.5220    -0.7010     1.4940 O.2   1 <1>  -0.6500 
  3 O        0.0050    -1.1830    -0.9020 O.2   1 <1>  -0.6500 
  4 N       -1.4160     0.8250    -0.3050 N.am  1 <1>  -0.8490 
  5 C        1.2800     0.8550     0.2460 C.ar  1 <1>  -0.0090 
  6 C       -1.7680     1.7700     0.7610 C.3   1 <1>   0.1960 
  7 C       -2.5940     0.0770    -0.7520 C.3   1 <1>   0.1960 
  8 C        1.9280     1.1130     1.4500 C.ar  1 <1>  -0.1500 
  9 C        1.7690     1.4670    -0.9050 C.ar  1 <1>  -0.1500 
 10 C       -2.7650     2.8030     0.2340 C.3   1 <1>  -0.1600 
 11 C       -3.6360     1.0370    -1.3340 C.3   1 <1>  -0.1600 
 12 C        3.0270     1.9540     1.5060 C.ar  1 <1>  -0.1500 
 13 C        2.8680     2.3090    -0.8640 C.ar  1 <1>  -0.1500 
 14 C       -4.0290     2.1210    -0.3150 C.3   1 <1>  -0.0190 
 15 C        3.4910     2.5490     0.3490 C.ar  1 <1>   0.1010 
 16 C       -5.0160     3.1280    -0.8960 C.2   1 <1>   0.5690 
 17 S        4.9220     3.6310     0.4990 S.3   1 <1>  -0.3320 
 18 O       -6.1000     3.2590    -0.3910 O.2   1 <1>  -0.5700 
 19 N       -4.6800     3.8700    -1.9680 N.am  1 <1>  -0.8000 
 20 C        5.3200     4.2300    -1.2030 C.3   1 <1>  -0.0100 
 21 H       -0.8850     2.2830     1.1030 H     1 <1>   0.0800 
 22 H       -2.1950     1.2410     1.5990 H     1 <1>   0.0800 
 23 H       -3.0140    -0.4760     0.0730 H     1 <1>   0.0800 
 24 H       -2.3130    -0.6270    -1.5190 H     1 <1>   0.0800 
 25 H        1.5710     0.6500     2.3550 H     1 <1>   0.1500 
 26 H        1.2790     1.2750    -1.8450 H     1 <1>   0.1500 
 27 H       -2.2860     3.3820    -0.5360 H     1 <1>   0.0800 
 28 H       -3.0360     3.4740     1.0300 H     1 <1>   0.0800 
 29 H       -4.5100     0.4800    -1.6210 H     1 <1>   0.0800 
 30 H       -3.2260     1.4860    -2.2210 H     1 <1>   0.0800 
 31 H        3.5250     2.1490     2.4400 H     1 <1>   0.1500 
 32 H        3.2190     2.7620    -1.7710 H     1 <1>   0.1500 
 33 H       -4.5240     1.6330     0.5080 H     1 <1>   0.0800 
 34 H       -5.3550     4.5380    -2.3420 H     1 <1>   0.3700 
 35 H       -3.7830     3.8040    -2.4450 H     1 <1>   0.3700 
 36 H        6.1820     4.8670    -1.1280 H     1 <1>   0.0800 
 37 H        4.4710     4.7790    -1.5690 H     1 <1>   0.0800 
 38 H        5.5310     3.3720    -1.8160 H     1 <1>   0.0800 
@<TRIPOS>BOND
  1   1   2  2   
  2   1   3  2   
  3   1   4  am  
  4   1   5  1   
  5   4   6  1   
  6   4   7  1   
  7   5   8  ar  
  8   5   9  ar  
  9   6  10  1   
 10   6  21  1   
 11   6  22  1   
 12   7  11  1   
 13   7  23  1   
 14   7  24  1   
 15   8  12  ar  
 16   8  25  1   
 17   9  13  ar  
 18   9  26  1   
 19  10  14  1   
 20  10  27  1   
 21  10  28  1   
 22  11  14  1   
 23  11  29  1   
 24  11  30  1   
 25  12  15  ar  
 26  12  31  1   
 27  13  15  ar  
 28  13  32  1   
 29  14  16  1   
 30  14  33  1   
 31  15  17  1   
 32  16  18  2   
 33  16  19  am  
 34  17  20  1   
 35  19  34  1   
 36  19  35  1   
 37  20  36  1   
 38  20  37  1   
 39  20  38  1   
@<TRIPOS>SUBSTRUCTURE
  1 ****   4 GROUP 4 **** **** 0

# MOE 2024.06 (io_trps.svl 2023.06)
