@<TRIPOS>MOLECULE
NONAME
44 45 1 0 0 
SMALL
USER_CHARGES


@<TRIPOS>ATOM
  1 O        0.4780    -0.4070    -1.0000 O.2   1 <1>  -0.5700 
  2 C        0.4270    -1.6030    -0.7980 C.2   1 <1>   0.7800 
  3 O       -0.7310    -2.1820    -0.4880 O.3   1 <1>  -0.4300 
  4 N        1.5420    -2.3980    -0.8480 N.am  1 <1>  -0.6600 
  5 C       -1.9220    -1.4280    -0.4310 C.3   1 <1>   0.1200 
  6 C        2.8850    -1.8320    -1.1710 C.3   1 <1>   0.1400 
  7 C        1.5470    -3.8310    -0.4310 C.3   1 <1>   0.1400 
  8 C       -3.0610    -2.3700    -0.0510 C.3   1 <1>  -0.2400 
  9 C        3.8520    -2.0510     0.0050 C.3   1 <1>   0.3430 
 10 C        2.5270    -4.0430     0.7390 C.3   1 <1>   0.3430 
 11 N        3.8990    -3.4970     0.4380 N.4   1 <1>  -0.9590 
 12 C        4.8370    -3.6940     1.5770 C.3   1 <1>   0.4860 
 13 C        6.2300    -3.3220     1.1110 C.ar  1 <1>  -0.1440 
 14 C        6.8590    -4.0790     0.1340 C.ar  1 <1>  -0.1500 
 15 C        6.8860    -2.2210     1.6410 C.ar  1 <1>  -0.1500 
 16 C        8.1160    -3.7480    -0.3410 C.ar  1 <1>   0.0820 
 17 C        8.1470    -1.8780     1.1860 C.ar  1 <1>  -0.1500 
 18 O        8.5760    -4.5850    -1.3130 O.3   1 <1>  -0.3620 
 19 C        8.7680    -2.6260     0.1970 C.ar  1 <1>   0.0820 
 20 C        9.9030    -4.5520    -1.7910 C.3   1 <1>   0.0400 
 21 O        9.9900    -2.2140    -0.2010 O.3   1 <1>  -0.5330 
 22 H       -2.0940    -0.9860    -1.3980 H     1 <1>   0.0800 
 23 H       -1.8030    -0.6510     0.3050 H     1 <1>   0.0800 
 24 H        2.8150    -0.7770    -1.3780 H     1 <1>   0.0800 
 25 H        3.2700    -2.3080    -2.0560 H     1 <1>   0.0800 
 26 H        1.8360    -4.4420    -1.2680 H     1 <1>   0.0800 
 27 H        0.5630    -4.1460    -0.1270 H     1 <1>   0.0800 
 28 H       -3.1650    -3.1440    -0.7900 H     1 <1>   0.0800 
 29 H       -3.9830    -1.8200    -0.0020 H     1 <1>   0.0800 
 30 H       -2.8750    -2.8110     0.9120 H     1 <1>   0.0800 
 31 H        3.5300    -1.4340     0.8280 H     1 <1>   0.0800 
 32 H        4.8370    -1.7220    -0.2870 H     1 <1>   0.0800 
 33 H        2.5900    -5.0970     0.9570 H     1 <1>   0.0800 
 34 H        2.1240    -3.5490     1.6080 H     1 <1>   0.0800 
 35 H        4.2930    -4.0230    -0.3530 H     1 <1>   0.4500 
 36 H        4.8320    -4.7250     1.8910 H     1 <1>   0.0800 
 37 H        4.5470    -3.0780     2.4120 H     1 <1>   0.0800 
 38 H        6.3890    -4.9520    -0.2830 H     1 <1>   0.1500 
 39 H        6.4300    -1.6190     2.4110 H     1 <1>   0.1500 
 40 H        8.6450    -1.0230     1.6080 H     1 <1>   0.1500 
 41 H       10.0400    -5.3790    -2.4640 H     1 <1>   0.0800 
 42 H       10.5780    -4.6430    -0.9580 H     1 <1>   0.0800 
 43 H       10.0630    -3.6270    -2.3150 H     1 <1>   0.0800 
 44 H       10.3160    -1.4360     0.2840 H     1 <1>   0.4500 
@<TRIPOS>BOND
  1   1   2  2   
  2   2   3  1   
  3   2   4  am  
  4   3   5  1   
  5   4   6  1   
  6   4   7  1   
  7   5   8  1   
  8   5  22  1   
  9   5  23  1   
 10   6   9  1   
 11   6  24  1   
 12   6  25  1   
 13   7  10  1   
 14   7  26  1   
 15   7  27  1   
 16   8  28  1   
 17   8  29  1   
 18   8  30  1   
 19   9  11  1   
 20   9  31  1   
 21   9  32  1   
 22  10  11  1   
 23  10  33  1   
 24  10  34  1   
 25  11  12  1   
 26  11  35  1   
 27  12  13  1   
 28  12  36  1   
 29  12  37  1   
 30  13  14  ar  
 31  13  15  ar  
 32  14  16  ar  
 33  14  38  1   
 34  15  17  ar  
 35  15  39  1   
 36  16  18  1   
 37  16  19  ar  
 38  17  19  ar  
 39  17  40  1   
 40  18  20  1   
 41  19  21  1   
 42  20  41  1   
 43  20  42  1   
 44  20  43  1   
 45  21  44  1   
@<TRIPOS>SUBSTRUCTURE
  1 ****   9 GROUP 4 **** **** 0

# MOE 2024.06 (io_trps.svl 2023.06)
