@<TRIPOS>MOLECULE
NONAME
37 38 1 0 0 
SMALL
USER_CHARGES


@<TRIPOS>ATOM
  1 S       -0.6360    -0.1380    -0.5890 S.3   1 <1>  -0.3710 
  2 C       -2.1350     0.7890    -0.8600 C.2   1 <1>   0.6510 
  3 C        0.5360     1.0990     0.1270 C.3   1 <1>   0.1500 
  4 N       -2.1810     2.0360    -0.5900 N.2   1 <1>  -0.6210 
  5 N       -3.1510     0.0480    -1.3620 N.am  1 <1>  -0.4900 
  6 C        1.9530     0.6190    -0.2190 C.3   1 <1>  -0.1600 
  7 C        0.2570     1.1700     1.6310 C.3   1 <1>  -0.2400 
  8 C       -3.3720     2.6800    -0.8190 C.2   1 <1>   0.0210 
  9 C       -4.3480     0.6420    -1.6190 C.2   1 <1>   0.6160 
 10 C        3.0460     1.6090     0.2090 C.3   1 <1>  -0.2400 
 11 O       -3.3990     3.8850    -0.5500 O.3   1 <1>  -0.8500 
 12 C       -4.4730     1.9940    -1.3290 C.2   1 <1>  -0.1240 
 13 O       -5.2220    -0.0890    -2.1140 O.2   1 <1>  -0.5700 
 14 C       -5.7910     2.7110    -1.5690 C.3   1 <1>   0.1220 
 15 C       -6.7710     2.4510    -0.4310 C.ar  1 <1>  -0.1440 
 16 C       -7.8880     1.6480    -0.6070 C.ar  1 <1>  -0.1500 
 17 C       -6.5350     3.0280     0.8050 C.ar  1 <1>  -0.1500 
 18 C       -8.7690     1.4390     0.4410 C.ar  1 <1>  -0.1500 
 19 C       -7.4140     2.8200     1.8550 C.ar  1 <1>  -0.1500 
 20 C       -8.5340     2.0270     1.6720 C.ar  1 <1>  -0.1500 
 21 H        0.3330     2.0460    -0.3470 H     1 <1>   0.0800 
 22 H       -3.0460    -0.9370    -1.5500 H     1 <1>   0.3700 
 23 H        2.0130     0.4860    -1.2850 H     1 <1>   0.0800 
 24 H        2.1310    -0.3350     0.2440 H     1 <1>   0.0800 
 25 H        0.4390     0.2190     2.0950 H     1 <1>   0.0800 
 26 H       -0.7690     1.4510     1.7930 H     1 <1>   0.0800 
 27 H        0.8780     1.9150     2.0920 H     1 <1>   0.0800 
 28 H        2.8590     2.5780    -0.2180 H     1 <1>   0.0800 
 29 H        4.0060     1.2640    -0.1300 H     1 <1>   0.0800 
 30 H        3.0800     1.7020     1.2800 H     1 <1>   0.0800 
 31 H       -6.2080     2.3870    -2.5030 H     1 <1>   0.0800 
 32 H       -5.6160     3.7690    -1.6470 H     1 <1>   0.0800 
 33 H       -8.0660     1.1820    -1.5600 H     1 <1>   0.1500 
 34 H       -5.6510     3.6360     0.9380 H     1 <1>   0.1500 
 35 H       -9.6330     0.8160     0.2960 H     1 <1>   0.1500 
 36 H       -7.2160     3.2760     2.8080 H     1 <1>   0.1500 
 37 H       -9.2160     1.8650     2.4870 H     1 <1>   0.1500 
@<TRIPOS>BOND
  1   1   2  1   
  2   1   3  1   
  3   2   4  2   
  4   2   5  1   
  5   3   6  1   
  6   3   7  1   
  7   3  21  1   
  8   4   8  1   
  9   5   9  am  
 10   5  22  1   
 11   6  10  1   
 12   6  23  1   
 13   6  24  1   
 14   7  25  1   
 15   7  26  1   
 16   7  27  1   
 17   8  11  1   
 18   8  12  2   
 19   9  12  1   
 20   9  13  2   
 21  10  28  1   
 22  10  29  1   
 23  10  30  1   
 24  12  14  1   
 25  14  15  1   
 26  14  31  1   
 27  14  32  1   
 28  15  16  ar  
 29  15  17  ar  
 30  16  18  ar  
 31  16  33  1   
 32  17  19  ar  
 33  17  34  1   
 34  18  20  ar  
 35  18  35  1   
 36  19  20  ar  
 37  19  36  1   
 38  20  37  1   
@<TRIPOS>SUBSTRUCTURE
  1 ****   8 GROUP 4 **** **** 0

# MOE 2024.06 (io_trps.svl 2023.06)
