@<TRIPOS>MOLECULE
NONAME
40 42 1 0 0 
SMALL
USER_CHARGES


@<TRIPOS>ATOM
  1 F       -0.8720     1.1540     2.0090 F     1 <1>  -0.1900 
  2 C       -2.0710     1.3860     1.5400 C.ar  1 <1>   0.1900 
  3 C       -3.1180     1.5310     2.4290 C.ar  1 <1>  -0.1500 
  4 C       -2.2480     1.4790     0.1730 C.ar  1 <1>  -0.1500 
  5 C       -4.3840     1.7760     1.9240 C.ar  1 <1>  -0.1500 
  6 C       -3.5200     1.7250    -0.3150 C.ar  1 <1>  -0.1500 
  7 C       -4.6030     1.8750     0.5510 C.ar  1 <1>   0.1170 
  8 N       -5.9090     2.1260     0.1060 N.am  1 <1>  -0.5470 
  9 C       -6.5000     2.1190    -1.1250 C.2   1 <1>   0.5690 
 10 O       -5.9310     1.8610    -2.1590 O.2   1 <1>  -0.5700 
 11 C       -7.9890     2.4710    -1.1610 C.3   1 <1>   0.1710 
 12 N       -8.7040     2.2040     0.1270 N.3   1 <1>  -0.8100 
 13 C       -8.8360     0.7410     0.3600 C.3   1 <1>   0.1100 
 14 C       -9.9690     2.9680     0.2270 C.3   1 <1>   0.1100 
 15 C       -9.9950     0.4360     1.3040 C.3   1 <1>  -0.1600 
 16 C      -11.1660     2.1310    -0.2230 C.3   1 <1>  -0.1600 
 17 C      -11.3100     0.8920     0.6720 C.3   1 <1>   0.5600 
 18 O      -12.2270     1.1330     1.6870 O.3   1 <1>  -0.5600 
 19 O      -11.8430    -0.1540    -0.0690 O.3   1 <1>  -0.5600 
 20 C      -13.4710     0.6550     1.3120 C.3   1 <1>   0.1200 
 21 C      -13.2180    -0.1090     0.0280 C.3   1 <1>   0.1200 
 22 H       -2.9410     1.4530     3.4860 H     1 <1>   0.1500 
 23 H       -1.4100     1.3610    -0.4900 H     1 <1>   0.1500 
 24 H       -5.2100     1.8910     2.6030 H     1 <1>   0.1500 
 25 H       -3.6620     1.8010    -1.3770 H     1 <1>   0.1500 
 26 H       -6.6100     2.2990     0.8350 H     1 <1>   0.3700 
 27 H       -8.4590     1.9290    -1.9630 H     1 <1>   0.0800 
 28 H       -8.0500     3.5180    -1.3940 H     1 <1>   0.0800 
 29 H       -7.9200     0.3570     0.7750 H     1 <1>   0.0800 
 30 H       -9.0170     0.2310    -0.5730 H     1 <1>   0.0800 
 31 H       -9.9130     3.8770    -0.3490 H     1 <1>   0.0800 
 32 H      -10.1170     3.2520     1.2560 H     1 <1>   0.0800 
 33 H       -9.8310     0.9590     2.2280 H     1 <1>   0.0800 
 34 H      -10.0400    -0.6170     1.5120 H     1 <1>   0.0800 
 35 H      -11.0050     1.8290    -1.2410 H     1 <1>   0.0800 
 36 H      -12.0600     2.7240    -0.1790 H     1 <1>   0.0800 
 37 H      -14.1410     1.4830     1.1630 H     1 <1>   0.0800 
 38 H      -13.8400     0.0110     2.0910 H     1 <1>   0.0800 
 39 H      -13.6070    -1.1110     0.0630 H     1 <1>   0.0800 
 40 H      -13.6110     0.4160    -0.8250 H     1 <1>   0.0800 
@<TRIPOS>BOND
  1   1   2  1   
  2   2   3  ar  
  3   2   4  ar  
  4   3   5  ar  
  5   3  22  1   
  6   4   6  ar  
  7   4  23  1   
  8   5   7  ar  
  9   5  24  1   
 10   6   7  ar  
 11   6  25  1   
 12   7   8  1   
 13   8   9  am  
 14   8  26  1   
 15   9  10  2   
 16   9  11  1   
 17  11  12  1   
 18  11  27  1   
 19  11  28  1   
 20  12  13  1   
 21  12  14  1   
 22  13  15  1   
 23  13  29  1   
 24  13  30  1   
 25  14  16  1   
 26  14  31  1   
 27  14  32  1   
 28  15  17  1   
 29  15  33  1   
 30  15  34  1   
 31  16  17  1   
 32  16  35  1   
 33  16  36  1   
 34  17  18  1   
 35  17  19  1   
 36  18  20  1   
 37  19  21  1   
 38  20  21  1   
 39  20  37  1   
 40  20  38  1   
 41  21  39  1   
 42  21  40  1   
@<TRIPOS>SUBSTRUCTURE
  1 ****  12 GROUP 4 **** **** 0

# MOE 2024.06 (io_trps.svl 2023.06)
