@<TRIPOS>MOLECULE
NONAME
29 30 1 0 0 
SMALL
USER_CHARGES


@<TRIPOS>ATOM
  1 O       -6.4270     1.9430     1.0960 O.2   1 <1>  -0.5700 
  2 C       -7.2560     1.1430     0.7720 C.2   1 <1>   0.4480 
  3 C       -6.9490    -0.2950     0.3810 C.3   1 <1>   0.3120 
  4 C       -8.7330     1.4770     0.6090 C.3   1 <1>  -0.0190 
  5 N       -8.2020    -0.9570    -0.1800 N.3   1 <1>  -0.8100 
  6 C       -6.2510    -0.9660     1.5850 C.2   1 <1>   0.6590 
  7 C       -9.5360     0.4270     1.4030 C.3   1 <1>  -0.1600 
  8 C       -9.0640     1.2750    -0.8840 C.3   1 <1>  -0.1600 
  9 C       -9.2790    -0.9900     0.8380 C.3   1 <1>   0.1100 
 10 C       -8.6880    -0.1600    -1.3310 C.3   1 <1>   0.1100 
 11 O       -6.8490    -1.2720     2.5850 O.2   1 <1>  -0.5700 
 12 O       -4.9430    -1.2180     1.5260 O.3   1 <1>  -0.4300 
 13 C       -4.0050    -0.4850     0.7720 C.3   1 <1>   0.1200 
 14 C       -2.6130    -0.8790     1.2520 C.3   1 <1>  -0.2400 
 15 H       -6.2440    -0.2540    -0.4240 H     1 <1>   0.0800 
 16 H       -8.9420     2.4790     0.9390 H     1 <1>   0.0800 
 17 H      -10.5880     0.6450     1.3580 H     1 <1>   0.0800 
 18 H       -9.2460     0.4530     2.4400 H     1 <1>   0.0800 
 19 H       -8.5260     1.9890    -1.4820 H     1 <1>   0.0800 
 20 H      -10.1140     1.4390    -1.0550 H     1 <1>   0.0800 
 21 H       -9.0250    -1.6720     1.6320 H     1 <1>   0.0800 
 22 H      -10.1800    -1.3670     0.3830 H     1 <1>   0.0800 
 23 H       -7.9230    -0.1230    -2.0890 H     1 <1>   0.0800 
 24 H       -9.5470    -0.6470    -1.7630 H     1 <1>   0.0800 
 25 H       -4.1750     0.5670     0.9340 H     1 <1>   0.0800 
 26 H       -4.1260    -0.7290    -0.2690 H     1 <1>   0.0800 
 27 H       -2.5030    -0.6450     2.2960 H     1 <1>   0.0800 
 28 H       -1.8680    -0.3360     0.6990 H     1 <1>   0.0800 
 29 H       -2.4530    -1.9320     1.1020 H     1 <1>   0.0800 
@<TRIPOS>BOND
  1   1   2  2   
  2   2   3  1   
  3   2   4  1   
  4   3   5  1   
  5   3   6  1   
  6   3  15  1   
  7   4   7  1   
  8   4   8  1   
  9   4  16  1   
 10   5   9  1   
 11   5  10  1   
 12   6  11  2   
 13   6  12  1   
 14   7   9  1   
 15   7  17  1   
 16   7  18  1   
 17   8  10  1   
 18   8  19  1   
 19   8  20  1   
 20   9  21  1   
 21   9  22  1   
 22  10  23  1   
 23  10  24  1   
 24  12  13  1   
 25  13  14  1   
 26  13  25  1   
 27  13  26  1   
 28  14  27  1   
 29  14  28  1   
 30  14  29  1   
@<TRIPOS>SUBSTRUCTURE
  1 ****   3 GROUP 4 **** **** 0

# MOE 2024.06 (io_trps.svl 2023.06)
