@<TRIPOS>MOLECULE
NONAME
46 48 1 0 0 
SMALL
USER_CHARGES


@<TRIPOS>ATOM
  1 F        0.6180    -0.1030     0.3380 F     1 <1>  -0.1900 
  2 C        1.7660    -0.7160     0.2640 C.ar  1 <1>   0.1900 
  3 C        2.4190    -1.0580     1.4330 C.ar  1 <1>  -0.1500 
  4 C        2.2920    -1.0050    -0.9810 C.ar  1 <1>  -0.1500 
  5 C        3.6390    -1.7060     1.3440 C.ar  1 <1>  -0.1500 
  6 C        3.5130    -1.6530    -1.0500 C.ar  1 <1>  -0.1500 
  7 C        4.2140    -2.0080     0.1070 C.ar  1 <1>   0.0860 
  8 C        5.4970    -2.6800     0.0340 C.2   1 <1>   0.5440 
  9 O        5.6190    -3.7660     0.5680 O.2   1 <1>  -0.5700 
 10 N        6.5820    -2.1230    -0.6150 N.am  1 <1>  -0.6600 
 11 C        6.6620    -0.6880    -1.0070 C.3   1 <1>   0.1400 
 12 C        7.8470    -2.8860    -0.8100 C.3   1 <1>   0.1400 
 13 C        7.7880    -0.0050    -0.2260 C.3   1 <1>  -0.1600 
 14 C        8.9770    -2.2200    -0.0210 C.3   1 <1>  -0.1600 
 15 C        9.1360    -0.7360    -0.4010 C.3   1 <1>  -0.0190 
 16 C       10.2700    -0.0840     0.3940 C.2   1 <1>   0.5690 
 17 O       10.0170     0.5100     1.4130 O.2   1 <1>  -0.5700 
 18 N       11.5410    -0.2270    -0.0970 N.am  1 <1>  -0.5470 
 19 C       12.7670     0.2640     0.3740 C.ar  1 <1>   0.1170 
 20 C       13.9360    -0.3890    -0.0010 C.ar  1 <1>  -0.1500 
 21 C       12.8720     1.3870     1.1870 C.ar  1 <1>  -0.1500 
 22 C       15.1880     0.0520     0.4160 C.ar  1 <1>  -0.1430 
 23 C       14.1050     1.8380     1.6150 C.ar  1 <1>  -0.1500 
 24 C       15.2570     1.1750     1.2330 C.ar  1 <1>  -0.1500 
 25 C       16.4710    -0.6840    -0.0010 C.3   1 <1>   1.1630 
 26 F       17.4820     0.1440    -0.2380 F     1 <1>  -0.3400 
 27 F       16.3170    -1.4040    -1.1060 F     1 <1>  -0.3400 
 28 F       16.8890    -1.5240     0.9360 F     1 <1>  -0.3400 
 29 H        1.9780    -0.8240     2.3850 H     1 <1>   0.1500 
 30 H        1.7510    -0.7290    -1.8690 H     1 <1>   0.1500 
 31 H        4.1650    -1.9900     2.2400 H     1 <1>   0.1500 
 32 H        3.9370    -1.8950    -2.0090 H     1 <1>   0.1500 
 33 H        5.7380    -0.1770    -0.8020 H     1 <1>   0.0800 
 34 H        6.8540    -0.6230    -2.0640 H     1 <1>   0.0800 
 35 H        8.0860    -2.9020    -1.8590 H     1 <1>   0.0800 
 36 H        7.7330    -3.9060    -0.4840 H     1 <1>   0.0800 
 37 H        7.5170     0.0160     0.8160 H     1 <1>   0.0800 
 38 H        7.8840     1.0140    -0.5560 H     1 <1>   0.0800 
 39 H        9.8940    -2.7500    -0.2050 H     1 <1>   0.0800 
 40 H        8.7580    -2.3030     1.0310 H     1 <1>   0.0800 
 41 H        9.3980    -0.6820    -1.4430 H     1 <1>   0.0800 
 42 H       11.6150    -0.8260    -0.9160 H     1 <1>   0.3700 
 43 H       13.8570    -1.2610    -0.6260 H     1 <1>   0.1500 
 44 H       11.9880     1.9190     1.4890 H     1 <1>   0.1500 
 45 H       14.1670     2.7080     2.2470 H     1 <1>   0.1500 
 46 H       16.2100     1.5420     1.5800 H     1 <1>   0.1500 
@<TRIPOS>BOND
  1   1   2  1   
  2   2   3  ar  
  3   2   4  ar  
  4   3   5  ar  
  5   3  29  1   
  6   4   6  ar  
  7   4  30  1   
  8   5   7  ar  
  9   5  31  1   
 10   6   7  ar  
 11   6  32  1   
 12   7   8  1   
 13   8   9  2   
 14   8  10  am  
 15  10  11  1   
 16  10  12  1   
 17  11  13  1   
 18  11  33  1   
 19  11  34  1   
 20  12  14  1   
 21  12  35  1   
 22  12  36  1   
 23  13  15  1   
 24  13  37  1   
 25  13  38  1   
 26  14  15  1   
 27  14  39  1   
 28  14  40  1   
 29  15  16  1   
 30  15  41  1   
 31  16  17  2   
 32  16  18  am  
 33  18  19  1   
 34  18  42  1   
 35  19  20  ar  
 36  19  21  ar  
 37  20  22  ar  
 38  20  43  1   
 39  21  23  ar  
 40  21  44  1   
 41  22  24  ar  
 42  22  25  1   
 43  23  24  ar  
 44  23  45  1   
 45  24  46  1   
 46  25  26  1   
 47  25  27  1   
 48  25  28  1   
@<TRIPOS>SUBSTRUCTURE
  1 ****  15 GROUP 4 **** **** 0

# MOE 2024.06 (io_trps.svl 2023.06)
