@<TRIPOS>MOLECULE
Structure601
29 30 1 0 0 
SMALL
USER_CHARGES


@<TRIPOS>ATOM
  1 CL      -0.5250     0.3470     2.0500 Cl    1 <1>  -0.1770 
  2 C       -1.8130     0.9530     1.0490 C.ar  1 <1>   0.4870 
  3 N       -1.6040     2.1020     0.4460 N.ar  1 <1>  -0.6200 
  4 C       -2.9600     0.2260     0.9350 C.ar  1 <1>  -0.1500 
  5 C       -2.6230     2.5030    -0.2900 C.ar  1 <1>   0.4700 
  6 C       -3.9500     0.7450     0.1300 C.ar  1 <1>   0.4100 
  7 N       -3.7810     1.9010    -0.4850 N.ar  1 <1>  -0.6200 
  8 N       -5.1400     0.0780    -0.0570 N.pl3 1 <1>  -0.8380 
  9 C       -6.3870     0.8360    -0.3550 C.3   1 <1>   0.2090 
 10 C       -5.1440    -1.3230    -0.5450 C.3   1 <1>   0.2090 
 11 C       -7.6050     0.1170     0.2460 C.3   1 <1>  -0.0800 
 12 C       -6.3290    -2.0680     0.0730 C.3   1 <1>  -0.1600 
 13 C       -7.6610    -1.3560    -0.2140 C.3   1 <1>  -0.1600 
 14 C       -8.8780     0.8930    -0.1210 C.3   1 <1>   0.1200 
 15 O       -9.9780     0.3140     0.4880 O.3   1 <1>  -0.6800 
 16 H       -3.0940    -0.7010     1.4520 H     1 <1>   0.1500 
 17 H       -2.4920     3.4440    -0.7990 H     1 <1>   0.1500 
 18 H       -6.4940     0.9250    -1.4220 H     1 <1>   0.0800 
 19 H       -6.3160     1.8270     0.0610 H     1 <1>   0.0800 
 20 H       -4.2240    -1.8180    -0.2850 H     1 <1>   0.0800 
 21 H       -5.2320    -1.3200    -1.6180 H     1 <1>   0.0800 
 22 H       -7.4950     0.1500     1.3170 H     1 <1>   0.0800 
 23 H       -6.1770    -2.1360     1.1360 H     1 <1>   0.0800 
 24 H       -6.3620    -3.0690    -0.3190 H     1 <1>   0.0800 
 25 H       -7.8620    -1.3960    -1.2710 H     1 <1>   0.0800 
 26 H       -8.4500    -1.8770     0.2990 H     1 <1>   0.0800 
 27 H       -9.0420     0.8910    -1.1850 H     1 <1>   0.0800 
 28 H       -8.8150     1.9120     0.2240 H     1 <1>   0.0800 
 29 H      -10.0610    -0.6220     0.2230 H     1 <1>   0.4000 
@<TRIPOS>BOND
  1   1   2  1   
  2   2   3  ar  
  3   2   4  ar  
  4   3   5  ar  
  5   4   6  ar  
  6   4  16  1   
  7   5   7  ar  
  8   5  17  1   
  9   6   7  ar  
 10   6   8  1   
 11   8   9  1   
 12   8  10  1   
 13   9  11  1   
 14   9  18  1   
 15   9  19  1   
 16  10  12  1   
 17  10  20  1   
 18  10  21  1   
 19  11  13  1   
 20  11  14  1   
 21  11  22  1   
 22  12  13  1   
 23  12  23  1   
 24  12  24  1   
 25  13  25  1   
 26  13  26  1   
 27  14  15  1   
 28  14  27  1   
 29  14  28  1   
 30  15  29  1   
@<TRIPOS>SUBSTRUCTURE
  1 ****   8 GROUP 4 **** **** 0

# MOE 2024.06 (io_trps.svl 2023.06)
