@<TRIPOS>MOLECULE
NONAME
58 60 1 0 0 
SMALL
USER_CHARGES


@<TRIPOS>ATOM
  1 O        1.0430     0.5890    -1.0470 O.2   1 <1>  -0.5700 
  2 C        1.3600     1.4370    -0.2430 C.2   1 <1>   0.5690 
  3 N        2.4550     1.2630     0.5770 N.am  1 <1>  -0.6600 
  4 C        0.5030     2.7130    -0.1750 C.3   1 <1>  -0.0190 
  5 C        3.2640     0.0120     0.5060 C.3   1 <1>   0.1400 
  6 C        2.9710     2.2440     1.5730 C.3   1 <1>   0.1400 
  7 C       -0.9450     2.4960    -0.6660 C.3   1 <1>  -0.1600 
  8 C        1.1580     3.8590    -0.9740 C.3   1 <1>  -0.1600 
  9 C        4.7190     0.3500     0.1700 C.3   1 <1>  -0.1600 
 10 C        4.4200     2.6070     1.2370 C.3   1 <1>  -0.1600 
 11 C       -1.7730     3.7860    -0.5740 C.3   1 <1>  -0.1600 
 12 C        0.3360     5.1530    -0.8880 C.3   1 <1>  -0.1600 
 13 C        5.3200     1.3620     1.1650 C.3   1 <1>  -0.0800 
 14 C       -1.1070     4.9260    -1.3550 C.3   1 <1>  -0.1600 
 15 C        6.7510     1.7640     0.7750 C.3   1 <1>   0.1400 
 16 N        7.6530     0.5890     0.8220 N.am  1 <1>  -0.7300 
 17 C        8.2490     0.0240    -0.2610 C.2   1 <1>   0.5690 
 18 O        8.1010     0.4710    -1.3730 O.2   1 <1>  -0.5700 
 19 C        9.1070    -1.2230    -0.0500 C.3   1 <1>  -0.0190 
 20 C       10.5050    -1.0700    -0.6820 C.3   1 <1>  -0.1600 
 21 C        8.4000    -2.4770    -0.5980 C.3   1 <1>  -0.1600 
 22 C       11.3570    -2.3320    -0.4780 C.3   1 <1>  -0.1600 
 23 C        9.2500    -3.7390    -0.3960 C.3   1 <1>  -0.1600 
 24 C       10.6410    -3.5750    -1.0220 C.3   1 <1>  -0.1600 
 25 H        0.4250     3.0060     0.8540 H     1 <1>   0.0800 
 26 H        2.8750    -0.6590    -0.2410 H     1 <1>   0.0800 
 27 H        3.2150    -0.4900     1.4570 H     1 <1>   0.0800 
 28 H        2.9230     1.8000     2.5530 H     1 <1>   0.0800 
 29 H        2.3830     3.1420     1.5890 H     1 <1>   0.0800 
 30 H       -1.4110     1.7250    -0.0780 H     1 <1>   0.0800 
 31 H       -0.9290     2.1600    -1.6900 H     1 <1>   0.0800 
 32 H        1.2440     3.5600    -2.0050 H     1 <1>   0.0800 
 33 H        2.1520     4.0440    -0.6070 H     1 <1>   0.0800 
 34 H        4.7590     0.7490    -0.8300 H     1 <1>   0.0800 
 35 H        5.2920    -0.5600     0.1740 H     1 <1>   0.0800 
 36 H        4.7930     3.2820     1.9870 H     1 <1>   0.0800 
 37 H        4.4350     3.1240     0.2930 H     1 <1>   0.0800 
 38 H       -1.8780     4.0720     0.4580 H     1 <1>   0.0800 
 39 H       -2.7590     3.6070    -0.9690 H     1 <1>   0.0800 
 40 H        0.7950     5.9120    -1.4980 H     1 <1>   0.0800 
 41 H        0.3290     5.5070     0.1290 H     1 <1>   0.0800 
 42 H        5.3470     0.9130     2.1440 H     1 <1>   0.0800 
 43 H       -1.6750     5.8310    -1.2280 H     1 <1>   0.0800 
 44 H       -1.1060     4.6820    -2.4040 H     1 <1>   0.0800 
 45 H        7.1220     2.5120     1.4540 H     1 <1>   0.0800 
 46 H        6.7510     2.1860    -0.2160 H     1 <1>   0.0800 
 47 H        7.7900     0.1710     1.7420 H     1 <1>   0.3700 
 48 H        9.2430    -1.3560     1.0080 H     1 <1>   0.0800 
 49 H       11.0060    -0.2220    -0.2490 H     1 <1>   0.0800 
 50 H       10.3990    -0.8830    -1.7370 H     1 <1>   0.0800 
 51 H        8.2090    -2.3410    -1.6490 H     1 <1>   0.0800 
 52 H        7.4500    -2.6000    -0.1070 H     1 <1>   0.0800 
 53 H       11.5560    -2.4650     0.5710 H     1 <1>   0.0800 
 54 H       12.3010    -2.2120    -0.9800 H     1 <1>   0.0800 
 55 H        8.7520    -4.5830    -0.8420 H     1 <1>   0.0800 
 56 H        9.3550    -3.9370     0.6570 H     1 <1>   0.0800 
 57 H       11.2340    -4.4510    -0.8190 H     1 <1>   0.0800 
 58 H       10.5410    -3.4870    -2.0910 H     1 <1>   0.0800 
@<TRIPOS>BOND
  1   1   2  2   
  2   2   3  am  
  3   2   4  1   
  4   3   5  1   
  5   3   6  1   
  6   4   7  1   
  7   4   8  1   
  8   4  25  1   
  9   5   9  1   
 10   5  26  1   
 11   5  27  1   
 12   6  10  1   
 13   6  28  1   
 14   6  29  1   
 15   7  11  1   
 16   7  30  1   
 17   7  31  1   
 18   8  12  1   
 19   8  32  1   
 20   8  33  1   
 21   9  13  1   
 22   9  34  1   
 23   9  35  1   
 24  10  13  1   
 25  10  36  1   
 26  10  37  1   
 27  11  14  1   
 28  11  38  1   
 29  11  39  1   
 30  12  14  1   
 31  12  40  1   
 32  12  41  1   
 33  13  15  1   
 34  13  42  1   
 35  14  43  1   
 36  14  44  1   
 37  15  16  1   
 38  15  45  1   
 39  15  46  1   
 40  16  17  am  
 41  16  47  1   
 42  17  18  2   
 43  17  19  1   
 44  19  20  1   
 45  19  21  1   
 46  19  48  1   
 47  20  22  1   
 48  20  49  1   
 49  20  50  1   
 50  21  23  1   
 51  21  51  1   
 52  21  52  1   
 53  22  24  1   
 54  22  53  1   
 55  22  54  1   
 56  23  24  1   
 57  23  55  1   
 58  23  56  1   
 59  24  57  1   
 60  24  58  1   
@<TRIPOS>SUBSTRUCTURE
  1 ****   9 GROUP 4 **** **** 0

# MOE 2024.06 (io_trps.svl 2023.06)
