@<TRIPOS>MOLECULE
NONAME
32 33 1 0 0 
SMALL
USER_CHARGES


@<TRIPOS>ATOM
  1 S       -0.2440    -0.1530     0.4660 S.3   1 <1>  -0.0800 
  2 C        0.4540     1.3880     0.8930 C.2   1 <1>   0.4620 
  3 C       -1.7670     0.6400     0.1240 C.2   1 <1>  -0.1400 
  4 N       -0.3490     2.3700     0.7930 N.2   1 <1>  -0.5650 
  5 N        1.7490     1.4370     1.2870 N.pl3 1 <1>  -0.8840 
  6 C       -1.6080     1.9680     0.3600 C.2   1 <1>   0.1730 
  7 C       -2.9190    -0.2620    -0.3480 C.3   1 <1>   0.1800 
  8 C       -2.5900     3.0200     0.2170 C.ar  1 <1>   0.0540 
  9 C       -2.5190    -0.9720    -1.6500 C.3   1 <1>  -0.2400 
 10 C       -4.2080     0.5260    -0.6210 C.3   1 <1>  -0.2400 
 11 C       -3.2290    -1.3100     0.7300 C.3   1 <1>  -0.2400 
 12 C       -3.4130     3.3810     1.2790 C.ar  1 <1>  -0.1500 
 13 C       -2.7360     3.7030    -0.9870 C.ar  1 <1>  -0.1500 
 14 C       -4.3640     4.3760     1.1410 C.ar  1 <1>  -0.1500 
 15 C       -3.6850     4.6990    -1.1330 C.ar  1 <1>  -0.1500 
 16 C       -4.5020     5.0360    -0.0680 C.ar  1 <1>  -0.1500 
 17 H        2.1610     2.3360     1.5370 H     1 <1>   0.4000 
 18 H        2.3360     0.6060     1.3430 H     1 <1>   0.4000 
 19 H       -2.2600    -0.2460    -2.4010 H     1 <1>   0.0800 
 20 H       -3.3310    -1.5720    -2.0190 H     1 <1>   0.0800 
 21 H       -1.6720    -1.6150    -1.4950 H     1 <1>   0.0800 
 22 H       -4.0470     1.2590    -1.3900 H     1 <1>   0.0800 
 23 H       -4.5430     1.0230     0.2710 H     1 <1>   0.0800 
 24 H       -4.9920    -0.1320    -0.9490 H     1 <1>   0.0800 
 25 H       -3.4710    -0.8240     1.6580 H     1 <1>   0.0800 
 26 H       -4.0630    -1.9220     0.4350 H     1 <1>   0.0800 
 27 H       -2.3860    -1.9550     0.8950 H     1 <1>   0.0800 
 28 H       -3.2980     2.8720     2.2200 H     1 <1>   0.1500 
 29 H       -2.0950     3.4450    -1.8100 H     1 <1>   0.1500 
 30 H       -4.9930     4.6400     1.9730 H     1 <1>   0.1500 
 31 H       -3.7850     5.2150    -2.0720 H     1 <1>   0.1500 
 32 H       -5.2410     5.8110    -0.1780 H     1 <1>   0.1500 
@<TRIPOS>BOND
  1   1   2  1   
  2   1   3  1   
  3   2   4  2   
  4   2   5  1   
  5   3   6  2   
  6   3   7  1   
  7   4   6  1   
  8   5  17  1   
  9   5  18  1   
 10   6   8  1   
 11   7   9  1   
 12   7  10  1   
 13   7  11  1   
 14   8  12  ar  
 15   8  13  ar  
 16   9  19  1   
 17   9  20  1   
 18   9  21  1   
 19  10  22  1   
 20  10  23  1   
 21  10  24  1   
 22  11  25  1   
 23  11  26  1   
 24  11  27  1   
 25  12  14  ar  
 26  12  28  1   
 27  13  15  ar  
 28  13  29  1   
 29  14  16  ar  
 30  14  30  1   
 31  15  16  ar  
 32  15  31  1   
 33  16  32  1   
@<TRIPOS>SUBSTRUCTURE
  1 ****   6 GROUP 4 **** **** 0

# MOE 2024.06 (io_trps.svl 2023.06)
