@<TRIPOS>MOLECULE
NONAME
29 29 1 0 0 
SMALL
USER_CHARGES


@<TRIPOS>ATOM
  1 BR       0.1830    -0.2030    -0.2770 Br    1 <1>  -0.1110 
  2 C       -1.3050     1.0180    -0.4260 C.ar  1 <1>   0.1110 
  3 C       -2.6040     0.5330    -0.4430 C.ar  1 <1>  -0.1440 
  4 C       -1.0140     2.3640    -0.5100 C.ar  1 <1>  -0.1500 
  5 C       -3.6350     1.4570    -0.5390 C.ar  1 <1>  -0.1500 
  6 C       -2.9170    -0.9500    -0.3600 C.3   1 <1>   0.2640 
  7 C       -2.0540     3.2760    -0.6070 C.ar  1 <1>   0.0820 
  8 C       -3.3830     2.8200    -0.6160 C.ar  1 <1>   0.0820 
  9 O       -2.9050    -1.3160     0.9710 O.3   1 <1>  -0.6800 
 10 O       -1.7410     4.5880    -0.7180 O.3   1 <1>  -0.3630 
 11 O       -4.4950     3.6070    -0.6900 O.3   1 <1>  -0.3630 
 12 C       -1.0220     5.1820     0.3630 C.3   1 <1>   0.0140 
 13 C       -4.4840     4.9360    -0.2070 C.3   1 <1>   0.1200 
 14 C       -1.3060     6.6680     0.5200 C.2   1 <1>   0.9060 
 15 C       -5.9290     5.3970    -0.0500 C.3   1 <1>  -0.2400 
 16 O       -0.4080     7.4740     0.2490 O.co2 1 <1>  -0.9000 
 17 O       -2.4010     7.0300     0.9740 O.co2 1 <1>  -0.9000 
 18 H        0.0060     2.7020    -0.5090 H     1 <1>   0.1500 
 19 H       -4.6590     1.1280    -0.5460 H     1 <1>   0.1500 
 20 H       -2.1870    -1.5410    -0.8850 H     1 <1>   0.0800 
 21 H       -3.8940    -1.1690    -0.7560 H     1 <1>   0.0800 
 22 H       -2.1370    -0.8990     1.4070 H     1 <1>   0.4000 
 23 H        0.0260     5.0460     0.1860 H     1 <1>   0.0800 
 24 H       -1.3070     4.6940     1.2750 H     1 <1>   0.0800 
 25 H       -3.9650     5.5600    -0.9140 H     1 <1>   0.0800 
 26 H       -3.9730     4.9590     0.7400 H     1 <1>   0.0800 
 27 H       -6.4300     5.3730    -1.0000 H     1 <1>   0.0800 
 28 H       -5.9350     6.4070     0.3190 H     1 <1>   0.0800 
 29 H       -6.4430     4.7680     0.6540 H     1 <1>   0.0800 
@<TRIPOS>BOND
  1   1   2  1   
  2   2   3  ar  
  3   2   4  ar  
  4   3   5  ar  
  5   3   6  1   
  6   4   7  ar  
  7   4  18  1   
  8   5   8  ar  
  9   5  19  1   
 10   6   9  1   
 11   6  20  1   
 12   6  21  1   
 13   7   8  ar  
 14   7  10  1   
 15   8  11  1   
 16   9  22  1   
 17  10  12  1   
 18  11  13  1   
 19  12  14  1   
 20  12  23  1   
 21  12  24  1   
 22  13  15  1   
 23  13  25  1   
 24  13  26  1   
 25  14  16  ar  
 26  14  17  ar  
 27  15  27  1   
 28  15  28  1   
 29  15  29  1   
@<TRIPOS>SUBSTRUCTURE
  1 ****   7 GROUP 4 **** **** 0

# MOE 2024.06 (io_trps.svl 2023.06)
