@<TRIPOS>MOLECULE
NONAME
42 45 1 0 0 
SMALL
USER_CHARGES


@<TRIPOS>ATOM
  1 N       -6.0230     0.9490    -0.5760 N.pl3 1 <1>   0.0480 
  2 C       -7.1970     1.6520    -0.4670 C.ar  1 <1>  -0.1520 
  3 C       -5.0070     1.8130    -0.3010 C.2   1 <1>  -0.3320 
  4 C       -5.8530    -0.5160    -0.5650 C.3   1 <1>   0.0960 
  5 C       -6.8970     2.9700    -0.1300 C.ar  1 <1>   0.0000 
  6 C       -8.5260     1.2490    -0.6260 C.ar  1 <1>  -0.1500 
  7 C       -5.4920     3.0390    -0.0250 C.2   1 <1>  -0.1810 
  8 C       -3.5630     1.4180    -0.2790 C.3   1 <1>   0.6030 
  9 C       -4.3570    -0.8930    -0.4810 C.3   1 <1>   0.3430 
 10 C       -7.9280     3.8960     0.0440 C.ar  1 <1>  -0.1500 
 11 C       -9.5290     2.1740    -0.4500 C.ar  1 <1>  -0.1500 
 12 C       -4.6270     4.2220     0.3700 C.3   1 <1>   0.0210 
 13 N       -3.5440     0.0820     0.3280 N.4   1 <1>  -0.9060 
 14 C       -2.7770     2.4330     0.5660 C.3   1 <1>  -0.1600 
 15 C       -9.2410     3.5070    -0.1140 C.ar  1 <1>  -0.1430 
 16 C       -3.1300     3.8890     0.1720 C.3   1 <1>  -0.1600 
 17 C      -10.3670     4.5210     0.0760 C.3   1 <1>   0.0630 
 18 C      -11.2860     4.1110     1.2310 C.3   1 <1>  -0.2400 
 19 C      -11.1640     4.7040    -1.2190 C.3   1 <1>  -0.2400 
 20 H       -6.2950    -0.9310    -1.4520 H     1 <1>   0.0800 
 21 H       -6.3770    -0.9070     0.2880 H     1 <1>   0.0800 
 22 H       -8.7610     0.2340    -0.8860 H     1 <1>   0.1500 
 23 H       -3.1780     1.3880    -1.2860 H     1 <1>   0.0800 
 24 H       -3.9620    -0.9330    -1.4830 H     1 <1>   0.0800 
 25 H       -4.2710    -1.8820    -0.0620 H     1 <1>   0.0800 
 26 H       -7.6720     4.9070     0.3010 H     1 <1>   0.1500 
 27 H      -10.5540     1.8730    -0.5720 H     1 <1>   0.1500 
 28 H       -4.8160     4.4500     1.4050 H     1 <1>   0.0800 
 29 H       -4.8940     5.0840    -0.2160 H     1 <1>   0.0800 
 30 H       -3.9720     0.2060     1.2530 H     1 <1>   0.4500 
 31 H       -2.5750    -0.2240     0.4510 H     1 <1>   0.4500 
 32 H       -1.7220     2.2760     0.4300 H     1 <1>   0.0800 
 33 H       -3.0150     2.3040     1.6080 H     1 <1>   0.0800 
 34 H       -2.5380     4.5800     0.7460 H     1 <1>   0.0800 
 35 H       -2.8840     4.0390    -0.8660 H     1 <1>   0.0800 
 36 H       -9.9310     5.4730     0.3280 H     1 <1>   0.0800 
 37 H      -11.7930     3.1890     1.0100 H     1 <1>   0.0800 
 38 H      -12.0230     4.8730     1.4090 H     1 <1>   0.0800 
 39 H      -10.7080     3.9780     2.1270 H     1 <1>   0.0800 
 40 H      -11.6680     3.7940    -1.4920 H     1 <1>   0.0800 
 41 H      -10.5010     4.9810    -2.0190 H     1 <1>   0.0800 
 42 H      -11.8980     5.4800    -1.0980 H     1 <1>   0.0800 
@<TRIPOS>BOND
  1   1   2  1   
  2   1   3  1   
  3   1   4  1   
  4   2   5  ar  
  5   2   6  ar  
  6   3   7  2   
  7   3   8  1   
  8   4   9  1   
  9   4  20  1   
 10   4  21  1   
 11   5   7  1   
 12   5  10  ar  
 13   6  11  ar  
 14   6  22  1   
 15   7  12  1   
 16   8  13  1   
 17   8  14  1   
 18   8  23  1   
 19   9  13  1   
 20   9  24  1   
 21   9  25  1   
 22  10  15  ar  
 23  10  26  1   
 24  11  15  ar  
 25  11  27  1   
 26  12  16  1   
 27  12  28  1   
 28  12  29  1   
 29  13  30  1   
 30  13  31  1   
 31  14  16  1   
 32  14  32  1   
 33  14  33  1   
 34  15  17  1   
 35  16  34  1   
 36  16  35  1   
 37  17  18  1   
 38  17  19  1   
 39  17  36  1   
 40  18  37  1   
 41  18  38  1   
 42  18  39  1   
 43  19  40  1   
 44  19  41  1   
 45  19  42  1   
@<TRIPOS>SUBSTRUCTURE
  1 ****   5 GROUP 4 **** **** 0

# MOE 2024.06 (io_trps.svl 2023.06)
