@<TRIPOS>MOLECULE
NONAME
40 42 1 0 0 
SMALL
USER_CHARGES


@<TRIPOS>ATOM
  1 O        0.2930     0.7240    -0.4580 O.3   1 <1>  -0.3620 
  2 C        1.0980    -0.3620    -0.2700 C.ar  1 <1>   0.0830 
  3 C       -0.8920     0.6360    -1.2200 C.3   1 <1>   0.0400 
  4 C        2.2460    -0.1790     0.5060 C.ar  1 <1>   0.1000 
  5 C        0.8240    -1.6140    -0.8120 C.ar  1 <1>  -0.1500 
  6 N        2.5360     1.0920     1.0350 N.pl3 1 <1>  -0.5500 
  7 C        3.0780    -1.2640     0.7550 C.ar  1 <1>  -0.1500 
  8 C        1.6740    -2.6800    -0.5720 C.ar  1 <1>  -0.1500 
  9 C        3.6610     1.8090     1.0160 C.2   1 <1>   0.5500 
 10 C        2.7990    -2.5060     0.2150 C.ar  1 <1>  -0.1500 
 11 N        4.7060     1.3310     0.3580 N.pl3 1 <1>  -0.8190 
 12 N        3.6730     2.9600     1.6200 N.2   1 <1>  -0.6510 
 13 C        5.9520     2.0030     0.2020 C.3   1 <1>   0.8590 
 14 C        4.7870     3.6280     1.5580 C.cat 1 <1>   0.9100 
 15 N        5.8740     3.2370     0.9230 N.pl3 1 <1>  -0.7940 
 16 C        6.2920     2.2700    -1.2560 C.3   1 <1>  -0.1600 
 17 C        7.1250     1.1770     0.7080 C.3   1 <1>  -0.1600 
 18 N        4.8060     4.7810     2.1810 N.pl3 1 <1>  -0.7540 
 19 C        7.8220     2.3980    -1.3090 C.3   1 <1>  -0.1600 
 20 C        8.3560     1.6970    -0.0500 C.3   1 <1>  -0.1600 
 21 H       -1.3590     1.6040    -1.2260 H     1 <1>   0.0800 
 22 H       -1.5480    -0.0840    -0.7640 H     1 <1>   0.0800 
 23 H       -0.6400     0.3470    -2.2260 H     1 <1>   0.0800 
 24 H       -0.0450    -1.7840    -1.4200 H     1 <1>   0.1500 
 25 H        1.7030     1.6200     1.3000 H     1 <1>   0.4000 
 26 H        3.9400    -1.1410     1.3850 H     1 <1>   0.1500 
 27 H        1.4580    -3.6470    -0.9930 H     1 <1>   0.1500 
 28 H        3.4500    -3.3410     0.4120 H     1 <1>   0.1500 
 29 H        4.6000     0.4510    -0.1440 H     1 <1>   0.4000 
 30 H        6.7250     3.7790     0.8850 H     1 <1>   0.4500 
 31 H        5.7910     3.1410    -1.6400 H     1 <1>   0.0800 
 32 H        6.0040     1.4160    -1.8440 H     1 <1>   0.0800 
 33 H        6.9700     0.1480     0.4350 H     1 <1>   0.0800 
 34 H        7.2400     1.2410     1.7750 H     1 <1>   0.0800 
 35 H        5.5890     5.4230     2.2320 H     1 <1>   0.4500 
 36 H        3.9560     5.0640     2.6670 H     1 <1>   0.4500 
 37 H        8.1130     3.4360    -1.3030 H     1 <1>   0.0800 
 38 H        8.2120     1.9420    -2.2040 H     1 <1>   0.0800 
 39 H        9.0160     0.8850    -0.3080 H     1 <1>   0.0800 
 40 H        8.9040     2.3980     0.5570 H     1 <1>   0.0800 
@<TRIPOS>BOND
  1   1   2  1   
  2   1   3  1   
  3   2   4  ar  
  4   2   5  ar  
  5   3  21  1   
  6   3  22  1   
  7   3  23  1   
  8   4   6  1   
  9   4   7  ar  
 10   5   8  ar  
 11   5  24  1   
 12   6   9  1   
 13   6  25  1   
 14   7  10  ar  
 15   7  26  1   
 16   8  10  ar  
 17   8  27  1   
 18   9  11  1   
 19   9  12  2   
 20  10  28  1   
 21  11  13  1   
 22  11  29  1   
 23  12  14  1   
 24  13  15  1   
 25  13  16  1   
 26  13  17  1   
 27  14  15  ar  
 28  14  18  ar  
 29  15  30  1   
 30  16  19  1   
 31  16  31  1   
 32  16  32  1   
 33  17  20  1   
 34  17  33  1   
 35  17  34  1   
 36  18  35  1   
 37  18  36  1   
 38  19  20  1   
 39  19  37  1   
 40  19  38  1   
 41  20  39  1   
 42  20  40  1   
@<TRIPOS>SUBSTRUCTURE
  1 ****  11 GROUP 4 **** **** 0

# MOE 2024.06 (io_trps.svl 2023.06)
