@<TRIPOS>MOLECULE
NONAME
31 32 1 0 0 
SMALL
USER_CHARGES


@<TRIPOS>ATOM
  1 BR      -0.6680    -0.4400     2.2990 Br    1 <1>  -0.1110 
  2 C       -2.2730    -0.1430     1.2880 C.ar  1 <1>   0.1110 
  3 C       -3.1020     0.9020     1.6490 C.ar  1 <1>  -0.1500 
  4 C       -2.5530    -0.9880     0.2230 C.ar  1 <1>  -0.1500 
  5 C       -4.2580     1.1000     0.9050 C.ar  1 <1>   0.0860 
  6 C       -3.7080    -0.7820    -0.5130 C.ar  1 <1>  -0.1500 
  7 C       -5.3190     2.0620     0.9960 C.2   1 <1>   0.5440 
  8 C       -4.5590     0.2660    -0.1660 C.ar  1 <1>   0.0860 
  9 O       -5.4240     2.9650     1.7980 O.2   1 <1>  -0.5700 
 10 N       -6.2310     1.8070     0.0060 N.am  1 <1>  -0.4200 
 11 C       -5.8000     0.7270    -0.7190 C.2   1 <1>   0.5440 
 12 C       -7.4810     2.5560    -0.2270 C.3   1 <1>   0.1400 
 13 O       -6.3980     0.2650    -1.6680 O.2   1 <1>  -0.5700 
 14 C       -8.6180     1.9300     0.5830 C.3   1 <1>  -0.1600 
 15 C       -9.9260     2.6860     0.3600 C.3   1 <1>   0.1200 
 16 O      -10.9240     2.0610     1.1320 O.3   1 <1>  -0.4300 
 17 C      -12.1960     2.4390     1.1950 C.2   1 <1>   0.6590 
 18 O      -12.9740     1.8410     1.8840 O.2   1 <1>  -0.5700 
 19 C      -12.6570     3.6350     0.3880 C.3   1 <1>  -0.1790 
 20 H       -2.8660     1.5460     2.4790 H     1 <1>   0.1500 
 21 H       -1.8750    -1.7890    -0.0200 H     1 <1>   0.1500 
 22 H       -3.9600    -1.4170    -1.3460 H     1 <1>   0.1500 
 23 H       -7.7150     2.5300    -1.2780 H     1 <1>   0.0800 
 24 H       -7.3360     3.5820     0.0670 H     1 <1>   0.0800 
 25 H       -8.3690     1.9630     1.6290 H     1 <1>   0.0800 
 26 H       -8.7500     0.9060     0.2780 H     1 <1>   0.0800 
 27 H      -10.2180     2.6440    -0.6760 H     1 <1>   0.0800 
 28 H       -9.8340     3.7090     0.6820 H     1 <1>   0.0800 
 29 H      -12.1230     4.5140     0.6940 H     1 <1>   0.0800 
 30 H      -13.7060     3.7940     0.5600 H     1 <1>   0.0800 
 31 H      -12.5050     3.4540    -0.6580 H     1 <1>   0.0800 
@<TRIPOS>BOND
  1   1   2  1   
  2   2   3  ar  
  3   2   4  ar  
  4   3   5  ar  
  5   3  20  1   
  6   4   6  ar  
  7   4  21  1   
  8   5   7  1   
  9   5   8  ar  
 10   6   8  ar  
 11   6  22  1   
 12   7   9  2   
 13   7  10  am  
 14   8  11  1   
 15  10  11  am  
 16  10  12  1   
 17  11  13  2   
 18  12  14  1   
 19  12  23  1   
 20  12  24  1   
 21  14  15  1   
 22  14  25  1   
 23  14  26  1   
 24  15  16  1   
 25  15  27  1   
 26  15  28  1   
 27  16  17  1   
 28  17  18  2   
 29  17  19  1   
 30  19  29  1   
 31  19  30  1   
 32  19  31  1   
@<TRIPOS>SUBSTRUCTURE
  1 ****  10 GROUP 4 **** **** 0

# MOE 2024.06 (io_trps.svl 2023.06)
