@<TRIPOS>MOLECULE
NONAME
23 24 1 0 0 
SMALL
USER_CHARGES


@<TRIPOS>ATOM
  1 I       -0.9400     0.3990     1.3100 I     1 <1>  -0.0810 
  2 C        0.4120     1.8640     0.5480 C.ar  1 <1>   0.0810 
  3 C       -0.0210     2.8400    -0.3540 C.ar  1 <1>   0.0860 
  4 C        1.7200     1.7700     0.9910 C.ar  1 <1>  -0.1500 
  5 C       -1.3830     2.9810    -0.8160 C.2   1 <1>   0.5440 
  6 C        0.9550     3.7230    -0.8180 C.ar  1 <1>  -0.1500 
  7 C        2.6540     2.6730     0.5180 C.ar  1 <1>  -0.1500 
  8 O       -1.6530     2.7990    -1.9870 O.2   1 <1>  -0.5700 
  9 N       -2.3670     3.3670     0.0530 N.am  1 <1>  -0.5790 
 10 C        2.2690     3.6460    -0.3900 C.ar  1 <1>  -0.1500 
 11 C       -3.7910     3.5260    -0.2720 C.3   1 <1>   0.0490 
 12 C       -4.5800     4.5250     0.5060 C.3   1 <1>  -0.2000 
 13 C       -4.7910     3.0580     0.7320 C.3   1 <1>  -0.2000 
 14 H        2.0100     1.0040     1.6890 H     1 <1>   0.1500 
 15 H        0.6700     4.4800    -1.5300 H     1 <1>   0.1500 
 16 H        3.6780     2.6170     0.8490 H     1 <1>   0.1500 
 17 H       -2.1340     3.4990     1.0360 H     1 <1>   0.3700 
 18 H        2.9980     4.3450    -0.7650 H     1 <1>   0.1500 
 19 H       -4.0100     3.3920    -1.3210 H     1 <1>   0.1000 
 20 H       -5.3520     5.0770    -0.0010 H     1 <1>   0.1000 
 21 H       -4.0830     5.1070     1.2620 H     1 <1>   0.1000 
 22 H       -4.4380     2.6080     1.6430 H     1 <1>   0.1000 
 23 H       -5.7030     2.6130     0.3760 H     1 <1>   0.1000 
@<TRIPOS>BOND
  1   1   2  1   
  2   2   3  ar  
  3   2   4  ar  
  4   3   5  1   
  5   3   6  ar  
  6   4   7  ar  
  7   4  14  1   
  8   5   8  2   
  9   5   9  am  
 10   6  10  ar  
 11   6  15  1   
 12   7  10  ar  
 13   7  16  1   
 14   9  11  1   
 15   9  17  1   
 16  10  18  1   
 17  11  12  1   
 18  11  13  1   
 19  11  19  1   
 20  12  13  1   
 21  12  20  1   
 22  12  21  1   
 23  13  22  1   
 24  13  23  1   
@<TRIPOS>SUBSTRUCTURE
  1 ****   3 GROUP 4 **** **** 0

# MOE 2024.06 (io_trps.svl 2023.06)
