@<TRIPOS>MOLECULE
NONAME
40 41 1 0 0 
SMALL
USER_CHARGES


@<TRIPOS>ATOM
  1 O        0.6090    -3.7070     2.4610 O.2   1 <1>  -0.5700 
  2 C        0.0220    -2.9730     1.6860 C.2   1 <1>   0.5440 
  3 N        0.6770    -1.8530     1.2740 N.am  1 <1>  -0.7300 
  4 C       -1.3300    -3.2860     1.2430 C.ar  1 <1>   0.0860 
  5 C        2.1010    -1.5510     1.4920 C.3   1 <1>   0.3200 
  6 C       -1.9330    -2.7420     0.0920 C.ar  1 <1>   0.0830 
  7 C       -2.0950    -4.1860     1.9930 C.ar  1 <1>  -0.1500 
  8 C        2.6790    -0.9820     0.2090 C.2   1 <1>  -0.0400 
  9 O       -1.2190    -1.8760    -0.6720 O.3   1 <1>  -0.3630 
 10 C       -3.2350    -3.0930    -0.2560 C.ar  1 <1>  -0.1500 
 11 C       -3.3840    -4.5340     1.6440 C.ar  1 <1>  -0.1500 
 12 O        2.2260     0.1720    -0.2470 O.3   1 <1>  -0.2800 
 13 C        3.6320    -1.4720    -0.6140 C.2   1 <1>  -0.1500 
 14 C       -1.6730    -1.3580    -1.9000 C.3   1 <1>   0.1200 
 15 C       -3.9650    -3.9820     0.5090 C.ar  1 <1>   0.0830 
 16 C        2.8770     0.4440    -1.3600 C.2   1 <1>  -0.0100 
 17 C        3.7630    -0.5340    -1.6450 C.2   1 <1>  -0.1500 
 18 C       -0.5630    -0.4800    -2.4690 C.3   1 <1>  -0.2400 
 19 O       -5.2210    -4.2620     0.0920 O.3   1 <1>  -0.3630 
 20 C       -6.0530    -5.1580     0.7920 C.3   1 <1>   0.1200 
 21 C       -7.3850    -5.2410     0.0520 C.3   1 <1>  -0.2400 
 22 H        0.2550    -1.3180     0.5070 H     1 <1>   0.3700 
 23 H        2.6310    -2.4450     1.7700 H     1 <1>   0.0800 
 24 H        2.1950    -0.8300     2.2850 H     1 <1>   0.0800 
 25 H       -1.6600    -4.6230     2.8770 H     1 <1>   0.1500 
 26 H       -3.7160    -2.6880    -1.1240 H     1 <1>   0.1500 
 27 H       -3.9180    -5.2300     2.2630 H     1 <1>   0.1500 
 28 H        4.1910    -2.3870    -0.5270 H     1 <1>   0.1500 
 29 H       -2.5630    -0.7790    -1.7200 H     1 <1>   0.0800 
 30 H       -1.8870    -2.1810    -2.5600 H     1 <1>   0.0800 
 31 H        2.6480     1.3540    -1.8860 H     1 <1>   0.1500 
 32 H        4.4400    -0.6090    -2.4770 H     1 <1>   0.1500 
 33 H       -0.3520     0.3330    -1.7970 H     1 <1>   0.0800 
 34 H       -0.8680    -0.0730    -3.4160 H     1 <1>   0.0800 
 35 H        0.3300    -1.0620    -2.6150 H     1 <1>   0.0800 
 36 H       -6.1960    -4.7820     1.7900 H     1 <1>   0.0800 
 37 H       -5.5720    -6.1210     0.8190 H     1 <1>   0.0800 
 38 H       -7.8490    -4.2710     0.0160 H     1 <1>   0.0800 
 39 H       -8.0450    -5.9180     0.5630 H     1 <1>   0.0800 
 40 H       -7.2300    -5.6020    -0.9490 H     1 <1>   0.0800 
@<TRIPOS>BOND
  1   1   2  2   
  2   2   3  am  
  3   2   4  1   
  4   3   5  1   
  5   3  22  1   
  6   4   6  ar  
  7   4   7  ar  
  8   5   8  1   
  9   5  23  1   
 10   5  24  1   
 11   6   9  1   
 12   6  10  ar  
 13   7  11  ar  
 14   7  25  1   
 15   8  12  1   
 16   8  13  2   
 17   9  14  1   
 18  10  15  ar  
 19  10  26  1   
 20  11  15  ar  
 21  11  27  1   
 22  12  16  1   
 23  13  17  1   
 24  13  28  1   
 25  14  18  1   
 26  14  29  1   
 27  14  30  1   
 28  15  19  1   
 29  16  17  2   
 30  16  31  1   
 31  17  32  1   
 32  18  33  1   
 33  18  34  1   
 34  18  35  1   
 35  19  20  1   
 36  20  21  1   
 37  20  36  1   
 38  20  37  1   
 39  21  38  1   
 40  21  39  1   
 41  21  40  1   
@<TRIPOS>SUBSTRUCTURE
  1 ****   6 GROUP 4 **** **** 0

# MOE 2024.06 (io_trps.svl 2023.06)
