@<TRIPOS>MOLECULE
NONAME
48 50 1 0 0 
SMALL
USER_CHARGES


@<TRIPOS>ATOM
  1 O        1.5430    -2.3600     2.1610 O.2   1 <1>  -0.5700 
  2 C        0.9820    -2.3560     1.0770 C.2   1 <1>   0.7150 
  3 N        1.7250    -2.0260    -0.0390 N.am  1 <1>  -0.6600 
  4 C       -0.4220    -2.6940     0.9700 C.2   1 <1>   0.0550 
  5 C        1.5210    -2.6850    -1.3610 C.3   1 <1>   0.1400 
  6 C        3.0830    -1.4230     0.0820 C.3   1 <1>   0.1400 
  7 O       -0.9720    -3.6150     1.7580 O.3   1 <1>  -0.2800 
  8 C       -1.3910    -2.2120     0.1400 C.2   1 <1>  -0.1500 
  9 C        2.6250    -3.7280    -1.6100 C.3   1 <1>   0.1100 
 10 C        4.1630    -2.4860    -0.1750 C.3   1 <1>   0.1100 
 11 C       -2.2450    -3.7310     1.4570 C.2   1 <1>  -0.0100 
 12 C       -2.5710    -2.8860     0.4560 C.2   1 <1>  -0.1500 
 13 N        3.9800    -3.1490    -1.4880 N.3   1 <1>  -0.8100 
 14 C        5.0140    -4.1850    -1.7820 C.3   1 <1>   0.1710 
 15 C        6.4730    -3.7100    -1.8200 C.2   1 <1>   0.5690 
 16 O        6.9860    -3.5050    -2.8940 O.2   1 <1>  -0.5700 
 17 N        7.1410    -3.5960    -0.6260 N.am  1 <1>  -0.5470 
 18 C        8.4510    -3.1970    -0.3170 C.ar  1 <1>   0.1170 
 19 C        8.9470    -3.4810     0.9490 C.ar  1 <1>  -0.1500 
 20 C        9.2750    -2.5180    -1.2050 C.ar  1 <1>  -0.1500 
 21 C       10.2270    -3.1090     1.3310 C.ar  1 <1>  -0.1430 
 22 C       10.5530    -2.1430    -0.8360 C.ar  1 <1>  -0.1500 
 23 C       11.0400    -2.4330     0.4290 C.ar  1 <1>  -0.1430 
 24 C       10.7130    -3.4510     2.7330 C.3   1 <1>  -0.0970 
 25 C       12.4540    -2.0030     0.7940 C.3   1 <1>  -0.0970 
 26 H        1.5520    -1.9410    -2.1380 H     1 <1>   0.0800 
 27 H        0.5650    -3.1740    -1.4040 H     1 <1>   0.0800 
 28 H        3.2220    -0.9960     1.0600 H     1 <1>   0.0800 
 29 H        3.1870    -0.6320    -0.6400 H     1 <1>   0.0800 
 30 H       -1.2880    -1.4530    -0.6150 H     1 <1>   0.1500 
 31 H        2.4990    -4.1300    -2.6010 H     1 <1>   0.0800 
 32 H        2.5070    -4.5330    -0.9040 H     1 <1>   0.0800 
 33 H        4.1280    -3.2140     0.6170 H     1 <1>   0.0800 
 34 H        5.1190    -1.9930    -0.1490 H     1 <1>   0.0800 
 35 H       -2.8480    -4.4350     2.0030 H     1 <1>   0.1500 
 36 H       -3.5280    -2.7410    -0.0140 H     1 <1>   0.1500 
 37 H        4.8020    -4.6060    -2.7500 H     1 <1>   0.0800 
 38 H        4.9340    -4.9810    -1.0640 H     1 <1>   0.0800 
 39 H        6.5870    -3.8510     0.1870 H     1 <1>   0.3700 
 40 H        8.3220    -4.0060     1.6470 H     1 <1>   0.1500 
 41 H        8.9260    -2.2730    -2.1900 H     1 <1>   0.1500 
 42 H       11.1680    -1.6200    -1.5480 H     1 <1>   0.1500 
 43 H        9.9500    -3.9570     3.2950 H     1 <1>   0.0800 
 44 H       10.9800    -2.5530     3.2590 H     1 <1>   0.0800 
 45 H       11.5720    -4.0940     2.6760 H     1 <1>   0.0800 
 46 H       12.4300    -1.3250     1.6270 H     1 <1>   0.0800 
 47 H       12.9310    -1.5050    -0.0310 H     1 <1>   0.0800 
 48 H       13.0450    -2.8620     1.0550 H     1 <1>   0.0800 
@<TRIPOS>BOND
  1   1   2  2   
  2   2   3  am  
  3   2   4  1   
  4   3   5  1   
  5   3   6  1   
  6   4   7  1   
  7   4   8  2   
  8   5   9  1   
  9   5  26  1   
 10   5  27  1   
 11   6  10  1   
 12   6  28  1   
 13   6  29  1   
 14   7  11  1   
 15   8  12  1   
 16   8  30  1   
 17   9  13  1   
 18   9  31  1   
 19   9  32  1   
 20  10  13  1   
 21  10  33  1   
 22  10  34  1   
 23  11  12  2   
 24  11  35  1   
 25  12  36  1   
 26  13  14  1   
 27  14  15  1   
 28  14  37  1   
 29  14  38  1   
 30  15  16  2   
 31  15  17  am  
 32  17  18  1   
 33  17  39  1   
 34  18  19  ar  
 35  18  20  ar  
 36  19  21  ar  
 37  19  40  1   
 38  20  22  ar  
 39  20  41  1   
 40  21  23  ar  
 41  21  24  1   
 42  22  23  ar  
 43  22  42  1   
 44  23  25  1   
 45  24  43  1   
 46  24  44  1   
 47  24  45  1   
 48  25  46  1   
 49  25  47  1   
 50  25  48  1   
@<TRIPOS>SUBSTRUCTURE
  1 ****  10 GROUP 4 **** **** 0

# MOE 2024.06 (io_trps.svl 2023.06)
