@<TRIPOS>MOLECULE
NONAME
48 50 1 0 0 
SMALL
USER_CHARGES


@<TRIPOS>ATOM
  1 F        0.8460    -0.3190     0.0470 F     1 <1>  -0.1900 
  2 C        1.9240    -1.0380     0.2310 C.ar  1 <1>   0.1900 
  3 C        2.6050    -0.9240     1.4280 C.ar  1 <1>  -0.1500 
  4 C        2.3400    -1.8850    -0.7770 C.ar  1 <1>  -0.1500 
  5 C        3.7440    -1.6880     1.6130 C.ar  1 <1>  -0.1500 
  6 C        3.4820    -2.6420    -0.5770 C.ar  1 <1>  -0.1500 
  7 C        4.1960    -2.5520     0.6180 C.ar  1 <1>   0.1000 
  8 N        5.3530    -3.2980     0.8360 N.pl3 1 <1>  -0.8380 
  9 C        5.4100    -4.7520     0.4910 C.3   1 <1>   0.2090 
 10 C        6.6610    -2.5840     0.9530 C.3   1 <1>   0.2090 
 11 C        6.3610    -5.0190    -0.6960 C.3   1 <1>   0.3430 
 12 C        7.5780    -2.8880    -0.2490 C.3   1 <1>   0.3430 
 13 N        7.7040    -4.3670    -0.5170 N.4   1 <1>  -0.9590 
 14 C        8.6400    -4.6610    -1.6300 C.3   1 <1>   0.4860 
 15 C       10.0250    -4.1990    -1.2240 C.ar  1 <1>  -0.1430 
 16 C       10.6520    -4.7510    -0.1100 C.ar  1 <1>   0.0830 
 17 C       10.6720    -3.2220    -1.9660 C.ar  1 <1>  -0.1500 
 18 O        9.9660    -5.7010     0.5850 O.3   1 <1>  -0.3630 
 19 C       11.9240    -4.3190     0.2550 C.ar  1 <1>  -0.1500 
 20 C       11.9340    -2.7960    -1.5980 C.ar  1 <1>  -0.1500 
 21 C       10.6090    -6.4960     1.5640 C.3   1 <1>   0.0400 
 22 C       12.5660    -3.3380    -0.4920 C.ar  1 <1>   0.0830 
 23 O       13.8020    -2.8570    -0.2090 O.3   1 <1>  -0.3620 
 24 C       14.5840    -3.3840     0.8410 C.3   1 <1>   0.0400 
 25 H        2.2480    -0.2560     2.1910 H     1 <1>   0.1500 
 26 H        1.7790    -1.9430    -1.6930 H     1 <1>   0.1500 
 27 H        4.2860    -1.6250     2.5380 H     1 <1>   0.1500 
 28 H        3.8170    -3.2980    -1.3550 H     1 <1>   0.1500 
 29 H        4.4220    -5.1080     0.2520 H     1 <1>   0.0800 
 30 H        5.7490    -5.3000     1.3530 H     1 <1>   0.0800 
 31 H        7.1460    -2.8830     1.8650 H     1 <1>   0.0800 
 32 H        6.4910    -1.5210     1.0070 H     1 <1>   0.0800 
 33 H        5.8950    -4.6390    -1.5900 H     1 <1>   0.0800 
 34 H        6.4820    -6.0830    -0.8130 H     1 <1>   0.0800 
 35 H        8.5520    -2.4650    -0.0600 H     1 <1>   0.0800 
 36 H        7.1680    -2.3990    -1.1160 H     1 <1>   0.0800 
 37 H        8.1670    -4.7850     0.3070 H     1 <1>   0.4500 
 38 H        8.3250    -4.1580    -2.5300 H     1 <1>   0.0800 
 39 H        8.6690    -5.7220    -1.8170 H     1 <1>   0.0800 
 40 H       10.2110    -2.7840    -2.8360 H     1 <1>   0.1500 
 41 H       12.4140    -4.7340     1.1120 H     1 <1>   0.1500 
 42 H       12.4460    -2.0390    -2.1680 H     1 <1>   0.1500 
 43 H       10.8980    -5.8730     2.3920 H     1 <1>   0.0800 
 44 H       11.4690    -6.9700     1.1230 H     1 <1>   0.0800 
 45 H        9.9160    -7.2470     1.9000 H     1 <1>   0.0800 
 46 H       15.5260    -2.8660     0.8450 H     1 <1>   0.0800 
 47 H       14.7470    -4.4320     0.6640 H     1 <1>   0.0800 
 48 H       14.0750    -3.2210     1.7740 H     1 <1>   0.0800 
@<TRIPOS>BOND
  1   1   2  1   
  2   2   3  ar  
  3   2   4  ar  
  4   3   5  ar  
  5   3  25  1   
  6   4   6  ar  
  7   4  26  1   
  8   5   7  ar  
  9   5  27  1   
 10   6   7  ar  
 11   6  28  1   
 12   7   8  1   
 13   8   9  1   
 14   8  10  1   
 15   9  11  1   
 16   9  29  1   
 17   9  30  1   
 18  10  12  1   
 19  10  31  1   
 20  10  32  1   
 21  11  13  1   
 22  11  33  1   
 23  11  34  1   
 24  12  13  1   
 25  12  35  1   
 26  12  36  1   
 27  13  14  1   
 28  13  37  1   
 29  14  15  1   
 30  14  38  1   
 31  14  39  1   
 32  15  16  ar  
 33  15  17  ar  
 34  16  18  1   
 35  16  19  ar  
 36  17  20  ar  
 37  17  40  1   
 38  18  21  1   
 39  19  22  ar  
 40  19  41  1   
 41  20  22  ar  
 42  20  42  1   
 43  21  43  1   
 44  21  44  1   
 45  21  45  1   
 46  22  23  1   
 47  23  24  1   
 48  24  46  1   
 49  24  47  1   
 50  24  48  1   
@<TRIPOS>SUBSTRUCTURE
  1 ****  12 GROUP 4 **** **** 0

# MOE 2024.06 (io_trps.svl 2023.06)
