@<TRIPOS>MOLECULE
NONAME
43 44 1 0 0 
SMALL
USER_CHARGES


@<TRIPOS>ATOM
  1 O       -0.6030     0.6850     0.9940 O.2   1 <1>  -0.5700 
  2 C       -0.0280     1.6840     1.3510 C.2   1 <1>   0.5690 
  3 N       -0.0290     2.8310     0.6020 N.am  1 <1>  -0.6600 
  4 C        0.7180     1.6230     2.6640 C.3   1 <1>  -0.1790 
  5 C        0.7330     4.0600     0.9650 C.3   1 <1>   0.2780 
  6 C       -0.7380     2.8810    -0.7090 C.3   1 <1>   0.1400 
  7 C        2.1610     4.0430     0.4320 C.2   1 <1>  -0.1240 
  8 C       -2.2450     3.1500    -0.5400 C.3   1 <1>  -0.0800 
  9 C        2.9260     5.2150     0.7240 C.2   1 <1>   0.6160 
 10 C        2.7250     3.0230    -0.2700 C.2   1 <1>  -0.1780 
 11 C       -2.9360     3.1130    -1.9090 C.3   1 <1>  -0.2400 
 12 C       -2.5440     4.4930     0.1460 C.3   1 <1>  -0.2400 
 13 O        2.4880     6.1620     1.3520 O.2   1 <1>  -0.5700 
 14 N        4.2100     5.2760     0.2800 N.am  1 <1>  -0.5470 
 15 C        4.0800     3.1020    -0.7290 C.ar  1 <1>   0.0280 
 16 C        4.8270     4.2580    -0.4420 C.ar  1 <1>   0.1170 
 17 C        4.6840     2.0710    -1.4490 C.ar  1 <1>  -0.1500 
 18 C        6.1530     4.3630    -0.8770 C.ar  1 <1>  -0.1440 
 19 C        5.9890     2.1810    -1.8750 C.ar  1 <1>  -0.1500 
 20 C        6.7210     3.3260    -1.5890 C.ar  1 <1>  -0.1500 
 21 C        6.9780     5.6080    -0.5770 C.3   1 <1>  -0.0970 
 22 H        0.2720     2.3000     3.3680 H     1 <1>   0.0800 
 23 H        1.7500     1.8750     2.5160 H     1 <1>   0.0800 
 24 H        0.6630     0.6270     3.0640 H     1 <1>   0.0800 
 25 H        0.7550     4.1770     2.0340 H     1 <1>   0.0800 
 26 H        0.2250     4.9220     0.5690 H     1 <1>   0.0800 
 27 H       -0.6060     1.9350    -1.2080 H     1 <1>   0.0800 
 28 H       -0.2970     3.6390    -1.3340 H     1 <1>   0.0800 
 29 H       -2.6590     2.3560     0.0600 H     1 <1>   0.0800 
 30 H        2.1870     2.1230    -0.5100 H     1 <1>   0.1500 
 31 H       -2.5560     3.8900    -2.5490 H     1 <1>   0.0800 
 32 H       -3.9970     3.2500    -1.7950 H     1 <1>   0.0800 
 33 H       -2.7710     2.1620    -2.3830 H     1 <1>   0.0800 
 34 H       -2.1040     5.3070    -0.4020 H     1 <1>   0.0800 
 35 H       -2.1560     4.4960     1.1490 H     1 <1>   0.0800 
 36 H       -3.6060     4.6520     0.2040 H     1 <1>   0.0800 
 37 H        4.7160     6.1290     0.5080 H     1 <1>   0.3700 
 38 H        4.1200     1.1830    -1.6710 H     1 <1>   0.1500 
 39 H        6.4480     1.3810    -2.4300 H     1 <1>   0.1500 
 40 H        7.7400     3.3890    -1.9320 H     1 <1>   0.1500 
 41 H        7.0600     5.7480     0.4860 H     1 <1>   0.0800 
 42 H        6.5120     6.4730    -1.0130 H     1 <1>   0.0800 
 43 H        7.9700     5.5190    -0.9830 H     1 <1>   0.0800 
@<TRIPOS>BOND
  1   1   2  2   
  2   2   3  am  
  3   2   4  1   
  4   3   5  1   
  5   3   6  1   
  6   4  22  1   
  7   4  23  1   
  8   4  24  1   
  9   5   7  1   
 10   5  25  1   
 11   5  26  1   
 12   6   8  1   
 13   6  27  1   
 14   6  28  1   
 15   7   9  1   
 16   7  10  2   
 17   8  11  1   
 18   8  12  1   
 19   8  29  1   
 20   9  13  2   
 21   9  14  am  
 22  10  15  1   
 23  10  30  1   
 24  11  31  1   
 25  11  32  1   
 26  11  33  1   
 27  12  34  1   
 28  12  35  1   
 29  12  36  1   
 30  14  16  1   
 31  14  37  1   
 32  15  16  ar  
 33  15  17  ar  
 34  16  18  ar  
 35  17  19  ar  
 36  17  38  1   
 37  18  20  ar  
 38  18  21  1   
 39  19  20  ar  
 40  19  39  1   
 41  20  40  1   
 42  21  41  1   
 43  21  42  1   
 44  21  43  1   
@<TRIPOS>SUBSTRUCTURE
  1 ****  10 GROUP 4 **** **** 0

# MOE 2024.06 (io_trps.svl 2023.06)
