@<TRIPOS>MOLECULE
NONAME
34 35 1 0 0 
SMALL
USER_CHARGES


@<TRIPOS>ATOM
  1 O       -4.3760     2.9640     0.3480 O.3   1 <1>  -0.3630 
  2 C       -5.5570     2.2840     0.4390 C.ar  1 <1>   0.0820 
  3 C       -4.2220     4.0880    -0.4910 C.3   1 <1>   0.0400 
  4 C       -5.6530     1.1550     1.2700 C.ar  1 <1>   0.0820 
  5 C       -6.6880     2.7000    -0.2600 C.ar  1 <1>  -0.1500 
  6 O       -4.6370     0.6250     2.0070 O.3   1 <1>  -0.3630 
  7 C       -6.8650     0.4940     1.3850 C.ar  1 <1>  -0.1500 
  8 C       -7.9000     2.0350    -0.1340 C.ar  1 <1>  -0.1440 
  9 C       -3.3140     0.6290     1.5180 C.3   1 <1>   0.0400 
 10 C       -7.9800     0.9240     0.6900 C.ar  1 <1>  -0.1500 
 11 C       -9.1380     2.5390    -0.8730 C.3   1 <1>   0.5230 
 12 O       -8.9630     2.3250    -2.2210 O.3   1 <1>  -0.6800 
 13 C       -9.3740     4.0420    -0.6840 C.2   1 <1>   0.0070 
 14 N       -9.5210     4.8820    -1.6680 N.2   1 <1>  -0.5650 
 15 N       -9.4450     4.6300     0.5390 N.pl3 1 <1>   0.0480 
 16 C       -9.6960     6.0680    -1.0590 C.2   1 <1>   0.0770 
 17 C       -9.6510     5.9330     0.2820 C.2   1 <1>  -0.3020 
 18 C       -9.3030     4.0320     1.8830 C.3   1 <1>   0.0160 
 19 H       -3.2090     4.4350    -0.4020 H     1 <1>   0.0800 
 20 H       -4.9010     4.8590    -0.1720 H     1 <1>   0.0800 
 21 H       -4.4190     3.7950    -1.5070 H     1 <1>   0.0800 
 22 H       -6.6540     3.5510    -0.9140 H     1 <1>   0.1500 
 23 H       -6.9250    -0.3680     2.0250 H     1 <1>   0.1500 
 24 H       -2.7660    -0.1420     2.0280 H     1 <1>   0.0800 
 25 H       -2.8710     1.5860     1.7240 H     1 <1>   0.0800 
 26 H       -3.3280     0.4350     0.4600 H     1 <1>   0.0800 
 27 H       -8.9050     0.3840     0.7940 H     1 <1>   0.1500 
 28 H      -10.0150     1.9930    -0.5720 H     1 <1>   0.0800 
 29 H       -9.1020     3.2130    -2.6220 H     1 <1>   0.4000 
 30 H       -9.8470     6.9720    -1.6270 H     1 <1>   0.1500 
 31 H       -9.7520     6.6810     1.0470 H     1 <1>   0.1500 
 32 H       -8.2660     3.8210     2.0700 H     1 <1>   0.0800 
 33 H       -9.8720     3.1230     1.9370 H     1 <1>   0.0800 
 34 H       -9.6650     4.7220     2.6230 H     1 <1>   0.0800 
@<TRIPOS>BOND
  1   1   2  1   
  2   1   3  1   
  3   2   4  ar  
  4   2   5  ar  
  5   3  19  1   
  6   3  20  1   
  7   3  21  1   
  8   4   6  1   
  9   4   7  ar  
 10   5   8  ar  
 11   5  22  1   
 12   6   9  1   
 13   7  10  ar  
 14   7  23  1   
 15   8  10  ar  
 16   8  11  1   
 17   9  24  1   
 18   9  25  1   
 19   9  26  1   
 20  10  27  1   
 21  11  12  1   
 22  11  13  1   
 23  11  28  1   
 24  12  29  1   
 25  13  14  2   
 26  13  15  1   
 27  14  16  1   
 28  15  17  1   
 29  15  18  1   
 30  16  17  2   
 31  16  30  1   
 32  17  31  1   
 33  18  32  1   
 34  18  33  1   
 35  18  34  1   
@<TRIPOS>SUBSTRUCTURE
  1 ****   5 GROUP 4 **** **** 0

# MOE 2024.06 (io_trps.svl 2023.06)
