@<TRIPOS>MOLECULE
NONAME
52 54 1 0 0 
SMALL
USER_CHARGES


@<TRIPOS>ATOM
  1 BR       0.2080    -1.4550    -3.4950 Br    1 <1>  -0.1110 
  2 C       -0.4150    -2.6190    -2.0860 C.ar  1 <1>   0.1110 
  3 C        0.4670    -3.0540    -1.1060 C.ar  1 <1>   0.0820 
  4 C       -1.7470    -2.9840    -2.1030 C.ar  1 <1>  -0.1500 
  5 O        1.7600    -2.6390    -1.1760 O.3   1 <1>  -0.3630 
  6 C       -0.0230    -3.8890    -0.1060 C.ar  1 <1>  -0.1500 
  7 C       -2.2270    -3.8150    -1.1020 C.ar  1 <1>  -0.1430 
  8 C        2.7390    -3.0810    -0.2620 C.3   1 <1>   0.0400 
  9 C       -1.3650    -4.2680    -0.1030 C.ar  1 <1>   0.0830 
 10 C       -3.6850    -4.2280    -1.0980 C.3   1 <1>   0.4870 
 11 O       -1.9020    -5.0720     0.8560 O.3   1 <1>  -0.3630 
 12 N       -4.3160    -3.7050     0.1370 N.4   1 <1>  -0.9590 
 13 C       -1.0770    -5.7880     1.7560 C.3   1 <1>   0.0400 
 14 C       -5.7050    -4.1260     0.4200 C.3   1 <1>   0.4230 
 15 C       -4.2540    -2.2250     0.3360 C.3   1 <1>   0.3430 
 16 C       -6.6650    -3.9020    -0.7690 C.3   1 <1>  -0.1600 
 17 C       -6.0880    -3.1820     1.5420 C.3   1 <1>  -0.1600 
 18 C       -5.6000    -1.8500     0.9800 C.3   1 <1>   0.0000 
 19 C       -6.8940    -2.4280    -1.2230 C.3   1 <1>   0.0000 
 20 C       -6.6190    -1.3960    -0.0900 C.3   1 <1>  -0.1600 
 21 C       -5.4480    -0.7870     2.0760 C.3   1 <1>  -0.2400 
 22 C       -6.0550    -2.0900    -2.4720 C.3   1 <1>  -0.2400 
 23 C       -8.3630    -2.2820    -1.6630 C.3   1 <1>  -0.2400 
 24 H       -2.3780    -2.6170    -2.8930 H     1 <1>   0.1500 
 25 H        0.6380    -4.2330     0.6630 H     1 <1>   0.1500 
 26 H        3.6780    -2.6370    -0.5400 H     1 <1>   0.0800 
 27 H        2.8140    -4.1530    -0.3190 H     1 <1>   0.0800 
 28 H        2.4650    -2.7630     0.7280 H     1 <1>   0.0800 
 29 H       -3.7450    -5.3040    -1.1090 H     1 <1>   0.0800 
 30 H       -4.1850    -3.8510    -1.9730 H     1 <1>   0.0800 
 31 H       -3.7230    -4.1060     0.8810 H     1 <1>   0.4500 
 32 H       -0.5710    -5.0930     2.4020 H     1 <1>   0.0800 
 33 H       -0.3700    -6.3750     1.1960 H     1 <1>   0.0800 
 34 H       -1.7010    -6.4390     2.3440 H     1 <1>   0.0800 
 35 H       -5.7410    -5.1550     0.7420 H     1 <1>   0.0800 
 36 H       -4.1130    -1.6960    -0.5890 H     1 <1>   0.0800 
 37 H       -3.4410    -1.9820     1.0000 H     1 <1>   0.0800 
 38 H       -7.6100    -4.2980    -0.4400 H     1 <1>   0.0800 
 39 H       -6.3810    -4.5190    -1.6020 H     1 <1>   0.0800 
 40 H       -5.5610    -3.4490     2.4420 H     1 <1>   0.0800 
 41 H       -7.1450    -3.1900     1.7470 H     1 <1>   0.0800 
 42 H       -6.3030    -0.4600    -0.5190 H     1 <1>   0.0800 
 43 H       -7.5430    -1.1870     0.4220 H     1 <1>   0.0800 
 44 H       -4.7520    -1.1090     2.8310 H     1 <1>   0.0800 
 45 H       -6.3950    -0.5980     2.5520 H     1 <1>   0.0800 
 46 H       -5.0910     0.1390     1.6590 H     1 <1>   0.0800 
 47 H       -5.0050    -2.0640    -2.2800 H     1 <1>   0.0800 
 48 H       -6.3290    -1.1190    -2.8510 H     1 <1>   0.0800 
 49 H       -6.2390    -2.8030    -3.2570 H     1 <1>   0.0800 
 50 H       -9.0350    -2.4960    -0.8500 H     1 <1>   0.0800 
 51 H       -8.5900    -2.9580    -2.4700 H     1 <1>   0.0800 
 52 H       -8.5630    -1.2800    -2.0000 H     1 <1>   0.0800 
@<TRIPOS>BOND
  1   1   2  1   
  2   2   3  ar  
  3   2   4  ar  
  4   3   5  1   
  5   3   6  ar  
  6   4   7  ar  
  7   4  24  1   
  8   5   8  1   
  9   6   9  ar  
 10   6  25  1   
 11   7   9  ar  
 12   7  10  1   
 13   8  26  1   
 14   8  27  1   
 15   8  28  1   
 16   9  11  1   
 17  10  12  1   
 18  10  29  1   
 19  10  30  1   
 20  11  13  1   
 21  12  14  1   
 22  12  15  1   
 23  12  31  1   
 24  13  32  1   
 25  13  33  1   
 26  13  34  1   
 27  14  16  1   
 28  14  17  1   
 29  14  35  1   
 30  15  18  1   
 31  15  36  1   
 32  15  37  1   
 33  16  19  1   
 34  16  38  1   
 35  16  39  1   
 36  17  18  1   
 37  17  40  1   
 38  17  41  1   
 39  18  20  1   
 40  18  21  1   
 41  19  20  1   
 42  19  22  1   
 43  19  23  1   
 44  20  42  1   
 45  20  43  1   
 46  21  44  1   
 47  21  45  1   
 48  21  46  1   
 49  22  47  1   
 50  22  48  1   
 51  22  49  1   
 52  23  50  1   
 53  23  51  1   
 54  23  52  1   
@<TRIPOS>SUBSTRUCTURE
  1 ****   7 GROUP 4 **** **** 0

# MOE 2024.06 (io_trps.svl 2023.06)
