@<TRIPOS>MOLECULE
NONAME
44 45 1 0 0 
SMALL
USER_CHARGES


@<TRIPOS>ATOM
  1 S       -0.6220     0.1260     0.0790 S.o2  1 <1>   1.3330 
  2 O       -0.2190    -1.2250    -0.2370 O.2   1 <1>  -0.6500 
  3 O       -0.9390     0.4890     1.4420 O.2   1 <1>  -0.6500 
  4 N       -1.9220     0.5630    -0.9200 N.am  1 <1>  -0.8490 
  5 C        0.6520     1.2250    -0.4980 C.3   1 <1>  -0.1350 
  6 C       -2.4020    -0.5140    -1.8130 C.3   1 <1>   0.1960 
  7 C       -3.0580     1.1900    -0.2130 C.3   1 <1>   0.1960 
  8 C       -3.2320    -1.5780    -1.0680 C.3   1 <1>   0.1400 
  9 C       -3.9190     0.1730     0.5700 C.3   1 <1>   0.1400 
 10 N       -4.3610    -0.9380    -0.3280 N.am  1 <1>  -0.6600 
 11 C       -5.6530    -1.0750    -0.7610 C.2   1 <1>   0.6900 
 12 O       -5.8800    -1.4910    -1.8810 O.2   1 <1>  -0.5700 
 13 N       -6.6590    -0.7410     0.0950 N.am  1 <1>  -0.5470 
 14 C       -8.0590    -0.6500    -0.0290 C.ar  1 <1>   0.1170 
 15 C       -8.8180    -0.5070     1.1380 C.ar  1 <1>   0.0820 
 16 C       -8.7150    -0.6830    -1.2540 C.ar  1 <1>  -0.1500 
 17 O       -8.1370    -0.4650     2.3250 O.3   1 <1>  -0.3630 
 18 C      -10.2030    -0.4110     1.0610 C.ar  1 <1>  -0.1500 
 19 C      -10.0930    -0.5870    -1.3280 C.ar  1 <1>  -0.1500 
 20 C       -8.8260    -0.3920     3.5550 C.3   1 <1>   0.0400 
 21 C      -10.8440    -0.4520    -0.1650 C.ar  1 <1>   0.0820 
 22 O      -12.2000    -0.3520    -0.1460 O.3   1 <1>  -0.3630 
 23 C      -12.9450    -0.4040    -1.3430 C.3   1 <1>   0.0400 
 24 H        0.8460     1.0500    -1.5380 H     1 <1>   0.0800 
 25 H        1.5560     1.0610     0.0550 H     1 <1>   0.0800 
 26 H        0.3470     2.2440    -0.3690 H     1 <1>   0.0800 
 27 H       -1.5690    -0.9840    -2.3070 H     1 <1>   0.0800 
 28 H       -3.0230    -0.0830    -2.5800 H     1 <1>   0.0800 
 29 H       -3.6890     1.6770    -0.9360 H     1 <1>   0.0800 
 30 H       -2.6990     1.9520     0.4580 H     1 <1>   0.0800 
 31 H       -2.6080    -2.1110    -0.3730 H     1 <1>   0.0800 
 32 H       -3.6060    -2.2960    -1.7770 H     1 <1>   0.0800 
 33 H       -4.7670     0.6900     0.9830 H     1 <1>   0.0800 
 34 H       -3.3550    -0.2360     1.3890 H     1 <1>   0.0800 
 35 H       -6.3560    -0.6740     1.0640 H     1 <1>   0.3700 
 36 H       -8.1530    -0.7830    -2.1640 H     1 <1>   0.1500 
 37 H      -10.8150    -0.3030     1.9340 H     1 <1>   0.1500 
 38 H      -10.5560    -0.6200    -2.2950 H     1 <1>   0.1500 
 39 H       -8.1000    -0.4030     4.3470 H     1 <1>   0.0800 
 40 H       -9.4750    -1.2460     3.6430 H     1 <1>   0.0800 
 41 H       -9.3880     0.5240     3.5870 H     1 <1>   0.0800 
 42 H      -13.9870    -0.3170    -1.0920 H     1 <1>   0.0800 
 43 H      -12.7630    -1.3480    -1.8260 H     1 <1>   0.0800 
 44 H      -12.6510     0.4160    -1.9730 H     1 <1>   0.0800 
@<TRIPOS>BOND
  1   1   2  2   
  2   1   3  2   
  3   1   4  am  
  4   1   5  1   
  5   4   6  1   
  6   4   7  1   
  7   5  24  1   
  8   5  25  1   
  9   5  26  1   
 10   6   8  1   
 11   6  27  1   
 12   6  28  1   
 13   7   9  1   
 14   7  29  1   
 15   7  30  1   
 16   8  10  1   
 17   8  31  1   
 18   8  32  1   
 19   9  10  1   
 20   9  33  1   
 21   9  34  1   
 22  10  11  am  
 23  11  12  2   
 24  11  13  am  
 25  13  14  1   
 26  13  35  1   
 27  14  15  ar  
 28  14  16  ar  
 29  15  17  1   
 30  15  18  ar  
 31  16  19  ar  
 32  16  36  1   
 33  17  20  1   
 34  18  21  ar  
 35  18  37  1   
 36  19  21  ar  
 37  19  38  1   
 38  20  39  1   
 39  20  40  1   
 40  20  41  1   
 41  21  22  1   
 42  22  23  1   
 43  23  42  1   
 44  23  43  1   
 45  23  44  1   
@<TRIPOS>SUBSTRUCTURE
  1 ****  13 GROUP 4 **** **** 0

# MOE 2024.06 (io_trps.svl 2023.06)
