@<TRIPOS>MOLECULE
NONAME
31 33 1 0 0 
SMALL
USER_CHARGES


@<TRIPOS>ATOM
  1 S        0.0810    -0.3720     0.3800 S.3   1 <1>  -0.2420 
  2 C        1.3340     0.7970     0.8310 C.2   1 <1>   0.6970 
  3 C       -1.3120     0.5950    -0.1640 C.ar  1 <1>   0.1020 
  4 O        2.3590     0.2870     1.2370 O.2   1 <1>  -0.5700 
  5 C        1.0690     2.1730     0.6920 C.2   1 <1>   0.2190 
  6 C       -1.2660     1.9920    -0.1780 C.ar  1 <1>   0.0280 
  7 C       -2.4240    -0.1270    -0.5610 C.ar  1 <1>  -0.1500 
  8 N        2.1540     2.9580     1.0700 N.pl3 1 <1>   0.8360 
  9 C       -0.0980     2.7540     0.2340 C.2   1 <1>   0.0720 
 10 C       -2.4370     2.6250    -0.6200 C.ar  1 <1>  -0.1500 
 11 C       -3.5550     0.5360    -0.9930 C.ar  1 <1>  -0.1500 
 12 O        3.0080     3.3010     0.2280 O.2   1 <1>  -0.5200 
 13 O        2.2710     3.3410     2.2520 O.2   1 <1>  -0.5200 
 14 N       -0.2030     4.1260     0.1410 N.pl3 1 <1>  -0.8380 
 15 C       -3.5560     1.9180    -1.0200 C.ar  1 <1>  -0.1500 
 16 C        0.3380     4.8900    -1.0150 C.3   1 <1>   0.2090 
 17 C       -0.3590     5.0130     1.3220 C.3   1 <1>   0.2090 
 18 C        0.5010     6.3190    -0.5090 C.3   1 <1>  -0.1600 
 19 C        0.5330     6.2050     1.0130 C.3   1 <1>  -0.1600 
 20 H       -2.4060    -1.2030    -0.5320 H     1 <1>   0.1500 
 21 H       -2.4850     3.6980    -0.6560 H     1 <1>   0.1500 
 22 H       -4.4260    -0.0160    -1.3040 H     1 <1>   0.1500 
 23 H       -4.4350     2.4440    -1.3540 H     1 <1>   0.1500 
 24 H       -0.3430     4.8480    -1.8480 H     1 <1>   0.0800 
 25 H        1.2910     4.4860    -1.3120 H     1 <1>   0.0800 
 26 H       -0.0700     4.5230     2.2370 H     1 <1>   0.0800 
 27 H       -1.3870     5.3250     1.3920 H     1 <1>   0.0800 
 28 H       -0.3540     6.8960    -0.8150 H     1 <1>   0.0800 
 29 H        1.3910     6.7790    -0.9010 H     1 <1>   0.0800 
 30 H        1.5340     5.9880     1.3440 H     1 <1>   0.0800 
 31 H        0.1890     7.1000     1.5010 H     1 <1>   0.0800 
@<TRIPOS>BOND
  1   1   2  1   
  2   1   3  1   
  3   2   4  2   
  4   2   5  1   
  5   3   6  ar  
  6   3   7  ar  
  7   5   8  1   
  8   5   9  2   
  9   6   9  1   
 10   6  10  ar  
 11   7  11  ar  
 12   7  20  1   
 13   8  12  2   
 14   8  13  2   
 15   9  14  1   
 16  10  15  ar  
 17  10  21  1   
 18  11  15  ar  
 19  11  22  1   
 20  14  16  1   
 21  14  17  1   
 22  15  23  1   
 23  16  18  1   
 24  16  24  1   
 25  16  25  1   
 26  17  19  1   
 27  17  26  1   
 28  17  27  1   
 29  18  19  1   
 30  18  28  1   
 31  18  29  1   
 32  19  30  1   
 33  19  31  1   
@<TRIPOS>SUBSTRUCTURE
  1 ****   9 GROUP 4 **** **** 0

# MOE 2024.06 (io_trps.svl 2023.06)
