@<TRIPOS>MOLECULE
NONAME
42 44 1 0 0 
SMALL
USER_CHARGES


@<TRIPOS>ATOM
  1 O       -0.2130    -7.8330    -0.2950 O.3   1 <1>  -0.5600 
  2 C       -0.8340    -6.6080    -0.4570 C.3   1 <1>   0.2000 
  3 C        1.1110    -7.6670     0.1080 C.3   1 <1>   0.1200 
  4 C       -0.2270    -5.7440     0.6430 C.3   1 <1>  -0.1600 
  5 C       -2.3550    -6.8440    -0.3910 C.3   1 <1>   0.3430 
  6 C        1.1910    -6.2810     0.7440 C.3   1 <1>  -0.1600 
  7 N       -3.1740    -5.6060    -0.5790 N.4   1 <1>  -0.9060 
  8 C       -3.3620    -4.7840     0.6330 C.3   1 <1>   0.4860 
  9 C       -4.3180    -3.6750     0.2560 C.ar  1 <1>  -0.1440 
 10 C       -5.6280    -4.0150     0.0090 C.ar  1 <1>   0.0820 
 11 C       -3.8730    -2.3330     0.1560 C.ar  1 <1>   0.0000 
 12 O       -5.9780    -5.3260     0.0980 O.3   1 <1>  -0.3620 
 13 C       -6.5570    -3.0200    -0.3400 C.ar  1 <1>  -0.1500 
 14 C       -4.8190    -1.3430    -0.2020 C.ar  1 <1>   0.0000 
 15 C       -2.5410    -1.9070     0.3870 C.ar  1 <1>  -0.1500 
 16 C       -7.3350    -5.7220     0.1690 C.3   1 <1>   0.0400 
 17 C       -6.1540    -1.7200    -0.4400 C.ar  1 <1>  -0.1500 
 18 C       -4.4100    -0.0010    -0.3150 C.ar  1 <1>  -0.1500 
 19 C       -2.1720    -0.5960     0.2690 C.ar  1 <1>  -0.1500 
 20 C       -3.1160     0.3700    -0.0870 C.ar  1 <1>  -0.1500 
 21 H       -0.5490    -6.2420    -1.4300 H     1 <1>   0.0800 
 22 H        1.7450    -7.7410    -0.7600 H     1 <1>   0.0800 
 23 H        1.3550    -8.4490     0.8080 H     1 <1>   0.0800 
 24 H       -0.7400    -5.9120     1.5740 H     1 <1>   0.0800 
 25 H       -0.2420    -4.6970     0.3980 H     1 <1>   0.0800 
 26 H       -2.5960    -7.3010     0.5550 H     1 <1>   0.0800 
 27 H       -2.6030    -7.5470    -1.1700 H     1 <1>   0.0800 
 28 H        1.8790    -5.6710     0.1840 H     1 <1>   0.0800 
 29 H        1.5300    -6.3380     1.7640 H     1 <1>   0.0800 
 30 H       -4.1380    -5.8650    -0.8470 H     1 <1>   0.4500 
 31 H       -2.8230    -5.0150    -1.3400 H     1 <1>   0.4500 
 32 H       -2.4260    -4.3950     0.9880 H     1 <1>   0.0800 
 33 H       -3.8050    -5.3790     1.4160 H     1 <1>   0.0800 
 34 H       -7.5840    -3.2650    -0.5360 H     1 <1>   0.1500 
 35 H       -1.7820    -2.6100     0.6670 H     1 <1>   0.1500 
 36 H       -7.3700    -6.7780     0.3730 H     1 <1>   0.0800 
 37 H       -7.8120    -5.5190    -0.7730 H     1 <1>   0.0800 
 38 H       -7.8180    -5.1830     0.9660 H     1 <1>   0.0800 
 39 H       -6.8610    -0.9530    -0.7070 H     1 <1>   0.1500 
 40 H       -5.1410     0.7400    -0.5870 H     1 <1>   0.1500 
 41 H       -1.1570    -0.2830     0.4480 H     1 <1>   0.1500 
 42 H       -2.8090     1.3990    -0.1750 H     1 <1>   0.1500 
@<TRIPOS>BOND
  1   1   2  1   
  2   1   3  1   
  3   2   4  1   
  4   2   5  1   
  5   2  21  1   
  6   3   6  1   
  7   3  22  1   
  8   3  23  1   
  9   4   6  1   
 10   4  24  1   
 11   4  25  1   
 12   5   7  1   
 13   5  26  1   
 14   5  27  1   
 15   6  28  1   
 16   6  29  1   
 17   7   8  1   
 18   7  30  1   
 19   7  31  1   
 20   8   9  1   
 21   8  32  1   
 22   8  33  1   
 23   9  10  ar  
 24   9  11  ar  
 25  10  12  1   
 26  10  13  ar  
 27  11  14  ar  
 28  11  15  ar  
 29  12  16  1   
 30  13  17  ar  
 31  13  34  1   
 32  14  17  ar  
 33  14  18  ar  
 34  15  19  ar  
 35  15  35  1   
 36  16  36  1   
 37  16  37  1   
 38  16  38  1   
 39  17  39  1   
 40  18  20  ar  
 41  18  40  1   
 42  19  20  ar  
 43  19  41  1   
 44  20  42  1   
@<TRIPOS>SUBSTRUCTURE
  1 ****   8 GROUP 4 **** **** 0

# MOE 2024.06 (io_trps.svl 2023.06)
