@<TRIPOS>MOLECULE
NONAME
48 50 1 0 0 
SMALL
USER_CHARGES


@<TRIPOS>ATOM
  1 O       -1.5300     1.6190     0.2330 O.2   1 <1>  -0.5700 
  2 C       -0.7430     2.2490    -0.4550 C.2   1 <1>   0.4690 
  3 C        0.5900     2.5730    -0.0190 C.ar  1 <1>   0.0860 
  4 C       -1.1450     2.7380    -1.7350 C.2   1 <1>  -0.1240 
  5 C        1.3880     3.3730    -0.8450 C.ar  1 <1>   0.0830 
  6 C        1.1300     2.1370     1.1930 C.ar  1 <1>  -0.1500 
  7 C       -0.3040     3.5010    -2.4660 C.2   1 <1>  -0.0730 
  8 C       -2.5310     2.3520    -2.2200 C.3   1 <1>   0.4810 
  9 O        0.9160     3.8210    -2.0300 O.3   1 <1>  -0.1590 
 10 C        2.6760     3.7210    -0.4660 C.ar  1 <1>  -0.1500 
 11 C        2.4130     2.4820     1.5730 C.ar  1 <1>  -0.1440 
 12 N       -3.5580     2.7770    -1.2300 N.4   1 <1>  -0.9590 
 13 C        3.1860     3.2780     0.7380 C.ar  1 <1>  -0.1500 
 14 C        2.9920     2.0030     2.8930 C.3   1 <1>  -0.0970 
 15 C       -4.8770     2.1390    -1.4820 C.3   1 <1>   0.3430 
 16 C       -3.6420     4.2570    -1.0740 C.3   1 <1>   0.3430 
 17 C       -5.8210     2.4430    -0.3190 C.3   1 <1>  -0.1600 
 18 C       -4.5630     4.5900     0.0960 C.3   1 <1>  -0.1600 
 19 C       -5.9600     3.9560    -0.0690 C.3   1 <1>  -0.0190 
 20 C       -6.8710     4.2260     1.1270 C.2   1 <1>   0.6590 
 21 O       -6.4370     4.5490     2.2020 O.2   1 <1>  -0.5700 
 22 O       -8.1670     4.0680     0.9000 O.3   1 <1>  -0.4300 
 23 C       -9.1200     4.2760     1.9170 C.3   1 <1>   0.1200 
 24 C      -10.5030     4.0070     1.3310 C.3   1 <1>  -0.2400 
 25 H        0.5260     1.5200     1.8370 H     1 <1>   0.1500 
 26 H       -0.5240     3.9080    -3.4400 H     1 <1>   0.1500 
 27 H       -2.5650     1.2800    -2.3340 H     1 <1>   0.0800 
 28 H       -2.7290     2.8020    -3.1790 H     1 <1>   0.0800 
 29 H        3.2750     4.3370    -1.1150 H     1 <1>   0.1500 
 30 H       -3.2000     2.3930    -0.3300 H     1 <1>   0.4500 
 31 H        4.1860     3.5490     1.0290 H     1 <1>   0.1500 
 32 H        2.2770     1.4120     3.4370 H     1 <1>   0.0800 
 33 H        3.2690     2.8470     3.5000 H     1 <1>   0.0800 
 34 H        3.8660     1.4030     2.7130 H     1 <1>   0.0800 
 35 H       -4.7590     1.0700    -1.5730 H     1 <1>   0.0800 
 36 H       -5.2990     2.5160    -2.3990 H     1 <1>   0.0800 
 37 H       -4.0270     4.7010    -1.9780 H     1 <1>   0.0800 
 38 H       -2.6630     4.6680    -0.8830 H     1 <1>   0.0800 
 39 H       -5.4560     1.9570     0.5710 H     1 <1>   0.0800 
 40 H       -6.7890     2.0260    -0.5370 H     1 <1>   0.0800 
 41 H       -4.6630     5.6590     0.1730 H     1 <1>   0.0800 
 42 H       -4.1060     4.2480     1.0090 H     1 <1>   0.0800 
 43 H       -6.4330     4.4030    -0.9260 H     1 <1>   0.0800 
 44 H       -9.0370     5.2930     2.2610 H     1 <1>   0.0800 
 45 H       -8.9070     3.6020     2.7300 H     1 <1>   0.0800 
 46 H      -10.6990     4.6800     0.5170 H     1 <1>   0.0800 
 47 H      -11.2510     4.1600     2.0880 H     1 <1>   0.0800 
 48 H      -10.5700     2.9910     0.9860 H     1 <1>   0.0800 
@<TRIPOS>BOND
  1   1   2  2   
  2   2   3  1   
  3   2   4  1   
  4   3   5  ar  
  5   3   6  ar  
  6   4   7  2   
  7   4   8  1   
  8   5   9  1   
  9   5  10  ar  
 10   6  11  ar  
 11   6  25  1   
 12   7   9  1   
 13   7  26  1   
 14   8  12  1   
 15   8  27  1   
 16   8  28  1   
 17  10  13  ar  
 18  10  29  1   
 19  11  13  ar  
 20  11  14  1   
 21  12  15  1   
 22  12  16  1   
 23  12  30  1   
 24  13  31  1   
 25  14  32  1   
 26  14  33  1   
 27  14  34  1   
 28  15  17  1   
 29  15  35  1   
 30  15  36  1   
 31  16  18  1   
 32  16  37  1   
 33  16  38  1   
 34  17  19  1   
 35  17  39  1   
 36  17  40  1   
 37  18  19  1   
 38  18  41  1   
 39  18  42  1   
 40  19  20  1   
 41  19  43  1   
 42  20  21  2   
 43  20  22  1   
 44  22  23  1   
 45  23  24  1   
 46  23  44  1   
 47  23  45  1   
 48  24  46  1   
 49  24  47  1   
 50  24  48  1   
@<TRIPOS>SUBSTRUCTURE
  1 ****  12 GROUP 4 **** **** 0

# MOE 2024.06 (io_trps.svl 2023.06)
