@<TRIPOS>MOLECULE
NONAME
37 37 1 0 0 
SMALL
USER_CHARGES


@<TRIPOS>ATOM
  1 O       -0.8970    -0.6760     0.1740 O.2   1 <1>  -0.5700 
  2 C       -0.0810    -1.5400    -0.0340 C.2   1 <1>   0.4950 
  3 C       -0.4460    -2.9010    -0.3270 C.2   1 <1>  -0.1360 
  4 C        1.4270    -1.1610     0.0230 C.3   1 <1>   0.0610 
  5 C       -1.6620    -3.4950    -0.4570 C.2   1 <1>  -0.1670 
  6 C        1.6280     0.3390     0.3270 C.3   1 <1>  -0.2400 
  7 C        2.1470    -1.9530     1.1320 C.3   1 <1>  -0.2400 
  8 C        2.1140    -1.4480    -1.3270 C.3   1 <1>  -0.2400 
  9 C       -2.9510    -2.8610    -0.3500 C.ar  1 <1>   0.0280 
 10 C       -1.7350    -4.9860    -0.7660 C.3   1 <1>  -0.1020 
 11 C       -3.3180    -1.8230    -1.2040 C.ar  1 <1>  -0.1500 
 12 C       -3.8890    -3.2790     0.5930 C.ar  1 <1>  -0.1500 
 13 C       -4.5680    -1.2390    -1.1300 C.ar  1 <1>  -0.1500 
 14 C       -5.1420    -2.7010     0.6750 C.ar  1 <1>  -0.1500 
 15 C       -5.4930    -1.6720    -0.1950 C.ar  1 <1>   0.0820 
 16 O       -6.6980    -1.0550    -0.1870 O.3   1 <1>  -0.3630 
 17 C       -7.6900    -1.3830     0.7590 C.3   1 <1>   0.0400 
 18 H        0.4100    -3.5320    -0.4530 H     1 <1>   0.1500 
 19 H        1.1830     0.5910     1.2740 H     1 <1>   0.0800 
 20 H        1.1570     0.9410    -0.4300 H     1 <1>   0.0800 
 21 H        2.6730     0.5930     0.3640 H     1 <1>   0.0800 
 22 H        2.1270    -3.0100     0.9400 H     1 <1>   0.0800 
 23 H        1.6700    -1.7730     2.0810 H     1 <1>   0.0800 
 24 H        3.1760    -1.6480     1.2080 H     1 <1>   0.0800 
 25 H        1.6140    -0.9130    -2.1160 H     1 <1>   0.0800 
 26 H        2.0960    -2.4960    -1.5650 H     1 <1>   0.0800 
 27 H        3.1420    -1.1310    -1.3030 H     1 <1>   0.0800 
 28 H       -2.3610    -5.1480    -1.6260 H     1 <1>   0.0800 
 29 H       -2.1540    -5.5210     0.0670 H     1 <1>   0.0800 
 30 H       -0.7640    -5.3970    -0.9750 H     1 <1>   0.0800 
 31 H       -2.6070    -1.4700    -1.9280 H     1 <1>   0.1500 
 32 H       -3.6260    -4.0670     1.2750 H     1 <1>   0.1500 
 33 H       -4.8330    -0.4370    -1.7950 H     1 <1>   0.1500 
 34 H       -5.8280    -3.0580     1.4170 H     1 <1>   0.1500 
 35 H       -8.5420    -0.7530     0.5800 H     1 <1>   0.0800 
 36 H       -7.3020    -1.2030     1.7460 H     1 <1>   0.0800 
 37 H       -7.9640    -2.4150     0.6330 H     1 <1>   0.0800 
@<TRIPOS>BOND
  1   1   2  2   
  2   2   3  1   
  3   2   4  1   
  4   3   5  2   
  5   3  18  1   
  6   4   6  1   
  7   4   7  1   
  8   4   8  1   
  9   5   9  1   
 10   5  10  1   
 11   6  19  1   
 12   6  20  1   
 13   6  21  1   
 14   7  22  1   
 15   7  23  1   
 16   7  24  1   
 17   8  25  1   
 18   8  26  1   
 19   8  27  1   
 20   9  11  ar  
 21   9  12  ar  
 22  10  28  1   
 23  10  29  1   
 24  10  30  1   
 25  11  13  ar  
 26  11  31  1   
 27  12  14  ar  
 28  12  32  1   
 29  13  15  ar  
 30  13  33  1   
 31  14  15  ar  
 32  14  34  1   
 33  15  16  1   
 34  16  17  1   
 35  17  35  1   
 36  17  36  1   
 37  17  37  1   
@<TRIPOS>SUBSTRUCTURE
  1 ****   9 GROUP 4 **** **** 0

# MOE 2024.06 (io_trps.svl 2023.06)
