@<TRIPOS>MOLECULE
NONAME
35 36 1 0 0 
SMALL
USER_CHARGES


@<TRIPOS>ATOM
  1 O       -0.4980    -0.8840     1.1500 O.2   1 <1>  -0.5700 
  2 C       -0.9390    -1.9520     0.8040 C.2   1 <1>   0.5690 
  3 N       -1.9180    -2.5200     1.5480 N.am  1 <1>  -0.7300 
  4 C       -0.3820    -2.6390    -0.4530 C.3   1 <1>  -0.0190 
  5 C       -2.5710    -3.8430     1.3970 C.3   1 <1>   0.1400 
  6 C        0.8260    -3.5250    -0.1070 C.3   1 <1>  -0.2400 
  7 C        0.0100    -1.6340    -1.5500 C.3   1 <1>  -0.2400 
  8 C       -3.9050    -3.6910     0.6650 C.3   1 <1>   0.0210 
  9 C       -4.5960    -5.0270     0.4510 C.2   1 <1>  -0.1810 
 10 C       -5.8230    -5.1530    -0.2400 C.ar  1 <1>   0.0000 
 11 C       -4.2180    -6.2710     0.8390 C.2   1 <1>  -0.3020 
 12 C       -6.1410    -6.5070    -0.2380 C.ar  1 <1>  -0.1520 
 13 C       -6.6880    -4.2450    -0.8610 C.ar  1 <1>  -0.1500 
 14 N       -5.1500    -7.1810     0.4260 N.pl3 1 <1>   0.0330 
 15 C       -7.3080    -6.9740    -0.8480 C.ar  1 <1>  -0.1500 
 16 C       -7.8370    -4.7040    -1.4620 C.ar  1 <1>  -0.1500 
 17 C       -8.1470    -6.0690    -1.4560 C.ar  1 <1>  -0.1500 
 18 H       -2.2190    -1.9610     2.3490 H     1 <1>   0.3700 
 19 H       -1.1520    -3.2640    -0.8660 H     1 <1>   0.0800 
 20 H       -2.7400    -4.2660     2.3730 H     1 <1>   0.0800 
 21 H       -1.9310    -4.5130     0.8500 H     1 <1>   0.0800 
 22 H        1.6230    -2.9220     0.2930 H     1 <1>   0.0800 
 23 H        1.1840    -4.0350    -0.9840 H     1 <1>   0.0800 
 24 H        0.5530    -4.2580     0.6300 H     1 <1>   0.0800 
 25 H        0.8050    -0.9940    -1.2060 H     1 <1>   0.0800 
 26 H       -0.8350    -1.0170    -1.8020 H     1 <1>   0.0800 
 27 H        0.3370    -2.1470    -2.4360 H     1 <1>   0.0800 
 28 H       -3.7340    -3.2370    -0.2940 H     1 <1>   0.0800 
 29 H       -4.5560    -3.0540     1.2370 H     1 <1>   0.0800 
 30 H       -3.3440    -6.5770     1.3850 H     1 <1>   0.1500 
 31 H       -6.4410    -3.2000    -0.8610 H     1 <1>   0.1500 
 32 H       -5.1260    -8.1940     0.5780 H     1 <1>   0.2700 
 33 H       -7.5390    -8.0240    -0.8390 H     1 <1>   0.1500 
 34 H       -8.5100    -4.0170    -1.9440 H     1 <1>   0.1500 
 35 H       -9.0520    -6.4020    -1.9330 H     1 <1>   0.1500 
@<TRIPOS>BOND
  1   1   2  2   
  2   2   3  am  
  3   2   4  1   
  4   3   5  1   
  5   3  18  1   
  6   4   6  1   
  7   4   7  1   
  8   4  19  1   
  9   5   8  1   
 10   5  20  1   
 11   5  21  1   
 12   6  22  1   
 13   6  23  1   
 14   6  24  1   
 15   7  25  1   
 16   7  26  1   
 17   7  27  1   
 18   8   9  1   
 19   8  28  1   
 20   8  29  1   
 21   9  10  1   
 22   9  11  2   
 23  10  12  ar  
 24  10  13  ar  
 25  11  14  1   
 26  11  30  1   
 27  12  14  1   
 28  12  15  ar  
 29  13  16  ar  
 30  13  31  1   
 31  14  32  1   
 32  15  17  ar  
 33  15  33  1   
 34  16  17  ar  
 35  16  34  1   
 36  17  35  1   
@<TRIPOS>SUBSTRUCTURE
  1 ****   8 GROUP 4 **** **** 0

# MOE 2024.06 (io_trps.svl 2023.06)
