@<TRIPOS>MOLECULE
NONAME
44 46 1 0 0 
SMALL
USER_CHARGES


@<TRIPOS>ATOM
  1 CL      -0.7700    -0.9910     0.4180 Cl    1 <1>  -0.1770 
  2 C        0.6610    -1.9870     0.3110 C.ar  1 <1>   0.1770 
  3 C        1.8780    -1.3970     0.0350 C.ar  1 <1>  -0.1500 
  4 C        0.5450    -3.3490     0.5060 C.ar  1 <1>  -0.1500 
  5 C        3.0230    -2.1800    -0.0520 C.ar  1 <1>   0.1170 
  6 C        1.6770    -4.1420     0.4220 C.ar  1 <1>  -0.1500 
  7 N        4.2990    -1.6550    -0.3300 N.am  1 <1>  -0.5470 
  8 C        2.9140    -3.5640     0.1440 C.ar  1 <1>   0.0830 
  9 C        4.7700    -0.3850    -0.4980 C.2   1 <1>   0.5690 
 10 O        4.0660    -4.2950     0.0470 O.3   1 <1>  -0.3630 
 11 O        4.0920     0.6080    -0.4200 O.2   1 <1>  -0.5700 
 12 C        6.2450    -0.2210    -0.7720 C.3   1 <1>  -0.0990 
 13 C        4.0720    -5.6910     0.2520 C.3   1 <1>   0.0400 
 14 C        6.9860    -0.0030     0.5470 C.3   1 <1>   0.1400 
 15 N        8.4450    -0.1120     0.3350 N.am  1 <1>  -0.4200 
 16 C        9.3070     0.9430     0.2470 C.2   1 <1>   0.5690 
 17 C        9.1130    -1.2980     0.2270 C.2   1 <1>   0.5690 
 18 O        9.0400     2.1020     0.4310 O.2   1 <1>  -0.5700 
 19 C       10.6670     0.4310    -0.1690 C.3   1 <1>  -0.0190 
 20 O        8.6100    -2.3890     0.1340 O.2   1 <1>  -0.5700 
 21 C       10.5990    -1.0320     0.2740 C.3   1 <1>  -0.0190 
 22 C       11.9670     1.0630     0.3360 C.3   1 <1>  -0.0220 
 23 C       11.6060    -1.8610    -0.5290 C.3   1 <1>  -0.0220 
 24 C       13.1150     0.1310    -0.0600 C.2   1 <1>  -0.2880 
 25 C       12.9560    -1.1420    -0.4580 C.2   1 <1>  -0.2880 
 26 H        1.9140    -0.3340    -0.1110 H     1 <1>   0.1500 
 27 H       -0.4170    -3.7780     0.7200 H     1 <1>   0.1500 
 28 H        1.5720    -5.1990     0.5750 H     1 <1>   0.1500 
 29 H        4.9990    -2.3990    -0.3900 H     1 <1>   0.3700 
 30 H        6.3890     0.6290    -1.4140 H     1 <1>   0.0800 
 31 H        6.6090    -1.1000    -1.2710 H     1 <1>   0.0800 
 32 H        5.0820    -6.0420     0.1380 H     1 <1>   0.0800 
 33 H        3.4410    -6.1560    -0.4850 H     1 <1>   0.0800 
 34 H        3.7240    -5.9010     1.2480 H     1 <1>   0.0800 
 35 H        6.6860    -0.7480     1.2650 H     1 <1>   0.0800 
 36 H        6.7440     0.9680     0.9480 H     1 <1>   0.0800 
 37 H       10.6810     0.4710    -1.2440 H     1 <1>   0.0800 
 38 H       10.8780    -1.0970     1.3120 H     1 <1>   0.0800 
 39 H       11.9450     1.1900     1.4050 H     1 <1>   0.0800 
 40 H       12.0940     2.0290    -0.1210 H     1 <1>   0.0800 
 41 H       11.2930    -1.9600    -1.5550 H     1 <1>   0.0800 
 42 H       11.6830    -2.8440    -0.0980 H     1 <1>   0.0800 
 43 H       14.0830     0.6030     0.0070 H     1 <1>   0.1500 
 44 H       13.7830    -1.7660    -0.7570 H     1 <1>   0.1500 
@<TRIPOS>BOND
  1   1   2  1   
  2   2   3  ar  
  3   2   4  ar  
  4   3   5  ar  
  5   3  26  1   
  6   4   6  ar  
  7   4  27  1   
  8   5   7  1   
  9   5   8  ar  
 10   6   8  ar  
 11   6  28  1   
 12   7   9  am  
 13   7  29  1   
 14   8  10  1   
 15   9  11  2   
 16   9  12  1   
 17  10  13  1   
 18  12  14  1   
 19  12  30  1   
 20  12  31  1   
 21  13  32  1   
 22  13  33  1   
 23  13  34  1   
 24  14  15  1   
 25  14  35  1   
 26  14  36  1   
 27  15  16  am  
 28  15  17  am  
 29  16  18  2   
 30  16  19  1   
 31  17  20  2   
 32  17  21  1   
 33  19  21  1   
 34  19  22  1   
 35  19  37  1   
 36  21  23  1   
 37  21  38  1   
 38  22  24  1   
 39  22  39  1   
 40  22  40  1   
 41  23  25  1   
 42  23  41  1   
 43  23  42  1   
 44  24  25  2   
 45  24  43  1   
 46  25  44  1   
@<TRIPOS>SUBSTRUCTURE
  1 ****  12 GROUP 4 **** **** 0

# MOE 2024.06 (io_trps.svl 2023.06)
