@<TRIPOS>MOLECULE
NONAME
48 50 1 0 0 
SMALL
USER_CHARGES


@<TRIPOS>ATOM
  1 S        0.1830     0.3260     0.1870 S.3   1 <1>  -0.2860 
  2 C       -1.5570     0.6720     0.4650 C.2   1 <1>   0.2420 
  3 C        1.0230     1.5930     1.2600 C.3   1 <1>   0.1310 
  4 N       -1.9820     1.6330     1.2010 N.2   1 <1>  -0.3380 
  5 N       -2.5280    -0.0520    -0.0840 N.pl3 1 <1>   0.0480 
  6 C        2.5360     1.5100     1.1420 C.2   1 <1>   0.5690 
  7 N       -3.3150     1.5640     1.1490 N.2   1 <1>  -0.3380 
  8 C       -3.6350     0.5510     0.3910 C.2   1 <1>   0.1870 
  9 C       -2.4050    -1.1810    -1.0310 C.3   1 <1>   0.0160 
 10 O        3.2060     1.8940     2.0710 O.2   1 <1>  -0.5700 
 11 N        3.0960     1.0250     0.0030 N.am  1 <1>  -0.7300 
 12 C       -4.9760     0.1310     0.0770 C.2   1 <1>  -0.0010 
 13 C        4.5320     0.8860    -0.2550 C.3   1 <1>   0.2200 
 14 C       -5.5070    -1.1720     0.2690 C.ar  1 <1>   0.0000 
 15 C       -5.9790     0.8730    -0.4710 C.2   1 <1>  -0.3020 
 16 C        4.8710     1.6890    -1.5050 C.3   1 <1>  -0.2400 
 17 C        4.8410    -0.5950    -0.4440 C.3   1 <1>  -0.2400 
 18 C       -6.8120    -1.1560    -0.2130 C.ar  1 <1>  -0.1520 
 19 C       -4.9920    -2.3480     0.8260 C.ar  1 <1>  -0.1500 
 20 N       -7.0930     0.1140    -0.6570 N.pl3 1 <1>   0.0480 
 21 C       -7.6000    -2.3110    -0.1800 C.ar  1 <1>  -0.1500 
 22 C       -5.7690    -3.4820     0.8600 C.ar  1 <1>  -0.1500 
 23 C       -8.3770     0.5880    -1.2130 C.3   1 <1>   0.0960 
 24 C       -7.0720    -3.4650     0.3520 C.ar  1 <1>  -0.1500 
 25 C       -9.3410     0.9700    -0.0870 C.3   1 <1>  -0.2400 
 26 H        0.7150     1.4060     2.2720 H     1 <1>   0.0800 
 27 H        0.6760     2.5600     0.9470 H     1 <1>   0.0800 
 28 H       -1.6420    -0.9590    -1.7550 H     1 <1>   0.0800 
 29 H       -3.3380    -1.3350    -1.5410 H     1 <1>   0.0800 
 30 H       -2.1390    -2.0710    -0.4920 H     1 <1>   0.0800 
 31 H        2.4830     0.6670    -0.7310 H     1 <1>   0.3700 
 32 H        5.0940     1.2680     0.5840 H     1 <1>   0.0800 
 33 H       -5.9430     1.9140    -0.7350 H     1 <1>   0.1500 
 34 H        4.3250     1.3250    -2.3560 H     1 <1>   0.0800 
 35 H        5.9230     1.6110    -1.7140 H     1 <1>   0.0800 
 36 H        4.6370     2.7270    -1.3470 H     1 <1>   0.0800 
 37 H        4.2940    -0.9980    -1.2770 H     1 <1>   0.0800 
 38 H        4.5850    -1.1370     0.4490 H     1 <1>   0.0800 
 39 H        5.8920    -0.7270    -0.6270 H     1 <1>   0.0800 
 40 H       -3.9970    -2.3480     1.2320 H     1 <1>   0.1500 
 41 H       -8.6040    -2.2910    -0.5620 H     1 <1>   0.1500 
 42 H       -5.3840    -4.3940     1.2830 H     1 <1>   0.1500 
 43 H       -8.8010    -0.1920    -1.8200 H     1 <1>   0.0800 
 44 H       -8.1860     1.4410    -1.8400 H     1 <1>   0.0800 
 45 H       -7.6610    -4.3650     0.3880 H     1 <1>   0.1500 
 46 H       -9.5410     0.1180     0.5390 H     1 <1>   0.0800 
 47 H      -10.2700     1.3170    -0.5020 H     1 <1>   0.0800 
 48 H       -8.9180     1.7570     0.5130 H     1 <1>   0.0800 
@<TRIPOS>BOND
  1   1   2  1   
  2   1   3  1   
  3   2   4  2   
  4   2   5  1   
  5   3   6  1   
  6   3  26  1   
  7   3  27  1   
  8   4   7  1   
  9   5   8  1   
 10   5   9  1   
 11   6  10  2   
 12   6  11  am  
 13   7   8  2   
 14   8  12  1   
 15   9  28  1   
 16   9  29  1   
 17   9  30  1   
 18  11  13  1   
 19  11  31  1   
 20  12  14  1   
 21  12  15  2   
 22  13  16  1   
 23  13  17  1   
 24  13  32  1   
 25  14  18  ar  
 26  14  19  ar  
 27  15  20  1   
 28  15  33  1   
 29  16  34  1   
 30  16  35  1   
 31  16  36  1   
 32  17  37  1   
 33  17  38  1   
 34  17  39  1   
 35  18  20  1   
 36  18  21  ar  
 37  19  22  ar  
 38  19  40  1   
 39  20  23  1   
 40  21  24  ar  
 41  21  41  1   
 42  22  24  ar  
 43  22  42  1   
 44  23  25  1   
 45  23  43  1   
 46  23  44  1   
 47  24  45  1   
 48  25  46  1   
 49  25  47  1   
 50  25  48  1   
@<TRIPOS>SUBSTRUCTURE
  1 ****   5 GROUP 4 **** **** 0

# MOE 2024.06 (io_trps.svl 2023.06)
