@<TRIPOS>MOLECULE
NONAME
51 53 1 0 0 
SMALL
USER_CHARGES


@<TRIPOS>ATOM
  1 S       -0.1760     0.1240     0.5620 S.o2  1 <1>   1.4470 
  2 O       -0.6250     0.2930     1.9270 O.2   1 <1>  -0.6500 
  3 O       -1.0190     0.6090    -0.5100 O.2   1 <1>  -0.6500 
  4 N        0.0440    -1.5360     0.2970 N.am  1 <1>  -0.8490 
  5 C        1.4810     0.8510     0.4020 C.ar  1 <1>  -0.0090 
  6 C        0.3720    -1.8430    -1.1010 C.3   1 <1>   0.1960 
  7 C       -1.1100    -2.3160     0.7490 C.3   1 <1>   0.1960 
  8 C        2.6340     0.0830     0.5150 C.ar  1 <1>  -0.1500 
  9 C        1.6350     2.2120     0.1730 C.ar  1 <1>  -0.1500 
 10 C        0.7530    -3.3200    -1.2370 C.3   1 <1>  -0.1600 
 11 C       -0.7990    -3.8150     0.6690 C.3   1 <1>  -0.1600 
 12 C        3.9030     0.6250     0.3640 C.ar  1 <1>   0.1170 
 13 C        2.8890     2.7880     0.0530 C.ar  1 <1>  -0.1500 
 14 C       -0.3770    -4.2320    -0.7450 C.3   1 <1>  -0.1600 
 15 N        5.0620    -0.1650     0.4260 N.am  1 <1>  -0.5470 
 16 C        4.0300     2.0000     0.1500 C.ar  1 <1>   0.0820 
 17 C        5.2890    -1.4720     0.0700 C.2   1 <1>   0.5440 
 18 O        5.2950     2.5050     0.0460 O.3   1 <1>  -0.3630 
 19 O        4.3770    -2.1690    -0.3310 O.2   1 <1>  -0.5700 
 20 C        6.6410    -1.9860     0.1590 C.ar  1 <1>   0.0860 
 21 C        5.5200     3.8790    -0.1830 C.3   1 <1>   0.0400 
 22 C        6.9870    -3.0810     0.9620 C.ar  1 <1>  -0.1440 
 23 C        7.6570    -1.3650    -0.5700 C.ar  1 <1>  -0.1500 
 24 C        8.3010    -3.5180     1.0210 C.ar  1 <1>  -0.1500 
 25 C        5.9300    -3.8090     1.7830 C.3   1 <1>  -0.0970 
 26 C        8.9660    -1.8030    -0.5070 C.ar  1 <1>  -0.1500 
 27 C        9.2890    -2.8830     0.2920 C.ar  1 <1>  -0.1500 
 28 H        1.2040    -1.2420    -1.4270 H     1 <1>   0.0800 
 29 H       -0.4720    -1.6210    -1.7340 H     1 <1>   0.0800 
 30 H       -1.9700    -2.0790     0.1440 H     1 <1>   0.0800 
 31 H       -1.3400    -2.0680     1.7730 H     1 <1>   0.0800 
 32 H        2.5410    -0.9680     0.7240 H     1 <1>   0.1500 
 33 H        0.7570     2.8310     0.0890 H     1 <1>   0.1500 
 34 H        1.6480    -3.4980    -0.6650 H     1 <1>   0.0800 
 35 H        0.9750    -3.5370    -2.2660 H     1 <1>   0.0800 
 36 H       -1.6660    -4.3760     0.9690 H     1 <1>   0.0800 
 37 H       -0.0070    -4.0370     1.3630 H     1 <1>   0.0800 
 38 H        2.9490     3.8460    -0.1160 H     1 <1>   0.1500 
 39 H       -0.0490    -5.2570    -0.7450 H     1 <1>   0.0800 
 40 H       -1.2190    -4.1470    -1.4100 H     1 <1>   0.0800 
 41 H        5.9020     0.3870     0.6060 H     1 <1>   0.3700 
 42 H        6.5820     4.0410    -0.2320 H     1 <1>   0.0800 
 43 H        5.1030     4.4430     0.6330 H     1 <1>   0.0800 
 44 H        5.0650     4.1570    -1.1180 H     1 <1>   0.0800 
 45 H        7.4110    -0.5290    -1.2020 H     1 <1>   0.1500 
 46 H        8.5650    -4.3600     1.6360 H     1 <1>   0.1500 
 47 H        5.3800    -3.1090     2.3880 H     1 <1>   0.0800 
 48 H        6.3760    -4.5390     2.4340 H     1 <1>   0.0800 
 49 H        5.2410    -4.3120     1.1280 H     1 <1>   0.0800 
 50 H        9.7320    -1.3080    -1.0790 H     1 <1>   0.1500 
 51 H       10.3070    -3.2300     0.3450 H     1 <1>   0.1500 
@<TRIPOS>BOND
  1   1   2  2   
  2   1   3  2   
  3   1   4  am  
  4   1   5  1   
  5   4   6  1   
  6   4   7  1   
  7   5   8  ar  
  8   5   9  ar  
  9   6  10  1   
 10   6  28  1   
 11   6  29  1   
 12   7  11  1   
 13   7  30  1   
 14   7  31  1   
 15   8  12  ar  
 16   8  32  1   
 17   9  13  ar  
 18   9  33  1   
 19  10  14  1   
 20  10  34  1   
 21  10  35  1   
 22  11  14  1   
 23  11  36  1   
 24  11  37  1   
 25  12  15  1   
 26  12  16  ar  
 27  13  16  ar  
 28  13  38  1   
 29  14  39  1   
 30  14  40  1   
 31  15  17  am  
 32  15  41  1   
 33  16  18  1   
 34  17  19  2   
 35  17  20  1   
 36  18  21  1   
 37  20  22  ar  
 38  20  23  ar  
 39  21  42  1   
 40  21  43  1   
 41  21  44  1   
 42  22  24  ar  
 43  22  25  1   
 44  23  26  ar  
 45  23  45  1   
 46  24  27  ar  
 47  24  46  1   
 48  25  47  1   
 49  25  48  1   
 50  25  49  1   
 51  26  27  ar  
 52  26  50  1   
 53  27  51  1   
@<TRIPOS>SUBSTRUCTURE
  1 ****   8 GROUP 4 **** **** 0

# MOE 2024.06 (io_trps.svl 2023.06)
