@<TRIPOS>MOLECULE
NONAME
46 49 1 0 0 
SMALL
USER_CHARGES


@<TRIPOS>ATOM
  1 S        0.0160    -0.2240    -0.6870 S.3   1 <1>  -0.0800 
  2 C        1.4170     0.7960    -0.3580 C.ar  1 <1>   0.2970 
  3 C       -1.1030     1.0700    -0.2460 C.2   1 <1>  -0.1400 
  4 N        2.6600     0.3840    -0.4880 N.ar  1 <1>  -0.5670 
  5 C        1.0130     2.0430     0.0440 C.ar  1 <1>   0.0000 
  6 C       -0.4200     2.1740     0.1120 C.2   1 <1>  -0.1500 
  7 C       -2.5810     0.7320    -0.3320 C.3   1 <1>   0.0200 
  8 C        3.5320     1.3230    -0.1760 C.ar  1 <1>   0.4700 
  9 C        2.0440     2.9420     0.3180 C.ar  1 <1>   0.4100 
 10 C       -3.4680     1.9120     0.0730 C.3   1 <1>  -0.2400 
 11 N        3.3100     2.5700     0.2200 N.ar  1 <1>  -0.6200 
 12 N        1.7900     4.2460     0.6800 N.pl3 1 <1>  -0.8380 
 13 C        2.7170     4.9710     1.6100 C.3   1 <1>   0.2090 
 14 C        1.1110     5.1570    -0.2960 C.3   1 <1>   0.2090 
 15 C        3.7180     5.8740     0.8600 C.3   1 <1>   0.2090 
 16 C        2.1100     6.0590    -1.0510 C.3   1 <1>   0.2090 
 17 N        3.0570     6.7700    -0.1400 N.pl3 1 <1>  -0.8380 
 18 C        2.7730     8.0860     0.2230 C.ar  1 <1>   0.1000 
 19 C        3.5020     9.1480    -0.3150 C.ar  1 <1>  -0.1430 
 20 C        1.7540     8.3630     1.1290 C.ar  1 <1>  -0.1500 
 21 C        3.2040    10.4490     0.0550 C.ar  1 <1>  -0.1500 
 22 C        4.6250     8.8840    -1.3080 C.3   1 <1>  -0.0970 
 23 C        1.4610     9.6630     1.4950 C.ar  1 <1>  -0.1500 
 24 C        2.1870    10.7100     0.9570 C.ar  1 <1>  -0.1500 
 25 H       -0.8520     3.1030     0.4390 H     1 <1>   0.1500 
 26 H       -2.7860    -0.1060     0.3120 H     1 <1>   0.0800 
 27 H       -2.8150     0.4400    -1.3410 H     1 <1>   0.0800 
 28 H        4.5690     1.0400    -0.2540 H     1 <1>   0.1500 
 29 H       -3.2610     2.2030     1.0870 H     1 <1>   0.0800 
 30 H       -4.5050     1.6350     0.0000 H     1 <1>   0.0800 
 31 H       -3.2910     2.7520    -0.5760 H     1 <1>   0.0800 
 32 H        3.2620     4.2610     2.2060 H     1 <1>   0.0800 
 33 H        2.1360     5.5740     2.2820 H     1 <1>   0.0800 
 34 H        0.4080     5.7760     0.2310 H     1 <1>   0.0800 
 35 H        0.5620     4.5780    -1.0170 H     1 <1>   0.0800 
 36 H        4.4270     5.2490     0.3470 H     1 <1>   0.0800 
 37 H        4.2600     6.4720     1.5710 H     1 <1>   0.0800 
 38 H        1.5670     6.7830    -1.6330 H     1 <1>   0.0800 
 39 H        2.6800     5.4510    -1.7310 H     1 <1>   0.0800 
 40 H        1.1900     7.5540     1.5470 H     1 <1>   0.1500 
 41 H        3.7630    11.2700    -0.3580 H     1 <1>   0.1500 
 42 H        4.2320     8.3790    -2.1720 H     1 <1>   0.0800 
 43 H        5.3680     8.2550    -0.8530 H     1 <1>   0.0800 
 44 H        5.0920     9.7990    -1.6230 H     1 <1>   0.0800 
 45 H        0.6710     9.8620     2.1970 H     1 <1>   0.1500 
 46 H        1.9640    11.7240     1.2380 H     1 <1>   0.1500 
@<TRIPOS>BOND
  1   1   2  1   
  2   1   3  1   
  3   2   4  ar  
  4   2   5  ar  
  5   3   6  2   
  6   3   7  1   
  7   4   8  ar  
  8   5   6  1   
  9   5   9  ar  
 10   6  25  1   
 11   7  10  1   
 12   7  26  1   
 13   7  27  1   
 14   8  11  ar  
 15   8  28  1   
 16   9  11  ar  
 17   9  12  1   
 18  10  29  1   
 19  10  30  1   
 20  10  31  1   
 21  12  13  1   
 22  12  14  1   
 23  13  15  1   
 24  13  32  1   
 25  13  33  1   
 26  14  16  1   
 27  14  34  1   
 28  14  35  1   
 29  15  17  1   
 30  15  36  1   
 31  15  37  1   
 32  16  17  1   
 33  16  38  1   
 34  16  39  1   
 35  17  18  1   
 36  18  19  ar  
 37  18  20  ar  
 38  19  21  ar  
 39  19  22  1   
 40  20  23  ar  
 41  20  40  1   
 42  21  24  ar  
 43  21  41  1   
 44  22  42  1   
 45  22  43  1   
 46  22  44  1   
 47  23  24  ar  
 48  23  45  1   
 49  24  46  1   
@<TRIPOS>SUBSTRUCTURE
  1 ****  12 GROUP 4 **** **** 0

# MOE 2024.06 (io_trps.svl 2023.06)
