@<TRIPOS>MOLECULE
NONAME
40 41 1 0 0 
SMALL
USER_CHARGES


@<TRIPOS>ATOM
  1 O       -0.1480    -0.2270    -1.0230 O.2   1 <1>  -0.5700 
  2 C       -0.0790    -0.9300    -0.0350 C.2   1 <1>   0.6900 
  3 N       -1.1880    -1.4040     0.6020 N.am  1 <1>  -0.5470 
  4 N        1.1250    -1.2860     0.4750 N.am  1 <1>  -0.7300 
  5 C       -2.5510    -1.1400     0.4070 C.ar  1 <1>   0.1170 
  6 C        2.4310    -0.8880    -0.0780 C.3   1 <1>   0.2200 
  7 C       -3.0200     0.0280    -0.1880 C.ar  1 <1>  -0.1500 
  8 C       -3.4820    -2.0740     0.8470 C.ar  1 <1>  -0.1500 
  9 C        3.2130    -2.1710    -0.3850 C.3   1 <1>  -0.1600 
 10 C        3.1040     0.0540     0.9290 C.3   1 <1>  -0.1600 
 11 C       -4.3760     0.2580    -0.3490 C.ar  1 <1>  -0.1430 
 12 C       -4.8390    -1.8520     0.6930 C.ar  1 <1>  -0.1500 
 13 C        4.6470    -1.9540    -0.8950 C.3   1 <1>  -0.1600 
 14 C        4.3140     0.7860     0.3290 C.3   1 <1>  -0.1600 
 15 C       -5.2860    -0.6870     0.0960 C.ar  1 <1>  -0.1500 
 16 C       -4.8640     1.5370    -1.0050 C.3   1 <1>  -0.0970 
 17 C        5.6010    -1.4900     0.2140 C.3   1 <1>  -0.1600 
 18 C        5.6480     0.0300     0.4340 C.3   1 <1>  -0.1600 
 19 H       -0.9890    -2.1430     1.2650 H     1 <1>   0.3700 
 20 H        1.1690    -1.7500     1.3770 H     1 <1>   0.3700 
 21 H        2.2750    -0.3530    -1.0010 H     1 <1>   0.0800 
 22 H       -2.3170     0.7660    -0.5270 H     1 <1>   0.1500 
 23 H       -3.1470    -2.9830     1.3090 H     1 <1>   0.1500 
 24 H        2.6700    -2.7050    -1.1450 H     1 <1>   0.0800 
 25 H        3.2430    -2.7940     0.4910 H     1 <1>   0.0800 
 26 H        3.3880    -0.4750     1.8220 H     1 <1>   0.0800 
 27 H        2.3820     0.8040     1.2020 H     1 <1>   0.0800 
 28 H       -5.5480    -2.5840     1.0370 H     1 <1>   0.1500 
 29 H        4.6590    -1.2660    -1.7240 H     1 <1>   0.0800 
 30 H        5.0060    -2.9000    -1.2630 H     1 <1>   0.0800 
 31 H        4.4320     1.7290     0.8350 H     1 <1>   0.0800 
 32 H        4.1140     1.0170    -0.7040 H     1 <1>   0.0800 
 33 H       -6.3420    -0.5180    -0.0210 H     1 <1>   0.1500 
 34 H       -4.0980     1.9540    -1.6340 H     1 <1>   0.0800 
 35 H       -5.1240     2.2570    -0.2510 H     1 <1>   0.0800 
 36 H       -5.7290     1.3390    -1.6120 H     1 <1>   0.0800 
 37 H        6.5980    -1.8140    -0.0320 H     1 <1>   0.0800 
 38 H        5.3410    -1.9770     1.1380 H     1 <1>   0.0800 
 39 H        6.0710     0.2100     1.4080 H     1 <1>   0.0800 
 40 H        6.3270     0.4610    -0.2830 H     1 <1>   0.0800 
@<TRIPOS>BOND
  1   1   2  2   
  2   2   3  am  
  3   2   4  am  
  4   3   5  1   
  5   3  19  1   
  6   4   6  1   
  7   4  20  1   
  8   5   7  ar  
  9   5   8  ar  
 10   6   9  1   
 11   6  10  1   
 12   6  21  1   
 13   7  11  ar  
 14   7  22  1   
 15   8  12  ar  
 16   8  23  1   
 17   9  13  1   
 18   9  24  1   
 19   9  25  1   
 20  10  14  1   
 21  10  26  1   
 22  10  27  1   
 23  11  15  ar  
 24  11  16  1   
 25  12  15  ar  
 26  12  28  1   
 27  13  17  1   
 28  13  29  1   
 29  13  30  1   
 30  14  18  1   
 31  14  31  1   
 32  14  32  1   
 33  15  33  1   
 34  16  34  1   
 35  16  35  1   
 36  16  36  1   
 37  17  18  1   
 38  17  37  1   
 39  17  38  1   
 40  18  39  1   
 41  18  40  1   
@<TRIPOS>SUBSTRUCTURE
  1 ****   2 GROUP 4 **** **** 0

# MOE 2024.06 (io_trps.svl 2023.06)
