@<TRIPOS>MOLECULE
NONAME
37 38 1 0 0 
SMALL
USER_CHARGES


@<TRIPOS>ATOM
  1 S        0.0040     0.1680    -0.6170 S.3   1 <1>  -0.3320 
  2 C        1.4670    -0.8300    -0.2840 C.ar  1 <1>   0.1020 
  3 C       -1.4480    -0.8010    -0.0320 C.3   1 <1>   0.0700 
  4 C        1.3920    -2.0800     0.3110 C.ar  1 <1>  -0.1500 
  5 C        2.6880    -0.2920    -0.6500 C.ar  1 <1>  -0.1500 
  6 C       -2.6870     0.0500    -0.3140 C.3   1 <1>  -0.1600 
  7 C        2.5570    -2.7940     0.5380 C.ar  1 <1>  -0.1500 
  8 C        3.8490    -1.0090    -0.4200 C.ar  1 <1>  -0.1500 
  9 C       -3.9580    -0.6640     0.1430 C.3   1 <1>   0.3430 
 10 C        3.7830    -2.2590     0.1730 C.ar  1 <1>  -0.1500 
 11 N       -5.1610     0.1290    -0.2320 N.4   1 <1>  -0.9590 
 12 C       -5.2910     1.3990     0.5740 C.3   1 <1>   0.3430 
 13 C       -6.4110    -0.7010    -0.0970 C.3   1 <1>   0.3430 
 14 C       -6.5730     2.1800     0.2140 C.3   1 <1>   0.1100 
 15 C       -7.6790     0.1060    -0.4530 C.3   1 <1>   0.1100 
 16 N       -7.7690     1.3350     0.3490 N.3   1 <1>  -0.9000 
 17 H       -1.3070    -0.9800     1.0210 H     1 <1>   0.0800 
 18 H       -1.4540    -1.7270    -0.5810 H     1 <1>   0.0800 
 19 H        0.4550    -2.5110     0.6000 H     1 <1>   0.1500 
 20 H        2.7280     0.6790    -1.1100 H     1 <1>   0.1500 
 21 H       -2.7350     0.2380    -1.3720 H     1 <1>   0.0800 
 22 H       -2.5750     0.9840     0.2060 H     1 <1>   0.0800 
 23 H        2.5130    -3.7660     0.9990 H     1 <1>   0.1500 
 24 H        4.8020    -0.5960    -0.7020 H     1 <1>   0.1500 
 25 H       -3.9340    -0.8150     1.2100 H     1 <1>   0.0800 
 26 H       -4.0030    -1.6310    -0.3330 H     1 <1>   0.0800 
 27 H        4.6860    -2.8170     0.3520 H     1 <1>   0.1500 
 28 H       -5.0820     0.4010    -1.2200 H     1 <1>   0.4500 
 29 H       -4.4370     2.0340     0.4070 H     1 <1>   0.0800 
 30 H       -5.3270     1.1590     1.6240 H     1 <1>   0.0800 
 31 H       -6.5090    -1.0470     0.9190 H     1 <1>   0.0800 
 32 H       -6.3520    -1.5640    -0.7390 H     1 <1>   0.0800 
 33 H       -6.5010     2.5560    -0.7930 H     1 <1>   0.0800 
 34 H       -6.6670     3.0260     0.8750 H     1 <1>   0.0800 
 35 H       -8.5480    -0.5010    -0.2590 H     1 <1>   0.0800 
 36 H       -7.6750     0.3510    -1.5010 H     1 <1>   0.0800 
 37 H       -8.6100     1.8710     0.0780 H     1 <1>   0.3600 
@<TRIPOS>BOND
  1   1   2  1   
  2   1   3  1   
  3   2   4  ar  
  4   2   5  ar  
  5   3   6  1   
  6   3  17  1   
  7   3  18  1   
  8   4   7  ar  
  9   4  19  1   
 10   5   8  ar  
 11   5  20  1   
 12   6   9  1   
 13   6  21  1   
 14   6  22  1   
 15   7  10  ar  
 16   7  23  1   
 17   8  10  ar  
 18   8  24  1   
 19   9  11  1   
 20   9  25  1   
 21   9  26  1   
 22  10  27  1   
 23  11  12  1   
 24  11  13  1   
 25  11  28  1   
 26  12  14  1   
 27  12  29  1   
 28  12  30  1   
 29  13  15  1   
 30  13  31  1   
 31  13  32  1   
 32  14  16  1   
 33  14  33  1   
 34  14  34  1   
 35  15  16  1   
 36  15  35  1   
 37  15  36  1   
 38  16  37  1   
@<TRIPOS>SUBSTRUCTURE
  1 ****   3 GROUP 4 **** **** 0

# MOE 2024.06 (io_trps.svl 2023.06)
