@<TRIPOS>MOLECULE
NONAME
29 29 1 0 0 
SMALL
USER_CHARGES


@<TRIPOS>ATOM
  1 O        0.5310     2.7790     0.0700 O.2   1 <1>  -0.5700 
  2 C       -0.5590     3.2650     0.0930 C.2   1 <1>   0.4480 
  3 C       -1.7360     2.5640    -0.5420 C.3   1 <1>  -0.0380 
  4 C       -0.8070     4.6030     0.7540 C.3   1 <1>  -0.1790 
  5 C       -2.0870     3.2510    -1.8530 C.2   1 <1>   0.4390 
  6 N       -3.1650     3.8570    -2.1340 N.2   1 <1>  -0.6290 
  7 N       -1.1340     3.1900    -2.8030 N.pl3 1 <1>  -0.8500 
  8 C       -4.1460     3.9550    -1.1970 C.ar  1 <1>   0.7990 
  9 N       -3.9790     4.8720    -0.2490 N.ar  1 <1>  -0.6200 
 10 N       -5.1600     3.1080    -1.3180 N.ar  1 <1>  -0.6200 
 11 C       -4.9380     4.9600     0.6380 C.ar  1 <1>   0.1670 
 12 C       -6.1060     3.2130    -0.4190 C.ar  1 <1>   0.1670 
 13 C       -6.0400     4.1390     0.5940 C.ar  1 <1>  -0.1500 
 14 C       -4.7810     6.0110     1.7170 C.3   1 <1>  -0.0970 
 15 C       -7.2800     2.2660    -0.5470 C.3   1 <1>  -0.0970 
 16 H       -2.5520     2.5370     0.1530 H     1 <1>   0.0800 
 17 H       -1.4650     1.5470    -0.7540 H     1 <1>   0.0800 
 18 H       -1.5540     4.5030     1.5180 H     1 <1>   0.0800 
 19 H        0.1030     4.9640     1.1980 H     1 <1>   0.0800 
 20 H       -1.1430     5.3150     0.0230 H     1 <1>   0.0800 
 21 H       -1.3020     3.6330    -3.7080 H     1 <1>   0.4000 
 22 H       -0.2040     2.7920    -2.6490 H     1 <1>   0.4000 
 23 H       -6.8220     4.2200     1.3240 H     1 <1>   0.1500 
 24 H       -3.8910     5.8140     2.2860 H     1 <1>   0.0800 
 25 H       -5.6260     6.0150     2.3800 H     1 <1>   0.0800 
 26 H       -4.6920     6.9810     1.2620 H     1 <1>   0.0800 
 27 H       -7.7570     2.4140    -1.4990 H     1 <1>   0.0800 
 28 H       -8.0000     2.4310     0.2330 H     1 <1>   0.0800 
 29 H       -6.9310     1.2510    -0.4910 H     1 <1>   0.0800 
@<TRIPOS>BOND
  1   1   2  2   
  2   2   3  1   
  3   2   4  1   
  4   3   5  1   
  5   3  16  1   
  6   3  17  1   
  7   4  18  1   
  8   4  19  1   
  9   4  20  1   
 10   5   6  2   
 11   5   7  1   
 12   6   8  1   
 13   7  21  1   
 14   7  22  1   
 15   8   9  ar  
 16   8  10  ar  
 17   9  11  ar  
 18  10  12  ar  
 19  11  13  ar  
 20  11  14  1   
 21  12  13  ar  
 22  12  15  1   
 23  13  23  1   
 24  14  24  1   
 25  14  25  1   
 26  14  26  1   
 27  15  27  1   
 28  15  28  1   
 29  15  29  1   
@<TRIPOS>SUBSTRUCTURE
  1 ****   8 GROUP 4 **** **** 0

# MOE 2024.06 (io_trps.svl 2023.06)
