@<TRIPOS>MOLECULE
NONAME
47 48 1 0 0 
SMALL
USER_CHARGES


@<TRIPOS>ATOM
  1 O       -0.0880     0.2580     0.0420 O.3   1 <1>  -0.3630 
  2 C       -1.3120    -0.3230     0.1390 C.ar  1 <1>   0.0830 
  3 C        0.0890     1.4620    -0.6650 C.3   1 <1>   0.1200 
  4 C       -1.4200    -1.4080     0.9940 C.ar  1 <1>  -0.1500 
  5 C       -2.4350     0.1110    -0.5620 C.ar  1 <1>  -0.1500 
  6 C        1.5520     1.8830    -0.5180 C.3   1 <1>  -0.1600 
  7 C       -2.6330    -2.0530     1.1560 C.ar  1 <1>  -0.1500 
  8 C       -3.6490    -0.5360    -0.4000 C.ar  1 <1>  -0.1500 
  9 C        1.8360     3.2420    -1.1690 C.3   1 <1>   0.1100 
 10 C       -3.7530    -1.6240     0.4640 C.ar  1 <1>   0.0830 
 11 N        0.9580     4.3040    -0.6410 N.3   1 <1>  -0.8100 
 12 O       -4.9040    -2.3130     0.6800 O.3   1 <1>  -0.3630 
 13 C        1.2650     4.6410     0.7760 C.3   1 <1>   0.1100 
 14 C        1.0400     5.5200    -1.4860 C.3   1 <1>   0.1100 
 15 C       -6.0930    -1.9750     0.0070 C.3   1 <1>   0.1200 
 16 C        0.4450     5.8450     1.3030 C.3   1 <1>   0.3430 
 17 C        0.0950     6.6470    -0.9990 C.3   1 <1>   0.3430 
 18 C       -7.1840    -2.9400     0.4630 C.3   1 <1>  -0.2400 
 19 N       -0.5740     6.2830     0.2950 N.4   1 <1>  -0.9590 
 20 C       -1.4990     7.3360     0.8020 C.3   1 <1>   0.2630 
 21 H       -0.5700     2.1980    -0.2410 H     1 <1>   0.0800 
 22 H       -0.1550     1.2930    -1.6990 H     1 <1>   0.0800 
 23 H       -0.5510    -1.7420     1.5310 H     1 <1>   0.1500 
 24 H       -2.3830     0.9420    -1.2370 H     1 <1>   0.1500 
 25 H        2.1690     1.1430    -0.9950 H     1 <1>   0.0800 
 26 H        1.8220     1.9070     0.5220 H     1 <1>   0.0800 
 27 H       -2.7170    -2.8950     1.8190 H     1 <1>   0.1500 
 28 H       -4.4980    -0.1820    -0.9520 H     1 <1>   0.1500 
 29 H        1.6710     3.1420    -2.2300 H     1 <1>   0.0800 
 30 H        2.8700     3.5070    -1.0220 H     1 <1>   0.0800 
 31 H        2.3150     4.8580     0.8840 H     1 <1>   0.0800 
 32 H        1.0480     3.7920     1.4000 H     1 <1>   0.0800 
 33 H        0.7820     5.2710    -2.5010 H     1 <1>   0.0800 
 34 H        2.0520     5.8890    -1.4940 H     1 <1>   0.0800 
 35 H       -5.9230    -2.0670    -1.0520 H     1 <1>   0.0800 
 36 H       -6.3520    -0.9620     0.2590 H     1 <1>   0.0800 
 37 H        1.1150     6.6590     1.5250 H     1 <1>   0.0800 
 38 H       -0.0400     5.5600     2.2220 H     1 <1>   0.0800 
 39 H       -0.6510     6.8240    -1.7550 H     1 <1>   0.0800 
 40 H        0.6620     7.5550    -0.8800 H     1 <1>   0.0800 
 41 H       -6.9070    -3.9500     0.2210 H     1 <1>   0.0800 
 42 H       -8.1070    -2.7070    -0.0350 H     1 <1>   0.0800 
 43 H       -7.3330    -2.8520     1.5240 H     1 <1>   0.0800 
 44 H       -1.0880     5.4150     0.0720 H     1 <1>   0.4500 
 45 H       -0.9530     8.2360     1.0330 H     1 <1>   0.0800 
 46 H       -1.9980     6.9960     1.6960 H     1 <1>   0.0800 
 47 H       -2.2460     7.5650     0.0600 H     1 <1>   0.0800 
@<TRIPOS>BOND
  1   1   2  1   
  2   1   3  1   
  3   2   4  ar  
  4   2   5  ar  
  5   3   6  1   
  6   3  21  1   
  7   3  22  1   
  8   4   7  ar  
  9   4  23  1   
 10   5   8  ar  
 11   5  24  1   
 12   6   9  1   
 13   6  25  1   
 14   6  26  1   
 15   7  10  ar  
 16   7  27  1   
 17   8  10  ar  
 18   8  28  1   
 19   9  11  1   
 20   9  29  1   
 21   9  30  1   
 22  10  12  1   
 23  11  13  1   
 24  11  14  1   
 25  12  15  1   
 26  13  16  1   
 27  13  31  1   
 28  13  32  1   
 29  14  17  1   
 30  14  33  1   
 31  14  34  1   
 32  15  18  1   
 33  15  35  1   
 34  15  36  1   
 35  16  19  1   
 36  16  37  1   
 37  16  38  1   
 38  17  19  1   
 39  17  39  1   
 40  17  40  1   
 41  18  41  1   
 42  18  42  1   
 43  18  43  1   
 44  19  20  1   
 45  19  44  1   
 46  20  45  1   
 47  20  46  1   
 48  20  47  1   
@<TRIPOS>SUBSTRUCTURE
  1 ****   3 GROUP 4 **** **** 0

# MOE 2024.06 (io_trps.svl 2023.06)
