@<TRIPOS>MOLECULE
NONAME
35 36 1 0 0 
SMALL
USER_CHARGES


@<TRIPOS>ATOM
  1 O       -0.3320     0.1200    -1.1100 O.2   1 <1>  -0.5700 
  2 C       -0.4460    -0.9870    -0.6430 C.2   1 <1>   0.6590 
  3 O       -1.3810    -1.2760     0.2560 O.3   1 <1>  -0.4300 
  4 C        0.4650    -2.1420    -1.0750 C.3   1 <1>   0.1710 
  5 C       -2.2650    -0.2920     0.7390 C.3   1 <1>   0.1200 
  6 N        1.6100    -2.4370    -0.1670 N.3   1 <1>  -0.8100 
  7 C       -3.2120    -0.9530     1.7350 C.3   1 <1>  -0.2400 
  8 C        2.5400    -1.2950    -0.1030 C.3   1 <1>   0.1100 
  9 C        2.3000    -3.6630    -0.5980 C.3   1 <1>   0.1100 
 10 C        3.6370    -1.5750     0.9240 C.3   1 <1>  -0.1600 
 11 C        3.3850    -4.0320     0.4130 C.3   1 <1>  -0.1600 
 12 C        4.3620    -2.8780     0.5860 C.3   1 <1>   0.5600 
 13 O        5.1100    -2.7310    -0.5790 O.3   1 <1>  -0.5600 
 14 O        5.2840    -3.1990     1.5710 O.3   1 <1>  -0.5600 
 15 C        6.3990    -2.3620    -0.2460 C.3   1 <1>   0.1200 
 16 C        6.5050    -2.6450     1.2410 C.3   1 <1>   0.1200 
 17 H        0.8410    -1.9180    -2.0580 H     1 <1>   0.0800 
 18 H       -0.1520    -3.0180    -1.1520 H     1 <1>   0.0800 
 19 H       -2.8050     0.1220    -0.0960 H     1 <1>   0.0800 
 20 H       -1.6840     0.4820     1.2120 H     1 <1>   0.0800 
 21 H       -3.7780    -1.7280     1.2490 H     1 <1>   0.0800 
 22 H       -3.8960    -0.2220     2.1260 H     1 <1>   0.0800 
 23 H       -2.6530    -1.3730     2.5520 H     1 <1>   0.0800 
 24 H        2.0120    -0.4040     0.1910 H     1 <1>   0.0800 
 25 H        2.9810    -1.1250    -1.0720 H     1 <1>   0.0800 
 26 H        2.7420    -3.5160    -1.5700 H     1 <1>   0.0800 
 27 H        1.5930    -4.4740    -0.6620 H     1 <1>   0.0800 
 28 H        3.1800    -1.6690     1.8920 H     1 <1>   0.0800 
 29 H        4.3280    -0.7550     0.9510 H     1 <1>   0.0800 
 30 H        3.9160    -4.9050     0.0850 H     1 <1>   0.0800 
 31 H        2.9190    -4.2460     1.3570 H     1 <1>   0.0800 
 32 H        6.5340    -1.3170    -0.4630 H     1 <1>   0.0800 
 33 H        7.0900    -2.9550    -0.8180 H     1 <1>   0.0800 
 34 H        7.2840    -3.3500     1.4660 H     1 <1>   0.0800 
 35 H        6.6430    -1.7400     1.8060 H     1 <1>   0.0800 
@<TRIPOS>BOND
  1   1   2  2   
  2   2   3  1   
  3   2   4  1   
  4   3   5  1   
  5   4   6  1   
  6   4  17  1   
  7   4  18  1   
  8   5   7  1   
  9   5  19  1   
 10   5  20  1   
 11   6   8  1   
 12   6   9  1   
 13   7  21  1   
 14   7  22  1   
 15   7  23  1   
 16   8  10  1   
 17   8  24  1   
 18   8  25  1   
 19   9  11  1   
 20   9  26  1   
 21   9  27  1   
 22  10  12  1   
 23  10  28  1   
 24  10  29  1   
 25  11  12  1   
 26  11  30  1   
 27  11  31  1   
 28  12  13  1   
 29  12  14  1   
 30  13  15  1   
 31  14  16  1   
 32  15  16  1   
 33  15  32  1   
 34  15  33  1   
 35  16  34  1   
 36  16  35  1   
@<TRIPOS>SUBSTRUCTURE
  1 ****   6 GROUP 4 **** **** 0

# MOE 2024.06 (io_trps.svl 2023.06)
