@<TRIPOS>MOLECULE
NONAME
40 41 1 0 0 
SMALL
USER_CHARGES


@<TRIPOS>ATOM
  1 CL       0.1040     0.8110    -1.4630 Cl    1 <1>  -0.1770 
  2 C        1.6970     1.2640    -0.9090 C.ar  1 <1>   0.1770 
  3 C        2.8050     0.6300    -1.4420 C.ar  1 <1>  -0.1500 
  4 C        1.8250     2.2480     0.0530 C.ar  1 <1>  -0.1500 
  5 C        4.0700     0.9880    -1.0040 C.ar  1 <1>  -0.1500 
  6 C        3.0910     2.6030     0.4880 C.ar  1 <1>  -0.1500 
  7 C        4.2150     1.9790    -0.0340 C.ar  1 <1>   0.0830 
  8 O        5.4140     2.3890     0.4510 O.3   1 <1>  -0.3630 
  9 C        6.6210     1.8150     0.0070 C.3   1 <1>   0.1200 
 10 C        7.7720     2.4950     0.7480 C.3   1 <1>  -0.1600 
 11 C        9.1310     1.9280     0.3020 C.3   1 <1>  -0.1600 
 12 C       10.3180     2.5380     1.0610 C.3   1 <1>   0.1400 
 13 N       10.3860     4.0010     0.8600 N.am  1 <1>  -0.4200 
 14 C       10.0630     4.9370     1.8010 C.2   1 <1>   0.6900 
 15 C       10.7870     4.6280    -0.2830 C.2   1 <1>   0.5690 
 16 O        9.7400     4.6970     2.9430 O.2   1 <1>  -0.5700 
 17 N       10.1810     6.1860     1.3110 N.am  1 <1>  -0.7300 
 18 O       11.1600     4.0850    -1.2970 O.2   1 <1>  -0.5700 
 19 C       10.6890     6.1510    -0.0650 C.3   1 <1>   0.3610 
 20 C       12.0470     6.8550    -0.1070 C.3   1 <1>  -0.2400 
 21 C        9.6680     6.8270    -0.9820 C.3   1 <1>  -0.2400 
 22 H        2.6740    -0.1320    -2.1890 H     1 <1>   0.1500 
 23 H        0.9490     2.7260     0.4520 H     1 <1>   0.1500 
 24 H        4.9210     0.4880    -1.4260 H     1 <1>   0.1500 
 25 H        3.2170     3.3660     1.2360 H     1 <1>   0.1500 
 26 H        6.7040     1.9770    -1.0530 H     1 <1>   0.0800 
 27 H        6.5970     0.7610     0.2260 H     1 <1>   0.0800 
 28 H        7.6490     2.3460     1.8070 H     1 <1>   0.0800 
 29 H        7.7320     3.5510     0.5450 H     1 <1>   0.0800 
 30 H        9.2690     2.0880    -0.7540 H     1 <1>   0.0800 
 31 H        9.1400     0.8650     0.4700 H     1 <1>   0.0800 
 32 H       11.2360     2.0990     0.7080 H     1 <1>   0.0800 
 33 H       10.2280     2.3260     2.1130 H     1 <1>   0.0800 
 34 H       10.1590     7.0180     1.8970 H     1 <1>   0.3700 
 35 H       12.7320     6.3890     0.5780 H     1 <1>   0.0800 
 36 H       11.9440     7.8950     0.1440 H     1 <1>   0.0800 
 37 H       12.4610     6.7810    -1.0970 H     1 <1>   0.0800 
 38 H        8.7130     6.3390    -0.8990 H     1 <1>   0.0800 
 39 H        9.9950     6.7540    -2.0040 H     1 <1>   0.0800 
 40 H        9.5590     7.8660    -0.7300 H     1 <1>   0.0800 
@<TRIPOS>BOND
  1   1   2  1   
  2   2   3  ar  
  3   2   4  ar  
  4   3   5  ar  
  5   3  22  1   
  6   4   6  ar  
  7   4  23  1   
  8   5   7  ar  
  9   5  24  1   
 10   6   7  ar  
 11   6  25  1   
 12   7   8  1   
 13   8   9  1   
 14   9  10  1   
 15   9  26  1   
 16   9  27  1   
 17  10  11  1   
 18  10  28  1   
 19  10  29  1   
 20  11  12  1   
 21  11  30  1   
 22  11  31  1   
 23  12  13  1   
 24  12  32  1   
 25  12  33  1   
 26  13  14  am  
 27  13  15  am  
 28  14  16  2   
 29  14  17  am  
 30  15  18  2   
 31  15  19  1   
 32  17  19  1   
 33  17  34  1   
 34  19  20  1   
 35  19  21  1   
 36  20  35  1   
 37  20  36  1   
 38  20  37  1   
 39  21  38  1   
 40  21  39  1   
 41  21  40  1   
@<TRIPOS>SUBSTRUCTURE
  1 ****  10 GROUP 4 **** **** 0

# MOE 2024.06 (io_trps.svl 2023.06)
