@<TRIPOS>MOLECULE
NONAME
35 36 1 0 0 
SMALL
USER_CHARGES


@<TRIPOS>ATOM
  1 O       -8.2780     0.1510    -0.1340 O.3   1 <1>  -0.3630 
  2 C       -9.5170    -0.3960    -0.0530 C.ar  1 <1>   0.0830 
  3 C       -7.1390    -0.5540     0.2910 C.3   1 <1>   0.1200 
  4 C       -9.7770    -1.6570     0.4790 C.ar  1 <1>  -0.1500 
  5 C      -10.5680     0.3660    -0.5360 C.ar  1 <1>  -0.1500 
  6 C       -5.9290     0.3490     0.0380 C.3   1 <1>   0.3430 
  7 C      -11.0750    -2.1370     0.5180 C.ar  1 <1>  -0.1500 
  8 C      -11.8630    -0.1170    -0.4940 C.ar  1 <1>  -0.1500 
  9 N       -4.6340    -0.2920     0.4420 N.4   1 <1>  -0.9590 
 10 C      -12.1230    -1.3720     0.0320 C.ar  1 <1>  -0.1430 
 11 C       -3.4890     0.6450     0.3320 C.3   1 <1>   0.3430 
 12 C       -4.2610    -1.4770    -0.3720 C.3   1 <1>   0.3430 
 13 C      -13.5450    -1.9020     0.0790 C.3   1 <1>  -0.0970 
 14 C       -2.2630    -0.2580     0.3100 C.3   1 <1>  -0.1600 
 15 C       -2.7610    -1.6290    -0.1550 C.3   1 <1>  -0.1600 
 16 H       -7.0790    -1.4600    -0.2840 H     1 <1>   0.0800 
 17 H       -7.2500    -0.7660     1.3400 H     1 <1>   0.0800 
 18 H       -8.9960    -2.2800     0.8670 H     1 <1>   0.1500 
 19 H      -10.3700     1.3400    -0.9450 H     1 <1>   0.1500 
 20 H       -6.0660     1.2600     0.5980 H     1 <1>   0.0800 
 21 H       -5.8960     0.5970    -1.0100 H     1 <1>   0.0800 
 22 H      -11.2700    -3.1110     0.9320 H     1 <1>   0.1500 
 23 H      -12.6680     0.4880    -0.8730 H     1 <1>   0.1500 
 24 H       -4.6870    -0.5880     1.4270 H     1 <1>   0.4500 
 25 H       -3.4580     1.3420     1.1560 H     1 <1>   0.0800 
 26 H       -3.5490     1.1900    -0.5970 H     1 <1>   0.0800 
 27 H       -4.4530    -1.2790    -1.4150 H     1 <1>   0.0800 
 28 H       -4.7990    -2.3610    -0.0690 H     1 <1>   0.0800 
 29 H      -13.5500    -2.9750     0.0030 H     1 <1>   0.0800 
 30 H      -14.1220    -1.5030    -0.7360 H     1 <1>   0.0800 
 31 H      -14.0090    -1.6170     1.0050 H     1 <1>   0.0800 
 32 H       -1.8420    -0.3260     1.2990 H     1 <1>   0.0800 
 33 H       -1.5140     0.1420    -0.3520 H     1 <1>   0.0800 
 34 H       -2.2800    -1.9410    -1.0660 H     1 <1>   0.0800 
 35 H       -2.5740    -2.3730     0.6000 H     1 <1>   0.0800 
@<TRIPOS>BOND
  1   1   2  1   
  2   1   3  1   
  3   2   4  ar  
  4   2   5  ar  
  5   3   6  1   
  6   3  16  1   
  7   3  17  1   
  8   4   7  ar  
  9   4  18  1   
 10   5   8  ar  
 11   5  19  1   
 12   6   9  1   
 13   6  20  1   
 14   6  21  1   
 15   7  10  ar  
 16   7  22  1   
 17   8  10  ar  
 18   8  23  1   
 19   9  11  1   
 20   9  12  1   
 21   9  24  1   
 22  10  13  1   
 23  11  14  1   
 24  11  25  1   
 25  11  26  1   
 26  12  15  1   
 27  12  27  1   
 28  12  28  1   
 29  13  29  1   
 30  13  30  1   
 31  13  31  1   
 32  14  15  1   
 33  14  32  1   
 34  14  33  1   
 35  15  34  1   
 36  15  35  1   
@<TRIPOS>SUBSTRUCTURE
  1 ****   3 GROUP 4 **** **** 0

# MOE 2024.06 (io_trps.svl 2023.06)
