@<TRIPOS>MOLECULE
NONAME
41 40 1 0 0 
SMALL
USER_CHARGES


@<TRIPOS>ATOM
  1 O       -0.5440    -0.6980     0.6240 O.2   1 <1>  -0.5700 
  2 C       -1.4200    -0.7270    -0.2270 C.2   1 <1>   0.7060 
  3 O       -1.1870    -1.3990    -1.3660 O.3   1 <1>  -0.4300 
  4 C       -2.6790    -0.1010    -0.0620 C.2   1 <1>   0.0290 
  5 C        0.0560    -2.0270    -1.6070 C.3   1 <1>   0.0400 
  6 C       -3.8570    -0.8390    -0.0330 C.2   1 <1>   0.1000 
  7 C       -2.6250     1.3080     0.0640 C.2   1 <1>   0.4950 
  8 N       -3.8630    -2.1700     0.3090 N.pl3 1 <1>  -0.8380 
  9 C       -5.1070    -0.2410    -0.3780 C.2   1 <1>  -0.1500 
 10 O       -1.8400     2.0030    -0.5430 O.2   1 <1>  -0.5700 
 11 C       -3.5630     2.0470     1.0000 C.3   1 <1>  -0.1790 
 12 C       -4.6340    -3.1850    -0.4650 C.3   1 <1>   0.1290 
 13 C       -3.0570    -2.7290     1.4330 C.3   1 <1>   0.1290 
 14 C       -6.3400    -0.5670     0.0900 C.2   1 <1>  -0.1500 
 15 C       -7.5680     0.0420    -0.2750 C.2   1 <1>  -0.1500 
 16 C       -8.7900    -0.2890     0.2130 C.2   1 <1>  -0.0500 
 17 N       -9.9980     0.2830    -0.1220 N.pl3 1 <1>  -0.8380 
 18 C      -10.1300     1.4230    -1.0690 C.3   1 <1>   0.1290 
 19 C      -11.2730    -0.2420     0.4340 C.3   1 <1>   0.1290 
 20 H        0.0190    -2.4920    -2.5760 H     1 <1>   0.0800 
 21 H        0.2250    -2.7680    -0.8460 H     1 <1>   0.0800 
 22 H        0.8320    -1.2820    -1.5820 H     1 <1>   0.0800 
 23 H       -5.0390     0.5640    -1.0880 H     1 <1>   0.1500 
 24 H       -4.0340     1.3690     1.6880 H     1 <1>   0.0800 
 25 H       -4.3160     2.5580     0.4290 H     1 <1>   0.0800 
 26 H       -3.0040     2.7720     1.5620 H     1 <1>   0.0800 
 27 H       -3.9770    -3.9740    -0.7870 H     1 <1>   0.0800 
 28 H       -5.0780    -2.7350    -1.3370 H     1 <1>   0.0800 
 29 H       -5.4130    -3.6000     0.1490 H     1 <1>   0.0800 
 30 H       -3.6770    -3.3540     2.0530 H     1 <1>   0.0800 
 31 H       -2.6570    -1.9360     2.0410 H     1 <1>   0.0800 
 32 H       -2.2420    -3.3140     1.0430 H     1 <1>   0.0800 
 33 H       -6.4180    -1.3590     0.8150 H     1 <1>   0.1500 
 34 H       -7.4920     0.8260    -1.0040 H     1 <1>   0.1500 
 35 H       -8.8440    -1.0830     0.9400 H     1 <1>   0.1500 
 36 H      -11.0630     1.9350    -0.9100 H     1 <1>   0.0800 
 37 H      -10.0960     1.0560    -2.0800 H     1 <1>   0.0800 
 38 H       -9.3290     2.1240    -0.9170 H     1 <1>   0.0800 
 39 H      -11.9210    -0.5450    -0.3700 H     1 <1>   0.0800 
 40 H      -11.7580     0.5230     1.0140 H     1 <1>   0.0800 
 41 H      -11.0850    -1.0910     1.0670 H     1 <1>   0.0800 
@<TRIPOS>BOND
  1   1   2  2   
  2   2   3  1   
  3   2   4  1   
  4   3   5  1   
  5   4   6  2   
  6   4   7  1   
  7   5  20  1   
  8   5  21  1   
  9   5  22  1   
 10   6   8  1   
 11   6   9  1   
 12   7  10  2   
 13   7  11  1   
 14   8  12  1   
 15   8  13  1   
 16   9  14  2   
 17   9  23  1   
 18  11  24  1   
 19  11  25  1   
 20  11  26  1   
 21  12  27  1   
 22  12  28  1   
 23  12  29  1   
 24  13  30  1   
 25  13  31  1   
 26  13  32  1   
 27  14  15  1   
 28  14  33  1   
 29  15  16  2   
 30  15  34  1   
 31  16  17  1   
 32  16  35  1   
 33  17  18  1   
 34  17  19  1   
 35  18  36  1   
 36  18  37  1   
 37  18  38  1   
 38  19  39  1   
 39  19  40  1   
 40  19  41  1   
@<TRIPOS>SUBSTRUCTURE
  1 ****   9 GROUP 4 **** **** 0

# MOE 2024.06 (io_trps.svl 2023.06)
