@<TRIPOS>MOLECULE
NONAME
35 36 1 0 0 
SMALL
USER_CHARGES


@<TRIPOS>ATOM
  1 F       -0.4780     0.4790    -1.5140 F     1 <1>  -0.1900 
  2 C       -1.1630     1.0830    -0.5750 C.ar  1 <1>   0.1900 
  3 C       -0.5400     1.8640     0.4070 C.ar  1 <1>   0.0830 
  4 C       -2.5340     0.9060    -0.6090 C.ar  1 <1>  -0.1500 
  5 O        0.7950     2.1110     0.5410 O.3   1 <1>  -0.3630 
  6 C       -1.3510     2.4640     1.3590 C.ar  1 <1>  -0.1500 
  7 C       -3.3200     1.5160     0.3540 C.ar  1 <1>  -0.1500 
  8 C        1.7640     1.5890    -0.3380 C.3   1 <1>   0.1200 
  9 C       -2.7270     2.2930     1.3360 C.ar  1 <1>  -0.1500 
 10 C        3.1360     2.0820     0.1200 C.3   1 <1>  -0.1600 
 11 C        4.2470     1.5570    -0.7940 C.3   1 <1>   0.0210 
 12 C        5.6000     2.0610    -0.3230 C.2   1 <1>  -0.1810 
 13 C        6.2280     3.2460    -0.7070 C.2   1 <1>   0.1080 
 14 C        6.4580     1.4840     0.5470 C.2   1 <1>  -0.3320 
 15 N        7.3790     3.4000    -0.1350 N.2   1 <1>  -0.7070 
 16 C        5.6750     4.2670    -1.6750 C.3   1 <1>  -0.0590 
 17 N        7.5210     2.3110     0.6400 N.pl3 1 <1>   0.3000 
 18 C        6.3510     0.1820     1.3230 C.3   1 <1>  -0.0600 
 19 H       -2.9780     0.2990    -1.3770 H     1 <1>   0.1500 
 20 H       -0.8960     3.0680     2.1240 H     1 <1>   0.1500 
 21 H       -4.3890     1.3860     0.3410 H     1 <1>   0.1500 
 22 H        1.5450     1.9410    -1.3310 H     1 <1>   0.0800 
 23 H        1.7130     0.5150    -0.3000 H     1 <1>   0.0800 
 24 H       -3.3370     2.7680     2.0850 H     1 <1>   0.1500 
 25 H        3.3190     1.7430     1.1250 H     1 <1>   0.0800 
 26 H        3.1480     3.1570     0.1140 H     1 <1>   0.0800 
 27 H        4.0780     1.8790    -1.8070 H     1 <1>   0.0800 
 28 H        4.2470     0.4820    -0.7890 H     1 <1>   0.0800 
 29 H        4.6650     4.5160    -1.4130 H     1 <1>   0.0800 
 30 H        5.7010     3.8690    -2.6720 H     1 <1>   0.0800 
 31 H        6.2730     5.1600    -1.6410 H     1 <1>   0.0800 
 32 H        8.3530     2.1630     1.2220 H     1 <1>   0.2700 
 33 H        5.4040    -0.2920     1.1390 H     1 <1>   0.0800 
 34 H        6.4330     0.3740     2.3780 H     1 <1>   0.0800 
 35 H        7.1350    -0.4910     1.0260 H     1 <1>   0.0800 
@<TRIPOS>BOND
  1   1   2  1   
  2   2   3  ar  
  3   2   4  ar  
  4   3   5  1   
  5   3   6  ar  
  6   4   7  ar  
  7   4  19  1   
  8   5   8  1   
  9   6   9  ar  
 10   6  20  1   
 11   7   9  ar  
 12   7  21  1   
 13   8  10  1   
 14   8  22  1   
 15   8  23  1   
 16   9  24  1   
 17  10  11  1   
 18  10  25  1   
 19  10  26  1   
 20  11  12  1   
 21  11  27  1   
 22  11  28  1   
 23  12  13  1   
 24  12  14  2   
 25  13  15  2   
 26  13  16  1   
 27  14  17  1   
 28  14  18  1   
 29  15  17  1   
 30  16  29  1   
 31  16  30  1   
 32  16  31  1   
 33  17  32  1   
 34  18  33  1   
 35  18  34  1   
 36  18  35  1   
@<TRIPOS>SUBSTRUCTURE
  1 ****  10 GROUP 4 **** **** 0

# MOE 2024.06 (io_trps.svl 2023.06)
