@<TRIPOS>MOLECULE
NONAME
47 51 1 0 0 
SMALL
USER_CHARGES


@<TRIPOS>ATOM
  1 O       -1.7010     0.5120     1.3760 O.2   1 <1>  -0.5700 
  2 C       -1.9880     1.4060     0.5990 C.2   1 <1>   0.7160 
  3 N       -3.0130     1.1460    -0.2820 N.am  1 <1>  -0.6600 
  4 C       -1.3070     2.6680     0.6690 C.2   1 <1>  -0.0860 
  5 C       -3.2930    -0.2510    -0.7150 C.3   1 <1>   0.1400 
  6 C       -4.1770     2.0690    -0.3940 C.3   1 <1>   0.1400 
  7 C       -1.2820     3.7540    -0.1730 C.2   1 <1>  -0.0260 
  8 C       -0.4450     3.0350     1.7020 C.2   1 <1>   0.1390 
  9 C       -4.4790    -0.8190     0.0830 C.3   1 <1>   0.3430 
 10 C       -5.3940     1.4920     0.3580 C.3   1 <1>   0.3430 
 11 N       -1.9260     3.9870    -1.3710 N.2   1 <1>  -0.5760 
 12 N       -0.4270     4.6650     0.4000 N.pl3 1 <1>   0.6010 
 13 N        0.0750     4.2160     1.5630 N.2   1 <1>  -0.7070 
 14 N       -5.6970     0.0620    -0.0280 N.4   1 <1>  -0.9590 
 15 C       -1.6680     5.1150    -1.9560 C.2   1 <1>   0.3760 
 16 C       -0.1710     5.8590    -0.2320 C.2   1 <1>  -0.1810 
 17 C       -6.8310    -0.4860     0.7640 C.3   1 <1>   0.4870 
 18 C       -0.7900     6.0950    -1.4190 C.2   1 <1>  -0.1360 
 19 C       -8.0710     0.3330     0.4630 C.ar  1 <1>  -0.1430 
 20 C       -8.5130     1.2780     1.3850 C.ar  1 <1>  -0.1500 
 21 C       -8.7650     0.1470    -0.7350 C.ar  1 <1>  -0.1500 
 22 C       -9.6320     2.0220     1.0690 C.ar  1 <1>   0.0830 
 23 C       -9.8920     0.9050    -1.0300 C.ar  1 <1>  -0.1500 
 24 O      -10.2180     2.9780     1.7940 O.3   1 <1>  -0.3620 
 25 C      -10.3020     1.8420    -0.1040 C.ar  1 <1>   0.0830 
 26 C      -11.3470     3.4260     1.0430 C.3   1 <1>   0.4000 
 27 O      -11.3420     2.6770    -0.1710 O.3   1 <1>  -0.3620 
 28 H       -2.4240    -0.8680    -0.5540 H     1 <1>   0.0800 
 29 H       -3.5100    -0.2640    -1.7680 H     1 <1>   0.0800 
 30 H       -4.4150     2.2230    -1.4320 H     1 <1>   0.0800 
 31 H       -3.9370     3.0290     0.0310 H     1 <1>   0.0800 
 32 H       -0.2250     2.3960     2.5440 H     1 <1>   0.1500 
 33 H       -4.1780    -0.9000     1.1150 H     1 <1>   0.0800 
 34 H       -4.7040    -1.8090    -0.2770 H     1 <1>   0.0800 
 35 H       -6.2520     2.1150     0.1620 H     1 <1>   0.0800 
 36 H       -5.1890     1.5420     1.4140 H     1 <1>   0.0800 
 37 H       -6.0000     0.0800    -1.0090 H     1 <1>   0.4500 
 38 H       -2.1410     5.3350    -2.8970 H     1 <1>   0.0600 
 39 H        0.5080     6.5280     0.2620 H     1 <1>   0.1500 
 40 H       -6.6080    -0.4420     1.8180 H     1 <1>   0.0800 
 41 H       -7.0110    -1.5140     0.4960 H     1 <1>   0.0800 
 42 H       -0.6390     7.0020    -1.9750 H     1 <1>   0.1500 
 43 H       -8.0230     1.4490     2.3280 H     1 <1>   0.1500 
 44 H       -8.4450    -0.5910    -1.4510 H     1 <1>   0.1500 
 45 H      -10.4430     0.7780    -1.9460 H     1 <1>   0.1500 
 46 H      -11.2450     4.4740     0.8240 H     1 <1>   0.0800 
 47 H      -12.2500     3.2190     1.5910 H     1 <1>   0.0800 
@<TRIPOS>BOND
  1   1   2  2   
  2   2   3  am  
  3   2   4  1   
  4   3   5  1   
  5   3   6  1   
  6   4   7  2   
  7   4   8  1   
  8   5   9  1   
  9   5  28  1   
 10   5  29  1   
 11   6  10  1   
 12   6  30  1   
 13   6  31  1   
 14   7  11  1   
 15   7  12  1   
 16   8  13  2   
 17   8  32  1   
 18   9  14  1   
 19   9  33  1   
 20   9  34  1   
 21  10  14  1   
 22  10  35  1   
 23  10  36  1   
 24  11  15  2   
 25  12  13  1   
 26  12  16  1   
 27  14  17  1   
 28  14  37  1   
 29  15  18  1   
 30  15  38  1   
 31  16  18  2   
 32  16  39  1   
 33  17  19  1   
 34  17  40  1   
 35  17  41  1   
 36  18  42  1   
 37  19  20  ar  
 38  19  21  ar  
 39  20  22  ar  
 40  20  43  1   
 41  21  23  ar  
 42  21  44  1   
 43  22  24  1   
 44  22  25  ar  
 45  23  25  ar  
 46  23  45  1   
 47  24  26  1   
 48  25  27  1   
 49  26  27  1   
 50  26  46  1   
 51  26  47  1   
@<TRIPOS>SUBSTRUCTURE
  1 ****  10 GROUP 4 **** **** 0

# MOE 2024.06 (io_trps.svl 2023.06)
