@<TRIPOS>MOLECULE
NONAME
37 38 1 0 0 
SMALL
USER_CHARGES


@<TRIPOS>ATOM
  1 O       -0.0540    -0.2010    -1.1990 O.2   1 <1>  -0.5700 
  2 C        0.0020    -1.2640    -0.6150 C.2   1 <1>   0.5440 
  3 N        1.1960    -1.7340    -0.1480 N.am  1 <1>  -0.4930 
  4 C       -1.2080    -2.0310    -0.3800 C.ar  1 <1>   0.0860 
  5 C        2.4840    -1.2410    -0.2770 C.2   1 <1>   0.5790 
  6 C       -2.4320    -1.3840    -0.2090 C.ar  1 <1>  -0.1500 
  7 C       -1.2000    -3.4270    -0.3140 C.ar  1 <1>  -0.1500 
  8 N        2.8690    -0.2340    -1.0580 N.2   1 <1>  -0.2270 
  9 N        3.4270    -1.7880     0.3900 N.2   1 <1>  -0.7070 
 10 C       -3.6010    -2.0950     0.0350 C.ar  1 <1>   0.0830 
 11 C       -2.3580    -4.1430    -0.0690 C.ar  1 <1>  -0.1500 
 12 N        4.1270    -0.1210    -0.8840 N.2   1 <1>  -0.4180 
 13 N        4.4530    -1.0580    -0.0120 N.pl3 1 <1>   0.5800 
 14 O       -4.8140    -1.5150     0.2110 O.3   1 <1>  -0.3630 
 15 C       -3.5550    -3.4760     0.1080 C.ar  1 <1>  -0.1500 
 16 C        5.8310    -1.2700     0.4730 C.3   1 <1>   0.0960 
 17 C       -4.9830    -0.1210     0.0960 C.3   1 <1>   0.1200 
 18 C        6.5490    -2.3590    -0.3400 C.3   1 <1>  -0.1600 
 19 C       -6.4600     0.1940     0.3110 C.3   1 <1>  -0.2400 
 20 C        7.9820    -2.5760     0.1600 C.3   1 <1>  -0.2400 
 21 H        1.1740    -2.5370     0.4680 H     1 <1>   0.3700 
 22 H       -2.4410    -0.3120    -0.2720 H     1 <1>   0.1500 
 23 H       -0.2820    -3.9670    -0.4650 H     1 <1>   0.1500 
 24 H       -2.3320    -5.2180    -0.0190 H     1 <1>   0.1500 
 25 H       -4.4630    -4.0210     0.2990 H     1 <1>   0.1500 
 26 H        5.7810    -1.5520     1.5080 H     1 <1>   0.0800 
 27 H        6.3610    -0.3390     0.3940 H     1 <1>   0.0800 
 28 H       -4.6680     0.1810    -0.8880 H     1 <1>   0.0800 
 29 H       -4.3780     0.3590     0.8470 H     1 <1>   0.0800 
 30 H        6.5780    -2.0690    -1.3780 H     1 <1>   0.0800 
 31 H        6.0040    -3.2840    -0.2600 H     1 <1>   0.0800 
 32 H       -7.0550    -0.3030    -0.4340 H     1 <1>   0.0800 
 33 H       -6.6210     1.2540     0.2290 H     1 <1>   0.0800 
 34 H       -6.7670    -0.1260     1.2900 H     1 <1>   0.0800 
 35 H        8.5560    -1.6700     0.0710 H     1 <1>   0.0800 
 36 H        8.4630    -3.3410    -0.4240 H     1 <1>   0.0800 
 37 H        7.9810    -2.8860     1.1910 H     1 <1>   0.0800 
@<TRIPOS>BOND
  1   1   2  2   
  2   2   3  am  
  3   2   4  1   
  4   3   5  1   
  5   3  21  1   
  6   4   6  ar  
  7   4   7  ar  
  8   5   8  1   
  9   5   9  2   
 10   6  10  ar  
 11   6  22  1   
 12   7  11  ar  
 13   7  23  1   
 14   8  12  2   
 15   9  13  1   
 16  10  14  1   
 17  10  15  ar  
 18  11  15  ar  
 19  11  24  1   
 20  12  13  1   
 21  13  16  1   
 22  14  17  1   
 23  15  25  1   
 24  16  18  1   
 25  16  26  1   
 26  16  27  1   
 27  17  19  1   
 28  17  28  1   
 29  17  29  1   
 30  18  20  1   
 31  18  30  1   
 32  18  31  1   
 33  19  32  1   
 34  19  33  1   
 35  19  34  1   
 36  20  35  1   
 37  20  36  1   
 38  20  37  1   
@<TRIPOS>SUBSTRUCTURE
  1 ****   2 GROUP 4 **** **** 0

# MOE 2024.06 (io_trps.svl 2023.06)
