@<TRIPOS>MOLECULE
NONAME
45 46 1 0 0 
SMALL
USER_CHARGES


@<TRIPOS>ATOM
  1 S        0.4940    -0.1530    -1.7370 S.o2  1 <1>   1.4470 
  2 O        0.8020     1.0620    -2.4640 O.2   1 <1>  -0.6500 
  3 O        0.3230    -1.3600    -2.5170 O.2   1 <1>  -0.6500 
  4 N        1.8500    -0.3980    -0.7540 N.am  1 <1>  -0.8490 
  5 C       -0.8950     0.0220    -0.5420 C.ar  1 <1>  -0.0090 
  6 C        2.9890    -0.8070    -1.5810 C.3   1 <1>   0.3390 
  7 C        2.1620     0.7700     0.0780 C.3   1 <1>   0.1960 
  8 C       -1.6770     1.1860    -0.4570 C.ar  1 <1>  -0.1440 
  9 C       -1.2080    -1.0250     0.3400 C.ar  1 <1>  -0.1440 
 10 C        4.1780    -1.2320    -0.7280 C.ar  1 <1>  -0.1440 
 11 C        2.2080     0.3390     1.5400 C.3   1 <1>  -0.2400 
 12 C       -2.6920     1.2940     0.4820 C.ar  1 <1>  -0.1500 
 13 C       -1.4840     2.3910    -1.3720 C.3   1 <1>  -0.0970 
 14 C       -2.2270    -0.8950     1.2700 C.ar  1 <1>  -0.1500 
 15 C       -0.4650    -2.3600     0.3320 C.3   1 <1>  -0.0970 
 16 C        4.1020    -2.3840     0.0400 C.ar  1 <1>  -0.1500 
 17 C        5.3460    -0.4820    -0.7120 C.ar  1 <1>  -0.1500 
 18 C       -2.9710     0.2630     1.3520 C.ar  1 <1>  -0.1440 
 19 C        5.1760    -2.7820     0.8170 C.ar  1 <1>  -0.1500 
 20 C        6.4210    -0.8800     0.0640 C.ar  1 <1>  -0.1500 
 21 C       -4.0850     0.3940     2.3750 C.3   1 <1>  -0.0970 
 22 C        6.3370    -2.0300     0.8290 C.ar  1 <1>  -0.1500 
 23 H        3.2700    -0.0030    -2.2420 H     1 <1>   0.0800 
 24 H        2.7130    -1.6500    -2.1920 H     1 <1>   0.0800 
 25 H        1.4070     1.5320    -0.0260 H     1 <1>   0.0800 
 26 H        3.1030     1.2110    -0.2050 H     1 <1>   0.0800 
 27 H        1.2590    -0.0680     1.8390 H     1 <1>   0.0800 
 28 H        2.9770    -0.3950     1.6940 H     1 <1>   0.0800 
 29 H        2.4230     1.1890     2.1600 H     1 <1>   0.0800 
 30 H       -3.2810     2.1920     0.5400 H     1 <1>   0.1500 
 31 H       -0.5290     2.8500    -1.1910 H     1 <1>   0.0800 
 32 H       -2.2420     3.1360    -1.2070 H     1 <1>   0.0800 
 33 H       -1.5460     2.0920    -2.4030 H     1 <1>   0.0800 
 34 H       -2.4520    -1.7050     1.9410 H     1 <1>   0.1500 
 35 H        0.5670    -2.2240     0.5950 H     1 <1>   0.0800 
 36 H       -0.5260    -2.8210    -0.6370 H     1 <1>   0.0800 
 37 H       -0.8910    -3.0460     1.0400 H     1 <1>   0.0800 
 38 H        3.1980    -2.9680     0.0360 H     1 <1>   0.1500 
 39 H        5.4250     0.4130    -1.3030 H     1 <1>   0.1500 
 40 H        5.1070    -3.6770     1.4110 H     1 <1>   0.1500 
 41 H        7.3250    -0.2950     0.0730 H     1 <1>   0.1500 
 42 H       -3.8600    -0.1840     3.2530 H     1 <1>   0.0800 
 43 H       -5.0090     0.0390     1.9540 H     1 <1>   0.0800 
 44 H       -4.2090     1.4210     2.6680 H     1 <1>   0.0800 
 45 H        7.1720    -2.3390     1.4330 H     1 <1>   0.1500 
@<TRIPOS>BOND
  1   1   2  2   
  2   1   3  2   
  3   1   4  am  
  4   1   5  1   
  5   4   6  1   
  6   4   7  1   
  7   5   8  ar  
  8   5   9  ar  
  9   6  10  1   
 10   6  23  1   
 11   6  24  1   
 12   7  11  1   
 13   7  25  1   
 14   7  26  1   
 15   8  12  ar  
 16   8  13  1   
 17   9  14  ar  
 18   9  15  1   
 19  10  16  ar  
 20  10  17  ar  
 21  11  27  1   
 22  11  28  1   
 23  11  29  1   
 24  12  18  ar  
 25  12  30  1   
 26  13  31  1   
 27  13  32  1   
 28  13  33  1   
 29  14  18  ar  
 30  14  34  1   
 31  15  35  1   
 32  15  36  1   
 33  15  37  1   
 34  16  19  ar  
 35  16  38  1   
 36  17  20  ar  
 37  17  39  1   
 38  18  21  1   
 39  19  22  ar  
 40  19  40  1   
 41  20  22  ar  
 42  20  41  1   
 43  21  42  1   
 44  21  43  1   
 45  21  44  1   
 46  22  45  1   
@<TRIPOS>SUBSTRUCTURE
  1 ****   4 GROUP 4 **** **** 0

# MOE 2024.06 (io_trps.svl 2023.06)
