@<TRIPOS>MOLECULE
NONAME
40 41 1 0 0 
SMALL
USER_CHARGES


@<TRIPOS>ATOM
  1 O        0.2320     0.1110     0.4380 O.3   1 <1>  -0.3630 
  2 C       -0.8060    -0.6100    -0.0550 C.ar  1 <1>   0.0830 
  3 C        1.4780    -0.4860     0.7030 C.3   1 <1>   0.1200 
  4 C       -0.7450    -1.9750    -0.3280 C.ar  1 <1>  -0.1500 
  5 C       -1.9840     0.0790    -0.2920 C.ar  1 <1>  -0.1500 
  6 C        2.4210     0.5930     1.2330 C.3   1 <1>  -0.1600 
  7 C       -1.8530    -2.6390    -0.8310 C.ar  1 <1>  -0.1440 
  8 C       -3.0910    -0.5800    -0.7960 C.ar  1 <1>  -0.1500 
  9 C        3.8090     0.0080     1.5120 C.3   1 <1>   0.1200 
 10 C       -3.0240    -1.9360    -1.0650 C.ar  1 <1>  -0.1500 
 11 C       -1.7920    -4.1260    -1.1310 C.3   1 <1>  -0.0970 
 12 O        4.6510     1.0120     2.0380 O.3   1 <1>  -0.3630 
 13 C        5.2670     1.9420     1.2590 C.ar  1 <1>   0.0830 
 14 C        6.0200     2.8970     1.9210 C.ar  1 <1>  -0.1500 
 15 C        5.1850     1.9820    -0.1310 C.ar  1 <1>  -0.1500 
 16 C        6.6850     3.8820     1.2120 C.ar  1 <1>  -0.1500 
 17 C        5.8500     2.9670    -0.8410 C.ar  1 <1>  -0.1500 
 18 C        6.6060     3.9250    -0.1700 C.ar  1 <1>   0.0830 
 19 O        7.2870     4.9240    -0.7900 O.3   1 <1>  -0.3620 
 20 C        7.2630     5.0600    -2.1930 C.3   1 <1>   0.0400 
 21 H        1.8530    -0.9030    -0.2160 H     1 <1>   0.0800 
 22 H        1.3330    -1.2610     1.4350 H     1 <1>   0.0800 
 23 H        0.1550    -2.5320    -0.1540 H     1 <1>   0.1500 
 24 H       -2.0270     1.1310    -0.0800 H     1 <1>   0.1500 
 25 H        2.0180     0.9920     2.1470 H     1 <1>   0.0800 
 26 H        2.4930     1.3810     0.5060 H     1 <1>   0.0800 
 27 H       -4.0030    -0.0390    -0.9790 H     1 <1>   0.1500 
 28 H        4.2650    -0.4150     0.6350 H     1 <1>   0.0800 
 29 H        3.7370    -0.7610     2.2610 H     1 <1>   0.0800 
 30 H       -3.8890    -2.4420    -1.4580 H     1 <1>   0.1500 
 31 H       -1.0010    -4.5960    -0.5760 H     1 <1>   0.0800 
 32 H       -1.6180    -4.2780    -2.1810 H     1 <1>   0.0800 
 33 H       -2.7200    -4.5980    -0.8620 H     1 <1>   0.0800 
 34 H        6.0830     2.8650     2.9940 H     1 <1>   0.1500 
 35 H        4.6110     1.2600    -0.6780 H     1 <1>   0.1500 
 36 H        7.2690     4.6230     1.7270 H     1 <1>   0.1500 
 37 H        5.7680     2.9740    -1.9110 H     1 <1>   0.1500 
 38 H        7.8630     5.9120    -2.4560 H     1 <1>   0.0800 
 39 H        6.2470     5.2160    -2.5110 H     1 <1>   0.0800 
 40 H        7.6760     4.1720    -2.6370 H     1 <1>   0.0800 
@<TRIPOS>BOND
  1   1   2  1   
  2   1   3  1   
  3   2   4  ar  
  4   2   5  ar  
  5   3   6  1   
  6   3  21  1   
  7   3  22  1   
  8   4   7  ar  
  9   4  23  1   
 10   5   8  ar  
 11   5  24  1   
 12   6   9  1   
 13   6  25  1   
 14   6  26  1   
 15   7  10  ar  
 16   7  11  1   
 17   8  10  ar  
 18   8  27  1   
 19   9  12  1   
 20   9  28  1   
 21   9  29  1   
 22  10  30  1   
 23  11  31  1   
 24  11  32  1   
 25  11  33  1   
 26  12  13  1   
 27  13  14  ar  
 28  13  15  ar  
 29  14  16  ar  
 30  14  34  1   
 31  15  17  ar  
 32  15  35  1   
 33  16  18  ar  
 34  16  36  1   
 35  17  18  ar  
 36  17  37  1   
 37  18  19  1   
 38  19  20  1   
 39  20  38  1   
 40  20  39  1   
 41  20  40  1   
@<TRIPOS>SUBSTRUCTURE
  1 ****   6 GROUP 4 **** **** 0

# MOE 2024.06 (io_trps.svl 2023.06)
