@<TRIPOS>MOLECULE
NONAME
41 42 1 0 0 
SMALL
USER_CHARGES


@<TRIPOS>ATOM
  1 O       -0.3890     0.2330    -0.6470 O.3   1 <1>  -0.0190 
  2 N       -1.6200    -0.1690    -0.5900 N.2   1 <1>  -0.4100 
  3 C       -0.4530     1.5150    -0.3880 C.2   1 <1>   0.2980 
  4 C       -2.3550     0.8470    -0.3080 C.2   1 <1>   0.4620 
  5 N       -1.6260     1.9590    -0.1700 N.2   1 <1>  -0.5650 
  6 C        0.8600     2.3200    -0.3750 C.3   1 <1>   0.1800 
  7 C       -3.8000     0.8310    -0.1510 C.ar  1 <1>   0.0540 
  8 C        1.8100     1.7500     0.6910 C.3   1 <1>  -0.2400 
  9 C        1.5380     2.2320    -1.7520 C.3   1 <1>  -0.2400 
 10 C        0.6050     3.8040    -0.0540 C.3   1 <1>  -0.2400 
 11 C       -4.5250    -0.3510    -0.3050 C.ar  1 <1>  -0.1500 
 12 C       -4.5150     1.9900     0.1560 C.ar  1 <1>  -0.1500 
 13 C       -5.9060    -0.3900    -0.1580 C.ar  1 <1>   0.0830 
 14 C       -5.8970     1.9810     0.3090 C.ar  1 <1>   0.0830 
 15 O       -6.6300    -1.5370    -0.3120 O.3   1 <1>  -0.3630 
 16 C       -6.5920     0.7830     0.1520 C.ar  1 <1>   0.0830 
 17 O       -6.6110     3.1070     0.6040 O.3   1 <1>  -0.3630 
 18 C       -6.0030    -2.7960    -0.4230 C.3   1 <1>   0.0400 
 19 O       -7.9400     0.7550     0.3220 O.3   1 <1>  -0.3630 
 20 C       -5.9730     4.3080     0.9780 C.3   1 <1>   0.0400 
 21 C       -8.6970     0.9990    -0.8380 C.3   1 <1>   0.0400 
 22 H        1.3480     1.7950     1.6610 H     1 <1>   0.0800 
 23 H        2.7280     2.3100     0.7220 H     1 <1>   0.0800 
 24 H        2.0470     0.7230     0.4770 H     1 <1>   0.0800 
 25 H        1.7720     1.2100    -1.9950 H     1 <1>   0.0800 
 26 H        2.4510     2.8010    -1.7650 H     1 <1>   0.0800 
 27 H        0.8830     2.6180    -2.5130 H     1 <1>   0.0800 
 28 H       -0.0500     4.2370    -0.7890 H     1 <1>   0.0800 
 29 H        1.5260     4.3590    -0.0470 H     1 <1>   0.0800 
 30 H        0.1390     3.9020     0.9110 H     1 <1>   0.0800 
 31 H       -3.9810    -1.2440    -0.5480 H     1 <1>   0.1500 
 32 H       -3.9640     2.9040     0.2690 H     1 <1>   0.1500 
 33 H       -6.7700    -3.5490    -0.4430 H     1 <1>   0.0800 
 34 H       -5.3670    -2.9460     0.4320 H     1 <1>   0.0800 
 35 H       -5.4370    -2.8260    -1.3370 H     1 <1>   0.0800 
 36 H       -6.7340     5.0180     1.2460 H     1 <1>   0.0800 
 37 H       -5.4060     4.6780     0.1430 H     1 <1>   0.0800 
 38 H       -5.3380     4.1160     1.8250 H     1 <1>   0.0800 
 39 H       -9.7380     0.9490    -0.5760 H     1 <1>   0.0800 
 40 H       -8.4610     0.2470    -1.5690 H     1 <1>   0.0800 
 41 H       -8.4540     1.9790    -1.2090 H     1 <1>   0.0800 
@<TRIPOS>BOND
  1   1   2  1   
  2   1   3  1   
  3   2   4  2   
  4   3   5  2   
  5   3   6  1   
  6   4   5  1   
  7   4   7  1   
  8   6   8  1   
  9   6   9  1   
 10   6  10  1   
 11   7  11  ar  
 12   7  12  ar  
 13   8  22  1   
 14   8  23  1   
 15   8  24  1   
 16   9  25  1   
 17   9  26  1   
 18   9  27  1   
 19  10  28  1   
 20  10  29  1   
 21  10  30  1   
 22  11  13  ar  
 23  11  31  1   
 24  12  14  ar  
 25  12  32  1   
 26  13  15  1   
 27  13  16  ar  
 28  14  16  ar  
 29  14  17  1   
 30  15  18  1   
 31  16  19  1   
 32  17  20  1   
 33  18  33  1   
 34  18  34  1   
 35  18  35  1   
 36  19  21  1   
 37  20  36  1   
 38  20  37  1   
 39  20  38  1   
 40  21  39  1   
 41  21  40  1   
 42  21  41  1   
@<TRIPOS>SUBSTRUCTURE
  1 ****   7 GROUP 4 **** **** 0

# MOE 2024.06 (io_trps.svl 2023.06)
