@<TRIPOS>MOLECULE
NONAME
42 42 1 0 0 
SMALL
USER_CHARGES


@<TRIPOS>ATOM
  1 F       -2.5200     0.4570     3.3580 F     1 <1>  -0.1900 
  2 C       -3.3690     0.9140     2.4740 C.ar  1 <1>   0.1900 
  3 C       -2.8920     1.3490     1.2530 C.ar  1 <1>  -0.1500 
  4 C       -4.7120     0.9470     2.7940 C.ar  1 <1>  -0.1500 
  5 C       -3.7960     1.8330     0.3220 C.ar  1 <1>  -0.1500 
  6 C       -5.6040     1.4330     1.8530 C.ar  1 <1>  -0.1500 
  7 C       -5.1600     1.8780     0.6090 C.ar  1 <1>   0.1170 
  8 N       -6.1180     2.3600    -0.2930 N.am  1 <1>  -0.5470 
  9 C       -6.0880     2.6010    -1.6390 C.2   1 <1>   0.5690 
 10 O       -5.1270     2.4120    -2.3420 O.2   1 <1>  -0.5700 
 11 C       -7.3480     3.1300    -2.2830 C.3   1 <1>  -0.0380 
 12 C       -8.5040     2.2140    -1.9450 C.2   1 <1>   0.3280 
 13 N       -9.0050     2.2660    -0.7830 N.2   1 <1>  -0.5120 
 14 C       -8.9220     1.2720    -3.0660 C.3   1 <1>  -0.1790 
 15 N      -10.0450     1.4520    -0.3490 N.am  1 <1>  -0.3680 
 16 C      -10.4710     1.2510     0.9400 C.2   1 <1>   0.7800 
 17 O       -9.9130     1.7280     1.9090 O.2   1 <1>  -0.5700 
 18 O      -11.5430     0.4670     1.0580 O.3   1 <1>  -0.4300 
 19 C      -12.1940     0.0880     2.2520 C.3   1 <1>   0.2800 
 20 C      -12.7490     1.3250     2.9680 C.3   1 <1>  -0.2400 
 21 C      -13.3560    -0.8010     1.8100 C.3   1 <1>  -0.2400 
 22 C      -11.2450    -0.7250     3.1400 C.3   1 <1>  -0.2400 
 23 H       -1.8390     1.3100     1.0380 H     1 <1>   0.1500 
 24 H       -5.0480     0.6020     3.7550 H     1 <1>   0.1500 
 25 H       -3.4330     2.1770    -0.6290 H     1 <1>   0.1500 
 26 H       -6.6550     1.4650     2.0860 H     1 <1>   0.1500 
 27 H       -7.0600     2.4510     0.1100 H     1 <1>   0.3700 
 28 H       -7.5430     4.1120    -1.8950 H     1 <1>   0.0800 
 29 H       -7.2150     3.2070    -3.3450 H     1 <1>   0.0800 
 30 H       -9.2930     1.8420    -3.8990 H     1 <1>   0.0800 
 31 H       -9.6850     0.5840    -2.7580 H     1 <1>   0.0800 
 32 H       -8.0700     0.7010    -3.3910 H     1 <1>   0.0800 
 33 H      -10.5730     0.9110    -1.0340 H     1 <1>   0.3700 
 34 H      -13.3550     1.0240     3.8030 H     1 <1>   0.0800 
 35 H      -13.3570     1.9060     2.2990 H     1 <1>   0.0800 
 36 H      -11.9570     1.9420     3.3510 H     1 <1>   0.0800 
 37 H      -12.9890    -1.6650     1.2860 H     1 <1>   0.0800 
 38 H      -14.0210    -0.2550     1.1650 H     1 <1>   0.0800 
 39 H      -13.9150    -1.1380     2.6640 H     1 <1>   0.0800 
 40 H      -10.4540    -0.1110     3.5290 H     1 <1>   0.0800 
 41 H      -11.7830    -1.1280     3.9790 H     1 <1>   0.0800 
 42 H      -10.8190    -1.5420     2.5850 H     1 <1>   0.0800 
@<TRIPOS>BOND
  1   1   2  1   
  2   2   3  ar  
  3   2   4  ar  
  4   3   5  ar  
  5   3  23  1   
  6   4   6  ar  
  7   4  24  1   
  8   5   7  ar  
  9   5  25  1   
 10   6   7  ar  
 11   6  26  1   
 12   7   8  1   
 13   8   9  am  
 14   8  27  1   
 15   9  10  2   
 16   9  11  1   
 17  11  12  1   
 18  11  28  1   
 19  11  29  1   
 20  12  13  2   
 21  12  14  1   
 22  13  15  1   
 23  14  30  1   
 24  14  31  1   
 25  14  32  1   
 26  15  16  am  
 27  15  33  1   
 28  16  17  2   
 29  16  18  1   
 30  18  19  1   
 31  19  20  1   
 32  19  21  1   
 33  19  22  1   
 34  20  34  1   
 35  20  35  1   
 36  20  36  1   
 37  21  37  1   
 38  21  38  1   
 39  21  39  1   
 40  22  40  1   
 41  22  41  1   
 42  22  42  1   
@<TRIPOS>SUBSTRUCTURE
  1 ****  13 GROUP 4 **** **** 0

# MOE 2024.06 (io_trps.svl 2023.06)
