@<TRIPOS>MOLECULE
NONAME
47 49 1 0 0 
SMALL
USER_CHARGES


@<TRIPOS>ATOM
  1 O        0.5010    -0.5060     2.2480 O.2   1 <1>  -0.5700 
  2 C        1.5370    -0.7940     1.6970 C.2   1 <1>   0.5690 
  3 N        1.7650    -1.9260     0.9610 N.am  1 <1>  -0.2370 
  4 C        2.8130     0.0610     1.8250 C.3   1 <1>   0.2510 
  5 C        0.7840    -2.8660     0.5590 C.ar  1 <1>   0.1170 
  6 C        3.1050    -2.0340     0.7140 C.2   1 <1>   0.5690 
  7 N        2.9070     1.2850     0.9490 N.3   1 <1>  -0.8100 
  8 C        3.8910    -0.9440     1.3930 C.3   1 <1>  -0.0990 
  9 C        0.7440    -3.3340    -0.7510 C.ar  1 <1>  -0.1500 
 10 C       -0.1600    -3.3490     1.4600 C.ar  1 <1>  -0.1500 
 11 O        3.6510    -2.8680     0.0410 O.2   1 <1>  -0.5700 
 12 C        4.1030     2.1120     1.2800 C.3   1 <1>   0.1100 
 13 C        1.6940     2.1320     0.9730 C.3   1 <1>   0.1100 
 14 C       -0.2070    -4.2560    -1.1540 C.ar  1 <1>  -0.1500 
 15 C       -1.1140    -4.2690     1.0620 C.ar  1 <1>  -0.1500 
 16 C        4.6130     2.9840     0.1090 C.3   1 <1>   0.3430 
 17 C        1.3810     2.6310    -0.4380 C.3   1 <1>  -0.1600 
 18 C       -1.1460    -4.7300    -0.2430 C.ar  1 <1>   0.0830 
 19 N        3.5560     3.8160    -0.5620 N.4   1 <1>  -0.9590 
 20 C        2.6020     2.9420    -1.3010 C.3   1 <1>   0.3430 
 21 O       -2.1120    -5.6350    -0.5500 O.3   1 <1>  -0.3630 
 22 C        4.1750     4.8180    -1.4820 C.3   1 <1>   0.2630 
 23 C       -2.2100    -6.1820    -1.8460 C.3   1 <1>   0.0400 
 24 H        2.9380     0.3400     2.8580 H     1 <1>   0.0800 
 25 H        4.3860    -1.3650     2.2500 H     1 <1>   0.0800 
 26 H        4.6150    -0.5440     0.7090 H     1 <1>   0.0800 
 27 H        1.4680    -2.9810    -1.4640 H     1 <1>   0.1500 
 28 H       -0.1570    -3.0050     2.4790 H     1 <1>   0.1500 
 29 H        4.9220     1.4770     1.5700 H     1 <1>   0.0800 
 30 H        3.8960     2.7380     2.1320 H     1 <1>   0.0800 
 31 H        1.8270     2.9660     1.6420 H     1 <1>   0.0800 
 32 H        0.8270     1.6050     1.3240 H     1 <1>   0.0800 
 33 H       -0.1990    -4.5920    -2.1730 H     1 <1>   0.1500 
 34 H       -1.8410    -4.6360     1.7640 H     1 <1>   0.1500 
 35 H        5.0690     2.3360    -0.6210 H     1 <1>   0.0800 
 36 H        5.3870     3.6310     0.4890 H     1 <1>   0.0800 
 37 H        0.7450     3.4950    -0.3780 H     1 <1>   0.0800 
 38 H        0.8130     1.8680    -0.9410 H     1 <1>   0.0800 
 39 H        3.0190     4.3060     0.1640 H     1 <1>   0.4500 
 40 H        2.2740     3.4250    -2.2060 H     1 <1>   0.0800 
 41 H        3.0900     2.0180    -1.5710 H     1 <1>   0.0800 
 42 H        4.7340     4.3200    -2.2580 H     1 <1>   0.0800 
 43 H        4.8430     5.4650    -0.9360 H     1 <1>   0.0800 
 44 H        3.4110     5.4240    -1.9420 H     1 <1>   0.0800 
 45 H       -3.0330    -6.8730    -1.8540 H     1 <1>   0.0800 
 46 H       -1.2960    -6.6990    -2.0760 H     1 <1>   0.0800 
 47 H       -2.3930    -5.3880    -2.5470 H     1 <1>   0.0800 
@<TRIPOS>BOND
  1   1   2  2   
  2   2   3  am  
  3   2   4  1   
  4   3   5  1   
  5   3   6  am  
  6   4   7  1   
  7   4   8  1   
  8   4  24  1   
  9   5   9  ar  
 10   5  10  ar  
 11   6   8  1   
 12   6  11  2   
 13   7  12  1   
 14   7  13  1   
 15   8  25  1   
 16   8  26  1   
 17   9  14  ar  
 18   9  27  1   
 19  10  15  ar  
 20  10  28  1   
 21  12  16  1   
 22  12  29  1   
 23  12  30  1   
 24  13  17  1   
 25  13  31  1   
 26  13  32  1   
 27  14  18  ar  
 28  14  33  1   
 29  15  18  ar  
 30  15  34  1   
 31  16  19  1   
 32  16  35  1   
 33  16  36  1   
 34  17  20  1   
 35  17  37  1   
 36  17  38  1   
 37  18  21  1   
 38  19  20  1   
 39  19  22  1   
 40  19  39  1   
 41  20  40  1   
 42  20  41  1   
 43  21  23  1   
 44  22  42  1   
 45  22  43  1   
 46  22  44  1   
 47  23  45  1   
 48  23  46  1   
 49  23  47  1   
@<TRIPOS>SUBSTRUCTURE
  1 ****   3 GROUP 4 **** **** 0

# MOE 2024.06 (io_trps.svl 2023.06)
