@<TRIPOS>MOLECULE
NONAME
35 35 1 0 0 
SMALL
USER_CHARGES


@<TRIPOS>ATOM
  1 P       -0.1480    -0.1480     0.0920 P.3   1 <1>   0.9000 
  2 O       -0.0700    -0.8510    -1.2210 O.co2 1 <1>  -0.9500 
  3 O       -0.0200    -0.9030     1.3680 O.co2 1 <1>  -0.9500 
  4 C        1.2080     1.0610     0.1160 C.3   1 <1>   0.3430 
  5 C       -1.6480     0.8190     0.1380 C.3   1 <1>  -0.2400 
  6 N        2.5840     0.4580     0.2540 N.4   1 <1>  -0.9590 
  7 C        3.6630     1.4830     0.4090 C.3   1 <1>   0.3430 
  8 C        2.8370    -0.5040    -0.8810 C.3   1 <1>   0.3430 
  9 C        5.0670     0.8640     0.3550 C.3   1 <1>   0.1100 
 10 C        4.2880    -1.0230    -0.8990 C.3   1 <1>   0.1100 
 11 N        5.2600     0.0930    -0.8900 N.3   1 <1>  -0.8100 
 12 C        6.6630    -0.4380    -0.9330 C.3   1 <1>   0.1100 
 13 P        7.3480    -1.3490     0.4980 P.3   1 <1>   0.9000 
 14 O        6.5900    -2.6240     0.6690 O.co2 1 <1>  -0.9500 
 15 O        7.5050    -0.3950     1.6380 O.co2 1 <1>  -0.9500 
 16 C        8.9900    -1.7850    -0.0480 C.3   1 <1>  -0.2400 
 17 H        1.0710     1.7320     0.9430 H     1 <1>   0.0800 
 18 H        1.1930     1.6530    -0.7800 H     1 <1>   0.0800 
 19 H       -2.5040     0.1720     0.1360 H     1 <1>   0.0800 
 20 H       -1.7360     1.4610    -0.7160 H     1 <1>   0.0800 
 21 H       -1.7080     1.4210     1.0230 H     1 <1>   0.0800 
 22 H        2.5360    -0.1500     1.0900 H     1 <1>   0.4500 
 23 H        3.5430     1.9980     1.3470 H     1 <1>   0.0800 
 24 H        3.5900     2.2030    -0.3870 H     1 <1>   0.0800 
 25 H        2.6360    -0.0170    -1.8200 H     1 <1>   0.0800 
 26 H        2.1630    -1.3430    -0.8040 H     1 <1>   0.0800 
 27 H        5.1860     0.2290     1.2170 H     1 <1>   0.0800 
 28 H        5.8080     1.6420     0.4170 H     1 <1>   0.0800 
 29 H        4.4340    -1.6210    -1.7810 H     1 <1>   0.0800 
 30 H        4.4400    -1.6620    -0.0450 H     1 <1>   0.0800 
 31 H        7.2950     0.4080    -1.1270 H     1 <1>   0.0800 
 32 H        6.7320    -1.0550    -1.8090 H     1 <1>   0.0800 
 33 H        9.5030    -2.3300     0.7210 H     1 <1>   0.0800 
 34 H        9.5760    -0.9150    -0.2700 H     1 <1>   0.0800 
 35 H        8.9640    -2.4080    -0.9190 H     1 <1>   0.0800 
@<TRIPOS>BOND
  1   1   2  ar  
  2   1   3  ar  
  3   1   4  1   
  4   1   5  1   
  5   4   6  1   
  6   4  17  1   
  7   4  18  1   
  8   5  19  1   
  9   5  20  1   
 10   5  21  1   
 11   6   7  1   
 12   6   8  1   
 13   6  22  1   
 14   7   9  1   
 15   7  23  1   
 16   7  24  1   
 17   8  10  1   
 18   8  25  1   
 19   8  26  1   
 20   9  11  1   
 21   9  27  1   
 22   9  28  1   
 23  10  11  1   
 24  10  29  1   
 25  10  30  1   
 26  11  12  1   
 27  12  13  1   
 28  12  31  1   
 29  12  32  1   
 30  13  14  ar  
 31  13  15  ar  
 32  13  16  1   
 33  16  33  1   
 34  16  34  1   
 35  16  35  1   
@<TRIPOS>SUBSTRUCTURE
  1 ****  10 GROUP 4 **** **** 0

# MOE 2024.06 (io_trps.svl 2023.06)
