@<TRIPOS>MOLECULE
NONAME
36 36 1 0 0 
SMALL
USER_CHARGES


@<TRIPOS>ATOM
  1 CL      -0.8300    -0.1910    -0.7910 Cl    1 <1>  -0.1770 
  2 C       -2.4220    -0.8170    -0.4430 C.ar  1 <1>   0.1770 
  3 C       -3.2750    -1.1170    -1.4890 C.ar  1 <1>  -0.1500 
  4 C       -2.8040    -1.0040     0.8720 C.ar  1 <1>  -0.1500 
  5 C       -4.5370    -1.6130    -1.2080 C.ar  1 <1>  -0.1500 
  6 C       -4.0660    -1.5010     1.1510 C.ar  1 <1>  -0.1500 
  7 C       -4.9390    -1.8060     0.1070 C.ar  1 <1>   0.0830 
  8 O       -6.1910    -2.2930     0.2910 O.3   1 <1>  -0.3630 
  9 C       -6.7270    -2.4710     1.5970 C.3   1 <1>   0.1810 
 10 C       -8.1640    -2.9670     1.5390 C.2   1 <1>   0.5690 
 11 O       -8.6760    -3.3690     2.5630 O.2   1 <1>  -0.5700 
 12 N       -8.8230    -2.9550     0.3500 N.am  1 <1>  -0.4300 
 13 N      -10.2680    -3.1420     0.1790 N.am  1 <1>  -0.4300 
 14 C      -11.1840    -2.1350     0.1270 C.2   1 <1>   0.5690 
 15 O      -10.8340    -0.9770     0.0200 O.2   1 <1>  -0.5700 
 16 C      -12.6980    -2.4610     0.1860 C.3   1 <1>   0.0610 
 17 C      -13.3880    -1.9760    -1.1030 C.3   1 <1>  -0.2400 
 18 C      -12.9850    -3.9720     0.3370 C.3   1 <1>  -0.2400 
 19 C      -13.3380    -1.7400     1.3870 C.3   1 <1>  -0.2400 
 20 H       -2.9540    -0.9620    -2.5030 H     1 <1>   0.1500 
 21 H       -2.1180    -0.7630     1.6640 H     1 <1>   0.1500 
 22 H       -5.2150    -1.8510    -2.0070 H     1 <1>   0.1500 
 23 H       -4.3440    -1.6400     2.1790 H     1 <1>   0.1500 
 24 H       -6.7030    -1.5260     2.1080 H     1 <1>   0.0800 
 25 H       -6.1230    -3.1900     2.1190 H     1 <1>   0.0800 
 26 H       -8.3110    -2.6040    -0.4690 H     1 <1>   0.3700 
 27 H      -10.6070    -4.1040     0.2710 H     1 <1>   0.3700 
 28 H      -12.9650    -2.4650    -1.9620 H     1 <1>   0.0800 
 29 H      -13.2510    -0.9150    -1.2210 H     1 <1>   0.0800 
 30 H      -14.4440    -2.1800    -1.0750 H     1 <1>   0.0800 
 31 H      -12.5930    -4.5220    -0.5000 H     1 <1>   0.0800 
 32 H      -14.0450    -4.1490     0.3830 H     1 <1>   0.0800 
 33 H      -12.5470    -4.3530     1.2440 H     1 <1>   0.0800 
 34 H      -13.2020    -0.6760     1.2980 H     1 <1>   0.0800 
 35 H      -12.8740    -2.0590     2.3040 H     1 <1>   0.0800 
 36 H      -14.3920    -1.9440     1.4440 H     1 <1>   0.0800 
@<TRIPOS>BOND
  1   1   2  1   
  2   2   3  ar  
  3   2   4  ar  
  4   3   5  ar  
  5   3  20  1   
  6   4   6  ar  
  7   4  21  1   
  8   5   7  ar  
  9   5  22  1   
 10   6   7  ar  
 11   6  23  1   
 12   7   8  1   
 13   8   9  1   
 14   9  10  1   
 15   9  24  1   
 16   9  25  1   
 17  10  11  2   
 18  10  12  am  
 19  12  13  1   
 20  12  26  1   
 21  13  14  am  
 22  13  27  1   
 23  14  15  2   
 24  14  16  1   
 25  16  17  1   
 26  16  18  1   
 27  16  19  1   
 28  17  28  1   
 29  17  29  1   
 30  17  30  1   
 31  18  31  1   
 32  18  32  1   
 33  18  33  1   
 34  19  34  1   
 35  19  35  1   
 36  19  36  1   
@<TRIPOS>SUBSTRUCTURE
  1 ****  12 GROUP 4 **** **** 0

# MOE 2024.06 (io_trps.svl 2023.06)
