@<TRIPOS>MOLECULE
NONAME
48 49 1 0 0 
SMALL
USER_CHARGES


@<TRIPOS>ATOM
  1 CL       3.2160    -2.0330    -2.5290 Cl    1 <1>  -0.1770 
  2 C        3.2060    -1.9130    -0.7830 C.ar  1 <1>   0.1770 
  3 C        2.0980    -2.3290    -0.0540 C.ar  1 <1>   0.0830 
  4 C        4.3260    -1.3980    -0.1620 C.ar  1 <1>  -0.1500 
  5 O        1.0300    -2.8270    -0.7300 O.3   1 <1>  -0.3630 
  6 C        2.1420    -2.2140     1.3320 C.ar  1 <1>  -0.1500 
  7 C        4.3810    -1.2860     1.2220 C.ar  1 <1>  -0.0090 
  8 C       -0.1460    -3.2370    -0.0700 C.3   1 <1>   0.1200 
  9 C        3.2700    -1.6990     1.9520 C.ar  1 <1>  -0.1500 
 10 S        5.8570    -0.6170     2.0370 S.o2  1 <1>   1.4470 
 11 C       -1.1350    -3.7170    -1.1270 C.3   1 <1>  -0.2400 
 12 O        5.8710    -0.9750     3.4380 O.2   1 <1>  -0.6500 
 13 O        6.0220     0.7660     1.6480 O.2   1 <1>  -0.6500 
 14 N        7.1240    -1.4700     1.3090 N.am  1 <1>  -0.8490 
 15 C        8.4280    -0.8500     1.6790 C.3   1 <1>   0.2570 
 16 C        7.1160    -2.9000     1.6390 C.3   1 <1>   0.1960 
 17 C        9.6400    -1.3290     0.8670 C.2   1 <1>   0.5690 
 18 C        7.3660    -3.7090     0.3700 C.3   1 <1>  -0.2400 
 19 O       10.4890    -1.9590     1.4570 O.2   1 <1>  -0.5700 
 20 N        9.7550    -1.0540    -0.4750 N.am  1 <1>  -0.6600 
 21 C        8.7150    -0.3620    -1.2970 C.3   1 <1>   0.1400 
 22 C       10.9250    -1.5220    -1.2760 C.3   1 <1>   0.1400 
 23 C        9.3570     0.6840    -2.2240 C.3   1 <1>   0.1200 
 24 C       11.4350    -0.4040    -2.2000 C.3   1 <1>   0.1200 
 25 O       10.3910     0.1140    -2.9750 O.3   1 <1>  -0.5600 
 26 H        5.1620    -1.0850    -0.7610 H     1 <1>   0.1500 
 27 H        1.3120    -2.5180     1.9440 H     1 <1>   0.1500 
 28 H       -0.5450    -2.3950     0.4700 H     1 <1>   0.0800 
 29 H        0.1030    -4.0350     0.6080 H     1 <1>   0.0800 
 30 H        3.2880    -1.6160     3.0270 H     1 <1>   0.1500 
 31 H       -1.3640    -2.9180    -1.8100 H     1 <1>   0.0800 
 32 H       -2.0470    -4.0380    -0.6560 H     1 <1>   0.0800 
 33 H       -0.7200    -4.5460    -1.6720 H     1 <1>   0.0800 
 34 H        8.6240    -1.0250     2.7230 H     1 <1>   0.0800 
 35 H        8.3770     0.2150     1.5470 H     1 <1>   0.0800 
 36 H        6.1580    -3.1930     2.0380 H     1 <1>   0.0800 
 37 H        7.8590    -3.1330     2.3860 H     1 <1>   0.0800 
 38 H        6.6320    -3.4690    -0.3780 H     1 <1>   0.0800 
 39 H        7.2910    -4.7580     0.5940 H     1 <1>   0.0800 
 40 H        8.3480    -3.5230    -0.0200 H     1 <1>   0.0800 
 41 H        7.9870     0.1270    -0.6760 H     1 <1>   0.0800 
 42 H        8.1990    -1.0920    -1.8970 H     1 <1>   0.0800 
 43 H       10.6300    -2.3670    -1.8720 H     1 <1>   0.0800 
 44 H       11.7250    -1.8360    -0.6280 H     1 <1>   0.0800 
 45 H        9.7580     1.5030    -1.6510 H     1 <1>   0.0800 
 46 H        8.6260     1.0690    -2.9110 H     1 <1>   0.0800 
 47 H       12.1820    -0.7910    -2.8710 H     1 <1>   0.0800 
 48 H       11.8690     0.3950    -1.6240 H     1 <1>   0.0800 
@<TRIPOS>BOND
  1   1   2  1   
  2   2   3  ar  
  3   2   4  ar  
  4   3   5  1   
  5   3   6  ar  
  6   4   7  ar  
  7   4  26  1   
  8   5   8  1   
  9   6   9  ar  
 10   6  27  1   
 11   7   9  ar  
 12   7  10  1   
 13   8  11  1   
 14   8  28  1   
 15   8  29  1   
 16   9  30  1   
 17  10  12  2   
 18  10  13  2   
 19  10  14  am  
 20  11  31  1   
 21  11  32  1   
 22  11  33  1   
 23  14  15  1   
 24  14  16  1   
 25  15  17  1   
 26  15  34  1   
 27  15  35  1   
 28  16  18  1   
 29  16  36  1   
 30  16  37  1   
 31  17  19  2   
 32  17  20  am  
 33  18  38  1   
 34  18  39  1   
 35  18  40  1   
 36  20  21  1   
 37  20  22  1   
 38  21  23  1   
 39  21  41  1   
 40  21  42  1   
 41  22  24  1   
 42  22  43  1   
 43  22  44  1   
 44  23  25  1   
 45  23  45  1   
 46  23  46  1   
 47  24  25  1   
 48  24  47  1   
 49  24  48  1   
@<TRIPOS>SUBSTRUCTURE
  1 ****  14 GROUP 4 **** **** 0

# MOE 2024.06 (io_trps.svl 2023.06)
