@<TRIPOS>MOLECULE
NONAME
54 55 1 0 0 
SMALL
USER_CHARGES


@<TRIPOS>ATOM
  1 O       -0.9250    -1.7430    -2.9460 O.2   1 <1>  -0.5700 
  2 C       -1.1290    -1.7540    -1.7570 C.2   1 <1>   0.5690 
  3 N       -0.1410    -1.9770    -0.8560 N.am  1 <1>  -0.7300 
  4 C       -2.5430    -1.5040    -1.2460 C.3   1 <1>  -0.0190 
  5 C        1.2770    -2.2390    -1.1670 C.3   1 <1>   0.2200 
  6 C       -2.6240    -0.1970    -0.4320 C.3   1 <1>  -0.1600 
  7 C       -3.0750    -2.6950    -0.4220 C.3   1 <1>  -0.1600 
  8 C        1.8190    -3.4170    -0.3160 C.3   1 <1>  -0.0800 
  9 C        2.0740    -0.9520    -0.8780 C.3   1 <1>  -0.1600 
 10 C       -4.0320     0.0360     0.1210 C.3   1 <1>   0.1400 
 11 C       -4.4720    -2.4160     0.1370 C.3   1 <1>   0.1400 
 12 C        1.3640    -4.8570    -0.7380 C.3   1 <1>   0.0000 
 13 C        1.6720    -3.1160     1.2040 C.3   1 <1>  -0.1600 
 14 C        2.6340    -0.8460     0.5550 C.3   1 <1>  -0.1600 
 15 N       -4.4400    -1.1510     0.9200 N.am  1 <1>  -0.6600 
 16 C        2.0910    -5.9090     0.1210 C.3   1 <1>  -0.2400 
 17 C        1.7480    -5.1280    -2.2040 C.3   1 <1>  -0.2400 
 18 C       -0.1480    -5.1100    -0.6010 C.3   1 <1>  -0.2400 
 19 C        1.7870    -1.6220     1.5700 C.3   1 <1>  -0.1600 
 20 C       -4.7310    -1.1430     2.2610 C.2   1 <1>   0.5690 
 21 O       -5.0290    -2.1460     2.8630 O.2   1 <1>  -0.5700 
 22 C       -4.6840     0.1440     3.0520 C.3   1 <1>  -0.1790 
 23 H       -0.3540    -2.0010     0.1400 H     1 <1>   0.3700 
 24 H       -3.1770    -1.3950    -2.1090 H     1 <1>   0.0800 
 25 H        1.3680    -2.4560    -2.2170 H     1 <1>   0.0800 
 26 H       -2.3480     0.6310    -1.0620 H     1 <1>   0.0800 
 27 H       -1.9310    -0.2280     0.3900 H     1 <1>   0.0800 
 28 H       -2.4180    -2.9040     0.4040 H     1 <1>   0.0800 
 29 H       -3.1120    -3.5730    -1.0420 H     1 <1>   0.0800 
 30 H        2.8790    -3.4080    -0.5020 H     1 <1>   0.0800 
 31 H        1.4560    -0.0980    -1.0970 H     1 <1>   0.0800 
 32 H        2.9050    -0.9120    -1.5590 H     1 <1>   0.0800 
 33 H       -4.7270     0.1660    -0.6910 H     1 <1>   0.0800 
 34 H       -4.0430     0.9330     0.7130 H     1 <1>   0.0800 
 35 H       -4.7860    -3.2420     0.7530 H     1 <1>   0.0800 
 36 H       -5.1800    -2.3150    -0.6680 H     1 <1>   0.0800 
 37 H        2.4470    -3.6480     1.7290 H     1 <1>   0.0800 
 38 H        0.7320    -3.4790     1.5770 H     1 <1>   0.0800 
 39 H        2.6980     0.1890     0.8430 H     1 <1>   0.0800 
 40 H        3.6340    -1.2470     0.5720 H     1 <1>   0.0800 
 41 H        3.1560    -5.7650     0.0760 H     1 <1>   0.0800 
 42 H        1.8730    -6.9030    -0.2290 H     1 <1>   0.0800 
 43 H        1.7810    -5.8520     1.1490 H     1 <1>   0.0800 
 44 H        2.7950    -4.9430    -2.3660 H     1 <1>   0.0800 
 45 H        1.1820    -4.5070    -2.8760 H     1 <1>   0.0800 
 46 H        1.5440    -6.1510    -2.4660 H     1 <1>   0.0800 
 47 H       -0.4960    -4.9010     0.3920 H     1 <1>   0.0800 
 48 H       -0.3760    -6.1370    -0.8210 H     1 <1>   0.0800 
 49 H       -0.7000    -4.5060    -1.2960 H     1 <1>   0.0800 
 50 H        2.2160    -1.5250     2.5530 H     1 <1>   0.0800 
 51 H        0.8060    -1.1810     1.6070 H     1 <1>   0.0800 
 52 H       -3.6940     0.5560     3.0190 H     1 <1>   0.0800 
 53 H       -4.9420    -0.0520     4.0760 H     1 <1>   0.0800 
 54 H       -5.3890     0.8460     2.6480 H     1 <1>   0.0800 
@<TRIPOS>BOND
  1   1   2  2   
  2   2   3  am  
  3   2   4  1   
  4   3   5  1   
  5   3  23  1   
  6   4   6  1   
  7   4   7  1   
  8   4  24  1   
  9   5   8  1   
 10   5   9  1   
 11   5  25  1   
 12   6  10  1   
 13   6  26  1   
 14   6  27  1   
 15   7  11  1   
 16   7  28  1   
 17   7  29  1   
 18   8  12  1   
 19   8  13  1   
 20   8  30  1   
 21   9  14  1   
 22   9  31  1   
 23   9  32  1   
 24  10  15  1   
 25  10  33  1   
 26  10  34  1   
 27  11  15  1   
 28  11  35  1   
 29  11  36  1   
 30  12  16  1   
 31  12  17  1   
 32  12  18  1   
 33  13  19  1   
 34  13  37  1   
 35  13  38  1   
 36  14  19  1   
 37  14  39  1   
 38  14  40  1   
 39  15  20  am  
 40  16  41  1   
 41  16  42  1   
 42  16  43  1   
 43  17  44  1   
 44  17  45  1   
 45  17  46  1   
 46  18  47  1   
 47  18  48  1   
 48  18  49  1   
 49  19  50  1   
 50  19  51  1   
 51  20  21  2   
 52  20  22  1   
 53  22  52  1   
 54  22  53  1   
 55  22  54  1   
@<TRIPOS>SUBSTRUCTURE
  1 ****   3 GROUP 4 **** **** 0

# MOE 2024.06 (io_trps.svl 2023.06)
