@<TRIPOS>MOLECULE
NONAME
53 56 1 0 0 
SMALL
USER_CHARGES


@<TRIPOS>ATOM
  1 O       -0.5080     1.6030     1.0580 O.2   1 <1>  -0.5700 
  2 C       -0.2400     2.3920     0.1710 C.2   1 <1>   0.6900 
  3 N       -1.0010     3.5150     0.0440 N.am  1 <1>  -0.6600 
  4 N        0.7370     2.1690    -0.7440 N.am  1 <1>  -0.5470 
  5 C       -2.1700     3.4000    -0.8690 C.3   1 <1>   0.1400 
  6 C       -1.3280     4.2570     1.2960 C.3   1 <1>   0.1400 
  7 C        1.4790     1.0020    -0.9650 C.ar  1 <1>   0.1170 
  8 C       -3.3310     2.6900    -0.1430 C.3   1 <1>   0.3430 
  9 C       -2.5010     3.5820     2.0400 C.3   1 <1>   0.3430 
 10 C        2.3630     0.4590    -0.0240 C.ar  1 <1>  -0.1440 
 11 C        1.3200     0.3720    -2.1920 C.ar  1 <1>  -0.1500 
 12 N       -3.7020     3.3720     1.1530 N.4   1 <1>  -0.9590 
 13 C        3.0380    -0.7250    -0.3180 C.ar  1 <1>  -0.1430 
 14 C        2.5940     1.1580     1.3170 C.3   1 <1>  -0.0970 
 15 C        2.0020    -0.7900    -2.4860 C.ar  1 <1>  -0.1500 
 16 C       -4.7530     2.6020     1.8700 C.3   1 <1>   0.4860 
 17 C        2.8540    -1.3380    -1.5480 C.ar  1 <1>  -0.1500 
 18 C        3.9840    -1.3890     0.6740 C.3   1 <1>  -0.0970 
 19 C       -5.9940     2.5570     1.0010 C.ar  1 <1>  -0.1430 
 20 C       -6.7650     3.7050     0.8310 C.ar  1 <1>  -0.1500 
 21 C       -6.3580     1.3700     0.3620 C.ar  1 <1>  -0.1500 
 22 C       -7.8710     3.6290     0.0100 C.ar  1 <1>   0.0820 
 23 C       -7.4790     1.3160    -0.4570 C.ar  1 <1>  -0.1500 
 24 O       -8.7350     4.5990    -0.3000 O.3   1 <1>  -0.3620 
 25 C       -8.2190     2.4700    -0.6180 C.ar  1 <1>   0.0820 
 26 C       -9.7100     4.0170    -1.1660 C.3   1 <1>   0.4000 
 27 O       -9.3200     2.6560    -1.3510 O.3   1 <1>  -0.3620 
 28 H        0.8680     2.9170    -1.4190 H     1 <1>   0.3700 
 29 H       -1.8950     2.8280    -1.7400 H     1 <1>   0.0800 
 30 H       -2.4750     4.3780    -1.1980 H     1 <1>   0.0800 
 31 H       -1.5740     5.2780     1.0590 H     1 <1>   0.0800 
 32 H       -0.4630     4.2680     1.9380 H     1 <1>   0.0800 
 33 H       -3.0270     1.6760     0.0600 H     1 <1>   0.0800 
 34 H       -4.1870     2.6540    -0.7980 H     1 <1>   0.0800 
 35 H       -2.7710     4.1820     2.8930 H     1 <1>   0.0800 
 36 H       -2.1540     2.6280     2.4060 H     1 <1>   0.0800 
 37 H        0.6530     0.7890    -2.9230 H     1 <1>   0.1500 
 38 H       -4.1080     4.2850     0.9140 H     1 <1>   0.4500 
 39 H        3.6090     1.0460     1.6470 H     1 <1>   0.0800 
 40 H        2.4050     2.2130     1.2460 H     1 <1>   0.0800 
 41 H        1.9370     0.7390     2.0580 H     1 <1>   0.0800 
 42 H        1.8690    -1.2720    -3.4390 H     1 <1>   0.1500 
 43 H       -4.9920     3.0780     2.8080 H     1 <1>   0.0800 
 44 H       -4.4070     1.6010     2.0730 H     1 <1>   0.0800 
 45 H        3.3760    -2.2490    -1.7850 H     1 <1>   0.1500 
 46 H        3.5140    -1.4700     1.6380 H     1 <1>   0.0800 
 47 H        4.8850    -0.8100     0.7670 H     1 <1>   0.0800 
 48 H        4.2490    -2.3790     0.3520 H     1 <1>   0.0800 
 49 H       -6.5390     4.6400     1.3130 H     1 <1>   0.1500 
 50 H       -5.7780     0.4710     0.4960 H     1 <1>   0.1500 
 51 H       -7.7780     0.4110    -0.9570 H     1 <1>   0.1500 
 52 H       -9.7050     4.5260    -2.1130 H     1 <1>   0.0800 
 53 H      -10.6780     4.0540    -0.6980 H     1 <1>   0.0800 
@<TRIPOS>BOND
  1   1   2  2   
  2   2   3  am  
  3   2   4  am  
  4   3   5  1   
  5   3   6  1   
  6   4   7  1   
  7   4  28  1   
  8   5   8  1   
  9   5  29  1   
 10   5  30  1   
 11   6   9  1   
 12   6  31  1   
 13   6  32  1   
 14   7  10  ar  
 15   7  11  ar  
 16   8  12  1   
 17   8  33  1   
 18   8  34  1   
 19   9  12  1   
 20   9  35  1   
 21   9  36  1   
 22  10  13  ar  
 23  10  14  1   
 24  11  15  ar  
 25  11  37  1   
 26  12  16  1   
 27  12  38  1   
 28  13  17  ar  
 29  13  18  1   
 30  14  39  1   
 31  14  40  1   
 32  14  41  1   
 33  15  17  ar  
 34  15  42  1   
 35  16  19  1   
 36  16  43  1   
 37  16  44  1   
 38  17  45  1   
 39  18  46  1   
 40  18  47  1   
 41  18  48  1   
 42  19  20  ar  
 43  19  21  ar  
 44  20  22  ar  
 45  20  49  1   
 46  21  23  ar  
 47  21  50  1   
 48  22  24  1   
 49  22  25  ar  
 50  23  25  ar  
 51  23  51  1   
 52  24  26  1   
 53  25  27  1   
 54  26  27  1   
 55  26  52  1   
 56  26  53  1   
@<TRIPOS>SUBSTRUCTURE
  1 ****   8 GROUP 4 **** **** 0

# MOE 2024.06 (io_trps.svl 2023.06)
