@<TRIPOS>MOLECULE
NONAME
33 33 1 0 0 
SMALL
USER_CHARGES


@<TRIPOS>ATOM
  1 S        0.0890     0.6660    -0.1640 S.o2  1 <1>   1.3330 
  2 O        0.6990     0.2990    -1.4210 O.2   1 <1>  -0.6500 
  3 O       -0.7750     1.8140    -0.0670 O.2   1 <1>  -0.6500 
  4 N        1.3570     1.0380     0.9260 N.am  1 <1>  -0.7570 
  5 C       -0.7110    -0.7430     0.6100 C.3   1 <1>  -0.0550 
  6 C        2.7190     0.8010     0.7200 C.ar  1 <1>   0.1990 
  7 C       -1.8870    -1.3060    -0.2040 C.3   1 <1>  -0.1600 
  8 C        3.2620    -0.4450     0.3620 C.ar  1 <1>   0.0820 
  9 C        3.5890     1.8690     0.8960 C.ar  1 <1>  -0.1500 
 10 C       -2.5200    -2.5140     0.4970 C.3   1 <1>  -0.1600 
 11 O        2.4590    -1.5280     0.1980 O.3   1 <1>  -0.3620 
 12 C        4.6340    -0.5930     0.2090 C.ar  1 <1>  -0.1500 
 13 C        4.9550     1.7210     0.7270 C.ar  1 <1>  -0.1500 
 14 C       -3.6900    -3.0690    -0.3190 C.3   1 <1>  -0.2400 
 15 C        2.3860    -2.0590    -1.1090 C.3   1 <1>   0.8800 
 16 C        5.4790     0.4880     0.3850 C.ar  1 <1>  -0.1500 
 17 F        1.2750    -2.7820    -1.1830 F     1 <1>  -0.3400 
 18 F        3.3810    -2.9230    -1.2740 F     1 <1>  -0.3400 
 19 H        1.1190     1.9120     1.3850 H     1 <1>   0.4200 
 20 H       -1.0700    -0.4490     1.5770 H     1 <1>   0.0800 
 21 H        0.0060    -1.5240     0.7600 H     1 <1>   0.0800 
 22 H       -1.5320    -1.6010    -1.1780 H     1 <1>   0.0800 
 23 H       -2.6270    -0.5350    -0.3390 H     1 <1>   0.0800 
 24 H        3.1980     2.8330     1.1640 H     1 <1>   0.1500 
 25 H       -2.8740    -2.2260     1.4720 H     1 <1>   0.0800 
 26 H       -1.7800    -3.2870     0.6240 H     1 <1>   0.0800 
 27 H        5.0550    -1.5520    -0.0370 H     1 <1>   0.1500 
 28 H        5.6100     2.5640     0.8650 H     1 <1>   0.1500 
 29 H       -4.4520    -2.3210    -0.4430 H     1 <1>   0.0800 
 30 H       -4.1210    -3.9160     0.1850 H     1 <1>   0.0800 
 31 H       -3.3530    -3.3860    -1.2910 H     1 <1>   0.0800 
 32 H        2.4000    -1.3100    -1.8820 H     1 <1>   0.0800 
 33 H        6.5420     0.3690     0.2600 H     1 <1>   0.1500 
@<TRIPOS>BOND
  1   1   2  2   
  2   1   3  2   
  3   1   4  am  
  4   1   5  1   
  5   4   6  1   
  6   4  19  1   
  7   5   7  1   
  8   5  20  1   
  9   5  21  1   
 10   6   8  ar  
 11   6   9  ar  
 12   7  10  1   
 13   7  22  1   
 14   7  23  1   
 15   8  11  1   
 16   8  12  ar  
 17   9  13  ar  
 18   9  24  1   
 19  10  14  1   
 20  10  25  1   
 21  10  26  1   
 22  11  15  1   
 23  12  16  ar  
 24  12  27  1   
 25  13  16  ar  
 26  13  28  1   
 27  14  29  1   
 28  14  30  1   
 29  14  31  1   
 30  15  17  1   
 31  15  18  1   
 32  15  32  1   
 33  16  33  1   
@<TRIPOS>SUBSTRUCTURE
  1 ****  11 GROUP 4 **** **** 0

# MOE 2024.06 (io_trps.svl 2023.06)
