@<TRIPOS>MOLECULE
NONAME
47 49 1 0 0 
SMALL
USER_CHARGES


@<TRIPOS>ATOM
  1 O       -0.1800     1.2270     0.2270 O.3   1 <1>  -0.3630 
  2 C       -1.4600     1.6530     0.3880 C.ar  1 <1>   0.0830 
  3 C        0.4450     0.3700     1.1560 C.3   1 <1>   0.0400 
  4 C       -1.9570     2.5650    -0.5380 C.ar  1 <1>  -0.1440 
  5 C       -2.2750     1.2190     1.4290 C.ar  1 <1>  -0.1500 
  6 C       -3.2580     3.0260    -0.4190 C.ar  1 <1>  -0.1500 
  7 C       -1.0750     3.0630    -1.6760 C.3   1 <1>  -0.0960 
  8 C       -3.5730     1.6830     1.5400 C.ar  1 <1>  -0.1500 
  9 C       -4.0740     2.5820     0.6100 C.ar  1 <1>  -0.1440 
 10 C       -5.5060     3.0700     0.7080 C.3   1 <1>   0.4860 
 11 N       -6.3060     2.4110    -0.3700 N.4   1 <1>  -0.9590 
 12 C       -7.6910     2.9700    -0.5450 C.3   1 <1>   0.5660 
 13 C       -6.2450     0.9170    -0.2230 C.3   1 <1>   0.3430 
 14 C       -7.7220     4.4660    -0.2530 C.ar  1 <1>  -0.1430 
 15 C       -8.7100     2.1350     0.2420 C.3   1 <1>  -0.1600 
 16 C       -7.4360     0.2410    -0.9050 C.3   1 <1>  -0.1600 
 17 C       -8.0770     4.9760     0.9910 C.ar  1 <1>   0.1600 
 18 C       -7.3680     5.3560    -1.2520 C.ar  1 <1>  -0.1500 
 19 C       -8.7730     0.6910    -0.2890 C.3   1 <1>  -0.1600 
 20 N       -8.0770     6.2550     1.3090 N.ar  1 <1>  -0.6200 
 21 C       -7.3800     6.6970    -0.9360 C.ar  1 <1>  -0.1500 
 22 C       -7.7350     7.0900     0.3420 C.ar  1 <1>   0.1600 
 23 H        1.4560     0.2050     0.8280 H     1 <1>   0.0800 
 24 H       -0.0860    -0.5650     1.1830 H     1 <1>   0.0800 
 25 H        0.4480     0.8430     2.1220 H     1 <1>   0.0800 
 26 H       -1.9130     0.5230     2.1620 H     1 <1>   0.1500 
 27 H       -3.6240     3.7410    -1.1360 H     1 <1>   0.1500 
 28 H       -0.7560     2.2320    -2.2800 H     1 <1>   0.0800 
 29 H       -0.2020     3.5450    -1.2720 H     1 <1>   0.0800 
 30 H       -1.5940     3.7650    -2.3020 H     1 <1>   0.0800 
 31 H       -4.1800     1.3340     2.3590 H     1 <1>   0.1500 
 32 H       -5.5120     4.1420     0.5900 H     1 <1>   0.0800 
 33 H       -5.9140     2.8320     1.6770 H     1 <1>   0.0800 
 34 H       -5.8010     2.6350    -1.2340 H     1 <1>   0.4500 
 35 H       -7.9590     2.8570    -1.5830 H     1 <1>   0.0800 
 36 H       -6.2650     0.6580     0.8230 H     1 <1>   0.0800 
 37 H       -5.3200     0.5450    -0.6360 H     1 <1>   0.0800 
 38 H       -9.6860     2.5830     0.1600 H     1 <1>   0.0800 
 39 H       -8.4430     2.1220     1.2840 H     1 <1>   0.0800 
 40 H       -7.3430    -0.8280    -0.8070 H     1 <1>   0.0800 
 41 H       -7.4140     0.4640    -1.9580 H     1 <1>   0.0800 
 42 H       -8.3720     4.3110     1.7840 H     1 <1>   0.1500 
 43 H       -7.0940     5.0370    -2.2440 H     1 <1>   0.1500 
 44 H       -9.5460     0.6070    -1.0370 H     1 <1>   0.0800 
 45 H       -9.0440     0.0340     0.5210 H     1 <1>   0.0800 
 46 H       -7.1190     7.4400    -1.6700 H     1 <1>   0.1500 
 47 H       -7.7400     8.1420     0.5810 H     1 <1>   0.1500 
@<TRIPOS>BOND
  1   1   2  1   
  2   1   3  1   
  3   2   4  ar  
  4   2   5  ar  
  5   3  23  1   
  6   3  24  1   
  7   3  25  1   
  8   4   6  ar  
  9   4   7  1   
 10   5   8  ar  
 11   5  26  1   
 12   6   9  ar  
 13   6  27  1   
 14   7  28  1   
 15   7  29  1   
 16   7  30  1   
 17   8   9  ar  
 18   8  31  1   
 19   9  10  1   
 20  10  11  1   
 21  10  32  1   
 22  10  33  1   
 23  11  12  1   
 24  11  13  1   
 25  11  34  1   
 26  12  14  1   
 27  12  15  1   
 28  12  35  1   
 29  13  16  1   
 30  13  36  1   
 31  13  37  1   
 32  14  17  ar  
 33  14  18  ar  
 34  15  19  1   
 35  15  38  1   
 36  15  39  1   
 37  16  19  1   
 38  16  40  1   
 39  16  41  1   
 40  17  20  ar  
 41  17  42  1   
 42  18  21  ar  
 43  18  43  1   
 44  19  44  1   
 45  19  45  1   
 46  20  22  ar  
 47  21  22  ar  
 48  21  46  1   
 49  22  47  1   
@<TRIPOS>SUBSTRUCTURE
  1 ****  10 GROUP 4 **** **** 0

# MOE 2024.06 (io_trps.svl 2023.06)
