@<TRIPOS>MOLECULE
NONAME
40 42 1 0 0 
SMALL
USER_CHARGES


@<TRIPOS>ATOM
  1 CL      -0.5770    -0.7520     1.0550 Cl    1 <1>  -0.1770 
  2 C        1.0240    -1.3780     0.7420 C.ar  1 <1>   0.1770 
  3 C        1.6490    -2.1510     1.7040 C.ar  1 <1>  -0.1500 
  4 C        1.6420    -1.0920    -0.4610 C.ar  1 <1>  -0.1500 
  5 C        2.9170    -2.6460     1.4530 C.ar  1 <1>  -0.1500 
  6 C        2.9100    -1.5910    -0.7020 C.ar  1 <1>  -0.1500 
  7 C        3.5590    -2.3710     0.2480 C.ar  1 <1>   0.1000 
  8 N        4.8320    -2.8590    -0.0230 N.pl3 1 <1>  -0.8380 
  9 C        4.9390    -4.3270    -0.2650 C.3   1 <1>   0.2090 
 10 C        5.9490    -2.2840     0.7820 C.3   1 <1>   0.2090 
 11 C        6.3080    -4.6780    -0.8880 C.3   1 <1>   0.3430 
 12 C        7.3130    -2.6440     0.1560 C.3   1 <1>   0.3430 
 13 N        7.4640    -4.1280    -0.0920 N.4   1 <1>  -0.9590 
 14 C        8.7760    -4.4400    -0.7150 C.3   1 <1>   0.5230 
 15 C        9.8620    -4.0450     0.2610 C.2   1 <1>  -0.1400 
 16 S        9.8530    -4.8810     1.8090 S.3   1 <1>  -0.0800 
 17 C       10.8710    -3.1530     0.2080 C.2   1 <1>  -0.1810 
 18 C       11.2500    -3.9760     2.3550 C.2   1 <1>  -0.1100 
 19 C       11.6590    -3.1180     1.4040 C.2   1 <1>  -0.1500 
 20 C       11.2350    -2.2340    -0.9450 C.3   1 <1>  -0.0590 
 21 H        1.1440    -2.3580     2.6300 H     1 <1>   0.1500 
 22 H        1.1350    -0.4880    -1.1910 H     1 <1>   0.1500 
 23 H        3.4090    -3.2470     2.1950 H     1 <1>   0.1500 
 24 H        3.4060    -1.3780    -1.6310 H     1 <1>   0.1500 
 25 H        4.1520    -4.6330    -0.9330 H     1 <1>   0.0800 
 26 H        4.8110    -4.8570     0.6630 H     1 <1>   0.0800 
 27 H        5.9000    -2.6550     1.7910 H     1 <1>   0.0800 
 28 H        5.8450    -1.2120     0.8190 H     1 <1>   0.0800 
 29 H        6.3300    -4.2690    -1.8850 H     1 <1>   0.0800 
 30 H        6.3910    -5.7500    -0.9670 H     1 <1>   0.0800 
 31 H        8.0990    -2.2980     0.8080 H     1 <1>   0.0800 
 32 H        7.4010    -2.1120    -0.7760 H     1 <1>   0.0800 
 33 H        7.4780    -4.5820     0.8300 H     1 <1>   0.4500 
 34 H        8.8930    -3.8980    -1.6380 H     1 <1>   0.0800 
 35 H        8.8520    -5.4960    -0.9200 H     1 <1>   0.0800 
 36 H       11.6270    -4.1860     3.3420 H     1 <1>   0.1500 
 37 H       12.5000    -2.4510     1.4980 H     1 <1>   0.1500 
 38 H       10.5690    -2.3630    -1.7780 H     1 <1>   0.0800 
 39 H       12.2380    -2.4450    -1.2750 H     1 <1>   0.0800 
 40 H       11.1930    -1.2080    -0.6250 H     1 <1>   0.0800 
@<TRIPOS>BOND
  1   1   2  1   
  2   2   3  ar  
  3   2   4  ar  
  4   3   5  ar  
  5   3  21  1   
  6   4   6  ar  
  7   4  22  1   
  8   5   7  ar  
  9   5  23  1   
 10   6   7  ar  
 11   6  24  1   
 12   7   8  1   
 13   8   9  1   
 14   8  10  1   
 15   9  11  1   
 16   9  25  1   
 17   9  26  1   
 18  10  12  1   
 19  10  27  1   
 20  10  28  1   
 21  11  13  1   
 22  11  29  1   
 23  11  30  1   
 24  12  13  1   
 25  12  31  1   
 26  12  32  1   
 27  13  14  1   
 28  13  33  1   
 29  14  15  1   
 30  14  34  1   
 31  14  35  1   
 32  15  16  1   
 33  15  17  2   
 34  16  18  1   
 35  17  19  1   
 36  17  20  1   
 37  18  19  2   
 38  18  36  1   
 39  19  37  1   
 40  20  38  1   
 41  20  39  1   
 42  20  40  1   
@<TRIPOS>SUBSTRUCTURE
  1 ****  10 GROUP 4 **** **** 0

# MOE 2024.06 (io_trps.svl 2023.06)
