@<TRIPOS>MOLECULE
NONAME
55 57 1 0 0 
SMALL
USER_CHARGES


@<TRIPOS>ATOM
  1 O        0.4430     1.8600    -1.5830 O.2   1 <1>  -0.5700 
  2 C        0.8070     1.9070    -0.4250 C.2   1 <1>   0.5440 
  3 N       -0.1210     2.0400     0.5740 N.am  1 <1>  -0.7300 
  4 C        2.2210     1.8160    -0.1060 C.ar  1 <1>   0.0860 
  5 C       -1.5940     2.1430     0.4280 C.3   1 <1>   0.2200 
  6 C        3.0760     1.0390    -0.8860 C.ar  1 <1>  -0.1500 
  7 C        2.7850     2.4950     0.9740 C.ar  1 <1>  -0.1500 
  8 C       -2.1350     0.8560    -0.2150 C.3   1 <1>  -0.1600 
  9 C       -1.9550     3.4330    -0.3390 C.3   1 <1>  -0.1600 
 10 C        4.4270     0.9420    -0.6070 C.ar  1 <1>  -0.1500 
 11 C        4.1350     2.4050     1.2610 C.ar  1 <1>  -0.1500 
 12 C       -3.5680     0.4840     0.2010 C.3   1 <1>  -0.1600 
 13 C       -2.8940     4.3680     0.4380 C.3   1 <1>  -0.1600 
 14 C        4.9690     1.6310     0.4670 C.ar  1 <1>  -0.1430 
 15 C       -4.6440     1.5120    -0.1820 C.3   1 <1>  -0.1600 
 16 C       -4.3890     4.0390     0.2980 C.3   1 <1>  -0.1600 
 17 C        6.4570     1.5460     0.7550 C.3   1 <1>   0.4860 
 18 C       -4.8130     2.6620     0.8320 C.3   1 <1>  -0.1600 
 19 N        7.1000     2.8230     0.3470 N.4   1 <1>  -0.9590 
 20 C        6.8790     3.1820    -1.0970 C.3   1 <1>   0.3430 
 21 C        8.5570     2.9040     0.7020 C.3   1 <1>   0.3430 
 22 C        7.5210     4.5470    -1.4370 C.3   1 <1>   0.1200 
 23 C        9.1960     4.2160     0.1870 C.3   1 <1>   0.1200 
 24 O        8.2220     5.0750    -0.3410 O.3   1 <1>  -0.5600 
 25 H        0.1910     1.9550     1.5390 H     1 <1>   0.3700 
 26 H       -1.9950     2.2040     1.4240 H     1 <1>   0.0800 
 27 H        2.6610     0.5060    -1.7260 H     1 <1>   0.1500 
 28 H        2.1550     3.1120     1.5920 H     1 <1>   0.1500 
 29 H       -1.5030     0.0350     0.0740 H     1 <1>   0.0800 
 30 H       -2.0790     0.9340    -1.2870 H     1 <1>   0.0800 
 31 H       -2.3850     3.2000    -1.2960 H     1 <1>   0.0800 
 32 H       -1.0530     3.9830    -0.5420 H     1 <1>   0.0800 
 33 H        5.0420     0.3230    -1.2390 H     1 <1>   0.1500 
 34 H        4.5230     2.9450     2.1090 H     1 <1>   0.1500 
 35 H       -3.6050     0.2870     1.2580 H     1 <1>   0.0800 
 36 H       -3.8100    -0.4410    -0.2940 H     1 <1>   0.0800 
 37 H       -2.7510     5.3650     0.0560 H     1 <1>   0.0800 
 38 H       -2.6160     4.3910     1.4770 H     1 <1>   0.0800 
 39 H       -5.5820     0.9860    -0.2250 H     1 <1>   0.0800 
 40 H       -4.4620     1.8860    -1.1750 H     1 <1>   0.0800 
 41 H       -4.6900     4.1440    -0.7300 H     1 <1>   0.0800 
 42 H       -4.9300     4.7860     0.8540 H     1 <1>   0.0800 
 43 H        6.8870     0.7210     0.2110 H     1 <1>   0.0800 
 44 H        6.6070     1.3740     1.8090 H     1 <1>   0.0800 
 45 H       -4.3120     2.4490     1.7600 H     1 <1>   0.0800 
 46 H       -5.8620     2.7260     1.0640 H     1 <1>   0.0800 
 47 H        6.6460     3.5890     0.8640 H     1 <1>   0.4500 
 48 H        5.8230     3.2310    -1.3120 H     1 <1>   0.0800 
 49 H        7.3050     2.4250    -1.7350 H     1 <1>   0.0800 
 50 H        9.0910     2.0690     0.2780 H     1 <1>   0.0800 
 51 H        8.6770     2.8560     1.7720 H     1 <1>   0.0800 
 52 H        6.7580     5.2560    -1.7070 H     1 <1>   0.0800 
 53 H        8.1990     4.4530    -2.2680 H     1 <1>   0.0800 
 54 H        9.9270     4.0120    -0.5770 H     1 <1>   0.0800 
 55 H        9.6890     4.7310     0.9940 H     1 <1>   0.0800 
@<TRIPOS>BOND
  1   1   2  2   
  2   2   3  am  
  3   2   4  1   
  4   3   5  1   
  5   3  25  1   
  6   4   6  ar  
  7   4   7  ar  
  8   5   8  1   
  9   5   9  1   
 10   5  26  1   
 11   6  10  ar  
 12   6  27  1   
 13   7  11  ar  
 14   7  28  1   
 15   8  12  1   
 16   8  29  1   
 17   8  30  1   
 18   9  13  1   
 19   9  31  1   
 20   9  32  1   
 21  10  14  ar  
 22  10  33  1   
 23  11  14  ar  
 24  11  34  1   
 25  12  15  1   
 26  12  35  1   
 27  12  36  1   
 28  13  16  1   
 29  13  37  1   
 30  13  38  1   
 31  14  17  1   
 32  15  18  1   
 33  15  39  1   
 34  15  40  1   
 35  16  18  1   
 36  16  41  1   
 37  16  42  1   
 38  17  19  1   
 39  17  43  1   
 40  17  44  1   
 41  18  45  1   
 42  18  46  1   
 43  19  20  1   
 44  19  21  1   
 45  19  47  1   
 46  20  22  1   
 47  20  48  1   
 48  20  49  1   
 49  21  23  1   
 50  21  50  1   
 51  21  51  1   
 52  22  24  1   
 53  22  52  1   
 54  22  53  1   
 55  23  24  1   
 56  23  54  1   
 57  23  55  1   
@<TRIPOS>SUBSTRUCTURE
  1 ****   4 GROUP 4 **** **** 0

# MOE 2024.06 (io_trps.svl 2023.06)
