@<TRIPOS>MOLECULE
NONAME
45 47 1 0 0 
SMALL
USER_CHARGES


@<TRIPOS>ATOM
  1 S       -0.3610     0.2670    -0.0410 S.3   1 <1>  -0.0800 
  2 C       -0.8690     1.7530    -0.8570 C.2   1 <1>  -0.0450 
  3 C        1.3210     0.7430    -0.0420 C.2   1 <1>  -0.1400 
  4 C       -2.2490     1.9980    -1.1810 C.2   1 <1>   0.5940 
  5 C        0.2380     2.5090    -1.0830 C.2   1 <1>  -0.1500 
  6 C        1.4640     1.9460    -0.6270 C.2   1 <1>  -0.1500 
  7 C        2.3160    -0.2120     0.5820 C.3   1 <1>  -0.0600 
  8 O       -2.5820     2.9660    -1.8180 O.2   1 <1>  -0.5700 
  9 C       -3.3510     1.0340    -0.7940 C.3   1 <1>  -0.0990 
 10 C       -3.9970     1.3580     0.5570 C.3   1 <1>   0.4840 
 11 O       -3.0150     1.5460     1.5260 O.3   1 <1>  -0.6800 
 12 C       -5.0200     0.2680     0.9530 C.2   1 <1>   0.5690 
 13 C       -4.9040     2.5850     0.5830 C.ar  1 <1>  -0.1440 
 14 O       -4.7740    -0.9110     1.0760 O.2   1 <1>  -0.5700 
 15 N       -6.2540     0.8250     1.1250 N.am  1 <1>  -0.4770 
 16 C       -6.1920     2.1990     0.9100 C.ar  1 <1>   0.1170 
 17 C       -4.6070     3.9190     0.3610 C.ar  1 <1>  -0.1500 
 18 C       -7.4940     0.0280     1.3660 C.3   1 <1>   0.2010 
 19 C       -7.2070     3.1420     1.0010 C.ar  1 <1>  -0.1500 
 20 C       -5.6190     4.8610     0.4510 C.ar  1 <1>  -0.1500 
 21 C       -8.3220    -0.1830     0.1040 C.2   1 <1>   0.6590 
 22 C       -6.9140     4.4740     0.7670 C.ar  1 <1>  -0.1500 
 23 O       -8.3320    -1.2350    -0.4810 O.2   1 <1>  -0.5700 
 24 O       -9.0450     0.8580    -0.3000 O.3   1 <1>  -0.4300 
 25 C       -9.8670     0.8220    -1.4460 C.3   1 <1>   0.1200 
 26 C      -11.2400     0.2840    -1.0490 C.3   1 <1>  -0.2400 
 27 H        0.2180     3.4680    -1.5710 H     1 <1>   0.1500 
 28 H        2.3960     2.4680    -0.7570 H     1 <1>   0.1500 
 29 H        2.0690    -0.3730     1.6160 H     1 <1>   0.0800 
 30 H        3.3100     0.1930     0.5200 H     1 <1>   0.0800 
 31 H        2.2910    -1.1550     0.0660 H     1 <1>   0.0800 
 32 H       -2.9780     0.0280    -0.7770 H     1 <1>   0.0800 
 33 H       -4.1120     1.0650    -1.5510 H     1 <1>   0.0800 
 34 H       -3.4450     1.8100     2.3610 H     1 <1>   0.4000 
 35 H       -3.6040     4.2310     0.1220 H     1 <1>   0.1500 
 36 H       -8.0980     0.5260     2.1010 H     1 <1>   0.0800 
 37 H       -7.2240    -0.9370     1.7550 H     1 <1>   0.0800 
 38 H       -8.2090     2.8460     1.2500 H     1 <1>   0.1500 
 39 H       -5.3970     5.9000     0.2720 H     1 <1>   0.1500 
 40 H       -7.6920     5.2160     0.8310 H     1 <1>   0.1500 
 41 H       -9.4030     0.2050    -2.1980 H     1 <1>   0.0800 
 42 H       -9.9500     1.8280    -1.8200 H     1 <1>   0.0800 
 43 H      -11.1560    -0.7270    -0.6910 H     1 <1>   0.0800 
 44 H      -11.8890     0.2850    -1.9070 H     1 <1>   0.0800 
 45 H      -11.6800     0.9040    -0.2890 H     1 <1>   0.0800 
@<TRIPOS>BOND
  1   1   2  1   
  2   1   3  1   
  3   2   4  1   
  4   2   5  2   
  5   3   6  2   
  6   3   7  1   
  7   4   8  2   
  8   4   9  1   
  9   5   6  1   
 10   5  27  1   
 11   6  28  1   
 12   7  29  1   
 13   7  30  1   
 14   7  31  1   
 15   9  10  1   
 16   9  32  1   
 17   9  33  1   
 18  10  11  1   
 19  10  12  1   
 20  10  13  1   
 21  11  34  1   
 22  12  14  2   
 23  12  15  am  
 24  13  16  ar  
 25  13  17  ar  
 26  15  16  1   
 27  15  18  1   
 28  16  19  ar  
 29  17  20  ar  
 30  17  35  1   
 31  18  21  1   
 32  18  36  1   
 33  18  37  1   
 34  19  22  ar  
 35  19  38  1   
 36  20  22  ar  
 37  20  39  1   
 38  21  23  2   
 39  21  24  1   
 40  22  40  1   
 41  24  25  1   
 42  25  26  1   
 43  25  41  1   
 44  25  42  1   
 45  26  43  1   
 46  26  44  1   
 47  26  45  1   
@<TRIPOS>SUBSTRUCTURE
  1 ****  10 GROUP 4 **** **** 0

# MOE 2024.06 (io_trps.svl 2023.06)
