@<TRIPOS>MOLECULE
NONAME
55 57 1 0 0 
SMALL
USER_CHARGES


@<TRIPOS>ATOM
  1 O       -0.4030    -0.4790    -1.4020 O.2   1 <1>  -0.5700 
  2 C       -0.0400    -1.6060    -1.1600 C.2   1 <1>   0.5690 
  3 N        1.2270    -1.9800    -0.8020 N.am  1 <1>  -0.2370 
  4 C       -0.9630    -2.8280    -1.3050 C.3   1 <1>   0.2510 
  5 C        2.2940    -1.0990    -0.4970 C.ar  1 <1>   0.1170 
  6 C        1.3170    -3.3450    -0.8170 C.2   1 <1>   0.5690 
  7 N       -1.9900    -3.0190    -0.2370 N.3   1 <1>  -0.8100 
  8 C        0.0310    -3.9960    -1.2530 C.3   1 <1>  -0.0990 
  9 C        3.0730    -1.2950     0.6390 C.ar  1 <1>  -0.1500 
 10 C        2.5940    -0.0210    -1.3240 C.ar  1 <1>  -0.1500 
 11 O        2.2860    -4.0020    -0.5410 O.2   1 <1>  -0.5700 
 12 C       -2.9810    -4.0550    -0.6330 C.3   1 <1>   0.1100 
 13 C       -2.6980    -1.7560     0.1040 C.3   1 <1>   0.1100 
 14 C        4.1200    -0.4440     0.9450 C.ar  1 <1>  -0.1500 
 15 C        3.6390     0.8330    -1.0230 C.ar  1 <1>  -0.1500 
 16 C       -4.0230    -4.3110     0.4680 C.3   1 <1>   0.1400 
 17 C       -3.7570    -1.9530     1.2020 C.3   1 <1>   0.1400 
 18 C        4.4100     0.6300     0.1090 C.ar  1 <1>   0.0830 
 19 N       -4.7040    -3.0390     0.8260 N.am  1 <1>  -0.6600 
 20 O        5.4190     1.5130     0.3300 O.3   1 <1>  -0.3630 
 21 C       -6.0490    -2.8550     0.6510 C.2   1 <1>   0.7800 
 22 C        6.2750     1.3750     1.4430 C.3   1 <1>   0.0400 
 23 O       -6.7720    -3.7440     0.2440 O.2   1 <1>  -0.5700 
 24 O       -6.5390    -1.6460     0.9360 O.3   1 <1>  -0.4300 
 25 C       -7.8760    -1.2120     0.8160 C.3   1 <1>   0.2800 
 26 C       -7.8610     0.2480     1.2700 C.3   1 <1>  -0.2400 
 27 C       -8.3260    -1.2800    -0.6480 C.3   1 <1>  -0.2400 
 28 C       -8.7840    -2.0220     1.7480 C.3   1 <1>  -0.2400 
 29 H       -1.4430    -2.7760    -2.2670 H     1 <1>   0.0800 
 30 H        0.1700    -4.4260    -2.2270 H     1 <1>   0.0800 
 31 H       -0.2430    -4.7560    -0.5460 H     1 <1>   0.0800 
 32 H        2.8620    -2.1260     1.2900 H     1 <1>   0.1500 
 33 H        2.0080     0.1570    -2.2080 H     1 <1>   0.1500 
 34 H       -2.4820    -4.9840    -0.8420 H     1 <1>   0.0800 
 35 H       -3.4960    -3.7470    -1.5270 H     1 <1>   0.0800 
 36 H       -3.1730    -1.3510    -0.7740 H     1 <1>   0.0800 
 37 H       -1.9940    -1.0270     0.4660 H     1 <1>   0.0800 
 38 H        4.6970    -0.6350     1.8300 H     1 <1>   0.1500 
 39 H        3.8650     1.6650    -1.6650 H     1 <1>   0.1500 
 40 H       -3.5340    -4.7100     1.3390 H     1 <1>   0.0800 
 41 H       -4.7360    -5.0390     0.1230 H     1 <1>   0.0800 
 42 H       -4.2770    -1.0250     1.3620 H     1 <1>   0.0800 
 43 H       -3.2660    -2.2180     2.1220 H     1 <1>   0.0800 
 44 H        6.9950     2.1730     1.4090 H     1 <1>   0.0800 
 45 H        6.7770     0.4260     1.3820 H     1 <1>   0.0800 
 46 H        5.6910     1.4480     2.3430 H     1 <1>   0.0800 
 47 H       -7.5240     0.3180     2.2890 H     1 <1>   0.0800 
 48 H       -8.8490     0.6690     1.2100 H     1 <1>   0.0800 
 49 H       -7.2070     0.8270     0.6440 H     1 <1>   0.0800 
 50 H       -7.6270    -0.7630    -1.2790 H     1 <1>   0.0800 
 51 H       -9.2910    -0.8190    -0.7570 H     1 <1>   0.0800 
 52 H       -8.4160    -2.2980    -0.9790 H     1 <1>   0.0800 
 53 H       -8.3960    -2.0110     2.7510 H     1 <1>   0.0800 
 54 H       -8.8730    -3.0400     1.4150 H     1 <1>   0.0800 
 55 H       -9.7710    -1.5980     1.7590 H     1 <1>   0.0800 
@<TRIPOS>BOND
  1   1   2  2   
  2   2   3  am  
  3   2   4  1   
  4   3   5  1   
  5   3   6  am  
  6   4   7  1   
  7   4   8  1   
  8   4  29  1   
  9   5   9  ar  
 10   5  10  ar  
 11   6   8  1   
 12   6  11  2   
 13   7  12  1   
 14   7  13  1   
 15   8  30  1   
 16   8  31  1   
 17   9  14  ar  
 18   9  32  1   
 19  10  15  ar  
 20  10  33  1   
 21  12  16  1   
 22  12  34  1   
 23  12  35  1   
 24  13  17  1   
 25  13  36  1   
 26  13  37  1   
 27  14  18  ar  
 28  14  38  1   
 29  15  18  ar  
 30  15  39  1   
 31  16  19  1   
 32  16  40  1   
 33  16  41  1   
 34  17  19  1   
 35  17  42  1   
 36  17  43  1   
 37  18  20  1   
 38  19  21  am  
 39  20  22  1   
 40  21  23  2   
 41  21  24  1   
 42  22  44  1   
 43  22  45  1   
 44  22  46  1   
 45  24  25  1   
 46  25  26  1   
 47  25  27  1   
 48  25  28  1   
 49  26  47  1   
 50  26  48  1   
 51  26  49  1   
 52  27  50  1   
 53  27  51  1   
 54  27  52  1   
 55  28  53  1   
 56  28  54  1   
 57  28  55  1   
@<TRIPOS>SUBSTRUCTURE
  1 ****  13 GROUP 4 **** **** 0

# MOE 2024.06 (io_trps.svl 2023.06)
