@<TRIPOS>MOLECULE
NONAME
46 47 1 0 0 
SMALL
USER_CHARGES


@<TRIPOS>ATOM
  1 S        0.1520    -0.3920     1.3610 S.o2  1 <1>   1.4470 
  2 O       -0.7140     0.7190     1.0250 O.2   1 <1>  -0.6500 
  3 O        0.3430    -0.7530     2.7480 O.2   1 <1>  -0.6500 
  4 N       -0.4660    -1.7560     0.5650 N.am  1 <1>  -0.8490 
  5 C        1.7760    -0.1850     0.5780 C.ar  1 <1>  -0.0090 
  6 C       -1.5820    -2.3470     1.3100 C.3   1 <1>   0.1960 
  7 C       -0.8640    -1.4520    -0.8150 C.3   1 <1>   0.1960 
  8 C        2.7110    -1.2080     0.6130 C.ar  1 <1>  -0.1500 
  9 C        2.1220     0.9850    -0.0810 C.ar  1 <1>  -0.1500 
 10 C       -2.0230    -3.6610     0.6560 C.3   1 <1>  -0.1600 
 11 C       -1.2610    -2.7380    -1.5470 C.3   1 <1>  -0.1600 
 12 C        3.9640    -1.1130     0.0090 C.ar  1 <1>   0.0860 
 13 C        3.3580     1.1180    -0.6880 C.ar  1 <1>  -0.1500 
 14 C       -2.3990    -3.4610    -0.8170 C.3   1 <1>  -0.1600 
 15 C        4.2760     0.0820    -0.6520 C.ar  1 <1>  -0.1430 
 16 C        4.8700    -2.2470     0.0820 C.2   1 <1>   0.5440 
 17 C        5.6210     0.2730    -1.3430 C.3   1 <1>  -0.0970 
 18 O        6.0250    -2.1160     0.4370 O.2   1 <1>  -0.5700 
 19 N        4.4140    -3.4920    -0.2490 N.am  1 <1>  -0.7300 
 20 C        5.1910    -4.7350    -0.1970 C.3   1 <1>   0.2200 
 21 C        5.2670    -5.3060    -1.6080 C.3   1 <1>  -0.2400 
 22 C        4.4860    -5.6950     0.7540 C.3   1 <1>  -0.2400 
 23 H       -2.4070    -1.6530     1.3450 H     1 <1>   0.0800 
 24 H       -1.2770    -2.5560     2.3230 H     1 <1>   0.0800 
 25 H       -0.0430    -0.9920    -1.3400 H     1 <1>   0.0800 
 26 H       -1.6930    -0.7620    -0.8170 H     1 <1>   0.0800 
 27 H        2.4550    -2.1140     1.1360 H     1 <1>   0.1500 
 28 H        1.4200     1.8020    -0.1210 H     1 <1>   0.1500 
 29 H       -2.8650    -4.0610     1.1930 H     1 <1>   0.0800 
 30 H       -1.2180    -4.3710     0.7330 H     1 <1>   0.0800 
 31 H       -0.4020    -3.3810    -1.6120 H     1 <1>   0.0800 
 32 H       -1.5700    -2.4980    -2.5490 H     1 <1>   0.0800 
 33 H        3.5980     2.0400    -1.1900 H     1 <1>   0.1500 
 34 H       -3.2970    -2.8700    -0.8790 H     1 <1>   0.0800 
 35 H       -2.5910    -4.4130    -1.2820 H     1 <1>   0.0800 
 36 H        5.8350    -0.5640    -1.9830 H     1 <1>   0.0800 
 37 H        6.4020     0.3490    -0.6060 H     1 <1>   0.0800 
 38 H        5.6310     1.1660    -1.9420 H     1 <1>   0.0800 
 39 H        3.4580    -3.5970    -0.5830 H     1 <1>   0.3700 
 40 H        6.1870    -4.5340     0.1660 H     1 <1>   0.0800 
 41 H        4.2860    -5.5200    -1.9900 H     1 <1>   0.0800 
 42 H        5.8390    -6.2170    -1.6010 H     1 <1>   0.0800 
 43 H        5.7600    -4.6050    -2.2580 H     1 <1>   0.0800 
 44 H        3.4910    -5.9140     0.4120 H     1 <1>   0.0800 
 45 H        4.4390    -5.2630     1.7380 H     1 <1>   0.0800 
 46 H        5.0380    -6.6150     0.8180 H     1 <1>   0.0800 
@<TRIPOS>BOND
  1   1   2  2   
  2   1   3  2   
  3   1   4  am  
  4   1   5  1   
  5   4   6  1   
  6   4   7  1   
  7   5   8  ar  
  8   5   9  ar  
  9   6  10  1   
 10   6  23  1   
 11   6  24  1   
 12   7  11  1   
 13   7  25  1   
 14   7  26  1   
 15   8  12  ar  
 16   8  27  1   
 17   9  13  ar  
 18   9  28  1   
 19  10  14  1   
 20  10  29  1   
 21  10  30  1   
 22  11  14  1   
 23  11  31  1   
 24  11  32  1   
 25  12  15  ar  
 26  12  16  1   
 27  13  15  ar  
 28  13  33  1   
 29  14  34  1   
 30  14  35  1   
 31  15  17  1   
 32  16  18  2   
 33  16  19  am  
 34  17  36  1   
 35  17  37  1   
 36  17  38  1   
 37  19  20  1   
 38  19  39  1   
 39  20  21  1   
 40  20  22  1   
 41  20  40  1   
 42  21  41  1   
 43  21  42  1   
 44  21  43  1   
 45  22  44  1   
 46  22  45  1   
 47  22  46  1   
@<TRIPOS>SUBSTRUCTURE
  1 ****   8 GROUP 4 **** **** 0

# MOE 2024.06 (io_trps.svl 2023.06)
