@<TRIPOS>MOLECULE
NONAME
40 43 1 0 0 
SMALL
USER_CHARGES


@<TRIPOS>ATOM
  1 F       -0.7840    -0.4590     0.2560 F     1 <1>  -0.1900 
  2 C       -2.0770    -0.6210     0.2440 C.ar  1 <1>   0.1900 
  3 C       -2.6390    -1.5930     1.0480 C.ar  1 <1>  -0.1500 
  4 C       -2.8450     0.1850    -0.5750 C.ar  1 <1>  -0.1500 
  5 C       -4.0130    -1.7540     1.0290 C.ar  1 <1>  -0.1500 
  6 C       -4.2180     0.0090    -0.5810 C.ar  1 <1>  -0.1500 
  7 C       -4.8350    -0.9570     0.2240 C.ar  1 <1>   0.0860 
  8 C       -6.2760    -1.1370     0.2320 C.2   1 <1>   0.5440 
  9 O       -6.7520    -2.2340     0.4440 O.2   1 <1>  -0.5700 
 10 N       -7.1000    -0.0650     0.0180 N.am  1 <1>  -0.7300 
 11 C       -8.5730    -0.0200    -0.0350 C.3   1 <1>   0.3000 
 12 C       -9.1860    -0.4320     1.3170 C.3   1 <1>  -0.1600 
 13 C       -9.1160    -0.9290    -1.1560 C.3   1 <1>  -0.1600 
 14 C       -8.9770     1.4350    -0.3400 C.3   1 <1>  -0.1600 
 15 C      -10.7220    -0.3230     1.2540 C.3   1 <1>  -0.0800 
 16 C      -10.6520    -0.8200    -1.2250 C.3   1 <1>  -0.0800 
 17 C      -10.5110     1.5640    -0.4090 C.3   1 <1>  -0.0800 
 18 C      -11.2480    -1.2400     0.1330 C.3   1 <1>  -0.1600 
 19 C      -11.1150     1.1340     0.9420 C.3   1 <1>  -0.1600 
 20 C      -11.0450     0.6400    -1.5200 C.3   1 <1>  -0.1600 
 21 H       -2.0130    -2.2070     1.6700 H     1 <1>   0.1500 
 22 H       -2.3710     0.9270    -1.1920 H     1 <1>   0.1500 
 23 H       -4.4700    -2.5100     1.6460 H     1 <1>   0.1500 
 24 H       -4.8190     0.6230    -1.2280 H     1 <1>   0.1500 
 25 H       -6.6770     0.8590    -0.0230 H     1 <1>   0.3700 
 26 H       -8.9180    -1.4480     1.5480 H     1 <1>   0.0800 
 27 H       -8.8070     0.2000     2.0990 H     1 <1>   0.0800 
 28 H       -8.8480    -1.9520    -0.9630 H     1 <1>   0.0800 
 29 H       -8.6870    -0.6420    -2.0990 H     1 <1>   0.0800 
 30 H       -8.5550     1.7420    -1.2800 H     1 <1>   0.0800 
 31 H       -8.6040     2.0870     0.4310 H     1 <1>   0.0800 
 32 H      -11.1460    -0.6210     2.1980 H     1 <1>   0.0800 
 33 H      -11.0260    -1.4640    -2.0020 H     1 <1>   0.0800 
 34 H      -10.7840     2.5840    -0.6210 H     1 <1>   0.0800 
 35 H      -12.3220    -1.1850     0.0910 H     1 <1>   0.0800 
 36 H      -10.9820    -2.2620     0.3450 H     1 <1>   0.0800 
 37 H      -10.7610     1.7820     1.7240 H     1 <1>   0.0800 
 38 H      -12.1870     1.2210     0.9060 H     1 <1>   0.0800 
 39 H      -10.6420     0.9400    -2.4710 H     1 <1>   0.0800 
 40 H      -12.1160     0.7220    -1.5790 H     1 <1>   0.0800 
@<TRIPOS>BOND
  1   1   2  1   
  2   2   3  ar  
  3   2   4  ar  
  4   3   5  ar  
  5   3  21  1   
  6   4   6  ar  
  7   4  22  1   
  8   5   7  ar  
  9   5  23  1   
 10   6   7  ar  
 11   6  24  1   
 12   7   8  1   
 13   8   9  2   
 14   8  10  am  
 15  10  11  1   
 16  10  25  1   
 17  11  12  1   
 18  11  13  1   
 19  11  14  1   
 20  12  15  1   
 21  12  26  1   
 22  12  27  1   
 23  13  16  1   
 24  13  28  1   
 25  13  29  1   
 26  14  17  1   
 27  14  30  1   
 28  14  31  1   
 29  15  18  1   
 30  15  19  1   
 31  15  32  1   
 32  16  18  1   
 33  16  20  1   
 34  16  33  1   
 35  17  19  1   
 36  17  20  1   
 37  17  34  1   
 38  18  35  1   
 39  18  36  1   
 40  19  37  1   
 41  19  38  1   
 42  20  39  1   
 43  20  40  1   
@<TRIPOS>SUBSTRUCTURE
  1 ****  10 GROUP 4 **** **** 0

# MOE 2024.06 (io_trps.svl 2023.06)
