@<TRIPOS>MOLECULE
NONAME
50 52 1 0 0 
SMALL
USER_CHARGES


@<TRIPOS>ATOM
  1 CL      -1.3940     1.2240     2.2680 Cl    1 <1>  -0.1770 
  2 C       -0.7220     1.7480     0.7440 C.ar  1 <1>   0.1770 
  3 C       -1.5610     2.1150    -0.3080 C.ar  1 <1>   0.0530 
  4 C        0.6550     1.7480     0.6200 C.ar  1 <1>  -0.1500 
  5 C       -2.9990     2.1060    -0.1970 C.2   1 <1>   0.1330 
  6 C       -0.9530     2.4900    -1.5050 C.ar  1 <1>  -0.1500 
  7 C        1.2320     2.1150    -0.5830 C.ar  1 <1>  -0.1500 
  8 N       -3.6880     2.9690     0.4810 N.2   1 <1>  -0.5650 
  9 N       -3.7870     1.1690    -0.8110 N.pl3 1 <1>   0.0480 
 10 C        0.4240     2.4860    -1.6450 C.ar  1 <1>  -0.1500 
 11 C       -4.9810     2.6000     0.3130 C.ar  1 <1>   0.2270 
 12 C       -5.0690     1.4810    -0.4920 C.ar  1 <1>  -0.1520 
 13 C       -3.3400    -0.0970    -1.4310 C.3   1 <1>   0.0960 
 14 C       -6.1370     3.1780     0.8330 C.ar  1 <1>  -0.1500 
 15 C       -6.3090     0.9150    -0.8060 C.ar  1 <1>  -0.1500 
 16 C       -3.5490    -1.3010    -0.4890 C.3   1 <1>   0.2000 
 17 C       -7.3620     2.6240     0.5330 C.ar  1 <1>  -0.1500 
 18 C       -7.4460     1.4930    -0.2880 C.ar  1 <1>  -0.1500 
 19 O       -3.2370    -0.9620     0.8270 O.3   1 <1>  -0.6800 
 20 C       -2.7410    -2.5550    -0.9420 C.3   1 <1>   0.3430 
 21 N       -1.3730    -2.7930    -0.3230 N.4   1 <1>  -0.9590 
 22 C       -1.4930    -3.3550     1.0570 C.3   1 <1>   0.3430 
 23 C       -0.5160    -1.5740    -0.3120 C.3   1 <1>   0.3430 
 24 C       -1.8700    -4.8290     0.9760 C.3   1 <1>  -0.2400 
 25 C        0.9490    -1.9700    -0.1730 C.3   1 <1>  -0.2400 
 26 H        1.2670     1.4700     1.4590 H     1 <1>   0.1500 
 27 H       -1.5700     2.8030    -2.3300 H     1 <1>   0.1500 
 28 H        2.3050     2.1250    -0.6900 H     1 <1>   0.1500 
 29 H        0.8720     2.7850    -2.5780 H     1 <1>   0.1500 
 30 H       -2.3070    -0.0040    -1.7030 H     1 <1>   0.0800 
 31 H       -3.8990    -0.2450    -2.3380 H     1 <1>   0.0800 
 32 H       -6.0410     4.0470     1.4580 H     1 <1>   0.1500 
 33 H       -6.3790     0.0520    -1.4430 H     1 <1>   0.1500 
 34 H       -4.5960    -1.5540    -0.5060 H     1 <1>   0.0800 
 35 H       -8.2640     3.0590     0.9270 H     1 <1>   0.1500 
 36 H       -8.4170     1.0830    -0.5100 H     1 <1>   0.1500 
 37 H       -3.7520    -0.1750     1.1290 H     1 <1>   0.4000 
 38 H       -2.6340    -2.5060    -2.0130 H     1 <1>   0.0800 
 39 H       -3.3570    -3.4170    -0.7480 H     1 <1>   0.0800 
 40 H       -0.8830    -3.5030    -0.8820 H     1 <1>   0.4500 
 41 H       -0.5520    -3.2690     1.5740 H     1 <1>   0.0800 
 42 H       -2.2310    -2.8140     1.6270 H     1 <1>   0.0800 
 43 H       -0.8080    -0.9240     0.4990 H     1 <1>   0.0800 
 44 H       -0.6340    -1.0360    -1.2370 H     1 <1>   0.0800 
 45 H       -2.8470    -4.9660     0.5510 H     1 <1>   0.0800 
 46 H       -1.8900    -5.2370     1.9710 H     1 <1>   0.0800 
 47 H       -1.1420    -5.3810     0.4080 H     1 <1>   0.0800 
 48 H        1.1490    -2.4260     0.7790 H     1 <1>   0.0800 
 49 H        1.5570    -1.0850    -0.2410 H     1 <1>   0.0800 
 50 H        1.2450    -2.6350    -0.9650 H     1 <1>   0.0800 
@<TRIPOS>BOND
  1   1   2  1   
  2   2   3  ar  
  3   2   4  ar  
  4   3   5  1   
  5   3   6  ar  
  6   4   7  ar  
  7   4  26  1   
  8   5   8  2   
  9   5   9  1   
 10   6  10  ar  
 11   6  27  1   
 12   7  10  ar  
 13   7  28  1   
 14   8  11  1   
 15   9  12  1   
 16   9  13  1   
 17  10  29  1   
 18  11  12  ar  
 19  11  14  ar  
 20  12  15  ar  
 21  13  16  1   
 22  13  30  1   
 23  13  31  1   
 24  14  17  ar  
 25  14  32  1   
 26  15  18  ar  
 27  15  33  1   
 28  16  19  1   
 29  16  20  1   
 30  16  34  1   
 31  17  18  ar  
 32  17  35  1   
 33  18  36  1   
 34  19  37  1   
 35  20  21  1   
 36  20  38  1   
 37  20  39  1   
 38  21  22  1   
 39  21  23  1   
 40  21  40  1   
 41  22  24  1   
 42  22  41  1   
 43  22  42  1   
 44  23  25  1   
 45  23  43  1   
 46  23  44  1   
 47  24  45  1   
 48  24  46  1   
 49  24  47  1   
 50  25  48  1   
 51  25  49  1   
 52  25  50  1   
@<TRIPOS>SUBSTRUCTURE
  1 ****   9 GROUP 4 **** **** 0

# MOE 2024.06 (io_trps.svl 2023.06)
