@<TRIPOS>MOLECULE
NONAME
37 39 1 0 0 
SMALL
USER_CHARGES


@<TRIPOS>ATOM
  1 BR       1.3310    -1.2550     0.4860 Br    1 <1>  -0.0570 
  2 C       -0.2120    -2.1780    -0.2130 C.2   1 <1>   0.0570 
  3 C       -0.4500    -2.3690    -1.5200 C.2   1 <1>  -0.1100 
  4 C       -1.1810    -2.7020     0.6950 C.2   1 <1>  -0.1500 
  5 S       -1.9610    -3.2490    -1.6960 S.3   1 <1>  -0.0800 
  6 C       -2.1970    -3.3140     0.0550 C.2   1 <1>  -0.1400 
  7 C       -3.4460    -4.0120     0.5510 C.3   1 <1>   0.5230 
  8 N       -4.6290    -3.3050    -0.0030 N.4   1 <1>  -0.9590 
  9 C       -4.7230    -1.8860     0.5150 C.3   1 <1>   0.3430 
 10 C       -5.9090    -4.0670     0.2450 C.3   1 <1>   0.3430 
 11 C       -5.9620    -1.1390    -0.0210 C.3   1 <1>   0.2090 
 12 C       -7.1520    -3.3290    -0.2950 C.3   1 <1>   0.2090 
 13 N       -7.1980    -1.9340     0.2260 N.pl3 1 <1>  -0.8380 
 14 C       -8.4030    -1.2600     0.0650 C.ar  1 <1>   0.1000 
 15 C       -8.8500    -0.8550    -1.1880 C.ar  1 <1>  -0.1500 
 16 C       -9.1850    -0.9800     1.1770 C.ar  1 <1>  -0.1500 
 17 C      -10.0530    -0.1860    -1.3250 C.ar  1 <1>  -0.1500 
 18 C      -10.3880    -0.3110     1.0450 C.ar  1 <1>  -0.1500 
 19 C      -10.8240     0.0870    -0.2070 C.ar  1 <1>  -0.1500 
 20 H        0.0950    -2.0940    -2.4060 H     1 <1>   0.1500 
 21 H       -1.0460    -2.5870     1.7580 H     1 <1>   0.1500 
 22 H       -3.4720    -4.0000     1.6290 H     1 <1>   0.0800 
 23 H       -3.4340    -5.0370     0.2170 H     1 <1>   0.0800 
 24 H       -4.4800    -3.2430    -1.0180 H     1 <1>   0.4500 
 25 H       -3.8380    -1.3350     0.2430 H     1 <1>   0.0800 
 26 H       -4.7860    -1.8990     1.5910 H     1 <1>   0.0800 
 27 H       -6.0450    -4.2070     1.3050 H     1 <1>   0.0800 
 28 H       -5.8540    -5.0410    -0.2130 H     1 <1>   0.0800 
 29 H       -5.8520    -0.9540    -1.0760 H     1 <1>   0.0800 
 30 H       -6.0490    -0.1870     0.4750 H     1 <1>   0.0800 
 31 H       -8.0420    -3.8510     0.0160 H     1 <1>   0.0800 
 32 H       -7.1360    -3.3160    -1.3710 H     1 <1>   0.0800 
 33 H       -8.2580    -1.0630    -2.0580 H     1 <1>   0.1500 
 34 H       -8.8440    -1.2890     2.1470 H     1 <1>   0.1500 
 35 H      -10.3930     0.1240    -2.2980 H     1 <1>   0.1500 
 36 H      -10.9870    -0.0990     1.9140 H     1 <1>   0.1500 
 37 H      -11.7600     0.6080    -0.3120 H     1 <1>   0.1500 
@<TRIPOS>BOND
  1   1   2  1   
  2   2   3  2   
  3   2   4  1   
  4   3   5  1   
  5   3  20  1   
  6   4   6  2   
  7   4  21  1   
  8   5   6  1   
  9   6   7  1   
 10   7   8  1   
 11   7  22  1   
 12   7  23  1   
 13   8   9  1   
 14   8  10  1   
 15   8  24  1   
 16   9  11  1   
 17   9  25  1   
 18   9  26  1   
 19  10  12  1   
 20  10  27  1   
 21  10  28  1   
 22  11  13  1   
 23  11  29  1   
 24  11  30  1   
 25  12  13  1   
 26  12  31  1   
 27  12  32  1   
 28  13  14  1   
 29  14  15  ar  
 30  14  16  ar  
 31  15  17  ar  
 32  15  33  1   
 33  16  18  ar  
 34  16  34  1   
 35  17  19  ar  
 36  17  35  1   
 37  18  19  ar  
 38  18  36  1   
 39  19  37  1   
@<TRIPOS>SUBSTRUCTURE
  1 ****   9 GROUP 4 **** **** 0

# MOE 2024.06 (io_trps.svl 2023.06)
