@<TRIPOS>MOLECULE
NONAME
35 36 1 0 0 
SMALL
USER_CHARGES


@<TRIPOS>ATOM
  1 I        0.6540    -0.7870    -0.4470 I     1 <1>  -0.0810 
  2 C       -1.3900    -1.3210    -0.2330 C.ar  1 <1>   0.0810 
  3 C       -1.9890    -2.0800    -1.2200 C.ar  1 <1>  -0.1500 
  4 C       -2.0760    -0.9000     0.8900 C.ar  1 <1>  -0.1500 
  5 C       -3.3220    -2.4190    -1.0710 C.ar  1 <1>  -0.1500 
  6 C       -3.4080    -1.2510     1.0190 C.ar  1 <1>  -0.1500 
  7 C       -4.0640    -2.0090     0.0410 C.ar  1 <1>   0.0860 
  8 C       -5.4690    -2.3610     0.1690 C.2   1 <1>   0.5440 
  9 O       -5.9310    -3.3250    -0.4120 O.2   1 <1>  -0.5700 
 10 N       -6.3510    -1.5900     0.8920 N.am  1 <1>  -0.6600 
 11 C       -6.5810    -0.1790     0.4740 C.3   1 <1>   0.1400 
 12 C       -7.5660    -2.2400     1.4650 C.3   1 <1>   0.1400 
 13 C       -7.7520    -0.1120    -0.5310 C.3   1 <1>   0.3430 
 14 C       -8.7180    -2.1880     0.4450 C.3   1 <1>   0.3430 
 15 N       -9.0050    -0.7760    -0.0130 N.4   1 <1>  -0.9590 
 16 C      -10.0710    -0.7420    -1.0470 C.3   1 <1>   0.3430 
 17 C      -11.4210    -1.0400    -0.4060 C.3   1 <1>  -0.2400 
 18 H       -1.4280    -2.4000    -2.0810 H     1 <1>   0.1500 
 19 H       -1.5780    -0.3170     1.6460 H     1 <1>   0.1500 
 20 H       -3.8000    -3.0170    -1.8290 H     1 <1>   0.1500 
 21 H       -3.9460    -0.9390     1.8970 H     1 <1>   0.1500 
 22 H       -5.6940     0.2180     0.0100 H     1 <1>   0.0800 
 23 H       -6.7980     0.4230     1.3390 H     1 <1>   0.0800 
 24 H       -7.8490    -1.7440     2.3770 H     1 <1>   0.0800 
 25 H       -7.3470    -3.2680     1.7040 H     1 <1>   0.0800 
 26 H       -7.4400    -0.6010    -1.4390 H     1 <1>   0.0800 
 27 H       -7.9560     0.9200    -0.7660 H     1 <1>   0.0800 
 28 H       -9.5990    -2.6210     0.8890 H     1 <1>   0.0800 
 29 H       -8.4410    -2.7970    -0.4010 H     1 <1>   0.0800 
 30 H       -9.3350    -0.2420     0.8010 H     1 <1>   0.4500 
 31 H       -9.8610    -1.4610    -1.8240 H     1 <1>   0.0800 
 32 H      -10.1100     0.2380    -1.4980 H     1 <1>   0.0800 
 33 H      -11.4660    -2.0440    -0.0260 H     1 <1>   0.0800 
 34 H      -12.1920    -0.9410    -1.1500 H     1 <1>   0.0800 
 35 H      -11.6350    -0.3410     0.3830 H     1 <1>   0.0800 
@<TRIPOS>BOND
  1   1   2  1   
  2   2   3  ar  
  3   2   4  ar  
  4   3   5  ar  
  5   3  18  1   
  6   4   6  ar  
  7   4  19  1   
  8   5   7  ar  
  9   5  20  1   
 10   6   7  ar  
 11   6  21  1   
 12   7   8  1   
 13   8   9  2   
 14   8  10  am  
 15  10  11  1   
 16  10  12  1   
 17  11  13  1   
 18  11  22  1   
 19  11  23  1   
 20  12  14  1   
 21  12  24  1   
 22  12  25  1   
 23  13  15  1   
 24  13  26  1   
 25  13  27  1   
 26  14  15  1   
 27  14  28  1   
 28  14  29  1   
 29  15  16  1   
 30  15  30  1   
 31  16  17  1   
 32  16  31  1   
 33  16  32  1   
 34  17  33  1   
 35  17  34  1   
 36  17  35  1   
@<TRIPOS>SUBSTRUCTURE
  1 ****   8 GROUP 4 **** **** 0

# MOE 2024.06 (io_trps.svl 2023.06)
