@<TRIPOS>MOLECULE
NONAME
38 39 1 0 0 
SMALL
USER_CHARGES


@<TRIPOS>ATOM
  1 S        0.4090     1.2240     0.2120 S.3   1 <1>  -0.3710 
  2 C       -1.2650     1.8570     0.2350 C.2   1 <1>   0.6510 
  3 C        0.2170    -0.6010     0.4180 C.3   1 <1>   0.0700 
  4 N       -2.2040     1.0000     0.3840 N.2   1 <1>  -0.6290 
  5 N       -1.4310     3.2200     0.0900 N.am  1 <1>  -0.4200 
  6 C        1.6110    -1.2220     0.4050 C.3   1 <1>  -0.2400 
  7 C       -3.5050     1.4480     0.4010 C.ar  1 <1>   0.1790 
  8 C       -2.7170     3.7180     0.0930 C.2   1 <1>   0.5440 
  9 C       -0.2810     4.1580    -0.0740 C.3   1 <1>   0.1400 
 10 C       -3.8110     2.8030     0.2570 C.ar  1 <1>   0.0860 
 11 C       -4.5340     0.5330     0.5640 C.ar  1 <1>  -0.1500 
 12 O       -2.9120     4.9160    -0.0440 O.2   1 <1>  -0.5700 
 13 C        0.0800     4.2910    -1.5540 C.3   1 <1>  -0.2400 
 14 C       -5.1510     3.1980     0.2810 C.ar  1 <1>  -0.1500 
 15 C       -5.8610     0.9160     0.5890 C.ar  1 <1>   0.0830 
 16 C       -6.1820     2.2830     0.4430 C.ar  1 <1>   0.0830 
 17 O       -6.7340    -0.1150     0.7590 O.3   1 <1>  -0.3630 
 18 O       -7.4840     2.6920     0.4610 O.3   1 <1>  -0.3630 
 19 C       -8.1340     0.0320     0.8410 C.3   1 <1>   0.0400 
 20 C       -7.8590     4.0450     0.3090 C.3   1 <1>   0.0400 
 21 H       -0.3880    -0.9560    -0.3980 H     1 <1>   0.0800 
 22 H       -0.2880    -0.7680     1.3540 H     1 <1>   0.0800 
 23 H        2.1020    -1.0100    -0.5280 H     1 <1>   0.0800 
 24 H        1.5380    -2.2870     0.5230 H     1 <1>   0.0800 
 25 H        2.2010    -0.8240     1.2110 H     1 <1>   0.0800 
 26 H        0.5690     3.8190     0.4910 H     1 <1>   0.0800 
 27 H       -0.5440     5.1270     0.3160 H     1 <1>   0.0800 
 28 H       -4.2870    -0.5060     0.6740 H     1 <1>   0.1500 
 29 H        0.3700     3.3390    -1.9620 H     1 <1>   0.0800 
 30 H        0.9040     4.9730    -1.6640 H     1 <1>   0.0800 
 31 H       -0.7570     4.6780    -2.1070 H     1 <1>   0.0800 
 32 H       -5.3460     4.2470     0.1670 H     1 <1>   0.1500 
 33 H       -8.5640    -0.9410     0.9890 H     1 <1>   0.0800 
 34 H       -8.4940     0.4550    -0.0800 H     1 <1>   0.0800 
 35 H       -8.3690     0.6680     1.6750 H     1 <1>   0.0800 
 36 H       -8.9320     4.1010     0.3540 H     1 <1>   0.0800 
 37 H       -7.5160     4.3980    -0.6480 H     1 <1>   0.0800 
 38 H       -7.4300     4.6200     1.1100 H     1 <1>   0.0800 
@<TRIPOS>BOND
  1   1   2  1   
  2   1   3  1   
  3   2   4  2   
  4   2   5  1   
  5   3   6  1   
  6   3  21  1   
  7   3  22  1   
  8   4   7  1   
  9   5   8  am  
 10   5   9  1   
 11   6  23  1   
 12   6  24  1   
 13   6  25  1   
 14   7  10  ar  
 15   7  11  ar  
 16   8  10  1   
 17   8  12  2   
 18   9  13  1   
 19   9  26  1   
 20   9  27  1   
 21  10  14  ar  
 22  11  15  ar  
 23  11  28  1   
 24  13  29  1   
 25  13  30  1   
 26  13  31  1   
 27  14  16  ar  
 28  14  32  1   
 29  15  16  ar  
 30  15  17  1   
 31  16  18  1   
 32  17  19  1   
 33  18  20  1   
 34  19  33  1   
 35  19  34  1   
 36  19  35  1   
 37  20  36  1   
 38  20  37  1   
 39  20  38  1   
@<TRIPOS>SUBSTRUCTURE
  1 ****   7 GROUP 4 **** **** 0

# MOE 2024.06 (io_trps.svl 2023.06)
