@<TRIPOS>MOLECULE
NONAME
47 48 1 0 0 
SMALL
USER_CHARGES


@<TRIPOS>ATOM
  1 N        1.8690    -0.4540     0.1670 N.4   1 <1>  -0.9590 
  2 C        2.6990     0.0990     1.2790 C.3   1 <1>   0.3430 
  3 C        0.9870     0.5630    -0.4800 C.3   1 <1>   0.3430 
  4 C        1.0470    -1.6070     0.6630 C.3   1 <1>   0.2630 
  5 C        3.5490     1.2620     0.7670 C.3   1 <1>  -0.1600 
  6 C        1.8230     1.7360    -0.9990 C.3   1 <1>  -0.1600 
  7 C        2.6630     2.3380     0.1340 C.3   1 <1>   0.4230 
  8 N        3.4820     3.5090    -0.3070 N.4   1 <1>  -0.9590 
  9 C        4.4700     3.2660    -1.3910 C.3   1 <1>   0.4810 
 10 C        2.6550     4.7220    -0.6150 C.3   1 <1>   0.2630 
 11 C        5.8350     3.4560    -0.7610 C.2   1 <1>  -0.2760 
 12 C        6.6740     2.4210    -0.5620 C.2   1 <1>  -0.1780 
 13 C        6.1790     4.9080    -0.4230 C.3   1 <1>  -0.1020 
 14 C        7.9850     2.4210     0.0430 C.ar  1 <1>   0.0280 
 15 C        9.0600     1.8390    -0.6200 C.ar  1 <1>  -0.1500 
 16 C        8.2140     2.9730     1.3000 C.ar  1 <1>  -0.1500 
 17 C       10.3220     1.8140    -0.0540 C.ar  1 <1>  -0.1500 
 18 C        9.4730     2.9520     1.8720 C.ar  1 <1>  -0.1500 
 19 C       10.5300     2.3720     1.1950 C.ar  1 <1>  -0.1500 
 20 H        2.5060    -0.8380    -0.5510 H     1 <1>   0.4500 
 21 H        2.0580     0.4400     2.0770 H     1 <1>   0.0800 
 22 H        3.3430    -0.6710     1.6750 H     1 <1>   0.0800 
 23 H        0.4480     0.1130    -1.3000 H     1 <1>   0.0800 
 24 H        0.2630     0.9210     0.2350 H     1 <1>   0.0800 
 25 H        0.3550    -1.2810     1.4220 H     1 <1>   0.0800 
 26 H        1.6840    -2.3690     1.0850 H     1 <1>   0.0800 
 27 H        0.4860    -2.0460    -0.1470 H     1 <1>   0.0800 
 28 H        4.2610     0.8770     0.0600 H     1 <1>   0.0800 
 29 H        4.0910     1.6780     1.5980 H     1 <1>   0.0800 
 30 H        1.1460     2.4750    -1.3910 H     1 <1>   0.0800 
 31 H        2.4420     1.3860    -1.8050 H     1 <1>   0.0800 
 32 H        1.9830     2.6840     0.8980 H     1 <1>   0.0800 
 33 H        4.0910     3.7610     0.4860 H     1 <1>   0.4500 
 34 H        4.3820     2.2640    -1.7740 H     1 <1>   0.0800 
 35 H        4.3400     3.9610    -2.2060 H     1 <1>   0.0800 
 36 H        2.0380     4.5510    -1.4830 H     1 <1>   0.0800 
 37 H        3.2940     5.5690    -0.8130 H     1 <1>   0.0800 
 38 H        2.0190     4.9670     0.2200 H     1 <1>   0.0800 
 39 H        6.3970     1.4320    -0.8840 H     1 <1>   0.1500 
 40 H        6.0050     5.5410    -1.2750 H     1 <1>   0.0800 
 41 H        7.2190     5.0120    -0.1660 H     1 <1>   0.0800 
 42 H        5.5980     5.2710     0.4050 H     1 <1>   0.0800 
 43 H        8.9130     1.4040    -1.5930 H     1 <1>   0.1500 
 44 H        7.4030     3.4220     1.8410 H     1 <1>   0.1500 
 45 H       11.1440     1.3620    -0.5830 H     1 <1>   0.1500 
 46 H        9.6350     3.3850     2.8440 H     1 <1>   0.1500 
 47 H       11.5120     2.3550     1.6370 H     1 <1>   0.1500 
@<TRIPOS>BOND
  1   1   2  1   
  2   1   3  1   
  3   1   4  1   
  4   1  20  1   
  5   2   5  1   
  6   2  21  1   
  7   2  22  1   
  8   3   6  1   
  9   3  23  1   
 10   3  24  1   
 11   4  25  1   
 12   4  26  1   
 13   4  27  1   
 14   5   7  1   
 15   5  28  1   
 16   5  29  1   
 17   6   7  1   
 18   6  30  1   
 19   6  31  1   
 20   7   8  1   
 21   7  32  1   
 22   8   9  1   
 23   8  10  1   
 24   8  33  1   
 25   9  11  1   
 26   9  34  1   
 27   9  35  1   
 28  10  36  1   
 29  10  37  1   
 30  10  38  1   
 31  11  12  2   
 32  11  13  1   
 33  12  14  1   
 34  12  39  1   
 35  13  40  1   
 36  13  41  1   
 37  13  42  1   
 38  14  15  ar  
 39  14  16  ar  
 40  15  17  ar  
 41  15  43  1   
 42  16  18  ar  
 43  16  44  1   
 44  17  19  ar  
 45  17  45  1   
 46  18  19  ar  
 47  18  46  1   
 48  19  47  1   
@<TRIPOS>SUBSTRUCTURE
  1 ****  12 GROUP 4 **** **** 0

# MOE 2024.06 (io_trps.svl 2023.06)
