@<TRIPOS>MOLECULE
NONAME
34 35 1 0 0 
SMALL
USER_CHARGES


@<TRIPOS>ATOM
  1 CL      -0.8490    -0.6930    -1.8610 Cl    1 <1>  -0.1230 
  2 C       -0.0250    -1.8720    -0.8530 C.2   1 <1>   0.1230 
  3 C       -0.1770    -2.0090     0.5170 C.2   1 <1>   0.1080 
  4 C        0.8660    -2.8020    -1.2440 C.2   1 <1>  -0.3320 
  5 N        0.5680    -2.9630     0.9720 N.2   1 <1>  -0.7070 
  6 C       -1.0800    -1.1790     1.4020 C.3   1 <1>  -0.0590 
  7 N        1.2330    -3.4960    -0.1170 N.pl3 1 <1>   0.5840 
  8 C        1.3900    -3.0570    -2.6530 C.3   1 <1>  -0.0600 
  9 S        2.4920    -4.7780    -0.0130 S.o2  1 <1>   1.2950 
 10 O        2.3490    -5.5450     1.2110 O.2   1 <1>  -0.6500 
 11 O        2.5040    -5.5260    -1.2600 O.2   1 <1>  -0.6500 
 12 C        3.9820    -3.7400     0.1510 C.ar  1 <1>  -0.0090 
 13 C        5.1120    -3.8120    -0.6740 C.ar  1 <1>  -0.1440 
 14 C        3.9970    -2.8010     1.1790 C.ar  1 <1>  -0.1500 
 15 C        6.1760    -2.9440    -0.4740 C.ar  1 <1>  -0.1500 
 16 C        5.2510    -4.8250    -1.8050 C.3   1 <1>  -0.0970 
 17 C        5.0560    -1.9350     1.3800 C.ar  1 <1>  -0.1430 
 18 C        6.1500    -2.0100     0.5420 C.ar  1 <1>  -0.1500 
 19 C        5.0160    -0.9250     2.5120 C.3   1 <1>  -0.0970 
 20 H       -0.6280    -1.0570     2.3700 H     1 <1>   0.0800 
 21 H       -2.0250    -1.6770     1.5210 H     1 <1>   0.0800 
 22 H       -1.2440    -0.2090     0.9710 H     1 <1>   0.0800 
 23 H        0.9690    -2.3480    -3.3450 H     1 <1>   0.0800 
 24 H        1.1190    -4.0450    -2.9830 H     1 <1>   0.0800 
 25 H        2.4610    -2.9590    -2.6830 H     1 <1>   0.0800 
 26 H        3.1560    -2.7420     1.8520 H     1 <1>   0.1500 
 27 H        7.0440    -2.9900    -1.1080 H     1 <1>   0.1500 
 28 H        5.0790    -5.8210    -1.4370 H     1 <1>   0.0800 
 29 H        6.2380    -4.8020    -2.2300 H     1 <1>   0.0800 
 30 H        4.5470    -4.6120    -2.5890 H     1 <1>   0.0800 
 31 H        6.9880    -1.3480     0.6790 H     1 <1>   0.1500 
 32 H        4.0130    -0.5650     2.6580 H     1 <1>   0.0800 
 33 H        5.6490    -0.0840     2.2920 H     1 <1>   0.0800 
 34 H        5.3560    -1.3860     3.4220 H     1 <1>   0.0800 
@<TRIPOS>BOND
  1   1   2  1   
  2   2   3  1   
  3   2   4  2   
  4   3   5  2   
  5   3   6  1   
  6   4   7  1   
  7   4   8  1   
  8   5   7  1   
  9   6  20  1   
 10   6  21  1   
 11   6  22  1   
 12   7   9  1   
 13   8  23  1   
 14   8  24  1   
 15   8  25  1   
 16   9  10  2   
 17   9  11  2   
 18   9  12  1   
 19  12  13  ar  
 20  12  14  ar  
 21  13  15  ar  
 22  13  16  1   
 23  14  17  ar  
 24  14  26  1   
 25  15  18  ar  
 26  15  27  1   
 27  16  28  1   
 28  16  29  1   
 29  16  30  1   
 30  17  18  ar  
 31  17  19  1   
 32  18  31  1   
 33  19  32  1   
 34  19  33  1   
 35  19  34  1   
@<TRIPOS>SUBSTRUCTURE
  1 ****   7 GROUP 4 **** **** 0

# MOE 2024.06 (io_trps.svl 2023.06)
