@<TRIPOS>MOLECULE
NONAME
43 43 1 0 0 
SMALL
USER_CHARGES


@<TRIPOS>ATOM
  1 O       -3.4550     7.4970    -0.2590 O.3   1 <1>  -0.3630 
  2 C       -4.6610     6.8990    -0.0530 C.ar  1 <1>   0.0830 
  3 C       -2.2480     6.8870     0.1170 C.3   1 <1>   0.1200 
  4 C       -5.8130     7.6190    -0.3730 C.ar  1 <1>  -0.1440 
  5 C       -4.7680     5.6110     0.4670 C.ar  1 <1>  -0.1500 
  6 C       -1.1300     7.8770    -0.2070 C.3   1 <1>   0.3430 
  7 C       -7.0610     7.0440    -0.1480 C.ar  1 <1>  -0.1440 
  8 C       -5.7160     9.0300    -0.9560 C.3   1 <1>  -0.0960 
  9 C       -6.0080     5.0390     0.6770 C.ar  1 <1>  -0.1440 
 10 N        0.2170     7.3350     0.1640 N.4   1 <1>  -0.9060 
 11 C       -7.1460     5.7620     0.3720 C.ar  1 <1>  -0.1500 
 12 C       -8.3580     7.7830    -0.4520 C.3   1 <1>  -0.0970 
 13 C       -6.1330     3.6360     1.2430 C.3   1 <1>  -0.0970 
 14 C        1.3630     8.2070    -0.1040 C.3   1 <1>   0.5030 
 15 C        1.4580     8.4930    -1.6020 C.3   1 <1>  -0.2400 
 16 C        2.5990     7.4400     0.3560 C.3   1 <1>  -0.2400 
 17 C        1.2290     9.5020     0.6970 C.3   1 <1>  -0.2400 
 18 H       -2.1430     5.9800    -0.4530 H     1 <1>   0.0800 
 19 H       -2.2940     6.6840     1.1720 H     1 <1>   0.0800 
 20 H       -3.9020     5.0310     0.7150 H     1 <1>   0.1500 
 21 H       -1.3170     8.7910     0.3330 H     1 <1>   0.0800 
 22 H       -1.1590     8.0910    -1.2630 H     1 <1>   0.0800 
 23 H       -4.7480     9.2280    -1.3740 H     1 <1>   0.0800 
 24 H       -5.9100     9.7530    -0.1850 H     1 <1>   0.0800 
 25 H       -6.4320     9.1630    -1.7460 H     1 <1>   0.0800 
 26 H        0.3840     6.4580    -0.3380 H     1 <1>   0.4500 
 27 H        0.2340     7.1170     1.1660 H     1 <1>   0.4500 
 28 H       -8.1100     5.3180     0.5420 H     1 <1>   0.1500 
 29 H       -8.4820     7.8830    -1.5160 H     1 <1>   0.0800 
 30 H       -8.3450     8.7600    -0.0050 H     1 <1>   0.0800 
 31 H       -9.2070     7.2510    -0.0620 H     1 <1>   0.0800 
 32 H       -5.2380     3.0690     1.0640 H     1 <1>   0.0800 
 33 H       -6.9560     3.1210     0.7810 H     1 <1>   0.0800 
 34 H       -6.3080     3.6860     2.3030 H     1 <1>   0.0800 
 35 H        0.6320     9.0890    -1.9460 H     1 <1>   0.0800 
 36 H        1.5020     7.5820    -2.1710 H     1 <1>   0.0800 
 37 H        2.3560     9.0500    -1.8070 H     1 <1>   0.0800 
 38 H        2.7140     6.5210    -0.1920 H     1 <1>   0.0800 
 39 H        2.5540     7.2230     1.4090 H     1 <1>   0.0800 
 40 H        3.4810     8.0320     0.1840 H     1 <1>   0.0800 
 41 H        2.1180    10.0950     0.5770 H     1 <1>   0.0800 
 42 H        0.4030    10.0980     0.3540 H     1 <1>   0.0800 
 43 H        1.1110     9.3000     1.7470 H     1 <1>   0.0800 
@<TRIPOS>BOND
  1   1   2  1   
  2   1   3  1   
  3   2   4  ar  
  4   2   5  ar  
  5   3   6  1   
  6   3  18  1   
  7   3  19  1   
  8   4   7  ar  
  9   4   8  1   
 10   5   9  ar  
 11   5  20  1   
 12   6  10  1   
 13   6  21  1   
 14   6  22  1   
 15   7  11  ar  
 16   7  12  1   
 17   8  23  1   
 18   8  24  1   
 19   8  25  1   
 20   9  11  ar  
 21   9  13  1   
 22  10  14  1   
 23  10  26  1   
 24  10  27  1   
 25  11  28  1   
 26  12  29  1   
 27  12  30  1   
 28  12  31  1   
 29  13  32  1   
 30  13  33  1   
 31  13  34  1   
 32  14  15  1   
 33  14  16  1   
 34  14  17  1   
 35  15  35  1   
 36  15  36  1   
 37  15  37  1   
 38  16  38  1   
 39  16  39  1   
 40  16  40  1   
 41  17  41  1   
 42  17  42  1   
 43  17  43  1   
@<TRIPOS>SUBSTRUCTURE
  1 ****   1 GROUP 4 **** **** 0

# MOE 2024.06 (io_trps.svl 2023.06)
