@<TRIPOS>MOLECULE
NONAME
43 44 1 0 0 
SMALL
USER_CHARGES


@<TRIPOS>ATOM
  1 BR      -1.5650     0.8220     1.9570 Br    1 <1>  -0.1110 
  2 C       -0.7610     2.2020     0.8740 C.ar  1 <1>   0.1110 
  3 C       -1.3530     2.5580    -0.3280 C.ar  1 <1>  -0.1440 
  4 C        0.3940     2.7980     1.3410 C.ar  1 <1>  -0.1500 
  5 C       -0.7530     3.5600    -1.0780 C.ar  1 <1>  -0.1500 
  6 C       -2.6180     1.8770    -0.8110 C.3   1 <1>   0.4870 
  7 C        0.9870     3.7900     0.5800 C.ar  1 <1>   0.0830 
  8 C        0.3960     4.1920    -0.6270 C.ar  1 <1>   0.0830 
  9 N       -3.7720     2.3430     0.0140 N.4   1 <1>  -0.9590 
 10 O        2.1370     4.3250     1.0480 O.3   1 <1>  -0.3620 
 11 O        0.8770     5.1870    -1.4160 O.3   1 <1>  -0.3620 
 12 C       -5.0260     1.5340    -0.1930 C.3   1 <1>   0.4230 
 13 C       -3.9960     3.8050    -0.2060 C.3   1 <1>   0.3430 
 14 C        3.3180     3.9050     0.3990 C.3   1 <1>   0.0400 
 15 C        1.2120     6.4250    -0.8210 C.3   1 <1>   0.0400 
 16 C       -6.1230     2.0590     0.7520 C.3   1 <1>  -0.1600 
 17 C       -4.8080     0.0150     0.0350 C.3   1 <1>   0.1200 
 18 C       -5.0560     4.3300     0.7580 C.3   1 <1>  -0.1600 
 19 C       -6.3710     3.5640     0.6040 C.3   1 <1>  -0.1600 
 20 O       -5.9670    -0.6740    -0.2920 O.3   1 <1>  -0.6800 
 21 H        0.8350     2.4990     2.2750 H     1 <1>   0.1500 
 22 H       -1.1630     3.8750    -2.0220 H     1 <1>   0.1500 
 23 H       -2.4860     0.8130    -0.7140 H     1 <1>   0.0800 
 24 H       -2.7870     2.1040    -1.8510 H     1 <1>   0.0800 
 25 H       -3.4990     2.2310     0.9980 H     1 <1>   0.4500 
 26 H       -5.3560     1.6690    -1.2100 H     1 <1>   0.0800 
 27 H       -4.3210     3.9770    -1.2200 H     1 <1>   0.0800 
 28 H       -3.0800     4.3520    -0.0480 H     1 <1>   0.0800 
 29 H        4.1500     4.4110     0.8540 H     1 <1>   0.0800 
 30 H        3.2580     4.1590    -0.6450 H     1 <1>   0.0800 
 31 H        3.4220     2.8420     0.5200 H     1 <1>   0.0800 
 32 H        1.2010     7.1790    -1.5870 H     1 <1>   0.0800 
 33 H        2.1960     6.3600    -0.3950 H     1 <1>   0.0800 
 34 H        0.4880     6.6620    -0.0610 H     1 <1>   0.0800 
 35 H       -5.8580     1.8350     1.7710 H     1 <1>   0.0800 
 36 H       -7.0450     1.5430     0.5460 H     1 <1>   0.0800 
 37 H       -4.5810    -0.1880     1.0680 H     1 <1>   0.0800 
 38 H       -4.0300    -0.3760    -0.5950 H     1 <1>   0.0800 
 39 H       -5.2270     5.3740     0.5590 H     1 <1>   0.0800 
 40 H       -4.6950     4.2510     1.7700 H     1 <1>   0.0800 
 41 H       -7.0780     3.8940     1.3470 H     1 <1>   0.0800 
 42 H       -6.7970     3.7650    -0.3650 H     1 <1>   0.0800 
 43 H       -5.8900    -1.6340    -0.1030 H     1 <1>   0.4000 
@<TRIPOS>BOND
  1   1   2  1   
  2   2   3  ar  
  3   2   4  ar  
  4   3   5  ar  
  5   3   6  1   
  6   4   7  ar  
  7   4  21  1   
  8   5   8  ar  
  9   5  22  1   
 10   6   9  1   
 11   6  23  1   
 12   6  24  1   
 13   7   8  ar  
 14   7  10  1   
 15   8  11  1   
 16   9  12  1   
 17   9  13  1   
 18   9  25  1   
 19  10  14  1   
 20  11  15  1   
 21  12  16  1   
 22  12  17  1   
 23  12  26  1   
 24  13  18  1   
 25  13  27  1   
 26  13  28  1   
 27  14  29  1   
 28  14  30  1   
 29  14  31  1   
 30  15  32  1   
 31  15  33  1   
 32  15  34  1   
 33  16  19  1   
 34  16  35  1   
 35  16  36  1   
 36  17  20  1   
 37  17  37  1   
 38  17  38  1   
 39  18  19  1   
 40  18  39  1   
 41  18  40  1   
 42  19  41  1   
 43  19  42  1   
 44  20  43  1   
@<TRIPOS>SUBSTRUCTURE
  1 ****   3 GROUP 4 **** **** 0

# MOE 2024.06 (io_trps.svl 2023.06)
