@<TRIPOS>MOLECULE
NONAME
18 17 1 0 0 
SMALL
USER_CHARGES


@<TRIPOS>ATOM
  1 O        0.5390     4.1420    -0.8440 O.co2 1 <1>  -0.9000 
  2 C       -0.2290     3.8570     0.0910 C.2   1 <1>   0.9060 
  3 O       -0.5480     4.6650     0.9690 O.co2 1 <1>  -0.9000 
  4 C       -0.7490     2.4020     0.1230 C.3   1 <1>   0.3170 
  5 N       -0.3400     1.6990    -1.1330 N.4   1 <1>  -0.8530 
  6 C       -2.2800     2.2800     0.3230 C.3   1 <1>  -0.1600 
  7 C       -2.8070     0.8270     0.4820 C.3   1 <1>  -0.2660 
  8 C       -2.3020    -0.0710    -0.6160 C.2   1 <1>   0.9060 
  9 O       -2.6110     0.2150    -1.7740 O.co2 1 <1>  -0.9000 
 10 O       -1.3190    -0.7770    -0.3790 O.co2 1 <1>  -0.9000 
 11 H       -0.2600     1.9300     0.9550 H     1 <1>   0.0800 
 12 H       -0.1090     0.7090    -0.9320 H     1 <1>   0.4500 
 13 H        0.3920     2.2790    -1.5730 H     1 <1>   0.4500 
 14 H       -1.1660     1.5970    -1.7500 H     1 <1>   0.4500 
 15 H       -2.7720     2.7500    -0.5110 H     1 <1>   0.0800 
 16 H       -2.5500     2.8410     1.2010 H     1 <1>   0.0800 
 17 H       -3.8800     0.8180     0.4580 H     1 <1>   0.0800 
 18 H       -2.4850     0.4180     1.4220 H     1 <1>   0.0800 
@<TRIPOS>BOND
  1   1   2  ar  
  2   2   3  ar  
  3   2   4  1   
  4   4   5  1   
  5   4   6  1   
  6   4  11  1   
  7   5  12  1   
  8   5  13  1   
  9   5  14  1   
 10   6   7  1   
 11   6  15  1   
 12   6  16  1   
 13   7   8  1   
 14   7  17  1   
 15   7  18  1   
 16   8   9  ar  
 17   8  10  ar  
@<TRIPOS>SUBSTRUCTURE
  1 ****   4 GROUP 4 **** **** 0

# MOE 2024.06 (io_trps.svl 2023.06)
