@<TRIPOS>MOLECULE
NONAME
40 41 1 0 0 
SMALL
USER_CHARGES


@<TRIPOS>ATOM
  1 S        1.2550     0.6890    -1.3260 S.o2  1 <1>   1.3330 
  2 O        2.5350     1.0100    -1.9140 O.2   1 <1>  -0.6500 
  3 O        1.1730    -0.2500    -0.2360 O.2   1 <1>  -0.6500 
  4 N        0.5630     2.1860    -0.8010 N.am  1 <1>  -0.6930 
  5 C        0.1440     0.2020    -2.6270 C.3   1 <1>  -0.1350 
  6 C       -0.6280     2.2050    -0.0890 C.ar  1 <1>   0.1990 
  7 C        1.5190     3.3120    -0.5470 C.3   1 <1>   0.2570 
  8 C       -1.7860     2.6740    -0.6940 C.ar  1 <1>  -0.1500 
  9 C       -0.6870     1.7680     1.2320 C.ar  1 <1>  -0.1500 
 10 C        2.4690     3.0780     0.6320 C.2   1 <1>   0.5690 
 11 C       -2.9610     2.6860     0.0290 C.ar  1 <1>   0.1900 
 12 C       -1.8760     1.7890     1.9440 C.ar  1 <1>  -0.1500 
 13 O        2.2680     3.6630     1.6710 O.2   1 <1>  -0.5700 
 14 N        3.5110     2.2220     0.4820 N.am  1 <1>  -0.7300 
 15 F       -4.0480     3.1240    -0.5470 F     1 <1>  -0.1900 
 16 C       -3.0330     2.2520     1.3400 C.ar  1 <1>  -0.1500 
 17 C        4.4150     1.7670     1.5450 C.3   1 <1>   0.2200 
 18 C        5.8230     1.6680     0.9740 C.3   1 <1>  -0.1600 
 19 C        4.0730     0.3220     1.8830 C.3   1 <1>  -0.1600 
 20 C        5.8630     0.3400     0.2060 C.3   1 <1>  -0.1600 
 21 C        4.7490    -0.5300     0.8030 C.3   1 <1>  -0.1600 
 22 H        0.4750    -0.7190    -3.0660 H     1 <1>   0.0800 
 23 H        0.1110     0.9550    -3.3880 H     1 <1>   0.0800 
 24 H       -0.8440     0.0590    -2.2350 H     1 <1>   0.0800 
 25 H        0.9590     4.2070    -0.3480 H     1 <1>   0.0800 
 26 H        2.1060     3.4870    -1.4310 H     1 <1>   0.0800 
 27 H       -1.7700     3.0250    -1.7080 H     1 <1>   0.1500 
 28 H        0.2120     1.4090     1.7040 H     1 <1>   0.1500 
 29 H       -1.8970     1.4450     2.9650 H     1 <1>   0.1500 
 30 H        3.5880     1.6760    -0.3870 H     1 <1>   0.3700 
 31 H       -3.9680     2.2780     1.8690 H     1 <1>   0.1500 
 32 H        4.3580     2.4190     2.4020 H     1 <1>   0.0800 
 33 H        6.5200     1.6200     1.7920 H     1 <1>   0.0800 
 34 H        6.0730     2.5130     0.3570 H     1 <1>   0.0800 
 35 H        3.0100     0.1560     1.9340 H     1 <1>   0.0800 
 36 H        4.5040     0.0830     2.8390 H     1 <1>   0.0800 
 37 H        6.8260    -0.1310     0.2990 H     1 <1>   0.0800 
 38 H        5.6610     0.5150    -0.8370 H     1 <1>   0.0800 
 39 H        4.0350    -0.7800     0.0370 H     1 <1>   0.0800 
 40 H        5.1400    -1.4410     1.2220 H     1 <1>   0.0800 
@<TRIPOS>BOND
  1   1   2  2   
  2   1   3  2   
  3   1   4  am  
  4   1   5  1   
  5   4   6  1   
  6   4   7  1   
  7   5  22  1   
  8   5  23  1   
  9   5  24  1   
 10   6   8  ar  
 11   6   9  ar  
 12   7  10  1   
 13   7  25  1   
 14   7  26  1   
 15   8  11  ar  
 16   8  27  1   
 17   9  12  ar  
 18   9  28  1   
 19  10  13  2   
 20  10  14  am  
 21  11  15  1   
 22  11  16  ar  
 23  12  16  ar  
 24  12  29  1   
 25  14  17  1   
 26  14  30  1   
 27  16  31  1   
 28  17  18  1   
 29  17  19  1   
 30  17  32  1   
 31  18  20  1   
 32  18  33  1   
 33  18  34  1   
 34  19  21  1   
 35  19  35  1   
 36  19  36  1   
 37  20  21  1   
 38  20  37  1   
 39  20  38  1   
 40  21  39  1   
 41  21  40  1   
@<TRIPOS>SUBSTRUCTURE
  1 ****   4 GROUP 4 **** **** 0

# MOE 2024.06 (io_trps.svl 2023.06)
