@<TRIPOS>MOLECULE
NONAME
51 53 1 0 0 
SMALL
USER_CHARGES


@<TRIPOS>ATOM
  1 O       -0.0810    -1.8920     3.2560 O.2   1 <1>  -0.5700 
  2 C        0.2180    -1.5520     2.1370 C.2   1 <1>   0.5690 
  3 N       -0.7020    -1.0280     1.2860 N.am  1 <1>  -0.7300 
  4 C        1.6530    -1.7170     1.6640 C.3   1 <1>   0.0440 
  5 C       -2.1200    -0.8280     1.5860 C.3   1 <1>   0.2200 
  6 C        1.8160    -1.3660     0.1820 C.ar  1 <1>  -0.1440 
  7 C       -2.9500    -1.7240     0.6720 C.3   1 <1>  -0.1600 
  8 C       -2.4700     0.6430     1.3800 C.3   1 <1>  -0.1600 
  9 C        1.5080    -2.2710    -0.8310 C.ar  1 <1>  -0.1440 
 10 C        2.2580    -0.0930    -0.1500 C.ar  1 <1>  -0.1500 
 11 C       -4.4390    -1.4680     0.8860 C.3   1 <1>   0.3430 
 12 C       -3.9640     0.8680     1.5870 C.3   1 <1>   0.3430 
 13 C        1.6440    -1.8830    -2.1560 C.ar  1 <1>  -0.1500 
 14 C        1.0240    -3.6840    -0.5310 C.3   1 <1>  -0.0960 
 15 C        2.3890     0.2860    -1.4730 C.ar  1 <1>  -0.1500 
 16 N       -4.7380    -0.0190     0.6720 N.4   1 <1>  -0.9590 
 17 C        2.0810    -0.6110    -2.4780 C.ar  1 <1>  -0.1500 
 18 C       -6.1990     0.2520     0.7580 C.3   1 <1>   0.4860 
 19 C       -6.8900    -0.4890    -0.3700 C.ar  1 <1>  -0.1440 
 20 C       -7.6360    -1.6280    -0.1030 C.ar  1 <1>  -0.1500 
 21 C       -6.7730    -0.0390    -1.6780 C.ar  1 <1>  -0.1500 
 22 C       -8.2480    -2.3170    -1.1360 C.ar  1 <1>  -0.1500 
 23 C       -7.3850    -0.7300    -2.7090 C.ar  1 <1>  -0.1500 
 24 C       -8.1200    -1.8700    -2.4380 C.ar  1 <1>  -0.1500 
 25 H       -0.3740    -0.8000     0.3400 H     1 <1>   0.3700 
 26 H        1.9650    -2.7270     1.8480 H     1 <1>   0.0800 
 27 H        2.2770    -1.0810     2.2640 H     1 <1>   0.0800 
 28 H       -2.3090    -1.0970     2.6150 H     1 <1>   0.0800 
 29 H       -2.7380    -2.7540     0.9000 H     1 <1>   0.0800 
 30 H       -2.7000    -1.5490    -0.3600 H     1 <1>   0.0800 
 31 H       -2.1900     0.9630     0.3920 H     1 <1>   0.0800 
 32 H       -1.9250     1.2370     2.0930 H     1 <1>   0.0800 
 33 H        2.5030     0.6170     0.6210 H     1 <1>   0.1500 
 34 H       -4.7130    -1.7560     1.8880 H     1 <1>   0.0800 
 35 H       -5.0050    -2.0710     0.1930 H     1 <1>   0.0800 
 36 H       -4.2010     1.9020     1.3920 H     1 <1>   0.0800 
 37 H       -4.2200     0.6490     2.6120 H     1 <1>   0.0800 
 38 H        1.4150    -2.5710    -2.9500 H     1 <1>   0.1500 
 39 H        0.1660    -3.6620     0.1150 H     1 <1>   0.0800 
 40 H        1.8080    -4.2450    -0.0540 H     1 <1>   0.0800 
 41 H        0.7490    -4.1980    -1.4350 H     1 <1>   0.0800 
 42 H        2.7350     1.2740    -1.7210 H     1 <1>   0.1500 
 43 H       -4.4690     0.1940    -0.2970 H     1 <1>   0.4500 
 44 H        2.1850    -0.3220    -3.5090 H     1 <1>   0.1500 
 45 H       -6.3900     1.3080     0.6540 H     1 <1>   0.0800 
 46 H       -6.5880    -0.0750     1.7080 H     1 <1>   0.0800 
 47 H       -7.7560    -1.9930     0.9030 H     1 <1>   0.1500 
 48 H       -6.2140     0.8500    -1.9150 H     1 <1>   0.1500 
 49 H       -8.8270    -3.2010    -0.9300 H     1 <1>   0.1500 
 50 H       -7.2960    -0.3820    -3.7250 H     1 <1>   0.1500 
 51 H       -8.5980    -2.4060    -3.2410 H     1 <1>   0.1500 
@<TRIPOS>BOND
  1   1   2  2   
  2   2   3  am  
  3   2   4  1   
  4   3   5  1   
  5   3  25  1   
  6   4   6  1   
  7   4  26  1   
  8   4  27  1   
  9   5   7  1   
 10   5   8  1   
 11   5  28  1   
 12   6   9  ar  
 13   6  10  ar  
 14   7  11  1   
 15   7  29  1   
 16   7  30  1   
 17   8  12  1   
 18   8  31  1   
 19   8  32  1   
 20   9  13  ar  
 21   9  14  1   
 22  10  15  ar  
 23  10  33  1   
 24  11  16  1   
 25  11  34  1   
 26  11  35  1   
 27  12  16  1   
 28  12  36  1   
 29  12  37  1   
 30  13  17  ar  
 31  13  38  1   
 32  14  39  1   
 33  14  40  1   
 34  14  41  1   
 35  15  17  ar  
 36  15  42  1   
 37  16  18  1   
 38  16  43  1   
 39  17  44  1   
 40  18  19  1   
 41  18  45  1   
 42  18  46  1   
 43  19  20  ar  
 44  19  21  ar  
 45  20  22  ar  
 46  20  47  1   
 47  21  23  ar  
 48  21  48  1   
 49  22  24  ar  
 50  22  49  1   
 51  23  24  ar  
 52  23  50  1   
 53  24  51  1   
@<TRIPOS>SUBSTRUCTURE
  1 ****   7 GROUP 4 **** **** 0

# MOE 2024.06 (io_trps.svl 2023.06)
