@<TRIPOS>MOLECULE
NONAME
43 45 1 0 0 
SMALL
USER_CHARGES


@<TRIPOS>ATOM
  1 O       -4.7660    -2.8490     0.8590 O.3   1 <1>  -0.3630 
  2 C       -3.6410    -3.5190     0.5080 C.ar  1 <1>   0.0830 
  3 C       -5.7220    -2.4570    -0.1010 C.3   1 <1>   0.0400 
  4 C       -2.7620    -3.8360     1.5280 C.ar  1 <1>  -0.1500 
  5 C       -3.3350    -3.8950    -0.7950 C.ar  1 <1>  -0.1500 
  6 C       -1.5900    -4.5200     1.2620 C.ar  1 <1>  -0.1500 
  7 C       -2.1630    -4.5800    -1.0620 C.ar  1 <1>  -0.1500 
  8 C       -1.2790    -4.9030    -0.0400 C.ar  1 <1>  -0.1430 
  9 C       -0.0110    -5.6740    -0.3860 C.3   1 <1>   0.5660 
 10 N        0.1920    -6.7230     0.6250 N.4   1 <1>  -0.9060 
 11 C        1.2710    -4.8170    -0.5580 C.3   1 <1>  -0.0800 
 12 C        1.2130    -7.7300     0.2350 C.3   1 <1>   0.3430 
 13 C        2.5300    -5.5500    -0.0450 C.3   1 <1>   0.2800 
 14 C        1.2240    -3.3540    -0.0350 C.3   1 <1>  -0.1600 
 15 C        2.4550    -7.0500    -0.3660 C.3   1 <1>  -0.1600 
 16 O        2.5540    -5.4460     1.3350 O.3   1 <1>  -0.6800 
 17 C        3.8130    -4.8810    -0.5770 C.3   1 <1>  -0.1600 
 18 C        2.6140    -2.6840     0.0370 C.3   1 <1>  -0.1600 
 19 C        3.6620    -3.3670    -0.8540 C.3   1 <1>  -0.1600 
 20 H       -6.5140    -1.9390     0.4100 H     1 <1>   0.0800 
 21 H       -6.1130    -3.3350    -0.5840 H     1 <1>   0.0800 
 22 H       -5.2550    -1.7990    -0.8120 H     1 <1>   0.0800 
 23 H       -3.0060    -3.5360     2.5320 H     1 <1>   0.1500 
 24 H       -3.9970    -3.6600    -1.6080 H     1 <1>   0.1500 
 25 H       -0.9330    -4.7340     2.0870 H     1 <1>   0.1500 
 26 H       -1.9540    -4.8570    -2.0820 H     1 <1>   0.1500 
 27 H       -0.1920    -6.1660    -1.3280 H     1 <1>   0.0800 
 28 H       -0.7090    -7.1260     0.9020 H     1 <1>   0.4500 
 29 H        0.5950    -6.2240     1.4340 H     1 <1>   0.4500 
 30 H        1.3840    -4.7300    -1.6240 H     1 <1>   0.0800 
 31 H        0.8010    -8.4260    -0.4790 H     1 <1>   0.0800 
 32 H        1.5090    -8.2860     1.1110 H     1 <1>   0.0800 
 33 H        0.7940    -3.3140     0.9510 H     1 <1>   0.0800 
 34 H        0.5880    -2.7740    -0.6820 H     1 <1>   0.0800 
 35 H        2.4350    -7.1810    -1.4330 H     1 <1>   0.0800 
 36 H        3.3410    -7.5460    -0.0110 H     1 <1>   0.0800 
 37 H        2.9450    -4.5770     1.5690 H     1 <1>   0.4000 
 38 H        4.0990    -5.3450    -1.5040 H     1 <1>   0.0800 
 39 H        4.6230    -5.0510     0.1130 H     1 <1>   0.0800 
 40 H        2.9660    -2.6970     1.0550 H     1 <1>   0.0800 
 41 H        2.5240    -1.6480    -0.2440 H     1 <1>   0.0800 
 42 H        3.3700    -3.2280    -1.8820 H     1 <1>   0.0800 
 43 H        4.6170    -2.8820    -0.7320 H     1 <1>   0.0800 
@<TRIPOS>BOND
  1   1   2  1   
  2   1   3  1   
  3   2   4  ar  
  4   2   5  ar  
  5   3  20  1   
  6   3  21  1   
  7   3  22  1   
  8   4   6  ar  
  9   4  23  1   
 10   5   7  ar  
 11   5  24  1   
 12   6   8  ar  
 13   6  25  1   
 14   7   8  ar  
 15   7  26  1   
 16   8   9  1   
 17   9  10  1   
 18   9  11  1   
 19   9  27  1   
 20  10  12  1   
 21  10  28  1   
 22  10  29  1   
 23  11  13  1   
 24  11  14  1   
 25  11  30  1   
 26  12  15  1   
 27  12  31  1   
 28  12  32  1   
 29  13  15  1   
 30  13  16  1   
 31  13  17  1   
 32  14  18  1   
 33  14  33  1   
 34  14  34  1   
 35  15  35  1   
 36  15  36  1   
 37  16  37  1   
 38  17  19  1   
 39  17  38  1   
 40  17  39  1   
 41  18  19  1   
 42  18  40  1   
 43  18  41  1   
 44  19  42  1   
 45  19  43  1   
@<TRIPOS>SUBSTRUCTURE
  1 ****   8 GROUP 4 **** **** 0

# MOE 2024.06 (io_trps.svl 2023.06)
