@<TRIPOS>MOLECULE
NONAME
37 38 1 0 0 
SMALL
USER_CHARGES


@<TRIPOS>ATOM
  1 F        2.9210    -1.3190     1.1270 F     1 <1>  -0.1900 
  2 C        2.5660    -0.0960     0.8280 C.ar  1 <1>   0.1900 
  3 C        3.5110     0.8090     0.3650 C.ar  1 <1>  -0.1440 
  4 C        1.2320     0.2280     0.9970 C.ar  1 <1>  -0.1500 
  5 C        3.0850     2.1030     0.0540 C.ar  1 <1>   0.1170 
  6 C        4.9820     0.4170     0.2020 C.3   1 <1>  -0.0970 
  7 C        0.8180     1.5100     0.6900 C.ar  1 <1>  -0.1500 
  8 N        3.9990     3.0470    -0.4400 N.am  1 <1>  -0.5470 
  9 C        1.7400     2.4310     0.2220 C.ar  1 <1>  -0.1500 
 10 C        4.0740     4.4040    -0.2890 C.2   1 <1>   0.5690 
 11 O        3.2460     5.0200     0.3440 O.2   1 <1>  -0.5700 
 12 C        5.2200     5.1580    -1.0030 C.3   1 <1>  -0.0190 
 13 C        6.6520     4.7970    -0.5120 C.3   1 <1>  -0.1860 
 14 C        5.0560     6.6980    -0.9830 C.3   1 <1>  -0.1600 
 15 C        6.9700     3.3080    -0.6370 C.2   1 <1>   0.9060 
 16 C        6.9020     5.3710     0.9000 C.3   1 <1>  -0.1600 
 17 C        5.3610     7.3190     0.3920 C.3   1 <1>  -0.1600 
 18 O        7.6910     2.7470     0.1890 O.co2 1 <1>  -0.9000 
 19 O        6.4590     2.6800    -1.5730 O.co2 1 <1>  -0.9000 
 20 C        6.7400     6.8970     0.9110 C.3   1 <1>  -0.1600 
 21 H        0.5410    -0.5090     1.3610 H     1 <1>   0.1500 
 22 H        5.1840    -0.5710     0.5680 H     1 <1>   0.0800 
 23 H        5.6090     1.1020     0.7450 H     1 <1>   0.0800 
 24 H        5.2620     0.4550    -0.8360 H     1 <1>   0.0800 
 25 H       -0.2120     1.7940     0.8120 H     1 <1>   0.1500 
 26 H        4.8370     2.6460    -0.9080 H     1 <1>   0.3700 
 27 H        1.4100     3.4250    -0.0210 H     1 <1>   0.1500 
 28 H        5.1540     4.8590    -2.0340 H     1 <1>   0.0800 
 29 H        7.3500     5.2710    -1.1750 H     1 <1>   0.0800 
 30 H        4.0550     6.9580    -1.2800 H     1 <1>   0.0800 
 31 H        5.7290     7.1230    -1.7070 H     1 <1>   0.0800 
 32 H        7.8990     5.1170     1.2180 H     1 <1>   0.0800 
 33 H        6.2160     4.9200     1.5970 H     1 <1>   0.0800 
 34 H        4.6130     7.0110     1.1010 H     1 <1>   0.0800 
 35 H        5.3160     8.3910     0.3200 H     1 <1>   0.0800 
 36 H        7.5030     7.3350     0.2920 H     1 <1>   0.0800 
 37 H        6.8760     7.2630     1.9130 H     1 <1>   0.0800 
@<TRIPOS>BOND
  1   1   2  1   
  2   2   3  ar  
  3   2   4  ar  
  4   3   5  ar  
  5   3   6  1   
  6   4   7  ar  
  7   4  21  1   
  8   5   8  1   
  9   5   9  ar  
 10   6  22  1   
 11   6  23  1   
 12   6  24  1   
 13   7   9  ar  
 14   7  25  1   
 15   8  10  am  
 16   8  26  1   
 17   9  27  1   
 18  10  11  2   
 19  10  12  1   
 20  12  13  1   
 21  12  14  1   
 22  12  28  1   
 23  13  15  1   
 24  13  16  1   
 25  13  29  1   
 26  14  17  1   
 27  14  30  1   
 28  14  31  1   
 29  15  18  ar  
 30  15  19  ar  
 31  16  20  1   
 32  16  32  1   
 33  16  33  1   
 34  17  20  1   
 35  17  34  1   
 36  17  35  1   
 37  20  36  1   
 38  20  37  1   
@<TRIPOS>SUBSTRUCTURE
  1 ****   8 GROUP 4 **** **** 0

# MOE 2024.06 (io_trps.svl 2023.06)
