@<TRIPOS>MOLECULE
NONAME
32 32 1 0 0 
SMALL
USER_CHARGES


@<TRIPOS>ATOM
  1 O        0.5040     0.5470     0.2390 O.3   1 <1>  -0.5600 
  2 C        1.4660    -0.4310    -0.0630 C.3   1 <1>   0.5600 
  3 C       -0.5840     0.0820     1.0010 C.3   1 <1>   0.1200 
  4 O        2.2690     0.0830    -1.0790 O.3   1 <1>  -0.5600 
  5 C        0.7920    -1.7150    -0.6150 C.3   1 <1>   0.1200 
  6 C        2.3280    -0.7220     1.1700 C.3   1 <1>  -0.2400 
  7 C       -1.2680    -1.1630     0.3640 C.3   1 <1>   0.5600 
  8 C        2.7040     1.4030    -0.9600 C.3   1 <1>   0.3200 
  9 O       -0.2950    -2.1400     0.1820 O.3   1 <1>  -0.5600 
 10 O       -1.8140    -0.9540    -0.9050 O.3   1 <1>  -0.5600 
 11 C       -2.3440    -1.7670     1.2580 C.3   1 <1>  -0.2400 
 12 C        3.7530     1.6390    -1.9920 C.1   1 <1>  -0.2000 
 13 C       -2.4860     0.2400    -1.1430 C.3   1 <1>   0.3200 
 14 C        4.5910     1.8270    -2.8150 C.1   1 <1>  -0.1770 
 15 C       -3.2240     0.1100    -2.4290 C.1   1 <1>  -0.2000 
 16 C       -3.8120     0.0050    -3.4580 C.1   1 <1>  -0.1770 
 17 H       -1.2830     0.8890     1.1170 H     1 <1>   0.0800 
 18 H       -0.2250    -0.1730     1.9820 H     1 <1>   0.0800 
 19 H        1.5050    -2.5170    -0.6470 H     1 <1>   0.0800 
 20 H        0.4370    -1.5380    -1.6150 H     1 <1>   0.0800 
 21 H        3.1970    -1.2810     0.8760 H     1 <1>   0.0800 
 22 H        1.7790    -1.3190     1.8730 H     1 <1>   0.0800 
 23 H        2.6330     0.1860     1.6540 H     1 <1>   0.0800 
 24 H        3.1140     1.5690     0.0190 H     1 <1>   0.0800 
 25 H        1.8680     2.0600    -1.1260 H     1 <1>   0.0800 
 26 H       -1.9120    -2.0700     2.1940 H     1 <1>   0.0800 
 27 H       -2.7710    -2.6280     0.7760 H     1 <1>   0.0800 
 28 H       -3.1200    -1.0520     1.4570 H     1 <1>   0.0800 
 29 H       -1.7640     1.0360    -1.2130 H     1 <1>   0.0800 
 30 H       -3.1800     0.4300    -0.3430 H     1 <1>   0.0800 
 31 H        5.3460     1.9890    -3.5640 H     1 <1>   0.1770 
 32 H       -4.3370    -0.1010    -4.3910 H     1 <1>   0.1770 
@<TRIPOS>BOND
  1   1   2  1   
  2   1   3  1   
  3   2   4  1   
  4   2   5  1   
  5   2   6  1   
  6   3   7  1   
  7   3  17  1   
  8   3  18  1   
  9   4   8  1   
 10   5   9  1   
 11   5  19  1   
 12   5  20  1   
 13   6  21  1   
 14   6  22  1   
 15   6  23  1   
 16   7   9  1   
 17   7  10  1   
 18   7  11  1   
 19   8  12  1   
 20   8  24  1   
 21   8  25  1   
 22  10  13  1   
 23  11  26  1   
 24  11  27  1   
 25  11  28  1   
 26  12  14  3   
 27  13  15  1   
 28  13  29  1   
 29  13  30  1   
 30  14  31  1   
 31  15  16  3   
 32  16  32  1   
@<TRIPOS>SUBSTRUCTURE
  1 ****   1 GROUP 4 **** **** 0

# MOE 2024.06 (io_trps.svl 2023.06)
