@<TRIPOS>MOLECULE
NONAME
32 34 1 0 0 
SMALL
USER_CHARGES


@<TRIPOS>ATOM
  1 O       -0.1930    -0.2640     0.5310 O.2   1 <1>  -0.5700 
  2 C       -0.7960    -1.3280     0.3250 C.2   1 <1>   0.7040 
  3 C       -2.2320    -1.3390     0.3400 C.cat 1 <1>   0.7510 
  4 C        0.0010    -2.4910     0.0290 C.2   1 <1>   0.0550 
  5 N       -3.0200    -0.2260     0.1520 N.pl3 1 <1>  -0.7000 
  6 N       -3.0900    -2.3630     0.5780 N.pl3 1 <1>  -0.8080 
  7 O       -0.3340    -3.3200    -0.9550 O.3   1 <1>  -0.2800 
  8 C        1.1650    -2.9340     0.5850 C.2   1 <1>  -0.1500 
  9 C       -4.3320    -0.5800     0.2460 C.2   1 <1>   0.1820 
 10 O       -2.7640    -3.5490     0.9300 O.3   1 <1>  -0.4420 
 11 C       -4.3820    -1.9050     0.5010 C.2   1 <1>   0.1820 
 12 C        0.5580    -4.2820    -1.0240 C.2   1 <1>  -0.0100 
 13 C        1.5200    -4.0990    -0.0950 C.2   1 <1>  -0.1500 
 14 C       -5.4450     0.4410     0.1100 C.3   1 <1>   0.0080 
 15 C       -5.5650    -2.8300     0.7260 C.3   1 <1>   0.0080 
 16 C       -6.6450    -0.0520    -0.7100 C.3   1 <1>  -0.1600 
 17 C       -6.7460    -2.5790    -0.2220 C.3   1 <1>  -0.1600 
 18 C       -7.4230    -1.2090    -0.0640 C.3   1 <1>  -0.1600 
 19 H       -2.6090     0.6980     0.0190 H     1 <1>   0.4500 
 20 H        1.7170    -2.4870     1.3930 H     1 <1>   0.1500 
 21 H        0.4310    -5.0570    -1.7590 H     1 <1>   0.1500 
 22 H        2.3840    -4.7080     0.1040 H     1 <1>   0.1500 
 23 H       -5.0490     1.3160    -0.3730 H     1 <1>   0.0800 
 24 H       -5.7690     0.7320     1.0930 H     1 <1>   0.0800 
 25 H       -5.8770    -2.7480     1.7510 H     1 <1>   0.0800 
 26 H       -5.2330    -3.8420     0.5750 H     1 <1>   0.0800 
 27 H       -6.3180    -0.3370    -1.6960 H     1 <1>   0.0800 
 28 H       -7.3220     0.7770    -0.8290 H     1 <1>   0.0800 
 29 H       -7.4820    -3.3400    -0.0260 H     1 <1>   0.0800 
 30 H       -6.4180    -2.7140    -1.2390 H     1 <1>   0.0800 
 31 H       -8.3810    -1.2670    -0.5550 H     1 <1>   0.0800 
 32 H       -7.6150    -1.0030     0.9750 H     1 <1>   0.0800 
@<TRIPOS>BOND
  1   1   2  2   
  2   2   3  1   
  3   2   4  1   
  4   3   5  ar  
  5   3   6  ar  
  6   4   7  1   
  7   4   8  2   
  8   5   9  1   
  9   5  19  1   
 10   6  10  1   
 11   6  11  1   
 12   7  12  1   
 13   8  13  1   
 14   8  20  1   
 15   9  11  2   
 16   9  14  1   
 17  11  15  1   
 18  12  13  2   
 19  12  21  1   
 20  13  22  1   
 21  14  16  1   
 22  14  23  1   
 23  14  24  1   
 24  15  17  1   
 25  15  25  1   
 26  15  26  1   
 27  16  18  1   
 28  16  27  1   
 29  16  28  1   
 30  17  18  1   
 31  17  29  1   
 32  17  30  1   
 33  18  31  1   
 34  18  32  1   
@<TRIPOS>SUBSTRUCTURE
  1 ****   6 GROUP 4 **** **** 0

# MOE 2024.06 (io_trps.svl 2023.06)
