@<TRIPOS>MOLECULE
NONAME
47 49 1 0 0 
SMALL
USER_CHARGES


@<TRIPOS>ATOM
  1 S        1.2240     0.9890    -0.5590 S.3   1 <1>  -0.0800 
  2 C        1.3550     2.7370    -0.5110 C.2   1 <1>   0.1660 
  3 C       -0.2290     1.0460     0.4270 C.2   1 <1>  -0.1400 
  4 N        2.3660     3.3930    -1.1220 N.2   1 <1>  -0.5760 
  5 C        0.3470     3.2950     0.2100 C.2   1 <1>  -0.0860 
  6 C       -0.5630     2.3100     0.7350 C.2   1 <1>  -0.1810 
  7 C       -0.9420    -0.2280     0.8220 C.3   1 <1>   0.0200 
  8 C        2.3300     4.6740    -0.9890 C.2   1 <1>   0.6510 
  9 C        0.3630     4.7150     0.3320 C.2   1 <1>   0.7160 
 10 C       -1.7940     2.6250     1.5710 C.3   1 <1>   0.0210 
 11 C       -1.9540     0.0900     1.9380 C.3   1 <1>  -0.1600 
 12 S        3.6910     5.5740    -1.7210 S.3   1 <1>  -0.3710 
 13 N        1.3570     5.4010    -0.3370 N.am  1 <1>  -0.4200 
 14 O       -0.4480     5.3150     1.0260 O.2   1 <1>  -0.5700 
 15 C       -2.7250     1.3980     1.6650 C.3   1 <1>  -0.1600 
 16 C        5.0190     4.2860    -1.9570 C.3   1 <1>   0.1310 
 17 C        1.3030     6.8870    -0.3430 C.3   1 <1>   0.2780 
 18 C        5.6950     3.9350    -0.6390 C.2   1 <1>   0.6590 
 19 C        0.3360     7.3750    -1.4200 C.2   1 <1>  -0.2760 
 20 O        6.8820     3.7350    -0.5830 O.2   1 <1>  -0.5700 
 21 O        4.9200     3.8530     0.4360 O.3   1 <1>  -0.4300 
 22 C       -0.8510     7.9170    -1.1280 C.2   1 <1>  -0.3000 
 23 C        0.8160     7.2040    -2.8540 C.3   1 <1>  -0.1020 
 24 C        5.4150     3.4810     1.6980 C.3   1 <1>   0.1200 
 25 C        4.2300     3.4200     2.6560 C.3   1 <1>  -0.2400 
 26 H       -0.2310    -0.9580     1.1660 H     1 <1>   0.0800 
 27 H       -1.4500    -0.6220    -0.0400 H     1 <1>   0.0800 
 28 H       -2.3350     3.4460     1.1330 H     1 <1>   0.0800 
 29 H       -1.4760     2.9220     2.5550 H     1 <1>   0.0800 
 30 H       -1.4230     0.1910     2.8690 H     1 <1>   0.0800 
 31 H       -2.6440    -0.7300     2.0390 H     1 <1>   0.0800 
 32 H       -3.2570     1.2980     0.7350 H     1 <1>   0.0800 
 33 H       -3.4510     1.5640     2.4420 H     1 <1>   0.0800 
 34 H        5.7390     4.7000    -2.6370 H     1 <1>   0.0800 
 35 H        4.5690     3.4160    -2.3950 H     1 <1>   0.0800 
 36 H        2.2730     7.3240    -0.4910 H     1 <1>   0.0800 
 37 H        0.9640     7.2310     0.6190 H     1 <1>   0.0800 
 38 H       -1.5540     8.2720    -1.8620 H     1 <1>   0.1500 
 39 H       -1.2260     8.0460    -0.1260 H     1 <1>   0.1500 
 40 H        0.9360     6.1630    -3.0920 H     1 <1>   0.0800 
 41 H        1.7570     7.7060    -2.9960 H     1 <1>   0.0800 
 42 H        0.1040     7.6220    -3.5430 H     1 <1>   0.0800 
 43 H        6.1370     4.2160     2.0120 H     1 <1>   0.0800 
 44 H        5.8900     2.5190     1.6080 H     1 <1>   0.0800 
 45 H        3.7610     4.3840     2.7290 H     1 <1>   0.0800 
 46 H        4.5680     3.1280     3.6340 H     1 <1>   0.0800 
 47 H        3.5120     2.6970     2.3100 H     1 <1>   0.0800 
@<TRIPOS>BOND
  1   1   2  1   
  2   1   3  1   
  3   2   4  1   
  4   2   5  2   
  5   3   6  2   
  6   3   7  1   
  7   4   8  2   
  8   5   6  1   
  9   5   9  1   
 10   6  10  1   
 11   7  11  1   
 12   7  26  1   
 13   7  27  1   
 14   8  12  1   
 15   8  13  1   
 16   9  13  am  
 17   9  14  2   
 18  10  15  1   
 19  10  28  1   
 20  10  29  1   
 21  11  15  1   
 22  11  30  1   
 23  11  31  1   
 24  12  16  1   
 25  13  17  1   
 26  15  32  1   
 27  15  33  1   
 28  16  18  1   
 29  16  34  1   
 30  16  35  1   
 31  17  19  1   
 32  17  36  1   
 33  17  37  1   
 34  18  20  2   
 35  18  21  1   
 36  19  22  2   
 37  19  23  1   
 38  21  24  1   
 39  22  38  1   
 40  22  39  1   
 41  23  40  1   
 42  23  41  1   
 43  23  42  1   
 44  24  25  1   
 45  24  43  1   
 46  24  44  1   
 47  25  45  1   
 48  25  46  1   
 49  25  47  1   
@<TRIPOS>SUBSTRUCTURE
  1 ****   2 GROUP 4 **** **** 0

# MOE 2024.06 (io_trps.svl 2023.06)
