@<TRIPOS>MOLECULE
NONAME
38 38 1 0 0 
SMALL
USER_CHARGES


@<TRIPOS>ATOM
  1 CL      -0.3960    -0.1810    -1.1220 Cl    1 <1>  -0.1770 
  2 C       -1.8940    -0.9480    -0.6410 C.ar  1 <1>   0.1770 
  3 C       -3.0430    -0.1930    -0.4730 C.ar  1 <1>  -0.1440 
  4 C       -1.8920    -2.3140    -0.4370 C.ar  1 <1>  -0.1500 
  5 C       -4.2060    -0.8420    -0.0910 C.ar  1 <1>  -0.1500 
  6 C       -3.0340     1.3120    -0.7000 C.3   1 <1>  -0.0960 
  7 C       -3.0530    -2.9710    -0.0540 C.ar  1 <1>  -0.1430 
  8 C       -4.2210    -2.2230     0.1190 C.ar  1 <1>   0.0830 
  9 C       -3.0190    -4.4890     0.1650 C.3   1 <1>   0.0640 
 10 O       -5.3510    -2.8800     0.4940 O.3   1 <1>  -0.3630 
 11 C       -2.0500    -4.8560     1.2950 C.3   1 <1>  -0.2400 
 12 C       -2.6420    -5.2200    -1.1290 C.3   1 <1>  -0.2400 
 13 C       -6.5860    -2.2210     0.6650 C.3   1 <1>   0.1200 
 14 C       -7.6300    -3.2650     1.0560 C.3   1 <1>   0.1400 
 15 N       -8.9600    -2.6240     1.2170 N.am  1 <1>  -0.7300 
 16 C      -10.0090    -2.6220     0.3650 C.2   1 <1>   0.5690 
 17 O      -11.0250    -2.0540     0.6680 O.2   1 <1>  -0.5700 
 18 C       -9.9250    -3.3170    -0.9710 C.3   1 <1>  -0.1790 
 19 H       -0.9740    -2.8520    -0.5810 H     1 <1>   0.1500 
 20 H       -5.0940    -0.2560     0.0390 H     1 <1>   0.1500 
 21 H       -2.7410     1.5280    -1.7130 H     1 <1>   0.0800 
 22 H       -2.3330     1.7790    -0.0310 H     1 <1>   0.0800 
 23 H       -4.0060     1.7380    -0.5290 H     1 <1>   0.0800 
 24 H       -3.9910    -4.8430     0.4560 H     1 <1>   0.0800 
 25 H       -1.0400    -4.5940     1.0400 H     1 <1>   0.0800 
 26 H       -2.0920    -5.9120     1.4910 H     1 <1>   0.0800 
 27 H       -2.3250    -4.3310     2.1930 H     1 <1>   0.0800 
 28 H       -1.6460    -4.9660    -1.4410 H     1 <1>   0.0800 
 29 H       -3.3280    -4.9480    -1.9120 H     1 <1>   0.0800 
 30 H       -2.6950    -6.2840    -0.9830 H     1 <1>   0.0800 
 31 H       -6.8530    -1.7550    -0.2670 H     1 <1>   0.0800 
 32 H       -6.4740    -1.4880     1.4440 H     1 <1>   0.0800 
 33 H       -7.3490    -3.7260     1.9870 H     1 <1>   0.0800 
 34 H       -7.6770    -4.0250     0.2970 H     1 <1>   0.0800 
 35 H       -9.1240    -2.1320     2.0990 H     1 <1>   0.3700 
 36 H       -9.0820    -2.9510    -1.5240 H     1 <1>   0.0800 
 37 H      -10.8200    -3.1240    -1.5340 H     1 <1>   0.0800 
 38 H       -9.8320    -4.3760    -0.8230 H     1 <1>   0.0800 
@<TRIPOS>BOND
  1   1   2  1   
  2   2   3  ar  
  3   2   4  ar  
  4   3   5  ar  
  5   3   6  1   
  6   4   7  ar  
  7   4  19  1   
  8   5   8  ar  
  9   5  20  1   
 10   6  21  1   
 11   6  22  1   
 12   6  23  1   
 13   7   8  ar  
 14   7   9  1   
 15   8  10  1   
 16   9  11  1   
 17   9  12  1   
 18   9  24  1   
 19  10  13  1   
 20  11  25  1   
 21  11  26  1   
 22  11  27  1   
 23  12  28  1   
 24  12  29  1   
 25  12  30  1   
 26  13  14  1   
 27  13  31  1   
 28  13  32  1   
 29  14  15  1   
 30  14  33  1   
 31  14  34  1   
 32  15  16  am  
 33  15  35  1   
 34  16  17  2   
 35  16  18  1   
 36  18  36  1   
 37  18  37  1   
 38  18  38  1   
@<TRIPOS>SUBSTRUCTURE
  1 ****   8 GROUP 4 **** **** 0

# MOE 2024.06 (io_trps.svl 2023.06)
