@<TRIPOS>MOLECULE
NONAME
38 38 1 0 0 
SMALL
USER_CHARGES


@<TRIPOS>ATOM
  1 CL       1.0030     0.8730     2.3650 Cl    1 <1>  -0.1770 
  2 C        2.0660     1.4750     1.1120 C.ar  1 <1>   0.1770 
  3 C        1.8760     2.7400     0.5670 C.ar  1 <1>   0.0820 
  4 C        3.0930     0.6490     0.6910 C.ar  1 <1>  -0.1500 
  5 O        0.8390     3.5000     1.0020 O.3   1 <1>  -0.3630 
  6 C        2.7680     3.1850    -0.4190 C.ar  1 <1>   0.0830 
  7 C        3.9630     1.0840    -0.2980 C.ar  1 <1>  -0.1440 
  8 C       -0.3960     3.2810     0.3570 C.3   1 <1>   0.0400 
  9 O        2.7350     4.4030    -1.0230 O.3   1 <1>  -0.3630 
 10 C        3.7860     2.3460    -0.8460 C.ar  1 <1>  -0.1500 
 11 C        5.1000     0.2040    -0.7690 C.3   1 <1>   0.4860 
 12 C        2.2910     5.5510    -0.3280 C.3   1 <1>   0.0400 
 13 N        6.2910     0.6020     0.0060 N.4   1 <1>  -0.9060 
 14 C        7.5200    -0.1430    -0.3590 C.3   1 <1>   0.3430 
 15 C        8.7120     0.3590     0.4700 C.3   1 <1>  -0.0800 
 16 C        8.9830     1.8610     0.2700 C.3   1 <1>  -0.2400 
 17 C        9.9700    -0.4360     0.0950 C.3   1 <1>  -0.2400 
 18 H        3.1860    -0.3220     1.1460 H     1 <1>   0.1500 
 19 H       -1.1180     3.9600     0.7740 H     1 <1>   0.0800 
 20 H       -0.7080     2.2660     0.5270 H     1 <1>   0.0800 
 21 H       -0.2780     3.4680    -0.6960 H     1 <1>   0.0800 
 22 H        4.4370     2.7140    -1.6220 H     1 <1>   0.1500 
 23 H        5.2660     0.3530    -1.8240 H     1 <1>   0.0800 
 24 H        4.8630    -0.8340    -0.5960 H     1 <1>   0.0800 
 25 H        2.6790     6.4180    -0.8310 H     1 <1>   0.0800 
 26 H        2.6550     5.5170     0.6830 H     1 <1>   0.0800 
 27 H        1.2170     5.5760    -0.3440 H     1 <1>   0.0800 
 28 H        6.0880     0.4880     1.0060 H     1 <1>   0.4500 
 29 H        6.4460     1.6080    -0.1340 H     1 <1>   0.4500 
 30 H        7.7370    -0.0040    -1.4070 H     1 <1>   0.0800 
 31 H        7.3800    -1.1970    -0.1790 H     1 <1>   0.0800 
 32 H        8.5130     0.1760     1.5130 H     1 <1>   0.0800 
 33 H        9.1470     2.0880    -0.7700 H     1 <1>   0.0800 
 34 H        9.8680     2.1490     0.8140 H     1 <1>   0.0800 
 35 H        8.1730     2.4650     0.6370 H     1 <1>   0.0800 
 36 H       10.2340    -0.2820    -0.9370 H     1 <1>   0.0800 
 37 H        9.8190    -1.4900     0.2580 H     1 <1>   0.0800 
 38 H       10.8030    -0.1270     0.7040 H     1 <1>   0.0800 
@<TRIPOS>BOND
  1   1   2  1   
  2   2   3  ar  
  3   2   4  ar  
  4   3   5  1   
  5   3   6  ar  
  6   4   7  ar  
  7   4  18  1   
  8   5   8  1   
  9   6   9  1   
 10   6  10  ar  
 11   7  10  ar  
 12   7  11  1   
 13   8  19  1   
 14   8  20  1   
 15   8  21  1   
 16   9  12  1   
 17  10  22  1   
 18  11  13  1   
 19  11  23  1   
 20  11  24  1   
 21  12  25  1   
 22  12  26  1   
 23  12  27  1   
 24  13  14  1   
 25  13  28  1   
 26  13  29  1   
 27  14  15  1   
 28  14  30  1   
 29  14  31  1   
 30  15  16  1   
 31  15  17  1   
 32  15  32  1   
 33  16  33  1   
 34  16  34  1   
 35  16  35  1   
 36  17  36  1   
 37  17  37  1   
 38  17  38  1   
@<TRIPOS>SUBSTRUCTURE
  1 ****   7 GROUP 4 **** **** 0

# MOE 2024.06 (io_trps.svl 2023.06)
