@<TRIPOS>MOLECULE
NONAME
40 41 1 0 0 
SMALL
USER_CHARGES


@<TRIPOS>ATOM
  1 S       -0.1740    -0.1490    -0.7200 S.3   1 <1>  -0.3710 
  2 C        1.5190     0.1330    -0.2620 C.2   1 <1>   0.6510 
  3 C       -0.9960     1.3300     0.0300 C.3   1 <1>   0.2140 
  4 N        2.3960    -0.7920    -0.7220 N.am  1 <1>  -0.4900 
  5 N        1.8040     1.1530     0.4520 N.2   1 <1>  -0.6210 
  6 C       -2.5060     1.2670    -0.1810 C.ar  1 <1>  -0.1430 
  7 C        3.7170    -0.6590    -0.4170 C.2   1 <1>   0.6160 
  8 C        3.1220     1.3270     0.7840 C.2   1 <1>   0.0210 
  9 C       -3.2120     2.3870    -0.6130 C.ar  1 <1>   0.0830 
 10 C       -3.1970     0.0900     0.0590 C.ar  1 <1>  -0.1500 
 11 O        4.4820    -1.5280    -0.8590 O.2   1 <1>  -0.5700 
 12 C        4.0870     0.4290     0.3560 C.2   1 <1>  -0.1360 
 13 O        3.4010     2.3080     1.4740 O.3   1 <1>  -0.8500 
 14 O       -2.6070     3.5680    -0.8410 O.3   1 <1>  -0.3630 
 15 C       -4.5760     2.2990    -0.8340 C.ar  1 <1>  -0.1500 
 16 C       -4.5770    -0.0260    -0.1440 C.ar  1 <1>   0.0860 
 17 C       -2.2010     4.3470     0.2640 C.3   1 <1>   0.2000 
 18 C       -5.2430     1.1140    -0.6010 C.ar  1 <1>  -0.1500 
 19 C       -5.3110    -1.2530     0.0940 C.2   1 <1>   0.4230 
 20 C       -3.3780     5.2170     0.7040 C.3   1 <1>  -0.2400 
 21 C       -1.0120     5.1940    -0.1820 C.3   1 <1>  -0.2400 
 22 O       -6.5100    -1.3320     0.0160 O.2   1 <1>  -0.5700 
 23 C       -4.5750    -2.5290     0.4600 C.3   1 <1>  -0.1790 
 24 H       -0.5530     2.1860    -0.4470 H     1 <1>   0.0800 
 25 H       -0.7500     1.3370     1.0770 H     1 <1>   0.0800 
 26 H        2.1050    -1.5710    -1.2940 H     1 <1>   0.3700 
 27 H       -2.6420    -0.7600     0.4120 H     1 <1>   0.1500 
 28 H        5.1090     0.5850     0.6280 H     1 <1>   0.1500 
 29 H       -5.1050     3.1660    -1.1880 H     1 <1>   0.1500 
 30 H       -1.9010     3.6920     1.0650 H     1 <1>   0.0800 
 31 H       -6.3050     1.0630    -0.7750 H     1 <1>   0.1500 
 32 H       -3.7070     5.8390    -0.1090 H     1 <1>   0.0800 
 33 H       -3.0790     5.8470     1.5220 H     1 <1>   0.0800 
 34 H       -4.1910     4.5980     1.0360 H     1 <1>   0.0800 
 35 H       -1.2870     5.8290    -1.0040 H     1 <1>   0.0800 
 36 H       -0.1970     4.5580    -0.4800 H     1 <1>   0.0800 
 37 H       -0.6710     5.8080     0.6320 H     1 <1>   0.0800 
 38 H       -3.8290    -2.7500    -0.2810 H     1 <1>   0.0800 
 39 H       -5.2680    -3.3500     0.5030 H     1 <1>   0.0800 
 40 H       -4.1120    -2.4210     1.4230 H     1 <1>   0.0800 
@<TRIPOS>BOND
  1   1   2  1   
  2   1   3  1   
  3   2   4  1   
  4   2   5  2   
  5   3   6  1   
  6   3  24  1   
  7   3  25  1   
  8   4   7  am  
  9   4  26  1   
 10   5   8  1   
 11   6   9  ar  
 12   6  10  ar  
 13   7  11  2   
 14   7  12  1   
 15   8  12  2   
 16   8  13  1   
 17   9  14  1   
 18   9  15  ar  
 19  10  16  ar  
 20  10  27  1   
 21  12  28  1   
 22  14  17  1   
 23  15  18  ar  
 24  15  29  1   
 25  16  18  ar  
 26  16  19  1   
 27  17  20  1   
 28  17  21  1   
 29  17  30  1   
 30  18  31  1   
 31  19  22  2   
 32  19  23  1   
 33  20  32  1   
 34  20  33  1   
 35  20  34  1   
 36  21  35  1   
 37  21  36  1   
 38  21  37  1   
 39  23  38  1   
 40  23  39  1   
 41  23  40  1   
@<TRIPOS>SUBSTRUCTURE
  1 ****   3 GROUP 4 **** **** 0

# MOE 2024.06 (io_trps.svl 2023.06)
