@<TRIPOS>MOLECULE
NONAME
48 49 1 0 0 
SMALL
USER_CHARGES


@<TRIPOS>ATOM
  1 O       -5.7670    -1.5250    -0.8290 O.3   1 <1>  -0.3630 
  2 C       -7.0560    -1.1540    -0.6290 C.ar  1 <1>   0.0830 
  3 C       -4.7710    -1.2640     0.1370 C.3   1 <1>   0.1200 
  4 C       -7.5170    -0.5450     0.5360 C.ar  1 <1>  -0.1500 
  5 C       -7.9460    -1.4060    -1.6600 C.ar  1 <1>  -0.1500 
  6 C       -3.4320    -1.7860    -0.3960 C.3   1 <1>   0.2000 
  7 C       -8.8520    -0.1980     0.6530 C.ar  1 <1>  -0.1500 
  8 C       -9.2790    -1.0570    -1.5380 C.ar  1 <1>  -0.1500 
  9 O       -3.5880    -3.1160    -0.7920 O.3   1 <1>  -0.6800 
 10 C       -2.3020    -1.7060     0.6530 C.3   1 <1>   0.3430 
 11 C       -9.7400    -0.4490    -0.3810 C.ar  1 <1>  -0.1440 
 12 N       -1.2160    -2.6820     0.3270 N.4   1 <1>  -0.9590 
 13 C      -11.2050    -0.0650    -0.2460 C.3   1 <1>  -0.0170 
 14 C       -0.4710    -3.1390     1.5320 C.3   1 <1>   0.3430 
 15 C       -0.3200    -2.2090    -0.7650 C.3   1 <1>   0.3430 
 16 C      -12.0080    -1.2150     0.3660 C.3   1 <1>  -0.2400 
 17 C        0.4760    -4.2770     1.1500 C.3   1 <1>  -0.1600 
 18 C        0.6270    -3.3350    -1.1770 C.3   1 <1>  -0.1600 
 19 C        1.4300    -3.8680     0.0190 C.3   1 <1>  -0.0800 
 20 C        2.3050    -5.0530    -0.4040 C.3   1 <1>  -0.2400 
 21 H       -5.0430    -1.7680     1.0490 H     1 <1>   0.0800 
 22 H       -4.7300    -0.2010     0.3020 H     1 <1>   0.0800 
 23 H       -6.8650    -0.3340     1.3600 H     1 <1>   0.1500 
 24 H       -7.5940    -1.8760    -2.5600 H     1 <1>   0.1500 
 25 H       -3.1580    -1.2150    -1.2670 H     1 <1>   0.0800 
 26 H       -9.2020     0.2700     1.5570 H     1 <1>   0.1500 
 27 H       -9.9590    -1.2610    -2.3470 H     1 <1>   0.1500 
 28 H       -4.4510    -3.1990    -1.2650 H     1 <1>   0.4000 
 29 H       -2.7230    -1.9550     1.6120 H     1 <1>   0.0800 
 30 H       -1.9120    -0.7030     0.7120 H     1 <1>   0.0800 
 31 H       -1.7390    -3.4930    -0.0600 H     1 <1>   0.4500 
 32 H      -11.6060     0.1790    -1.2150 H     1 <1>   0.0800 
 33 H      -11.2960     0.8090     0.3740 H     1 <1>   0.0800 
 34 H       -1.1610    -3.4870     2.2850 H     1 <1>   0.0800 
 35 H        0.0990    -2.3210     1.9420 H     1 <1>   0.0800 
 36 H        0.2540    -1.3610    -0.4260 H     1 <1>   0.0800 
 37 H       -0.9060    -1.9080    -1.6190 H     1 <1>   0.0800 
 38 H      -11.9360    -2.0900    -0.2560 H     1 <1>   0.0800 
 39 H      -13.0430    -0.9380     0.4570 H     1 <1>   0.0800 
 40 H      -11.6250    -1.4550     1.3420 H     1 <1>   0.0800 
 41 H       -0.1040    -5.1350     0.8560 H     1 <1>   0.0800 
 42 H        1.0480    -4.5590     2.0170 H     1 <1>   0.0800 
 43 H        1.3050    -2.9630    -1.9260 H     1 <1>   0.0800 
 44 H        0.0560    -4.1290    -1.6260 H     1 <1>   0.0800 
 45 H        2.0780    -3.0840     0.3790 H     1 <1>   0.0800 
 46 H        1.7030    -5.8650    -0.7730 H     1 <1>   0.0800 
 47 H        2.8840    -5.4100     0.4300 H     1 <1>   0.0800 
 48 H        2.9890    -4.7570    -1.1810 H     1 <1>   0.0800 
@<TRIPOS>BOND
  1   1   2  1   
  2   1   3  1   
  3   2   4  ar  
  4   2   5  ar  
  5   3   6  1   
  6   3  21  1   
  7   3  22  1   
  8   4   7  ar  
  9   4  23  1   
 10   5   8  ar  
 11   5  24  1   
 12   6   9  1   
 13   6  10  1   
 14   6  25  1   
 15   7  11  ar  
 16   7  26  1   
 17   8  11  ar  
 18   8  27  1   
 19   9  28  1   
 20  10  12  1   
 21  10  29  1   
 22  10  30  1   
 23  11  13  1   
 24  12  14  1   
 25  12  15  1   
 26  12  31  1   
 27  13  16  1   
 28  13  32  1   
 29  13  33  1   
 30  14  17  1   
 31  14  34  1   
 32  14  35  1   
 33  15  18  1   
 34  15  36  1   
 35  15  37  1   
 36  16  38  1   
 37  16  39  1   
 38  16  40  1   
 39  17  19  1   
 40  17  41  1   
 41  17  42  1   
 42  18  19  1   
 43  18  43  1   
 44  18  44  1   
 45  19  20  1   
 46  19  45  1   
 47  20  46  1   
 48  20  47  1   
 49  20  48  1   
@<TRIPOS>SUBSTRUCTURE
  1 ****   3 GROUP 4 **** **** 0

# MOE 2024.06 (io_trps.svl 2023.06)
