@<TRIPOS>MOLECULE
NONAME
40 42 1 0 0 
SMALL
USER_CHARGES


@<TRIPOS>ATOM
  1 S       -0.6390    -0.2810    -0.9680 S.3   1 <1>  -0.0800 
  2 C        0.6140     0.4270     0.0650 C.2   1 <1>   0.1040 
  3 C       -1.6100     1.1610    -0.8080 C.2   1 <1>  -0.1400 
  4 N        1.7920    -0.2780     0.2670 N.am  1 <1>  -0.4940 
  5 C        0.2490     1.6770     0.5000 C.2   1 <1>  -0.0860 
  6 C       -1.0270     2.0630    -0.0380 C.2   1 <1>  -0.1810 
  7 C       -2.9410     1.5200    -1.3840 C.3   1 <1>   0.0200 
  8 C        2.0460    -1.6320     0.2420 C.2   1 <1>   0.5440 
  9 C        0.9970     2.5180     1.3930 C.2   1 <1>   0.7160 
 10 C       -1.8880     3.2940     0.0740 C.3   1 <1>   0.0210 
 11 C       -3.1340     2.9400    -0.7900 C.3   1 <1>  -0.1600 
 12 O        1.1390    -2.4170     0.4300 O.2   1 <1>  -0.5700 
 13 C        3.4090    -2.0960     0.0680 C.ar  1 <1>   0.0860 
 14 O        0.9150     3.7290     1.3870 O.2   1 <1>  -0.5700 
 15 N        1.8250     1.9830     2.3170 N.am  1 <1>  -0.8000 
 16 C        4.3370    -1.3870    -0.6990 C.ar  1 <1>  -0.1500 
 17 C        3.8450    -3.2760     0.6720 C.ar  1 <1>  -0.1500 
 18 C        5.6430    -1.8210    -0.8420 C.ar  1 <1>  -0.1430 
 19 C        5.1470    -3.7240     0.5380 C.ar  1 <1>  -0.1430 
 20 C        6.0450    -2.9900    -0.2170 C.ar  1 <1>  -0.1500 
 21 C        6.6380    -1.0350    -1.6770 C.3   1 <1>  -0.0970 
 22 C        5.5990    -5.0090     1.2080 C.3   1 <1>  -0.0970 
 23 H        2.6110     0.2930     0.4750 H     1 <1>   0.3700 
 24 H       -3.7000     0.8360    -1.0440 H     1 <1>   0.0800 
 25 H       -2.8990     1.5370    -2.4580 H     1 <1>   0.0800 
 26 H       -1.3690     4.1500    -0.3190 H     1 <1>   0.0800 
 27 H       -2.1590     3.4720     1.1000 H     1 <1>   0.0800 
 28 H       -4.0190     2.9630    -0.1790 H     1 <1>   0.0800 
 29 H       -3.2450     3.6570    -1.5830 H     1 <1>   0.0800 
 30 H        2.2220     2.6190     3.0090 H     1 <1>   0.3700 
 31 H        1.6940     1.0170     2.6180 H     1 <1>   0.3700 
 32 H        4.0280    -0.4870    -1.2000 H     1 <1>   0.1500 
 33 H        3.1400    -3.8440     1.2540 H     1 <1>   0.1500 
 34 H        7.0600    -3.3330    -0.3230 H     1 <1>   0.1500 
 35 H        6.1340    -0.3250    -2.3090 H     1 <1>   0.0800 
 36 H        7.2040    -1.7020    -2.3030 H     1 <1>   0.0800 
 37 H        7.3160    -0.5050    -1.0330 H     1 <1>   0.0800 
 38 H        4.7610    -5.5480     1.6120 H     1 <1>   0.0800 
 39 H        6.2810    -4.7840     2.0090 H     1 <1>   0.0800 
 40 H        6.0970    -5.6400     0.4940 H     1 <1>   0.0800 
@<TRIPOS>BOND
  1   1   2  1   
  2   1   3  1   
  3   2   4  1   
  4   2   5  2   
  5   3   6  2   
  6   3   7  1   
  7   4   8  am  
  8   4  23  1   
  9   5   6  1   
 10   5   9  1   
 11   6  10  1   
 12   7  11  1   
 13   7  24  1   
 14   7  25  1   
 15   8  12  2   
 16   8  13  1   
 17   9  14  2   
 18   9  15  am  
 19  10  11  1   
 20  10  26  1   
 21  10  27  1   
 22  11  28  1   
 23  11  29  1   
 24  13  16  ar  
 25  13  17  ar  
 26  15  30  1   
 27  15  31  1   
 28  16  18  ar  
 29  16  32  1   
 30  17  19  ar  
 31  17  33  1   
 32  18  20  ar  
 33  18  21  1   
 34  19  20  ar  
 35  19  22  1   
 36  20  34  1   
 37  21  35  1   
 38  21  36  1   
 39  21  37  1   
 40  22  38  1   
 41  22  39  1   
 42  22  40  1   
@<TRIPOS>SUBSTRUCTURE
  1 ****   4 GROUP 4 **** **** 0

# MOE 2024.06 (io_trps.svl 2023.06)
