@<TRIPOS>MOLECULE
NONAME
51 53 1 0 0 
SMALL
USER_CHARGES


@<TRIPOS>ATOM
  1 F       -3.0570    -0.6360     0.0840 F     1 <1>  -0.1900 
  2 C       -3.1910     0.6620     0.0630 C.ar  1 <1>   0.1900 
  3 C       -3.4690     1.2850    -1.1370 C.ar  1 <1>  -0.1500 
  4 C       -3.0480     1.3660     1.2430 C.ar  1 <1>  -0.1500 
  5 C       -3.6110     2.6630    -1.1540 C.ar  1 <1>  -0.1500 
  6 C       -3.1940     2.7430     1.2170 C.ar  1 <1>  -0.1500 
  7 C       -3.4790     3.3960     0.0220 C.ar  1 <1>  -0.1430 
  8 C       -3.6510     4.9050     0.0090 C.3   1 <1>   0.4870 
  9 N       -5.0700     5.2320    -0.2830 N.4   1 <1>  -0.9590 
 10 C       -5.3490     6.6990    -0.4270 C.3   1 <1>   0.3430 
 11 C       -6.0650     4.5840     0.6360 C.3   1 <1>   0.3430 
 12 C       -6.8340     6.9570    -0.7910 C.3   1 <1>   0.1100 
 13 C       -7.5050     4.7740     0.0990 C.3   1 <1>   0.1100 
 14 N       -7.5560     5.6960    -1.0670 N.3   1 <1>  -0.8100 
 15 C       -8.9330     5.9250    -1.6030 C.3   1 <1>   0.1710 
 16 C       -9.6610     4.6570    -2.0690 C.2   1 <1>   0.5690 
 17 O       -9.5130     4.2920    -3.2100 O.2   1 <1>  -0.5700 
 18 N      -10.4310     3.9960    -1.1510 N.am  1 <1>  -0.5470 
 19 C      -11.1150     2.7690    -1.1840 C.ar  1 <1>   0.1170 
 20 C      -11.5080     2.2080     0.0370 C.ar  1 <1>   0.0830 
 21 C      -11.4260     2.1000    -2.3630 C.ar  1 <1>  -0.1500 
 22 O      -11.1860     2.9010     1.1730 O.3   1 <1>  -0.3630 
 23 C      -12.1930     0.9970     0.0570 C.ar  1 <1>  -0.1500 
 24 C      -12.1070     0.8970    -2.3350 C.ar  1 <1>  -0.1500 
 25 C      -11.6720     2.4860     2.4330 C.3   1 <1>   0.0400 
 26 C      -12.4900     0.3450    -1.1270 C.ar  1 <1>  -0.1500 
 27 H       -3.5690     0.6990    -2.0340 H     1 <1>   0.1500 
 28 H       -2.8260     0.8400     2.1560 H     1 <1>   0.1500 
 29 H       -3.8230     3.1480    -2.0920 H     1 <1>   0.1500 
 30 H       -3.0790     3.2920     2.1370 H     1 <1>   0.1500 
 31 H       -3.0110     5.3290    -0.7470 H     1 <1>   0.0800 
 32 H       -3.3670     5.3120     0.9650 H     1 <1>   0.0800 
 33 H       -5.3210     4.8340    -1.2020 H     1 <1>   0.4500 
 34 H       -4.7280     7.1120    -1.2050 H     1 <1>   0.0800 
 35 H       -5.1150     7.2160     0.4890 H     1 <1>   0.0800 
 36 H       -5.9900     5.0130     1.6220 H     1 <1>   0.0800 
 37 H       -5.8650     3.5280     0.7210 H     1 <1>   0.0800 
 38 H       -6.8710     7.5920    -1.6600 H     1 <1>   0.0800 
 39 H       -7.3150     7.4840     0.0170 H     1 <1>   0.0800 
 40 H       -8.1340     5.1400     0.8920 H     1 <1>   0.0800 
 41 H       -7.8800     3.8080    -0.1950 H     1 <1>   0.0800 
 42 H       -8.8680     6.5780    -2.4550 H     1 <1>   0.0800 
 43 H       -9.5350     6.4190    -0.8610 H     1 <1>   0.0800 
 44 H      -10.4650     4.4000    -0.2160 H     1 <1>   0.3700 
 45 H      -11.1410     2.5140    -3.3130 H     1 <1>   0.1500 
 46 H      -12.5030     0.5410     0.9780 H     1 <1>   0.1500 
 47 H      -12.3390     0.3910    -3.2570 H     1 <1>   0.1500 
 48 H      -11.3530     3.2020     3.1700 H     1 <1>   0.0800 
 49 H      -11.2630     1.5180     2.6650 H     1 <1>   0.0800 
 50 H      -12.7470     2.4520     2.4010 H     1 <1>   0.0800 
 51 H      -13.0200    -0.5920    -1.1090 H     1 <1>   0.1500 
@<TRIPOS>BOND
  1   1   2  1   
  2   2   3  ar  
  3   2   4  ar  
  4   3   5  ar  
  5   3  27  1   
  6   4   6  ar  
  7   4  28  1   
  8   5   7  ar  
  9   5  29  1   
 10   6   7  ar  
 11   6  30  1   
 12   7   8  1   
 13   8   9  1   
 14   8  31  1   
 15   8  32  1   
 16   9  10  1   
 17   9  11  1   
 18   9  33  1   
 19  10  12  1   
 20  10  34  1   
 21  10  35  1   
 22  11  13  1   
 23  11  36  1   
 24  11  37  1   
 25  12  14  1   
 26  12  38  1   
 27  12  39  1   
 28  13  14  1   
 29  13  40  1   
 30  13  41  1   
 31  14  15  1   
 32  15  16  1   
 33  15  42  1   
 34  15  43  1   
 35  16  17  2   
 36  16  18  am  
 37  18  19  1   
 38  18  44  1   
 39  19  20  ar  
 40  19  21  ar  
 41  20  22  1   
 42  20  23  ar  
 43  21  24  ar  
 44  21  45  1   
 45  22  25  1   
 46  23  26  ar  
 47  23  46  1   
 48  24  26  ar  
 49  24  47  1   
 50  25  48  1   
 51  25  49  1   
 52  25  50  1   
 53  26  51  1   
@<TRIPOS>SUBSTRUCTURE
  1 ****  13 GROUP 4 **** **** 0

# MOE 2024.06 (io_trps.svl 2023.06)
