@<TRIPOS>MOLECULE
NONAME
50 51 1 0 0 
SMALL
USER_CHARGES


@<TRIPOS>ATOM
  1 O        1.9720    -0.4460     1.0690 O.2   1 <1>  -0.5700 
  2 C        2.7150    -1.1490     0.4240 C.2   1 <1>   0.5690 
  3 N        2.6370    -2.5220     0.4740 N.am  1 <1>  -0.6600 
  4 C        3.7380    -0.4120    -0.4360 C.3   1 <1>  -0.0190 
  5 C        3.5420    -3.4760    -0.2300 C.3   1 <1>   0.1400 
  6 C        1.6410    -3.1720     1.3790 C.3   1 <1>   0.1400 
  7 C        4.4130     0.6320     0.4730 C.3   1 <1>   0.3430 
  8 C        3.0730     0.2210    -1.6830 C.3   1 <1>  -0.1600 
  9 C        3.1820    -3.5740    -1.7130 C.3   1 <1>  -0.2400 
 10 C        0.4310    -3.6470     0.5780 C.3   1 <1>  -0.2400 
 11 N        4.9590     1.8110    -0.2890 N.4   1 <1>  -0.9590 
 12 C        2.6960     1.6880    -1.4270 C.3   1 <1>  -0.1600 
 13 C        3.8930     2.5670    -1.0260 C.3   1 <1>   0.3430 
 14 C        6.0970     1.4470    -1.1850 C.3   1 <1>   0.4860 
 15 C        7.1690     0.7460    -0.3740 C.ar  1 <1>  -0.1440 
 16 C        7.4210    -0.6030    -0.5820 C.ar  1 <1>  -0.1500 
 17 C        7.8970     1.4370     0.5840 C.ar  1 <1>  -0.1500 
 18 C        8.3760    -1.2650     0.1710 C.ar  1 <1>  -0.1440 
 19 C        8.8530     0.7790     1.3350 C.ar  1 <1>  -0.1500 
 20 C        9.0890    -0.5680     1.1310 C.ar  1 <1>  -0.1500 
 21 C        8.6580    -2.7410    -0.0500 C.3   1 <1>  -0.0970 
 22 H        4.4930    -1.0960    -0.7620 H     1 <1>   0.0800 
 23 H        3.4540    -4.4530     0.2140 H     1 <1>   0.0800 
 24 H        4.5670    -3.1680    -0.1110 H     1 <1>   0.0800 
 25 H        1.3110    -2.4760     2.1320 H     1 <1>   0.0800 
 26 H        2.0950    -4.0030     1.8910 H     1 <1>   0.0800 
 27 H        5.1930     0.1560     1.0460 H     1 <1>   0.0800 
 28 H        3.6810     0.9990     1.1750 H     1 <1>   0.0800 
 29 H        2.1910    -0.3380    -1.9520 H     1 <1>   0.0800 
 30 H        3.7480     0.1710    -2.5200 H     1 <1>   0.0800 
 31 H        2.1610    -3.8840    -1.8330 H     1 <1>   0.0800 
 32 H        3.8110    -4.3060    -2.1860 H     1 <1>   0.0800 
 33 H        3.3240    -2.6370    -2.2150 H     1 <1>   0.0800 
 34 H        0.0080    -2.8260     0.0270 H     1 <1>   0.0800 
 35 H       -0.3170    -4.0250     1.2510 H     1 <1>   0.0800 
 36 H        0.7040    -4.4360    -0.0970 H     1 <1>   0.0800 
 37 H        5.3610     2.4390     0.4170 H     1 <1>   0.4500 
 38 H        1.9600     1.7280    -0.6410 H     1 <1>   0.0800 
 39 H        2.2320     2.1050    -2.3030 H     1 <1>   0.0800 
 40 H        4.3170     3.0100    -1.9120 H     1 <1>   0.0800 
 41 H        3.5270     3.3710    -0.4070 H     1 <1>   0.0800 
 42 H        6.5130     2.3330    -1.6340 H     1 <1>   0.0800 
 43 H        5.7560     0.7960    -1.9730 H     1 <1>   0.0800 
 44 H        6.8810    -1.1500    -1.3350 H     1 <1>   0.1500 
 45 H        7.7390     2.4880     0.7570 H     1 <1>   0.1500 
 46 H        9.4200     1.3120     2.0800 H     1 <1>   0.1500 
 47 H        9.8370    -1.0720     1.7200 H     1 <1>   0.1500 
 48 H        7.8750    -3.2050    -0.6220 H     1 <1>   0.0800 
 49 H        8.7360    -3.2490     0.8940 H     1 <1>   0.0800 
 50 H        9.5870    -2.8570    -0.5810 H     1 <1>   0.0800 
@<TRIPOS>BOND
  1   1   2  2   
  2   2   3  am  
  3   2   4  1   
  4   3   5  1   
  5   3   6  1   
  6   4   7  1   
  7   4   8  1   
  8   4  22  1   
  9   5   9  1   
 10   5  23  1   
 11   5  24  1   
 12   6  10  1   
 13   6  25  1   
 14   6  26  1   
 15   7  11  1   
 16   7  27  1   
 17   7  28  1   
 18   8  12  1   
 19   8  29  1   
 20   8  30  1   
 21   9  31  1   
 22   9  32  1   
 23   9  33  1   
 24  10  34  1   
 25  10  35  1   
 26  10  36  1   
 27  11  13  1   
 28  11  14  1   
 29  11  37  1   
 30  12  13  1   
 31  12  38  1   
 32  12  39  1   
 33  13  40  1   
 34  13  41  1   
 35  14  15  1   
 36  14  42  1   
 37  14  43  1   
 38  15  16  ar  
 39  15  17  ar  
 40  16  18  ar  
 41  16  44  1   
 42  17  19  ar  
 43  17  45  1   
 44  18  20  ar  
 45  18  21  1   
 46  19  20  ar  
 47  19  46  1   
 48  20  47  1   
 49  21  48  1   
 50  21  49  1   
 51  21  50  1   
@<TRIPOS>SUBSTRUCTURE
  1 ****   4 GROUP 4 **** **** 0

# MOE 2024.06 (io_trps.svl 2023.06)
