@<TRIPOS>MOLECULE
NONAME
54 58 1 0 0 
SMALL
USER_CHARGES


@<TRIPOS>ATOM
  1 O       -1.1650    -0.0680    -1.0260 O.2   1 <1>  -0.5700 
  2 C       -2.0220     0.7640    -0.8200 C.2   1 <1>   0.5690 
  3 N       -3.1940     0.6890    -1.5430 N.am  1 <1>  -0.6600 
  4 C       -1.7050     1.8720     0.2310 C.3   1 <1>   0.0610 
  5 C       -4.3810     1.5780    -1.5380 C.3   1 <1>   0.1400 
  6 C       -3.3760    -0.3830    -2.5540 C.3   1 <1>   0.1400 
  7 C       -1.4320     3.2230    -0.4770 C.3   1 <1>  -0.1600 
  8 C       -2.8310     2.0580     1.2810 C.3   1 <1>  -0.1600 
  9 C       -0.4100     1.5140     1.0220 C.3   1 <1>  -0.1600 
 10 C       -5.1230     1.2510    -2.8270 C.3   1 <1>  -0.1600 
 11 C       -4.7930    -0.2130    -3.0870 C.3   1 <1>  -0.1600 
 12 C       -1.0490     4.3550     0.5150 C.3   1 <1>   0.0610 
 13 C       -2.4670     3.1550     2.2940 C.3   1 <1>  -0.0800 
 14 C       -0.0370     2.5950     2.0510 C.3   1 <1>  -0.0800 
 15 C       -0.8120     5.7220    -0.1980 C.2   1 <1>   0.5690 
 16 C       -2.2200     4.4710     1.5370 C.3   1 <1>  -0.1600 
 17 C        0.2030     3.9290     1.3210 C.3   1 <1>  -0.1600 
 18 C       -1.1910     2.7570     3.0490 C.3   1 <1>  -0.1600 
 19 O       -1.4160     6.6840     0.2250 O.2   1 <1>  -0.5700 
 20 N        0.0440     5.9040    -1.2660 N.am  1 <1>  -0.6600 
 21 C        0.8900     4.9280    -1.9940 C.3   1 <1>   0.1400 
 22 C        0.2460     7.2620    -1.8310 C.3   1 <1>   0.1400 
 23 C        1.8930     5.7740    -2.7660 C.3   1 <1>  -0.1600 
 24 C        1.1490     7.0740    -3.0440 C.3   1 <1>  -0.1600 
 25 H       -4.1150     2.6170    -1.5030 H     1 <1>   0.0800 
 26 H       -5.0020     1.3260    -0.6960 H     1 <1>   0.0800 
 27 H       -3.2330    -1.3530    -2.1090 H     1 <1>   0.0800 
 28 H       -2.6550    -0.2430    -3.3420 H     1 <1>   0.0800 
 29 H       -0.6430     3.0500    -1.1780 H     1 <1>   0.0800 
 30 H       -2.2880     3.5380    -1.0390 H     1 <1>   0.0800 
 31 H       -3.0020     1.1280     1.7940 H     1 <1>   0.0800 
 32 H       -3.7500     2.3460     0.8180 H     1 <1>   0.0800 
 33 H        0.4120     1.3870     0.3390 H     1 <1>   0.0800 
 34 H       -0.5490     0.5730     1.5270 H     1 <1>   0.0800 
 35 H       -4.7320     1.8630    -3.6220 H     1 <1>   0.0800 
 36 H       -6.1810     1.4250    -2.7370 H     1 <1>   0.0800 
 37 H       -5.4560    -0.8450    -2.5230 H     1 <1>   0.0800 
 38 H       -4.8610    -0.4720    -4.1290 H     1 <1>   0.0800 
 39 H       -3.2740     3.2850     2.9940 H     1 <1>   0.0800 
 40 H        0.8570     2.3040     2.5770 H     1 <1>   0.0800 
 41 H       -3.1190     4.7660     1.0240 H     1 <1>   0.0800 
 42 H       -1.9970     5.2440     2.2540 H     1 <1>   0.0800 
 43 H        0.4420     4.6950     2.0390 H     1 <1>   0.0800 
 44 H        1.0530     3.8210     0.6790 H     1 <1>   0.0800 
 45 H       -1.3510     1.8340     3.5780 H     1 <1>   0.0800 
 46 H       -0.9450     3.5130     3.7750 H     1 <1>   0.0800 
 47 H        0.2750     4.3820    -2.6890 H     1 <1>   0.0800 
 48 H        1.3930     4.2460    -1.3350 H     1 <1>   0.0800 
 49 H        0.7290     7.8770    -1.0910 H     1 <1>   0.0800 
 50 H       -0.6960     7.7060    -2.1030 H     1 <1>   0.0800 
 51 H        2.2210     5.2860    -3.6670 H     1 <1>   0.0800 
 52 H        2.7460     5.9660    -2.1380 H     1 <1>   0.0800 
 53 H        1.8140     7.9080    -3.1790 H     1 <1>   0.0800 
 54 H        0.5360     6.9670    -3.9220 H     1 <1>   0.0800 
@<TRIPOS>BOND
  1   1   2  2   
  2   2   3  am  
  3   2   4  1   
  4   3   5  1   
  5   3   6  1   
  6   4   7  1   
  7   4   8  1   
  8   4   9  1   
  9   5  10  1   
 10   5  25  1   
 11   5  26  1   
 12   6  11  1   
 13   6  27  1   
 14   6  28  1   
 15   7  12  1   
 16   7  29  1   
 17   7  30  1   
 18   8  13  1   
 19   8  31  1   
 20   8  32  1   
 21   9  14  1   
 22   9  33  1   
 23   9  34  1   
 24  10  11  1   
 25  10  35  1   
 26  10  36  1   
 27  11  37  1   
 28  11  38  1   
 29  12  15  1   
 30  12  16  1   
 31  12  17  1   
 32  13  16  1   
 33  13  18  1   
 34  13  39  1   
 35  14  17  1   
 36  14  18  1   
 37  14  40  1   
 38  15  19  2   
 39  15  20  am  
 40  16  41  1   
 41  16  42  1   
 42  17  43  1   
 43  17  44  1   
 44  18  45  1   
 45  18  46  1   
 46  20  21  1   
 47  20  22  1   
 48  21  23  1   
 49  21  47  1   
 50  21  48  1   
 51  22  24  1   
 52  22  49  1   
 53  22  50  1   
 54  23  24  1   
 55  23  51  1   
 56  23  52  1   
 57  24  53  1   
 58  24  54  1   
@<TRIPOS>SUBSTRUCTURE
  1 ****   7 GROUP 4 **** **** 0

# MOE 2024.06 (io_trps.svl 2023.06)
