@<TRIPOS>MOLECULE
NONAME
45 46 1 0 0 
SMALL
USER_CHARGES


@<TRIPOS>ATOM
  1 BR      -0.2810    -0.0500     0.3690 Br    1 <1>  -0.1110 
  2 C        1.4860     0.6830     0.1510 C.ar  1 <1>   0.1110 
  3 C        2.5750    -0.0870     0.5140 C.ar  1 <1>  -0.1500 
  4 C        1.6190     1.9600    -0.3610 C.ar  1 <1>  -0.1500 
  5 C        3.8460     0.4420     0.3570 C.ar  1 <1>  -0.1500 
  6 C        2.8930     2.4790    -0.5140 C.ar  1 <1>  -0.1500 
  7 C        4.0070     1.7290    -0.1590 C.ar  1 <1>   0.0830 
  8 O        5.2150     2.3190    -0.3440 O.3   1 <1>  -0.3630 
  9 C        6.4140     1.6500    -0.0180 C.3   1 <1>   0.1200 
 10 C        7.5780     2.5810    -0.3450 C.3   1 <1>   0.1200 
 11 O        8.7740     1.9340    -0.0260 O.3   1 <1>  -0.5600 
 12 C        9.9140     2.6830    -0.2830 C.3   1 <1>   0.1200 
 13 C       11.1230     1.8230     0.1040 C.3   1 <1>   0.3430 
 14 N       12.4350     2.4930    -0.1790 N.4   1 <1>  -0.9590 
 15 C       13.5480     1.5060    -0.0510 C.3   1 <1>   0.3430 
 16 C       12.6670     3.6820     0.6960 C.3   1 <1>   0.3430 
 17 C       14.8650     2.1550    -0.4750 C.3   1 <1>  -0.1600 
 18 C       13.9650     4.3780     0.2890 C.3   1 <1>  -0.1600 
 19 C       15.1630     3.4190     0.3440 C.3   1 <1>  -0.0800 
 20 C       16.4320     4.1090    -0.1680 C.3   1 <1>  -0.2400 
 21 H        2.4290    -1.0760     0.9090 H     1 <1>   0.1500 
 22 H        0.7490     2.5300    -0.6330 H     1 <1>   0.1500 
 23 H        4.6890    -0.1590     0.6400 H     1 <1>   0.1500 
 24 H        3.0310     3.4690    -0.9100 H     1 <1>   0.1500 
 25 H        6.4730     0.7530    -0.6090 H     1 <1>   0.0800 
 26 H        6.3990     1.4210     1.0320 H     1 <1>   0.0800 
 27 H        7.5020     3.4810     0.2400 H     1 <1>   0.0800 
 28 H        7.5760     2.8130    -1.3970 H     1 <1>   0.0800 
 29 H        9.8670     3.5800     0.3100 H     1 <1>   0.0800 
 30 H        9.9340     2.9210    -1.3330 H     1 <1>   0.0800 
 31 H       11.0650     0.9040    -0.4570 H     1 <1>   0.0800 
 32 H       11.0580     1.5820     1.1520 H     1 <1>   0.0800 
 33 H       12.4400     2.8170    -1.1560 H     1 <1>   0.4500 
 34 H       13.3560     0.6470    -0.6740 H     1 <1>   0.0800 
 35 H       13.6250     1.1720     0.9720 H     1 <1>   0.0800 
 36 H       12.7350     3.3690     1.7260 H     1 <1>   0.0800 
 37 H       11.8490     4.3780     0.6070 H     1 <1>   0.0800 
 38 H       14.8250     2.3910    -1.5250 H     1 <1>   0.0800 
 39 H       15.6620     1.4450    -0.3360 H     1 <1>   0.0800 
 40 H       14.1400     5.2040     0.9550 H     1 <1>   0.0800 
 41 H       13.8560     4.7820    -0.7030 H     1 <1>   0.0800 
 42 H       15.3290     3.1330     1.3710 H     1 <1>   0.0800 
 43 H       16.3200     4.4150    -1.1930 H     1 <1>   0.0800 
 44 H       17.2740     3.4420    -0.1020 H     1 <1>   0.0800 
 45 H       16.6510     4.9800     0.4260 H     1 <1>   0.0800 
@<TRIPOS>BOND
  1   1   2  1   
  2   2   3  ar  
  3   2   4  ar  
  4   3   5  ar  
  5   3  21  1   
  6   4   6  ar  
  7   4  22  1   
  8   5   7  ar  
  9   5  23  1   
 10   6   7  ar  
 11   6  24  1   
 12   7   8  1   
 13   8   9  1   
 14   9  10  1   
 15   9  25  1   
 16   9  26  1   
 17  10  11  1   
 18  10  27  1   
 19  10  28  1   
 20  11  12  1   
 21  12  13  1   
 22  12  29  1   
 23  12  30  1   
 24  13  14  1   
 25  13  31  1   
 26  13  32  1   
 27  14  15  1   
 28  14  16  1   
 29  14  33  1   
 30  15  17  1   
 31  15  34  1   
 32  15  35  1   
 33  16  18  1   
 34  16  36  1   
 35  16  37  1   
 36  17  19  1   
 37  17  38  1   
 38  17  39  1   
 39  18  19  1   
 40  18  40  1   
 41  18  41  1   
 42  19  20  1   
 43  19  42  1   
 44  20  43  1   
 45  20  44  1   
 46  20  45  1   
@<TRIPOS>SUBSTRUCTURE
  1 ****  11 GROUP 4 **** **** 0

# MOE 2024.06 (io_trps.svl 2023.06)
