@<TRIPOS>MOLECULE
NONAME
35 37 1 0 0 
SMALL
USER_CHARGES


@<TRIPOS>ATOM
  1 CL      -0.7320    -0.6900    -1.5320 Cl    1 <1>  -0.1770 
  2 C       -2.3580    -0.4090    -0.9670 C.ar  1 <1>   0.1770 
  3 C       -2.7800    -0.9950     0.2100 C.ar  1 <1>  -0.1500 
  4 C       -3.2050     0.3960    -1.7020 C.ar  1 <1>  -0.1500 
  5 C       -4.0710    -0.7680     0.6540 C.ar  1 <1>  -0.1500 
  6 C       -4.4940     0.6150    -1.2480 C.ar  1 <1>  -0.1500 
  7 C       -4.9610     0.0410    -0.0610 C.ar  1 <1>   0.0540 
  8 C       -6.3170     0.2730     0.4130 C.2   1 <1>   0.4620 
  9 N       -6.8210    -0.2200     1.4950 N.2   1 <1>  -0.4100 
 10 N       -7.1920     1.0470    -0.2570 N.2   1 <1>  -0.5650 
 11 O       -8.0130     0.2340     1.5210 O.3   1 <1>  -0.0190 
 12 C       -8.2470     0.9890     0.4850 C.2   1 <1>   0.3930 
 13 C       -9.5590     1.6020     0.3310 C.2   1 <1>   0.7150 
 14 O       -9.8270     2.3140    -0.6210 O.2   1 <1>  -0.5700 
 15 N      -10.5530     1.3870     1.2560 N.am  1 <1>  -0.7300 
 16 C      -11.9210     1.9790     1.2000 C.3   1 <1>   0.1400 
 17 C      -12.7910     1.3210     0.1190 C.3   1 <1>   0.2000 
 18 O      -14.1050     1.7410     0.2750 O.3   1 <1>  -0.5600 
 19 C      -12.8840    -0.1990     0.1940 C.3   1 <1>  -0.1600 
 20 C      -14.9630     0.8630    -0.3790 C.3   1 <1>   0.1200 
 21 C      -14.2550    -0.4900    -0.3950 C.3   1 <1>  -0.1600 
 22 H       -2.1050    -1.6190     0.7680 H     1 <1>   0.1500 
 23 H       -2.8570     0.8430    -2.6160 H     1 <1>   0.1500 
 24 H       -4.3950    -1.2280     1.5730 H     1 <1>   0.1500 
 25 H       -5.1490     1.2450    -1.8270 H     1 <1>   0.1500 
 26 H      -10.3690     0.7730     2.0520 H     1 <1>   0.3700 
 27 H      -11.8430     3.0320     0.9870 H     1 <1>   0.0800 
 28 H      -12.3960     1.8570     2.1580 H     1 <1>   0.0800 
 29 H      -12.4670     1.6330    -0.8600 H     1 <1>   0.0800 
 30 H      -12.8480    -0.5160     1.2220 H     1 <1>   0.0800 
 31 H      -12.0880    -0.6710    -0.3550 H     1 <1>   0.0800 
 32 H      -15.1220     1.2330    -1.3780 H     1 <1>   0.0800 
 33 H      -15.8960     0.8310     0.1560 H     1 <1>   0.0800 
 34 H      -14.7920    -1.2140     0.1930 H     1 <1>   0.0800 
 35 H      -14.1780    -0.8470    -1.4070 H     1 <1>   0.0800 
@<TRIPOS>BOND
  1   1   2  1   
  2   2   3  ar  
  3   2   4  ar  
  4   3   5  ar  
  5   3  22  1   
  6   4   6  ar  
  7   4  23  1   
  8   5   7  ar  
  9   5  24  1   
 10   6   7  ar  
 11   6  25  1   
 12   7   8  1   
 13   8   9  2   
 14   8  10  1   
 15   9  11  1   
 16  10  12  2   
 17  11  12  1   
 18  12  13  1   
 19  13  14  2   
 20  13  15  am  
 21  15  16  1   
 22  15  26  1   
 23  16  17  1   
 24  16  27  1   
 25  16  28  1   
 26  17  18  1   
 27  17  19  1   
 28  17  29  1   
 29  18  20  1   
 30  19  21  1   
 31  19  30  1   
 32  19  31  1   
 33  20  21  1   
 34  20  32  1   
 35  20  33  1   
 36  21  34  1   
 37  21  35  1   
@<TRIPOS>SUBSTRUCTURE
  1 ****  12 GROUP 4 **** **** 0

# MOE 2024.06 (io_trps.svl 2023.06)
