@<TRIPOS>MOLECULE
NONAME
37 38 1 0 0 
SMALL
USER_CHARGES


@<TRIPOS>ATOM
  1 O        0.3010     0.0080    -0.6580 O.2   1 <1>  -0.5700 
  2 C        0.6330    -0.8860     0.0960 C.2   1 <1>   0.6900 
  3 N       -0.2710    -1.7850     0.5920 N.am  1 <1>  -0.5470 
  4 N        1.9290    -1.0160     0.4850 N.am  1 <1>  -0.5790 
  5 C       -1.6230    -1.9930     0.2860 C.ar  1 <1>   0.1170 
  6 C        3.0340    -0.1350     0.0800 C.3   1 <1>   0.0490 
  7 C       -2.4370    -2.6100     1.2290 C.ar  1 <1>  -0.1500 
  8 C       -2.1900    -1.6300    -0.9320 C.ar  1 <1>  -0.1500 
  9 C        4.3600    -0.7590    -0.2050 C.3   1 <1>  -0.2000 
 10 C        4.1630     0.0580     1.0370 C.3   1 <1>  -0.2000 
 11 C       -3.7730    -2.8530     0.9690 C.ar  1 <1>  -0.1500 
 12 C       -3.5260    -1.8710    -1.1950 C.ar  1 <1>  -0.1500 
 13 C       -4.3280    -2.4860    -0.2470 C.ar  1 <1>  -0.1430 
 14 C       -5.7970    -2.7490    -0.5360 C.3   1 <1>  -0.0170 
 15 C       -6.6530    -1.5570    -0.0940 C.3   1 <1>  -0.1600 
 16 C       -8.1420    -1.7960    -0.3770 C.3   1 <1>  -0.1600 
 17 C       -8.9850    -0.5990     0.0680 C.3   1 <1>  -0.2400 
 18 H        0.0710    -2.3230     1.3790 H     1 <1>   0.3700 
 19 H        2.2100    -1.8380     1.0100 H     1 <1>   0.3700 
 20 H        2.7160     0.7030    -0.5210 H     1 <1>   0.1000 
 21 H       -2.0270    -2.8990     2.1790 H     1 <1>   0.1500 
 22 H       -1.5860    -1.1560    -1.6840 H     1 <1>   0.1500 
 23 H        4.9610    -0.3460    -0.9960 H     1 <1>   0.1000 
 24 H        4.4620    -1.8260    -0.1220 H     1 <1>   0.1000 
 25 H        4.1280    -0.4370     1.9910 H     1 <1>   0.1000 
 26 H        4.6320     1.0250     1.0880 H     1 <1>   0.1000 
 27 H       -4.3840    -3.3280     1.7160 H     1 <1>   0.1500 
 28 H       -3.9390    -1.5750    -2.1430 H     1 <1>   0.1500 
 29 H       -6.1120    -3.6380    -0.0170 H     1 <1>   0.0800 
 30 H       -5.9300    -2.9220    -1.5900 H     1 <1>   0.0800 
 31 H       -6.3230    -0.6750    -0.6160 H     1 <1>   0.0800 
 32 H       -6.5080    -1.3910     0.9600 H     1 <1>   0.0800 
 33 H       -8.4740    -2.6770     0.1460 H     1 <1>   0.0800 
 34 H       -8.2880    -1.9590    -1.4320 H     1 <1>   0.0800 
 35 H       -8.8710    -0.4310     1.1250 H     1 <1>   0.0800 
 36 H      -10.0240    -0.7820    -0.1400 H     1 <1>   0.0800 
 37 H       -8.6820     0.2900    -0.4580 H     1 <1>   0.0800 
@<TRIPOS>BOND
  1   1   2  2   
  2   2   3  am  
  3   2   4  am  
  4   3   5  1   
  5   3  18  1   
  6   4   6  1   
  7   4  19  1   
  8   5   7  ar  
  9   5   8  ar  
 10   6   9  1   
 11   6  10  1   
 12   6  20  1   
 13   7  11  ar  
 14   7  21  1   
 15   8  12  ar  
 16   8  22  1   
 17   9  10  1   
 18   9  23  1   
 19   9  24  1   
 20  10  25  1   
 21  10  26  1   
 22  11  13  ar  
 23  11  27  1   
 24  12  13  ar  
 25  12  28  1   
 26  13  14  1   
 27  14  15  1   
 28  14  29  1   
 29  14  30  1   
 30  15  16  1   
 31  15  31  1   
 32  15  32  1   
 33  16  17  1   
 34  16  33  1   
 35  16  34  1   
 36  17  35  1   
 37  17  36  1   
 38  17  37  1   
@<TRIPOS>SUBSTRUCTURE
  1 ****   5 GROUP 4 **** **** 0

# MOE 2024.06 (io_trps.svl 2023.06)
