@<TRIPOS>MOLECULE
NONAME
50 52 1 0 0 
SMALL
USER_CHARGES


@<TRIPOS>ATOM
  1 O       -0.0080     1.1740    -1.5840 O.2   1 <1>  -0.5700 
  2 C        0.2510     2.0350    -0.7760 C.2   1 <1>   0.5690 
  3 N       -0.6680     2.7990    -0.1080 N.am  1 <1>  -0.2370 
  4 C        1.6880     2.4510    -0.4220 C.3   1 <1>   0.2510 
  5 C       -2.0600     2.5750    -0.1060 C.ar  1 <1>   0.1170 
  6 C       -0.0200     3.8080     0.5530 C.2   1 <1>   0.5690 
  7 N        2.4320     1.4950     0.4490 N.3   1 <1>  -0.8100 
  8 C        1.4700     3.7660     0.3390 C.3   1 <1>  -0.0990 
  9 C       -2.9620     3.6200    -0.2780 C.ar  1 <1>  -0.1500 
 10 C       -2.5770     1.2960     0.0710 C.ar  1 <1>  -0.1500 
 11 O       -0.5320     4.6700     1.2190 O.2   1 <1>  -0.5700 
 12 C        3.8560     1.8780     0.6670 C.3   1 <1>   0.1100 
 13 C        2.3230     0.0900    -0.0320 C.3   1 <1>   0.1100 
 14 C       -4.3240     3.3920    -0.2740 C.ar  1 <1>  -0.1500 
 15 C       -3.9400     1.0710     0.0740 C.ar  1 <1>  -0.1500 
 16 C        4.8550     1.0260    -0.1500 C.3   1 <1>   0.2000 
 17 C        3.4570    -0.8080     0.5080 C.3   1 <1>   0.2000 
 18 C       -4.8560     2.1120    -0.0980 C.ar  1 <1>   0.0860 
 19 O        4.7220    -0.3410     0.1240 O.3   1 <1>  -0.5600 
 20 C        6.3050     1.3970     0.1480 C.3   1 <1>  -0.2400 
 21 C        3.3430    -2.2430     0.0010 C.3   1 <1>  -0.2400 
 22 C       -6.2890     1.8890    -0.0970 C.2   1 <1>   0.6340 
 23 O       -7.1010     2.7770    -0.2630 O.2   1 <1>  -0.5700 
 24 O       -6.7310     0.6430     0.0970 O.3   1 <1>  -0.4300 
 25 C       -8.1090     0.3420     0.1110 C.3   1 <1>   0.1200 
 26 C       -8.2640    -1.1560     0.3560 C.3   1 <1>  -0.2400 
 27 H        2.2380     2.6180    -1.3320 H     1 <1>   0.0800 
 28 H        1.7610     4.6080    -0.2600 H     1 <1>   0.0800 
 29 H        1.9720     3.7950     1.2880 H     1 <1>   0.0800 
 30 H       -2.5960     4.6230    -0.4110 H     1 <1>   0.1500 
 31 H       -1.9040     0.4660     0.2030 H     1 <1>   0.1500 
 32 H        4.0850     1.7480     1.7110 H     1 <1>   0.0800 
 33 H        4.0110     2.9170     0.4360 H     1 <1>   0.0800 
 34 H        2.3570     0.0600    -1.1080 H     1 <1>   0.0800 
 35 H        1.3750    -0.3150     0.2780 H     1 <1>   0.0800 
 36 H       -4.9980     4.2220    -0.4070 H     1 <1>   0.1500 
 37 H       -4.3010     0.0660     0.2110 H     1 <1>   0.1500 
 38 H        4.6620     1.1650    -1.2000 H     1 <1>   0.0800 
 39 H        3.4240    -0.8050     1.5840 H     1 <1>   0.0800 
 40 H        6.5250     1.2310     1.1880 H     1 <1>   0.0800 
 41 H        6.4800     2.4310    -0.0840 H     1 <1>   0.0800 
 42 H        6.9630     0.7950    -0.4530 H     1 <1>   0.0800 
 43 H        3.4030    -2.2650    -1.0720 H     1 <1>   0.0800 
 44 H        2.4050    -2.6690     0.3050 H     1 <1>   0.0800 
 45 H        4.1380    -2.8380     0.4140 H     1 <1>   0.0800 
 46 H       -8.5290     0.6250    -0.8390 H     1 <1>   0.0800 
 47 H       -8.5740     0.9130     0.8970 H     1 <1>   0.0800 
 48 H       -7.7860    -1.7110    -0.4320 H     1 <1>   0.0800 
 49 H       -9.3070    -1.4140     0.3720 H     1 <1>   0.0800 
 50 H       -7.8290    -1.4230     1.3020 H     1 <1>   0.0800 
@<TRIPOS>BOND
  1   1   2  2   
  2   2   3  am  
  3   2   4  1   
  4   3   5  1   
  5   3   6  am  
  6   4   7  1   
  7   4   8  1   
  8   4  27  1   
  9   5   9  ar  
 10   5  10  ar  
 11   6   8  1   
 12   6  11  2   
 13   7  12  1   
 14   7  13  1   
 15   8  28  1   
 16   8  29  1   
 17   9  14  ar  
 18   9  30  1   
 19  10  15  ar  
 20  10  31  1   
 21  12  16  1   
 22  12  32  1   
 23  12  33  1   
 24  13  17  1   
 25  13  34  1   
 26  13  35  1   
 27  14  18  ar  
 28  14  36  1   
 29  15  18  ar  
 30  15  37  1   
 31  16  19  1   
 32  16  20  1   
 33  16  38  1   
 34  17  19  1   
 35  17  21  1   
 36  17  39  1   
 37  18  22  1   
 38  20  40  1   
 39  20  41  1   
 40  20  42  1   
 41  21  43  1   
 42  21  44  1   
 43  21  45  1   
 44  22  23  2   
 45  22  24  1   
 46  24  25  1   
 47  25  26  1   
 48  25  46  1   
 49  25  47  1   
 50  26  48  1   
 51  26  49  1   
 52  26  50  1   
@<TRIPOS>SUBSTRUCTURE
  1 ****   3 GROUP 4 **** **** 0

# MOE 2024.06 (io_trps.svl 2023.06)
