@<TRIPOS>MOLECULE
NONAME
41 42 1 0 0 
SMALL
USER_CHARGES


@<TRIPOS>ATOM
  1 S        0.4940    -0.5030     0.1250 S.3   1 <1>  -0.2860 
  2 C       -1.2080    -0.6420     0.6790 C.2   1 <1>   0.2420 
  3 C        1.4480    -0.6790     1.7150 C.3   1 <1>   0.1310 
  4 N       -1.5420    -0.7660     1.9130 N.2   1 <1>  -0.3380 
  5 N       -2.2450    -0.6280    -0.1580 N.pl3 1 <1>   0.0480 
  6 C        2.9430    -0.5140     1.4950 C.2   1 <1>   0.5690 
  7 N       -2.8760    -0.8430     1.9200 N.2   1 <1>  -0.3380 
  8 C       -3.2750    -0.7660     0.6920 C.2   1 <1>   0.0060 
  9 C       -2.2270    -0.5010    -1.6290 C.3   1 <1>   0.0160 
 10 O        3.6880    -0.9990     2.3110 O.2   1 <1>  -0.5700 
 11 N        3.3720     0.1750     0.3900 N.am  1 <1>  -0.5470 
 12 C       -4.7400    -0.8240     0.2810 C.3   1 <1>   0.0200 
 13 C        4.6550     0.5200    -0.0610 C.ar  1 <1>   0.1170 
 14 C       -5.1120    -2.1340    -0.4430 C.3   1 <1>  -0.0800 
 15 C        5.7780     0.5220     0.7610 C.ar  1 <1>  -0.1500 
 16 C        4.8120     0.8920    -1.3910 C.ar  1 <1>  -0.1500 
 17 C       -6.5780    -2.0970    -0.8900 C.3   1 <1>  -0.2400 
 18 C       -4.8760    -3.3610     0.4500 C.3   1 <1>  -0.2400 
 19 C        7.0200     0.8810     0.2670 C.ar  1 <1>  -0.1500 
 20 C        6.0510     1.2530    -1.8900 C.ar  1 <1>  -0.1500 
 21 C        7.1590     1.2470    -1.0600 C.ar  1 <1>  -0.1500 
 22 H        1.2310    -1.6550     2.1080 H     1 <1>   0.0800 
 23 H        1.0850     0.0720     2.3910 H     1 <1>   0.0800 
 24 H       -2.0040    -1.4580    -2.0630 H     1 <1>   0.0800 
 25 H       -1.4730     0.2080    -1.9190 H     1 <1>   0.0800 
 26 H       -3.1830    -0.1600    -1.9800 H     1 <1>   0.0800 
 27 H        2.6170     0.4350    -0.2440 H     1 <1>   0.3700 
 28 H       -4.9590     0.0180    -0.3490 H     1 <1>   0.0800 
 29 H       -5.3460    -0.7270     1.1650 H     1 <1>   0.0800 
 30 H       -4.4980    -2.2350    -1.3210 H     1 <1>   0.0800 
 31 H        5.6910     0.2460     1.7960 H     1 <1>   0.1500 
 32 H        3.9610     0.8980    -2.0460 H     1 <1>   0.1500 
 33 H       -7.2320    -2.0090    -0.0400 H     1 <1>   0.0800 
 34 H       -6.8300    -2.9990    -1.4210 H     1 <1>   0.0800 
 35 H       -6.7530    -1.2620    -1.5460 H     1 <1>   0.0800 
 36 H       -5.4590    -3.2910     1.3510 H     1 <1>   0.0800 
 37 H       -3.8380    -3.4370     0.7250 H     1 <1>   0.0800 
 38 H       -5.1510    -4.2620    -0.0680 H     1 <1>   0.0800 
 39 H        7.8770     0.8750     0.9170 H     1 <1>   0.1500 
 40 H        6.1570     1.5370    -2.9220 H     1 <1>   0.1500 
 41 H        8.1250     1.5260    -1.4450 H     1 <1>   0.1500 
@<TRIPOS>BOND
  1   1   2  1   
  2   1   3  1   
  3   2   4  2   
  4   2   5  1   
  5   3   6  1   
  6   3  22  1   
  7   3  23  1   
  8   4   7  1   
  9   5   8  1   
 10   5   9  1   
 11   6  10  2   
 12   6  11  am  
 13   7   8  2   
 14   8  12  1   
 15   9  24  1   
 16   9  25  1   
 17   9  26  1   
 18  11  13  1   
 19  11  27  1   
 20  12  14  1   
 21  12  28  1   
 22  12  29  1   
 23  13  15  ar  
 24  13  16  ar  
 25  14  17  1   
 26  14  18  1   
 27  14  30  1   
 28  15  19  ar  
 29  15  31  1   
 30  16  20  ar  
 31  16  32  1   
 32  17  33  1   
 33  17  34  1   
 34  17  35  1   
 35  18  36  1   
 36  18  37  1   
 37  18  38  1   
 38  19  21  ar  
 39  19  39  1   
 40  20  21  ar  
 41  20  40  1   
 42  21  41  1   
@<TRIPOS>SUBSTRUCTURE
  1 ****   1 GROUP 4 **** **** 0

# MOE 2024.06 (io_trps.svl 2023.06)
