@<TRIPOS>MOLECULE
NONAME
52 54 1 0 0 
SMALL
USER_CHARGES


@<TRIPOS>ATOM
  1 CL      -4.1000    -3.1650    -1.1980 Cl    1 <1>  -0.1770 
  2 C       -3.9890    -1.4430    -0.9280 C.ar  1 <1>   0.1770 
  3 C       -5.1400    -0.7170    -0.7120 C.ar  1 <1>  -0.1500 
  4 C       -2.7470    -0.8390    -0.9380 C.ar  1 <1>  -0.1500 
  5 C       -5.0660     0.6550    -0.4970 C.ar  1 <1>   0.1000 
  6 C       -2.6640     0.5270    -0.7250 C.ar  1 <1>  -0.1500 
  7 N       -6.2250     1.3970    -0.2760 N.pl3 1 <1>  -0.8380 
  8 C       -3.8120     1.2740    -0.5050 C.ar  1 <1>  -0.1430 
  9 C       -6.9580     1.2000     1.0080 C.3   1 <1>   0.2090 
 10 C       -7.0980     1.7060    -1.4470 C.3   1 <1>   0.2090 
 11 C       -3.6970     2.7730    -0.2720 C.3   1 <1>  -0.0970 
 12 C       -8.1600     0.2450     0.8760 C.3   1 <1>   0.1400 
 13 C       -8.2720     0.7210    -1.5750 C.3   1 <1>   0.1400 
 14 N       -9.0370     0.5810    -0.2940 N.am  1 <1>  -0.6600 
 15 C      -10.4120     0.6370    -0.2900 C.2   1 <1>   0.5690 
 16 O      -11.0150     1.0630    -1.2500 O.2   1 <1>  -0.5700 
 17 C      -11.2640     0.1730     0.9030 C.3   1 <1>   0.2570 
 18 N      -11.6230    -1.2820     0.8730 N.am  1 <1>  -0.6930 
 19 S      -10.3950    -2.3700     1.4200 S.o2  1 <1>   1.3330 
 20 C      -12.5490    -1.6750    -0.0850 C.ar  1 <1>   0.1990 
 21 O       -9.8110    -1.7630     2.5920 O.2   1 <1>  -0.6500 
 22 O       -9.5680    -2.7120     0.2900 O.2   1 <1>  -0.6500 
 23 C      -11.3390    -3.7880     1.9360 C.3   1 <1>  -0.1350 
 24 C      -13.8980    -1.7100     0.2420 C.ar  1 <1>  -0.1500 
 25 C      -12.1590    -2.0410    -1.3720 C.ar  1 <1>  -0.1500 
 26 C      -14.8080    -2.1150    -0.7120 C.ar  1 <1>   0.1900 
 27 C      -13.0870    -2.4450    -2.3180 C.ar  1 <1>  -0.1500 
 28 F      -16.0750    -2.1520    -0.3950 F     1 <1>  -0.1900 
 29 C      -14.4320    -2.4860    -1.9890 C.ar  1 <1>  -0.1500 
 30 H       -6.0880    -1.2160    -0.7110 H     1 <1>   0.1500 
 31 H       -1.8650    -1.4280    -1.1080 H     1 <1>   0.1500 
 32 H       -1.6990     1.0030    -0.7310 H     1 <1>   0.1500 
 33 H       -7.3080     2.1570     1.3540 H     1 <1>   0.0800 
 34 H       -6.2810     0.8140     1.7500 H     1 <1>   0.0800 
 35 H       -6.5100     1.6780    -2.3480 H     1 <1>   0.0800 
 36 H       -7.4860     2.7040    -1.3390 H     1 <1>   0.0800 
 37 H       -4.2440     3.3000    -1.0330 H     1 <1>   0.0800 
 38 H       -2.6730     3.0960    -0.2950 H     1 <1>   0.0800 
 39 H       -4.1160     3.0230     0.6860 H     1 <1>   0.0800 
 40 H       -8.7100     0.2920     1.7940 H     1 <1>   0.0800 
 41 H       -7.7950    -0.7600     0.7630 H     1 <1>   0.0800 
 42 H       -7.8900    -0.2430    -1.8570 H     1 <1>   0.0800 
 43 H       -8.9160     1.0560    -2.3680 H     1 <1>   0.0800 
 44 H      -12.1770     0.7410     0.8800 H     1 <1>   0.0800 
 45 H      -10.7780     0.4140     1.8270 H     1 <1>   0.0800 
 46 H      -12.0470    -3.5070     2.6900 H     1 <1>   0.0800 
 47 H      -10.6850    -4.5370     2.3390 H     1 <1>   0.0800 
 48 H      -11.8670    -4.2080     1.1020 H     1 <1>   0.0800 
 49 H      -14.2290    -1.4270     1.2220 H     1 <1>   0.1500 
 50 H      -11.1160    -2.0000    -1.6370 H     1 <1>   0.1500 
 51 H      -12.7630    -2.7210    -3.3070 H     1 <1>   0.1500 
 52 H      -15.1740    -2.7950    -2.7050 H     1 <1>   0.1500 
@<TRIPOS>BOND
  1   1   2  1   
  2   2   3  ar  
  3   2   4  ar  
  4   3   5  ar  
  5   3  30  1   
  6   4   6  ar  
  7   4  31  1   
  8   5   7  1   
  9   5   8  ar  
 10   6   8  ar  
 11   6  32  1   
 12   7   9  1   
 13   7  10  1   
 14   8  11  1   
 15   9  12  1   
 16   9  33  1   
 17   9  34  1   
 18  10  13  1   
 19  10  35  1   
 20  10  36  1   
 21  11  37  1   
 22  11  38  1   
 23  11  39  1   
 24  12  14  1   
 25  12  40  1   
 26  12  41  1   
 27  13  14  1   
 28  13  42  1   
 29  13  43  1   
 30  14  15  am  
 31  15  16  2   
 32  15  17  1   
 33  17  18  1   
 34  17  44  1   
 35  17  45  1   
 36  18  19  am  
 37  18  20  1   
 38  19  21  2   
 39  19  22  2   
 40  19  23  1   
 41  20  24  ar  
 42  20  25  ar  
 43  23  46  1   
 44  23  47  1   
 45  23  48  1   
 46  24  26  ar  
 47  24  49  1   
 48  25  27  ar  
 49  25  50  1   
 50  26  28  1   
 51  26  29  ar  
 52  27  29  ar  
 53  27  51  1   
 54  29  52  1   
@<TRIPOS>SUBSTRUCTURE
  1 ****  14 GROUP 4 **** **** 0

# MOE 2024.06 (io_trps.svl 2023.06)
