@<TRIPOS>MOLECULE
NONAME
45 46 1 0 0 
SMALL
USER_CHARGES


@<TRIPOS>ATOM
  1 O       -0.2660    -0.1290     0.4870 O.3   1 <1>  -0.3630 
  2 C       -1.4320    -0.6120    -0.0220 C.ar  1 <1>   0.0830 
  3 C        0.4070     0.9760    -0.0750 C.3   1 <1>   0.0400 
  4 C       -1.9680    -1.7740     0.5350 C.ar  1 <1>  -0.1440 
  5 C       -2.0850     0.0140    -1.0760 C.ar  1 <1>  -0.1500 
  6 C       -3.1470    -2.3150     0.0200 C.ar  1 <1>  -0.1430 
  7 C       -1.2360    -2.4440     1.7040 C.3   1 <1>  -0.0960 
  8 C       -3.2630    -0.5060    -1.5680 C.ar  1 <1>  -0.1500 
  9 C       -3.8050    -1.6590    -1.0230 C.ar  1 <1>  -0.1440 
 10 C       -3.6870    -3.6260     0.6020 C.3   1 <1>  -0.0970 
 11 C       -5.1260    -2.1420    -1.5930 C.3   1 <1>   0.4860 
 12 N       -6.1890    -1.8670    -0.5900 N.4   1 <1>  -0.9590 
 13 C       -7.4710    -2.5710    -0.9120 C.3   1 <1>   0.3430 
 14 C       -6.3800    -0.4090    -0.3510 C.3   1 <1>   0.3430 
 15 C       -8.6720    -2.0100    -0.1250 C.3   1 <1>  -0.0800 
 16 C       -7.2120    -0.2140     0.9220 C.3   1 <1>  -0.1600 
 17 C       -8.2310    -1.3380     1.1920 C.3   1 <1>  -0.1600 
 18 C       -9.7020    -3.1270     0.1000 C.3   1 <1>   0.1200 
 19 O      -10.8690    -2.5760     0.5880 O.3   1 <1>  -0.6800 
 20 H        1.3150     1.1290     0.4790 H     1 <1>   0.0800 
 21 H       -0.2200     1.8460     0.0050 H     1 <1>   0.0800 
 22 H        0.6400     0.7580    -1.1030 H     1 <1>   0.0800 
 23 H       -1.6910     0.9070    -1.5240 H     1 <1>   0.1500 
 24 H       -0.6140    -1.7490     2.2370 H     1 <1>   0.0800 
 25 H       -0.6110    -3.2360     1.3330 H     1 <1>   0.0800 
 26 H       -1.9250    -2.8470     2.4210 H     1 <1>   0.0800 
 27 H       -3.7460     0.0040    -2.3830 H     1 <1>   0.1500 
 28 H       -2.8820    -4.3270     0.7330 H     1 <1>   0.0800 
 29 H       -4.4040    -4.1070    -0.0340 H     1 <1>   0.0800 
 30 H       -4.1370    -3.4450     1.5620 H     1 <1>   0.0800 
 31 H       -5.0630    -3.1970    -1.7980 H     1 <1>   0.0800 
 32 H       -5.3420    -1.6290    -2.5160 H     1 <1>   0.0800 
 33 H       -5.8250    -2.2320     0.2990 H     1 <1>   0.4500 
 34 H       -7.3580    -3.6190    -0.6870 H     1 <1>   0.0800 
 35 H       -7.6850    -2.4830    -1.9660 H     1 <1>   0.0800 
 36 H       -6.8950     0.0280    -1.1910 H     1 <1>   0.0800 
 37 H       -5.4300     0.0890    -0.2360 H     1 <1>   0.0800 
 38 H       -9.1420    -1.2690    -0.7490 H     1 <1>   0.0800 
 39 H       -7.7310     0.7250     0.8320 H     1 <1>   0.0800 
 40 H       -6.5520    -0.1210     1.7680 H     1 <1>   0.0800 
 41 H       -7.7860    -2.0770     1.8370 H     1 <1>   0.0800 
 42 H       -9.0800    -0.9240     1.7100 H     1 <1>   0.0800 
 43 H       -9.3530    -3.8650     0.8040 H     1 <1>   0.0800 
 44 H       -9.9470    -3.6130    -0.8300 H     1 <1>   0.0800 
 45 H      -10.7810    -2.3020     1.5220 H     1 <1>   0.4000 
@<TRIPOS>BOND
  1   1   2  1   
  2   1   3  1   
  3   2   4  ar  
  4   2   5  ar  
  5   3  20  1   
  6   3  21  1   
  7   3  22  1   
  8   4   6  ar  
  9   4   7  1   
 10   5   8  ar  
 11   5  23  1   
 12   6   9  ar  
 13   6  10  1   
 14   7  24  1   
 15   7  25  1   
 16   7  26  1   
 17   8   9  ar  
 18   8  27  1   
 19   9  11  1   
 20  10  28  1   
 21  10  29  1   
 22  10  30  1   
 23  11  12  1   
 24  11  31  1   
 25  11  32  1   
 26  12  13  1   
 27  12  14  1   
 28  12  33  1   
 29  13  15  1   
 30  13  34  1   
 31  13  35  1   
 32  14  16  1   
 33  14  36  1   
 34  14  37  1   
 35  15  17  1   
 36  15  18  1   
 37  15  38  1   
 38  16  17  1   
 39  16  39  1   
 40  16  40  1   
 41  17  41  1   
 42  17  42  1   
 43  18  19  1   
 44  18  43  1   
 45  18  44  1   
 46  19  45  1   
@<TRIPOS>SUBSTRUCTURE
  1 ****   9 GROUP 4 **** **** 0

# MOE 2024.06 (io_trps.svl 2023.06)
