@<TRIPOS>MOLECULE
NONAME
50 52 1 0 0 
SMALL
USER_CHARGES


@<TRIPOS>ATOM
  1 O        4.0620    -9.2550     1.2230 O.3   1 <1>  -0.3630 
  2 C        4.7090    -8.2410     0.5860 C.ar  1 <1>   0.0820 
  3 C        3.8360    -9.2160     2.6180 C.3   1 <1>   0.0400 
  4 C        4.9350    -8.3790    -0.7810 C.ar  1 <1>  -0.1440 
  5 C        5.1360    -7.0890     1.2380 C.ar  1 <1>  -0.1500 
  6 C        5.5870    -7.3730    -1.4780 C.ar  1 <1>  -0.1500 
  7 C        4.4660    -9.6250    -1.5090 C.3   1 <1>   0.4870 
  8 C        5.7830    -6.0850     0.5410 C.ar  1 <1>   0.0820 
  9 C        6.0100    -6.2300    -0.8230 C.ar  1 <1>  -0.1500 
 10 N        2.9970    -9.7380    -1.3580 N.4   1 <1>  -0.9590 
 11 O        6.1610    -4.9970     1.2570 O.3   1 <1>  -0.3620 
 12 C        2.4110   -11.0490    -1.7790 C.3   1 <1>   0.3430 
 13 C        2.2150    -8.5740    -1.8790 C.3   1 <1>   0.3430 
 14 C        6.8770    -3.9350     0.6650 C.3   1 <1>   0.0400 
 15 C        0.8780   -11.0890    -1.5480 C.3   1 <1>   0.1100 
 16 C        0.7410    -8.6520    -1.4140 C.3   1 <1>   0.1100 
 17 N        0.4070    -9.9390    -0.7440 N.3   1 <1>  -0.8100 
 18 C       -1.0250   -10.0420    -0.4070 C.3   1 <1>   0.2530 
 19 C       -1.4270    -8.9240     0.5420 C.ar  1 <1>  -0.1430 
 20 C       -2.3800    -7.9880     0.1690 C.ar  1 <1>   0.1600 
 21 C       -0.8440    -8.8160     1.7890 C.ar  1 <1>  -0.1500 
 22 N       -2.7790    -6.9720     0.9160 N.ar  1 <1>  -0.6200 
 23 C       -1.2520    -7.7680     2.5850 C.ar  1 <1>  -0.1500 
 24 C       -2.2080    -6.8870     2.1070 C.ar  1 <1>   0.1600 
 25 H        3.3360   -10.1240     2.9060 H     1 <1>   0.0800 
 26 H        3.2140    -8.3690     2.8510 H     1 <1>   0.0800 
 27 H        4.7830    -9.1460     3.1250 H     1 <1>   0.0800 
 28 H        4.9820    -6.9390     2.2900 H     1 <1>   0.1500 
 29 H        5.7780    -7.4650    -2.5340 H     1 <1>   0.1500 
 30 H        4.9470   -10.4850    -1.0710 H     1 <1>   0.0800 
 31 H        4.7320    -9.5710    -2.5510 H     1 <1>   0.0800 
 32 H        6.5130    -5.4650    -1.3860 H     1 <1>   0.1500 
 33 H        2.8330    -9.6890    -0.3340 H     1 <1>   0.4500 
 34 H        2.8650   -11.8430    -1.2090 H     1 <1>   0.0800 
 35 H        2.6160   -11.2330    -2.8200 H     1 <1>   0.0800 
 36 H        2.2490    -8.5600    -2.9550 H     1 <1>   0.0800 
 37 H        2.6410    -7.6490    -1.5240 H     1 <1>   0.0800 
 38 H        7.0810    -3.2050     1.4280 H     1 <1>   0.0800 
 39 H        6.2740    -3.4950    -0.1090 H     1 <1>   0.0800 
 40 H        7.8010    -4.3150     0.2680 H     1 <1>   0.0800 
 41 H        0.6290   -12.0090    -1.0470 H     1 <1>   0.0800 
 42 H        0.3770   -11.0940    -2.5020 H     1 <1>   0.0800 
 43 H        0.0970    -8.4980    -2.2640 H     1 <1>   0.0800 
 44 H        0.5650    -7.8390    -0.7290 H     1 <1>   0.0800 
 45 H       -1.2130   -10.9850     0.0790 H     1 <1>   0.0800 
 46 H       -1.6200   -10.0040    -1.3040 H     1 <1>   0.0800 
 47 H       -2.8410    -8.0720    -0.8000 H     1 <1>   0.1500 
 48 H       -0.1000    -9.5180     2.1220 H     1 <1>   0.1500 
 49 H       -0.8370    -7.6300     3.5660 H     1 <1>   0.1500 
 50 H       -2.5190    -6.0710     2.7360 H     1 <1>   0.1500 
@<TRIPOS>BOND
  1   1   2  1   
  2   1   3  1   
  3   2   4  ar  
  4   2   5  ar  
  5   3  25  1   
  6   3  26  1   
  7   3  27  1   
  8   4   6  ar  
  9   4   7  1   
 10   5   8  ar  
 11   5  28  1   
 12   6   9  ar  
 13   6  29  1   
 14   7  10  1   
 15   7  30  1   
 16   7  31  1   
 17   8   9  ar  
 18   8  11  1   
 19   9  32  1   
 20  10  12  1   
 21  10  13  1   
 22  10  33  1   
 23  11  14  1   
 24  12  15  1   
 25  12  34  1   
 26  12  35  1   
 27  13  16  1   
 28  13  36  1   
 29  13  37  1   
 30  14  38  1   
 31  14  39  1   
 32  14  40  1   
 33  15  17  1   
 34  15  41  1   
 35  15  42  1   
 36  16  17  1   
 37  16  43  1   
 38  16  44  1   
 39  17  18  1   
 40  18  19  1   
 41  18  45  1   
 42  18  46  1   
 43  19  20  ar  
 44  19  21  ar  
 45  20  22  ar  
 46  20  47  1   
 47  21  23  ar  
 48  21  48  1   
 49  22  24  ar  
 50  23  24  ar  
 51  23  49  1   
 52  24  50  1   
@<TRIPOS>SUBSTRUCTURE
  1 ****  13 GROUP 4 **** **** 0

# MOE 2024.06 (io_trps.svl 2023.06)
