@<TRIPOS>MOLECULE
NONAME
43 44 1 0 0 
SMALL
USER_CHARGES


@<TRIPOS>ATOM
  1 BR       0.8660     1.8710     3.3100 Br    1 <1>  -0.1110 
  2 C        2.1100     2.1530     1.8710 C.ar  1 <1>   0.1110 
  3 C        1.7210     2.9230     0.7930 C.ar  1 <1>  -0.1500 
  4 C        3.3640     1.5800     1.9490 C.ar  1 <1>  -0.1500 
  5 C        2.6250     3.1220    -0.2380 C.ar  1 <1>  -0.1500 
  6 C        4.2520     1.7920     0.9080 C.ar  1 <1>  -0.1500 
  7 C        3.9020     2.5650    -0.1980 C.ar  1 <1>  -0.0090 
  8 S        5.0820     2.8290    -1.5520 S.o2  1 <1>   1.4470 
  9 O        4.6870     3.9780    -2.3410 O.2   1 <1>  -0.6500 
 10 O        5.3290     1.5680    -2.2150 O.2   1 <1>  -0.6500 
 11 N        6.5080     3.2660    -0.7440 N.am  1 <1>  -0.8490 
 12 C        6.4250     4.6140    -0.1720 C.3   1 <1>   0.1960 
 13 C        7.6810     3.1200    -1.6100 C.3   1 <1>   0.1960 
 14 C        7.6620     4.9040     0.6810 C.3   1 <1>  -0.1600 
 15 C        8.9650     3.3720    -0.8150 C.3   1 <1>  -0.1600 
 16 C        8.9520     4.7540    -0.1430 C.3   1 <1>  -0.0190 
 17 C       10.2000     4.9740     0.7100 C.2   1 <1>   0.5690 
 18 O       10.3700     4.3030     1.6990 O.2   1 <1>  -0.5700 
 19 N       11.0890     5.9270     0.3260 N.am  1 <1>  -0.7300 
 20 C       12.3460     6.2490     1.0350 C.3   1 <1>   0.1400 
 21 C       13.5060     6.1960     0.0410 C.3   1 <1>  -0.1600 
 22 C       14.8380     6.5310     0.7220 C.3   1 <1>  -0.2400 
 23 H        0.7360     3.3540     0.7610 H     1 <1>   0.1500 
 24 H        3.6360     0.9840     2.8020 H     1 <1>   0.1500 
 25 H        2.3360     3.7190    -1.0880 H     1 <1>   0.1500 
 26 H        5.2360     1.3520     0.9500 H     1 <1>   0.1500 
 27 H        5.5490     4.6930     0.4490 H     1 <1>   0.0800 
 28 H        6.3450     5.3450    -0.9610 H     1 <1>   0.0800 
 29 H        7.6120     3.8060    -2.4390 H     1 <1>   0.0800 
 30 H        7.7180     2.1180    -2.0080 H     1 <1>   0.0800 
 31 H        7.6770     4.2210     1.5130 H     1 <1>   0.0800 
 32 H        7.5990     5.9010     1.0770 H     1 <1>   0.0800 
 33 H        9.8130     3.2950    -1.4720 H     1 <1>   0.0800 
 34 H        9.0630     2.6050    -0.0660 H     1 <1>   0.0800 
 35 H        8.9380     5.5000    -0.9170 H     1 <1>   0.0800 
 36 H       10.9110     6.4800    -0.5120 H     1 <1>   0.3700 
 37 H       12.5130     5.5410     1.8310 H     1 <1>   0.0800 
 38 H       12.2690     7.2320     1.4660 H     1 <1>   0.0800 
 39 H       13.3340     6.9000    -0.7550 H     1 <1>   0.0800 
 40 H       13.5670     5.2070    -0.3790 H     1 <1>   0.0800 
 41 H       14.8110     7.5230     1.1390 H     1 <1>   0.0800 
 42 H       15.6400     6.4830     0.0070 H     1 <1>   0.0800 
 43 H       15.0430     5.8280     1.5110 H     1 <1>   0.0800 
@<TRIPOS>BOND
  1   1   2  1   
  2   2   3  ar  
  3   2   4  ar  
  4   3   5  ar  
  5   3  23  1   
  6   4   6  ar  
  7   4  24  1   
  8   5   7  ar  
  9   5  25  1   
 10   6   7  ar  
 11   6  26  1   
 12   7   8  1   
 13   8   9  2   
 14   8  10  2   
 15   8  11  am  
 16  11  12  1   
 17  11  13  1   
 18  12  14  1   
 19  12  27  1   
 20  12  28  1   
 21  13  15  1   
 22  13  29  1   
 23  13  30  1   
 24  14  16  1   
 25  14  31  1   
 26  14  32  1   
 27  15  16  1   
 28  15  33  1   
 29  15  34  1   
 30  16  17  1   
 31  16  35  1   
 32  17  18  2   
 33  17  19  am  
 34  19  20  1   
 35  19  36  1   
 36  20  21  1   
 37  20  37  1   
 38  20  38  1   
 39  21  22  1   
 40  21  39  1   
 41  21  40  1   
 42  22  41  1   
 43  22  42  1   
 44  22  43  1   
@<TRIPOS>SUBSTRUCTURE
  1 ****  12 GROUP 4 **** **** 0

# MOE 2024.06 (io_trps.svl 2023.06)
