@<TRIPOS>MOLECULE
NONAME
44 46 1 0 0 
SMALL
USER_CHARGES


@<TRIPOS>ATOM
  1 S       -0.1580     0.8030    -1.7120 S.o2  1 <1>   1.4470 
  2 O       -0.8140     1.7460    -2.5920 O.2   1 <1>  -0.6500 
  3 O       -0.1430    -0.6030    -2.0520 O.2   1 <1>  -0.6500 
  4 N       -0.9130     0.9310    -0.2010 N.am  1 <1>  -0.8490 
  5 C        1.5330     1.3470    -1.3560 C.ar  1 <1>  -0.0090 
  6 C       -2.2000     0.2190    -0.1810 C.3   1 <1>   0.1960 
  7 C       -1.1290     2.3280     0.2120 C.3   1 <1>   0.1960 
  8 C        2.2630     0.7490    -0.3360 C.ar  1 <1>  -0.1500 
  9 C        2.1330     2.3780    -2.0900 C.ar  1 <1>  -0.1500 
 10 C       -2.8810     0.3410     1.1950 C.3   1 <1>   0.1200 
 11 C       -1.8210     2.3940     1.5850 C.3   1 <1>   0.1200 
 12 C        3.5490     1.1830    -0.0580 C.ar  1 <1>   0.1170 
 13 C        3.4180     2.8150    -1.8170 C.ar  1 <1>  -0.1500 
 14 O       -3.0260     1.6850     1.5600 O.3   1 <1>  -0.5600 
 15 N        4.4740     0.7680     0.8920 N.am  1 <1>  -0.4770 
 16 C        4.1230     2.2090    -0.7890 C.ar  1 <1>   0.1170 
 17 C        5.5920     1.5400     0.7370 C.2   1 <1>   0.6900 
 18 C        4.3110    -0.3180     1.8780 C.3   1 <1>   0.1400 
 19 N        5.3990     2.4290    -0.2840 N.am  1 <1>  -0.4770 
 20 O        6.6090     1.4490     1.4090 O.2   1 <1>  -0.5700 
 21 C        4.5300    -1.6670     1.1970 C.3   1 <1>  -0.2400 
 22 C        6.3930     3.4050    -0.7690 C.3   1 <1>   0.1400 
 23 C        6.0750     4.7860    -0.2000 C.3   1 <1>  -0.2400 
 24 H       -2.0400    -0.8250    -0.3960 H     1 <1>   0.0800 
 25 H       -2.8560     0.6170    -0.9370 H     1 <1>   0.0800 
 26 H       -1.7440     2.8420    -0.5100 H     1 <1>   0.0800 
 27 H       -0.1840     2.8400     0.2720 H     1 <1>   0.0800 
 28 H        1.8310    -0.0490     0.2400 H     1 <1>   0.1500 
 29 H        1.5760     2.8440    -2.8870 H     1 <1>   0.1500 
 30 H       -2.2970    -0.1590     1.9490 H     1 <1>   0.0800 
 31 H       -3.8610    -0.1000     1.1660 H     1 <1>   0.0800 
 32 H       -2.0460     3.4140     1.8410 H     1 <1>   0.0800 
 33 H       -1.1890     1.9740     2.3480 H     1 <1>   0.0800 
 34 H        3.8690     3.6080    -2.3850 H     1 <1>   0.1500 
 35 H        3.3240    -0.2670     2.3030 H     1 <1>   0.0800 
 36 H        5.0300    -0.1880     2.6700 H     1 <1>   0.0800 
 37 H        3.8130    -1.8150     0.4090 H     1 <1>   0.0800 
 38 H        4.4190    -2.4590     1.9150 H     1 <1>   0.0800 
 39 H        5.5240    -1.7150     0.7880 H     1 <1>   0.0800 
 40 H        6.3740     3.4270    -1.8440 H     1 <1>   0.0800 
 41 H        7.3750     3.0960    -0.4520 H     1 <1>   0.0800 
 42 H        5.1010     5.1110    -0.5180 H     1 <1>   0.0800 
 43 H        6.8040     5.4970    -0.5450 H     1 <1>   0.0800 
 44 H        6.1100     4.7570     0.8750 H     1 <1>   0.0800 
@<TRIPOS>BOND
  1   1   2  2   
  2   1   3  2   
  3   1   4  am  
  4   1   5  1   
  5   4   6  1   
  6   4   7  1   
  7   5   8  ar  
  8   5   9  ar  
  9   6  10  1   
 10   6  24  1   
 11   6  25  1   
 12   7  11  1   
 13   7  26  1   
 14   7  27  1   
 15   8  12  ar  
 16   8  28  1   
 17   9  13  ar  
 18   9  29  1   
 19  10  14  1   
 20  10  30  1   
 21  10  31  1   
 22  11  14  1   
 23  11  32  1   
 24  11  33  1   
 25  12  15  1   
 26  12  16  ar  
 27  13  16  ar  
 28  13  34  1   
 29  15  17  am  
 30  15  18  1   
 31  16  19  1   
 32  17  19  am  
 33  17  20  2   
 34  18  21  1   
 35  18  35  1   
 36  18  36  1   
 37  19  22  1   
 38  21  37  1   
 39  21  38  1   
 40  21  39  1   
 41  22  23  1   
 42  22  40  1   
 43  22  41  1   
 44  23  42  1   
 45  23  43  1   
 46  23  44  1   
@<TRIPOS>SUBSTRUCTURE
  1 ****   8 GROUP 4 **** **** 0

# MOE 2024.06 (io_trps.svl 2023.06)
