@<TRIPOS>MOLECULE
NONAME
47 50 1 0 0 
SMALL
USER_CHARGES


@<TRIPOS>ATOM
  1 O       -0.1640     0.2750     0.0880 O.2   1 <1>  -0.5700 
  2 C       -0.2650     1.4500    -0.2070 C.2   1 <1>   0.5440 
  3 N       -1.4350     1.8890    -0.7610 N.am  1 <1>  -0.7300 
  4 C        0.8350     2.3700     0.0120 C.ar  1 <1>   0.0860 
  5 C       -2.6750     1.0860    -0.9210 C.3   1 <1>   0.1400 
  6 C        0.6230     3.7270     0.2730 C.ar  1 <1>  -0.1500 
  7 C        2.1590     1.9290    -0.0300 C.ar  1 <1>  -0.1500 
  8 C       -3.9080     1.8040    -0.3310 C.3   1 <1>   0.0000 
  9 C        1.6750     4.6030     0.4680 C.ar  1 <1>  -0.1500 
 10 C        3.2160     2.7980     0.1640 C.ar  1 <1>  -0.1500 
 11 C       -3.7350     2.0550     1.1860 C.3   1 <1>  -0.1600 
 12 C       -5.1530     0.9080    -0.5340 C.3   1 <1>  -0.1600 
 13 C       -4.1670     3.1600    -1.0340 C.3   1 <1>  -0.1600 
 14 C        2.9870     4.1410     0.4110 C.ar  1 <1>   0.0830 
 15 C       -4.9870     2.7350     1.7730 C.3   1 <1>  -0.0800 
 16 C       -6.4130     1.5780     0.0440 C.3   1 <1>  -0.0800 
 17 C       -5.4210     3.8420    -0.4550 C.3   1 <1>  -0.0800 
 18 O        4.0720     4.9270     0.5870 O.3   1 <1>  -0.3620 
 19 C       -6.2080     1.8240     1.5500 C.3   1 <1>  -0.1600 
 20 C       -5.2180     4.0770     1.0540 C.3   1 <1>  -0.1600 
 21 C       -6.6400     2.9250    -0.6650 C.3   1 <1>  -0.1600 
 22 C        3.9560     6.3060     0.8600 C.3   1 <1>   0.0400 
 23 H       -1.4960     2.8470    -1.1010 H     1 <1>   0.3700 
 24 H       -2.5520     0.1330    -0.4320 H     1 <1>   0.0800 
 25 H       -2.8310     0.8980    -1.9690 H     1 <1>   0.0800 
 26 H       -0.3830     4.1010     0.3350 H     1 <1>   0.1500 
 27 H        2.3520     0.8870    -0.2170 H     1 <1>   0.1500 
 28 H        1.4610     5.6360     0.6640 H     1 <1>   0.1500 
 29 H        4.2290     2.4390     0.1260 H     1 <1>   0.1500 
 30 H       -2.8790     2.6810     1.3640 H     1 <1>   0.0800 
 31 H       -3.5600     1.1220     1.6920 H     1 <1>   0.0800 
 32 H       -5.0020    -0.0410    -0.0500 H     1 <1>   0.0800 
 33 H       -5.3010     0.7180    -1.5830 H     1 <1>   0.0800 
 34 H       -4.2980     3.0050    -2.0910 H     1 <1>   0.0800 
 35 H       -3.3250     3.8160    -0.9010 H     1 <1>   0.0800 
 36 H       -4.8480     2.9050     2.8270 H     1 <1>   0.0800 
 37 H       -7.2670     0.9390    -0.1060 H     1 <1>   0.0800 
 38 H       -5.5860     4.7830    -0.9510 H     1 <1>   0.0800 
 39 H       -7.0860     2.2850     1.9670 H     1 <1>   0.0800 
 40 H       -6.0590     0.8860     2.0560 H     1 <1>   0.0800 
 41 H       -6.0850     4.5650     1.4650 H     1 <1>   0.0800 
 42 H       -4.3740     4.7250     1.2120 H     1 <1>   0.0800 
 43 H       -7.5230     3.3980    -0.2730 H     1 <1>   0.0800 
 44 H       -6.7970     2.7620    -1.7170 H     1 <1>   0.0800 
 45 H        4.9470     6.7100     0.9630 H     1 <1>   0.0800 
 46 H        3.4120     6.4350     1.7780 H     1 <1>   0.0800 
 47 H        3.4510     6.7830     0.0390 H     1 <1>   0.0800 
@<TRIPOS>BOND
  1   1   2  2   
  2   2   3  am  
  3   2   4  1   
  4   3   5  1   
  5   3  23  1   
  6   4   6  ar  
  7   4   7  ar  
  8   5   8  1   
  9   5  24  1   
 10   5  25  1   
 11   6   9  ar  
 12   6  26  1   
 13   7  10  ar  
 14   7  27  1   
 15   8  11  1   
 16   8  12  1   
 17   8  13  1   
 18   9  14  ar  
 19   9  28  1   
 20  10  14  ar  
 21  10  29  1   
 22  11  15  1   
 23  11  30  1   
 24  11  31  1   
 25  12  16  1   
 26  12  32  1   
 27  12  33  1   
 28  13  17  1   
 29  13  34  1   
 30  13  35  1   
 31  14  18  1   
 32  15  19  1   
 33  15  20  1   
 34  15  36  1   
 35  16  19  1   
 36  16  21  1   
 37  16  37  1   
 38  17  20  1   
 39  17  21  1   
 40  17  38  1   
 41  18  22  1   
 42  19  39  1   
 43  19  40  1   
 44  20  41  1   
 45  20  42  1   
 46  21  43  1   
 47  21  44  1   
 48  22  45  1   
 49  22  46  1   
 50  22  47  1   
@<TRIPOS>SUBSTRUCTURE
  1 ****   3 GROUP 4 **** **** 0

# MOE 2024.06 (io_trps.svl 2023.06)
