@<TRIPOS>MOLECULE
NONAME
42 44 1 0 0 
SMALL
USER_CHARGES


@<TRIPOS>ATOM
  1 BR      -0.0140     0.6360    -1.2490 Br    1 <1>  -0.0580 
  2 C       -1.5910     1.6750    -0.8940 C.2   1 <1>   0.1980 
  3 O       -2.7330     1.0460    -0.7960 O.3   1 <1>  -0.2800 
  4 C       -1.7040     3.0050    -0.7240 C.2   1 <1>  -0.1500 
  5 C       -3.6710     1.9640    -0.5500 C.2   1 <1>   0.0550 
  6 C       -3.0690     3.1960    -0.4980 C.2   1 <1>  -0.1500 
  7 C       -5.0580     1.5920    -0.3850 C.2   1 <1>   0.7150 
  8 O       -5.4250     0.4350    -0.4640 O.2   1 <1>  -0.5700 
  9 N       -5.9710     2.5830    -0.1340 N.am  1 <1>  -0.5470 
 10 C       -7.3550     2.6400     0.0790 C.ar  1 <1>   0.1170 
 11 C       -7.8770     3.9210     0.3070 C.ar  1 <1>   0.1000 
 12 C       -8.2010     1.5420     0.0780 C.ar  1 <1>  -0.1500 
 13 N       -7.0320     5.0370     0.3110 N.pl3 1 <1>  -0.8380 
 14 C       -9.2400     4.0560     0.5260 C.ar  1 <1>  -0.1500 
 15 C       -9.5760     1.6630     0.2980 C.ar  1 <1>   0.0860 
 16 C       -7.2260     6.0160    -0.8030 C.3   1 <1>   0.2090 
 17 C       -6.8620     5.7330     1.6230 C.3   1 <1>   0.2090 
 18 C      -10.0700     2.9520     0.5220 C.ar  1 <1>  -0.1500 
 19 C      -10.4440     0.5030     0.2920 C.2   1 <1>   0.6340 
 20 C       -6.1280     7.0950    -0.7810 C.3   1 <1>   0.1200 
 21 C       -5.7820     6.8260     1.5290 C.3   1 <1>   0.1200 
 22 O      -10.0500    -0.6300     0.1010 O.2   1 <1>  -0.5700 
 23 O      -11.7520     0.6940     0.5100 O.3   1 <1>  -0.4300 
 24 O       -6.0530     7.7100     0.4760 O.3   1 <1>  -0.5600 
 25 C      -12.6680    -0.3830     0.5210 C.3   1 <1>   0.0400 
 26 H       -0.9350     3.7560    -0.7520 H     1 <1>   0.1500 
 27 H       -3.5290     4.1520    -0.3190 H     1 <1>   0.1500 
 28 H       -5.5930     3.5310    -0.0800 H     1 <1>   0.3700 
 29 H       -7.8010     0.5590    -0.0960 H     1 <1>   0.1500 
 30 H       -9.6510     5.0330     0.7010 H     1 <1>   0.1500 
 31 H       -8.1870     6.4910    -0.7080 H     1 <1>   0.0800 
 32 H       -7.2020     5.4960    -1.7450 H     1 <1>   0.0800 
 33 H       -6.5850     5.0150     2.3750 H     1 <1>   0.0800 
 34 H       -7.7940     6.1840     1.9190 H     1 <1>   0.0800 
 35 H      -11.1230     3.0930     0.6950 H     1 <1>   0.1500 
 36 H       -6.3450     7.8590    -1.5060 H     1 <1>   0.0800 
 37 H       -5.1700     6.6630    -1.0100 H     1 <1>   0.0800 
 38 H       -4.8140     6.3850     1.3680 H     1 <1>   0.0800 
 39 H       -5.7540     7.3990     2.4390 H     1 <1>   0.0800 
 40 H      -13.6510     0.0080     0.7130 H     1 <1>   0.0800 
 41 H      -12.3840    -1.0730     1.2960 H     1 <1>   0.0800 
 42 H      -12.6430    -0.8710    -0.4380 H     1 <1>   0.0800 
@<TRIPOS>BOND
  1   1   2  1   
  2   2   3  1   
  3   2   4  2   
  4   3   5  1   
  5   4   6  1   
  6   4  26  1   
  7   5   6  2   
  8   5   7  1   
  9   6  27  1   
 10   7   8  2   
 11   7   9  am  
 12   9  10  1   
 13   9  28  1   
 14  10  11  ar  
 15  10  12  ar  
 16  11  13  1   
 17  11  14  ar  
 18  12  15  ar  
 19  12  29  1   
 20  13  16  1   
 21  13  17  1   
 22  14  18  ar  
 23  14  30  1   
 24  15  18  ar  
 25  15  19  1   
 26  16  20  1   
 27  16  31  1   
 28  16  32  1   
 29  17  21  1   
 30  17  33  1   
 31  17  34  1   
 32  18  35  1   
 33  19  22  2   
 34  19  23  1   
 35  20  24  1   
 36  20  36  1   
 37  20  37  1   
 38  21  24  1   
 39  21  38  1   
 40  21  39  1   
 41  23  25  1   
 42  25  40  1   
 43  25  41  1   
 44  25  42  1   
@<TRIPOS>SUBSTRUCTURE
  1 ****   9 GROUP 4 **** **** 0

# MOE 2024.06 (io_trps.svl 2023.06)
