@<TRIPOS>MOLECULE
NONAME
34 37 1 0 0 
SMALL
USER_CHARGES


@<TRIPOS>ATOM
  1 S       -3.8450     1.4390    -0.3360 S.3   1 <1>  -0.0800 
  2 C       -4.4770    -0.1390    -0.7570 C.2   1 <1>   0.4620 
  3 C       -5.4770     1.9830    -0.0590 C.2   1 <1>  -0.1100 
  4 N       -5.7500    -0.2330    -0.6940 N.2   1 <1>  -0.5650 
  5 N       -3.6120    -1.1200    -1.1070 N.pl3 1 <1>  -0.8840 
  6 C       -6.3270     0.9680    -0.2980 C.2   1 <1>   0.0460 
  7 C       -7.8600     1.0200    -0.1740 C.3   1 <1>   0.1810 
  8 C       -8.3500     2.4200     0.2740 C.3   1 <1>  -0.1600 
  9 C       -8.3450    -0.0160     0.8670 C.3   1 <1>  -0.1600 
 10 C       -8.5160     0.6940    -1.5360 C.3   1 <1>  -0.1600 
 11 C       -9.8860     2.4560     0.3940 C.3   1 <1>  -0.0800 
 12 C       -9.8810     0.0050     0.9900 C.3   1 <1>  -0.0800 
 13 C      -10.0530     0.7190    -1.4260 C.3   1 <1>  -0.0800 
 14 C      -10.3350     1.4090     1.4300 C.3   1 <1>  -0.1600 
 15 C      -10.5060     2.1190    -0.9740 C.3   1 <1>  -0.1600 
 16 C      -10.5010    -0.3210    -0.3820 C.3   1 <1>  -0.1600 
 17 H       -5.6130     3.0020     0.2510 H     1 <1>   0.1500 
 18 H       -3.9740    -2.0410    -1.3530 H     1 <1>   0.4000 
 19 H       -2.6030    -0.9760    -1.1360 H     1 <1>   0.4000 
 20 H       -8.0340     3.1600    -0.4390 H     1 <1>   0.0800 
 21 H       -7.9150     2.6680     1.2260 H     1 <1>   0.0800 
 22 H       -7.8980     0.1970     1.8220 H     1 <1>   0.0800 
 23 H       -8.0250    -1.0000     0.5740 H     1 <1>   0.0800 
 24 H       -8.1990    -0.2800    -1.8650 H     1 <1>   0.0800 
 25 H       -8.1890     1.4060    -2.2720 H     1 <1>   0.0800 
 26 H      -10.2040     3.4360     0.7060 H     1 <1>   0.0800 
 27 H      -10.1980    -0.7250     1.7150 H     1 <1>   0.0800 
 28 H      -10.4890     0.4850    -2.3830 H     1 <1>   0.0800 
 29 H      -11.4070     1.4300     1.5270 H     1 <1>   0.0800 
 30 H       -9.9160     1.6430     2.3930 H     1 <1>   0.0800 
 31 H      -10.2070     2.8520    -1.7020 H     1 <1>   0.0800 
 32 H      -11.5800     2.1480    -0.9040 H     1 <1>   0.0800 
 33 H      -11.5740    -0.3230    -0.3060 H     1 <1>   0.0800 
 34 H      -10.1940    -1.3050    -0.6940 H     1 <1>   0.0800 
@<TRIPOS>BOND
  1   1   2  1   
  2   1   3  1   
  3   2   4  2   
  4   2   5  1   
  5   3   6  2   
  6   3  17  1   
  7   4   6  1   
  8   5  18  1   
  9   5  19  1   
 10   6   7  1   
 11   7   8  1   
 12   7   9  1   
 13   7  10  1   
 14   8  11  1   
 15   8  20  1   
 16   8  21  1   
 17   9  12  1   
 18   9  22  1   
 19   9  23  1   
 20  10  13  1   
 21  10  24  1   
 22  10  25  1   
 23  11  14  1   
 24  11  15  1   
 25  11  26  1   
 26  12  14  1   
 27  12  16  1   
 28  12  27  1   
 29  13  15  1   
 30  13  16  1   
 31  13  28  1   
 32  14  29  1   
 33  14  30  1   
 34  15  31  1   
 35  15  32  1   
 36  16  33  1   
 37  16  34  1   
@<TRIPOS>SUBSTRUCTURE
  1 ****   7 GROUP 4 **** **** 0

# MOE 2024.06 (io_trps.svl 2023.06)
