@<TRIPOS>MOLECULE
NONAME
41 42 1 0 0 
SMALL
USER_CHARGES


@<TRIPOS>ATOM
  1 CL       0.5110     0.9920    -2.6990 Cl    1 <1>  -0.1770 
  2 C        0.2530     2.2250    -1.4920 C.ar  1 <1>   0.1770 
  3 C        1.3230     2.9850    -1.0650 C.ar  1 <1>  -0.1500 
  4 C       -1.0180     2.4180    -0.9850 C.ar  1 <1>  -0.1500 
  5 C        1.1350     3.9700    -0.1010 C.ar  1 <1>   0.1170 
  6 C       -1.2170     3.3980    -0.0280 C.ar  1 <1>  -0.1500 
  7 N        2.2220     4.7490     0.3570 N.am  1 <1>  -0.2370 
  8 C       -0.1490     4.1650     0.4060 C.ar  1 <1>  -0.1500 
  9 C        3.4310     4.2500     0.7510 C.2   1 <1>   0.5690 
 10 C        2.2190     6.1120     0.5060 C.2   1 <1>   0.5690 
 11 O        3.7510     3.0880     0.8240 O.2   1 <1>  -0.5700 
 12 C        4.3870     5.3610     1.1420 C.3   1 <1>   0.2110 
 13 O        1.3100     6.8560     0.2530 O.2   1 <1>  -0.5700 
 14 C        3.5260     6.6250     1.0630 C.3   1 <1>  -0.0990 
 15 S        5.7830     5.5200    -0.0840 S.3   1 <1>  -0.3610 
 16 C        6.9060     4.1750     0.1180 C.cat 1 <1>   0.8400 
 17 N        6.4960     3.0930     0.7340 N.pl3 1 <1>  -0.7940 
 18 N        8.1100     4.3190    -0.3850 N.pl3 1 <1>  -0.7940 
 19 C        7.2200     1.8480     1.0530 C.3   1 <1>   0.3290 
 20 C        8.6810     5.4870    -1.0900 C.3   1 <1>   0.3290 
 21 C        6.5960     0.7180     0.2460 C.3   1 <1>  -0.2400 
 22 C       10.1710     5.5460    -0.7830 C.3   1 <1>  -0.2400 
 23 H        2.2940     2.8010    -1.4850 H     1 <1>   0.1500 
 24 H       -1.8340     1.8110    -1.3360 H     1 <1>   0.1500 
 25 H       -2.2010     3.5650     0.3750 H     1 <1>   0.1500 
 26 H       -0.3200     4.9280     1.1460 H     1 <1>   0.1500 
 27 H        4.8090     5.2090     2.1200 H     1 <1>   0.0800 
 28 H        3.3550     7.0400     2.0400 H     1 <1>   0.0800 
 29 H        3.9390     7.3760     0.4140 H     1 <1>   0.0800 
 30 H        5.4930     2.9980     0.9520 H     1 <1>   0.4500 
 31 H        8.7650     3.5430    -0.3240 H     1 <1>   0.4500 
 32 H        7.1260     1.6390     2.1070 H     1 <1>   0.0800 
 33 H        8.2670     1.9360     0.8180 H     1 <1>   0.0800 
 34 H        8.2140     6.4030    -0.7680 H     1 <1>   0.0800 
 35 H        8.5300     5.3780    -2.1520 H     1 <1>   0.0800 
 36 H        5.5560     0.6010     0.4990 H     1 <1>   0.0800 
 37 H        7.1000    -0.2070     0.4680 H     1 <1>   0.0800 
 38 H        6.6870     0.9080    -0.8090 H     1 <1>   0.0800 
 39 H       10.3360     5.6570     0.2750 H     1 <1>   0.0800 
 40 H       10.6040     6.3970    -1.2780 H     1 <1>   0.0800 
 41 H       10.6720     4.6630    -1.1390 H     1 <1>   0.0800 
@<TRIPOS>BOND
  1   1   2  1   
  2   2   3  ar  
  3   2   4  ar  
  4   3   5  ar  
  5   3  23  1   
  6   4   6  ar  
  7   4  24  1   
  8   5   7  1   
  9   5   8  ar  
 10   6   8  ar  
 11   6  25  1   
 12   7   9  am  
 13   7  10  am  
 14   8  26  1   
 15   9  11  2   
 16   9  12  1   
 17  10  13  2   
 18  10  14  1   
 19  12  14  1   
 20  12  15  1   
 21  12  27  1   
 22  14  28  1   
 23  14  29  1   
 24  15  16  1   
 25  16  17  ar  
 26  16  18  ar  
 27  17  19  1   
 28  17  30  1   
 29  18  20  1   
 30  18  31  1   
 31  19  21  1   
 32  19  32  1   
 33  19  33  1   
 34  20  22  1   
 35  20  34  1   
 36  20  35  1   
 37  21  36  1   
 38  21  37  1   
 39  21  38  1   
 40  22  39  1   
 41  22  40  1   
 42  22  41  1   
@<TRIPOS>SUBSTRUCTURE
  1 ****   9 GROUP 4 **** **** 0

# MOE 2024.06 (io_trps.svl 2023.06)
