@<TRIPOS>MOLECULE
NONAME
40 43 1 0 0 
SMALL
USER_CHARGES


@<TRIPOS>ATOM
  1 O       -0.6430     0.8630     1.4960 O.2   1 <1>  -0.5700 
  2 C       -1.0760     1.4270     0.5220 C.2   1 <1>   0.5690 
  3 N       -0.3660     2.2400    -0.3210 N.am  1 <1>  -0.2370 
  4 C       -2.5330     1.3000     0.0840 C.3   1 <1>   0.0610 
  5 C        1.0370     2.4040    -0.2790 C.ar  1 <1>   0.1170 
  6 C       -1.1910     2.7660    -1.2800 C.2   1 <1>   0.5690 
  7 C       -2.6150     2.2800    -1.1190 C.3   1 <1>  -0.0190 
  8 C       -3.5180     1.9350     1.1030 C.3   1 <1>   0.0580 
  9 C       -2.8720    -0.1570    -0.3000 C.3   1 <1>  -0.2400 
 10 C        1.6490     3.6310     0.0100 C.ar  1 <1>  -0.1440 
 11 C        1.8310     1.2950    -0.5470 C.ar  1 <1>  -0.1500 
 12 O       -0.8760     3.5230    -2.1620 O.2   1 <1>  -0.5700 
 13 C       -3.5920     3.3730    -0.6320 C.3   1 <1>   0.0580 
 14 C       -4.9060     1.8520     0.4910 C.2   1 <1>  -0.2880 
 15 C       -3.2840     3.4270     0.8640 C.3   1 <1>  -0.1600 
 16 C        3.0400     3.7270    -0.0060 C.ar  1 <1>  -0.1430 
 17 C        0.7880     4.8540     0.3350 C.3   1 <1>  -0.0970 
 18 C        3.2070     1.3910    -0.5470 C.ar  1 <1>  -0.1500 
 19 C       -4.9470     2.6960    -0.5370 C.2   1 <1>  -0.2880 
 20 C        3.8060     2.6050    -0.2810 C.ar  1 <1>  -0.1500 
 21 C        3.7730     5.0360     0.2640 C.3   1 <1>  -0.0970 
 22 H       -2.9560     1.8140    -2.0260 H     1 <1>   0.0800 
 23 H       -3.4340     1.6140     2.1280 H     1 <1>   0.0800 
 24 H       -2.1530    -0.5370    -1.0040 H     1 <1>   0.0800 
 25 H       -3.8490    -0.2290    -0.7440 H     1 <1>   0.0800 
 26 H       -2.8480    -0.7800     0.5770 H     1 <1>   0.0800 
 27 H        1.3690     0.3470    -0.7550 H     1 <1>   0.1500 
 28 H       -3.5730     4.3180    -1.1490 H     1 <1>   0.0800 
 29 H       -5.6470     1.1760     0.8870 H     1 <1>   0.1500 
 30 H       -2.2900     3.7600     1.0980 H     1 <1>   0.0800 
 31 H       -3.9950     4.0360     1.3990 H     1 <1>   0.0800 
 32 H        0.4790     5.3300    -0.5780 H     1 <1>   0.0800 
 33 H        1.3160     5.5700     0.9350 H     1 <1>   0.0800 
 34 H       -0.0830     4.5690     0.8920 H     1 <1>   0.0800 
 35 H        3.8100     0.5240    -0.7550 H     1 <1>   0.1500 
 36 H       -5.7300     2.9230    -1.2410 H     1 <1>   0.1500 
 37 H        4.8800     2.6680    -0.2900 H     1 <1>   0.1500 
 38 H        3.6680     5.3070     1.2990 H     1 <1>   0.0800 
 39 H        3.3700     5.8200    -0.3510 H     1 <1>   0.0800 
 40 H        4.8210     4.9460     0.0420 H     1 <1>   0.0800 
@<TRIPOS>BOND
  1   1   2  2   
  2   2   3  am  
  3   2   4  1   
  4   3   5  1   
  5   3   6  am  
  6   4   7  1   
  7   4   8  1   
  8   4   9  1   
  9   5  10  ar  
 10   5  11  ar  
 11   6   7  1   
 12   6  12  2   
 13   7  13  1   
 14   7  22  1   
 15   8  14  1   
 16   8  15  1   
 17   8  23  1   
 18   9  24  1   
 19   9  25  1   
 20   9  26  1   
 21  10  16  ar  
 22  10  17  1   
 23  11  18  ar  
 24  11  27  1   
 25  13  15  1   
 26  13  19  1   
 27  13  28  1   
 28  14  19  2   
 29  14  29  1   
 30  15  30  1   
 31  15  31  1   
 32  16  20  ar  
 33  16  21  1   
 34  17  32  1   
 35  17  33  1   
 36  17  34  1   
 37  18  20  ar  
 38  18  35  1   
 39  19  36  1   
 40  20  37  1   
 41  21  38  1   
 42  21  39  1   
 43  21  40  1   
@<TRIPOS>SUBSTRUCTURE
  1 ****   3 GROUP 4 **** **** 0

# MOE 2024.06 (io_trps.svl 2023.06)
