@<TRIPOS>MOLECULE
NONAME
41 44 1 0 0 
SMALL
USER_CHARGES


@<TRIPOS>ATOM
  1 S        0.2810     0.5010    -0.3340 S.3   1 <1>  -0.3710 
  2 C       -1.1590    -0.5430    -0.3330 C.2   1 <1>   0.6410 
  3 C       -0.2850     2.1910     0.1360 C.3   1 <1>   0.2700 
  4 N       -2.3580     0.0530    -0.1320 N.pl3 1 <1>  -0.5500 
  5 N       -0.9880    -1.7900    -0.5220 N.2   1 <1>  -0.6610 
  6 C        0.9070     3.0830     0.1820 C.1   1 <1>  -0.2000 
  7 C       -3.5140    -0.6810    -0.0550 C.2   1 <1>   0.0720 
  8 C       -2.1070    -2.5700    -0.5080 C.2   1 <1>   0.7670 
  9 C        1.8570     3.7970     0.2190 C.1   1 <1>  -0.1770 
 10 C       -4.7780     0.0030     0.1010 C.ar  1 <1>   0.0280 
 11 C       -3.3900    -2.0390    -0.1500 C.2   1 <1>  -0.1240 
 12 O       -1.9460    -3.7260    -0.8690 O.2   1 <1>  -0.5700 
 13 C       -5.8650    -0.7110     0.5920 C.ar  1 <1>  -0.1430 
 14 C       -4.9770     1.3400    -0.2490 C.ar  1 <1>  -0.1500 
 15 C       -4.6460    -2.9210     0.0750 C.3   1 <1>   0.1380 
 16 C       -7.1040    -0.1110     0.7420 C.ar  1 <1>  -0.1500 
 17 C       -5.6590    -2.1650     0.9830 C.3   1 <1>  -0.0170 
 18 C       -6.2130     1.9420    -0.0980 C.ar  1 <1>  -0.1500 
 19 C       -5.2950    -3.2730    -1.2700 C.3   1 <1>  -0.1600 
 20 C       -4.4480    -4.3110     0.7190 C.3   1 <1>  -0.1600 
 21 C       -7.2790     1.2170     0.3990 C.ar  1 <1>  -0.1500 
 22 C       -6.1460    -4.5260    -1.0320 C.3   1 <1>  -0.1600 
 23 C       -5.6520    -5.1490     0.2790 C.3   1 <1>  -0.1600 
 24 H       -0.7520     2.1230     1.1020 H     1 <1>   0.0800 
 25 H       -0.9820     2.5240    -0.6120 H     1 <1>   0.0800 
 26 H       -2.4030     1.0590    -0.0150 H     1 <1>   0.4000 
 27 H        2.7230     4.4360     0.2510 H     1 <1>   0.1770 
 28 H       -4.1740     1.9200    -0.6590 H     1 <1>   0.1500 
 29 H       -7.9380    -0.6700     1.1280 H     1 <1>   0.1500 
 30 H       -6.6090    -2.6680     0.9920 H     1 <1>   0.0800 
 31 H       -5.2900    -2.1660     1.9930 H     1 <1>   0.0800 
 32 H       -6.3500     2.9750    -0.3720 H     1 <1>   0.1500 
 33 H       -4.5220    -3.5160    -1.9800 H     1 <1>   0.0800 
 34 H       -5.8770    -2.4600    -1.6680 H     1 <1>   0.0800 
 35 H       -4.3600    -4.2680     1.7910 H     1 <1>   0.0800 
 36 H       -3.5790    -4.8140     0.3490 H     1 <1>   0.0800 
 37 H       -8.2430     1.6830     0.5170 H     1 <1>   0.1500 
 38 H       -6.0340    -5.2150    -1.8530 H     1 <1>   0.0800 
 39 H       -7.1860    -4.2610    -0.9440 H     1 <1>   0.0800 
 40 H       -6.4290    -5.1000     1.0220 H     1 <1>   0.0800 
 41 H       -5.3730    -6.1800     0.1410 H     1 <1>   0.0800 
@<TRIPOS>BOND
  1   1   2  1   
  2   1   3  1   
  3   2   4  1   
  4   2   5  2   
  5   3   6  1   
  6   3  24  1   
  7   3  25  1   
  8   4   7  1   
  9   4  26  1   
 10   5   8  1   
 11   6   9  3   
 12   7  10  1   
 13   7  11  2   
 14   8  11  1   
 15   8  12  2   
 16   9  27  1   
 17  10  13  ar  
 18  10  14  ar  
 19  11  15  1   
 20  13  16  ar  
 21  13  17  1   
 22  14  18  ar  
 23  14  28  1   
 24  15  17  1   
 25  15  19  1   
 26  15  20  1   
 27  16  21  ar  
 28  16  29  1   
 29  17  30  1   
 30  17  31  1   
 31  18  21  ar  
 32  18  32  1   
 33  19  22  1   
 34  19  33  1   
 35  19  34  1   
 36  20  23  1   
 37  20  35  1   
 38  20  36  1   
 39  21  37  1   
 40  22  23  1   
 41  22  38  1   
 42  22  39  1   
 43  23  40  1   
 44  23  41  1   
@<TRIPOS>SUBSTRUCTURE
  1 ****   7 GROUP 4 **** **** 0

# MOE 2024.06 (io_trps.svl 2023.06)
