@<TRIPOS>MOLECULE
NONAME
39 40 1 0 0 
SMALL
USER_CHARGES


@<TRIPOS>ATOM
  1 O        0.2200     4.0990     1.2620 O.2   1 <1>  -0.5700 
  2 C       -0.6960     4.0660     0.4640 C.2   1 <1>   0.5440 
  3 N       -0.4920     4.6690    -0.7480 N.am  1 <1>  -0.7300 
  4 C       -1.9410     3.3770     0.7670 C.ar  1 <1>   0.0860 
  5 C        0.5590     5.6840    -1.0680 C.3   1 <1>   0.1400 
  6 C       -3.1150     3.6230     0.0550 C.ar  1 <1>  -0.1500 
  7 C       -2.0060     2.4310     1.7930 C.ar  1 <1>  -0.1500 
  8 C        1.9070     5.0380    -1.4490 C.3   1 <1>   0.3430 
  9 C       -4.2920     2.9520     0.3320 C.ar  1 <1>   0.0830 
 10 C       -3.1770     1.7550     2.0830 C.ar  1 <1>  -0.1500 
 11 N        2.4670     4.2560    -0.3120 N.4   1 <1>  -0.9590 
 12 O       -5.3640     3.2710    -0.4340 O.3   1 <1>  -0.3620 
 13 C       -4.3240     2.0100     1.3540 C.ar  1 <1>  -0.1500 
 14 C        3.2120     5.0480     0.6890 C.3   1 <1>   0.3430 
 15 C        3.3210     3.1090    -0.6850 C.3   1 <1>   0.3430 
 16 C       -6.6230     2.6710    -0.2220 C.3   1 <1>   0.0400 
 17 C        3.9490     3.9970     1.5050 C.3   1 <1>  -0.1600 
 18 C        4.1000     2.7830     0.5830 C.3   1 <1>  -0.1600 
 19 H       -1.2470     4.5940    -1.4380 H     1 <1>   0.3700 
 20 H        0.6960     6.3350    -0.2220 H     1 <1>   0.0800 
 21 H        0.2160     6.2880    -1.8900 H     1 <1>   0.0800 
 22 H       -3.1370     4.3540    -0.7300 H     1 <1>   0.1500 
 23 H       -1.1230     2.2230     2.3740 H     1 <1>   0.1500 
 24 H        2.6070     5.8000    -1.7470 H     1 <1>   0.0800 
 25 H        1.7420     4.3870    -2.2910 H     1 <1>   0.0800 
 26 H       -3.1970     1.0300     2.8790 H     1 <1>   0.1500 
 27 H        1.6440     3.8880     0.2140 H     1 <1>   0.4500 
 28 H       -5.2210     1.4720     1.5950 H     1 <1>   0.1500 
 29 H        2.5460     5.6320     1.3060 H     1 <1>   0.0800 
 30 H        3.9210     5.6930     0.1970 H     1 <1>   0.0800 
 31 H        4.0060     3.4010    -1.4650 H     1 <1>   0.0800 
 32 H        2.7310     2.2690    -1.0170 H     1 <1>   0.0800 
 33 H       -7.3140     3.0840    -0.9350 H     1 <1>   0.0800 
 34 H       -6.9530     2.8940     0.7770 H     1 <1>   0.0800 
 35 H       -6.5350     1.6090    -0.3720 H     1 <1>   0.0800 
 36 H        3.3540     3.7390     2.3640 H     1 <1>   0.0800 
 37 H        4.8990     4.3710     1.8450 H     1 <1>   0.0800 
 38 H        5.1330     2.5940     0.3430 H     1 <1>   0.0800 
 39 H        3.6920     1.9030     1.0500 H     1 <1>   0.0800 
@<TRIPOS>BOND
  1   1   2  2   
  2   2   3  am  
  3   2   4  1   
  4   3   5  1   
  5   3  19  1   
  6   4   6  ar  
  7   4   7  ar  
  8   5   8  1   
  9   5  20  1   
 10   5  21  1   
 11   6   9  ar  
 12   6  22  1   
 13   7  10  ar  
 14   7  23  1   
 15   8  11  1   
 16   8  24  1   
 17   8  25  1   
 18   9  12  1   
 19   9  13  ar  
 20  10  13  ar  
 21  10  26  1   
 22  11  14  1   
 23  11  15  1   
 24  11  27  1   
 25  12  16  1   
 26  13  28  1   
 27  14  17  1   
 28  14  29  1   
 29  14  30  1   
 30  15  18  1   
 31  15  31  1   
 32  15  32  1   
 33  16  33  1   
 34  16  34  1   
 35  16  35  1   
 36  17  18  1   
 37  17  36  1   
 38  17  37  1   
 39  18  38  1   
 40  18  39  1   
@<TRIPOS>SUBSTRUCTURE
  1 ****   2 GROUP 4 **** **** 0

# MOE 2024.06 (io_trps.svl 2023.06)
