@<TRIPOS>MOLECULE
NONAME
43 43 1 0 0 
SMALL
USER_CHARGES


@<TRIPOS>ATOM
  1 O        4.2410    -0.4210    -1.9420 O.3   1 <1>  -0.6800 
  2 C        4.5760     0.7840    -1.3510 C.3   1 <1>   0.1200 
  3 C        3.7110     0.9370    -0.0900 C.3   1 <1>   0.3430 
  4 N        3.8520     2.2900     0.5550 N.4   1 <1>  -0.9590 
  5 C        4.8100     2.2580     1.6980 C.3   1 <1>   0.4860 
  6 C        2.5390     2.8340     0.9930 C.3   1 <1>   0.3430 
  7 C        6.2040     2.0210     1.1570 C.ar  1 <1>  -0.1430 
  8 C        1.7350     3.3080    -0.2200 C.3   1 <1>  -0.1600 
  9 C        6.8680     3.0240     0.4670 C.ar  1 <1>  -0.1500 
 10 C        6.8230     0.7930     1.3360 C.ar  1 <1>  -0.1500 
 11 C        0.4080     3.9380     0.2170 C.3   1 <1>  -0.2400 
 12 C        8.1280     2.7910    -0.0550 C.ar  1 <1>  -0.1500 
 13 C        8.0830     0.5670     0.8120 C.ar  1 <1>  -0.1500 
 14 C        8.7460     1.5600     0.1080 C.ar  1 <1>  -0.1430 
 15 C       10.1360     1.2900    -0.4650 C.3   1 <1>   0.0630 
 16 C       11.1750     2.2320     0.1510 C.3   1 <1>  -0.2400 
 17 C       10.1310     1.4090    -1.9920 C.3   1 <1>  -0.2400 
 18 H        4.7970    -0.6010    -2.7300 H     1 <1>   0.4000 
 19 H        4.3720     1.5670    -2.0600 H     1 <1>   0.0800 
 20 H        5.6260     0.7570    -1.1160 H     1 <1>   0.0800 
 21 H        3.9740     0.1630     0.6110 H     1 <1>   0.0800 
 22 H        2.6860     0.7840    -0.3840 H     1 <1>   0.0800 
 23 H        4.2530     2.9320    -0.1390 H     1 <1>   0.4500 
 24 H        4.5430     1.4780     2.3910 H     1 <1>   0.0800 
 25 H        4.7960     3.2000     2.2220 H     1 <1>   0.0800 
 26 H        2.6940     3.6750     1.6500 H     1 <1>   0.0800 
 27 H        1.9840     2.0820     1.5320 H     1 <1>   0.0800 
 28 H        1.5170     2.4840    -0.8760 H     1 <1>   0.0800 
 29 H        2.2990     4.0450    -0.7660 H     1 <1>   0.0800 
 30 H        6.4250     3.9950     0.3280 H     1 <1>   0.1500 
 31 H        6.3400    -0.0010     1.8790 H     1 <1>   0.1500 
 32 H       -0.1990     3.2250     0.7480 H     1 <1>   0.0800 
 33 H       -0.1440     4.2690    -0.6470 H     1 <1>   0.0800 
 34 H        0.5770     4.7910     0.8530 H     1 <1>   0.0800 
 35 H        8.6320     3.5770    -0.5900 H     1 <1>   0.1500 
 36 H        8.5500    -0.3930     0.9570 H     1 <1>   0.1500 
 37 H       10.4240     0.2820    -0.2170 H     1 <1>   0.0800 
 38 H       10.9710     3.2550    -0.1090 H     1 <1>   0.0800 
 39 H       12.1600     1.9790    -0.1990 H     1 <1>   0.0800 
 40 H       11.1610     2.1410     1.2230 H     1 <1>   0.0800 
 41 H        9.9000     2.4130    -2.2990 H     1 <1>   0.0800 
 42 H        9.3980     0.7430    -2.4100 H     1 <1>   0.0800 
 43 H       11.0960     1.1440    -2.3880 H     1 <1>   0.0800 
@<TRIPOS>BOND
  1   1   2  1   
  2   1  18  1   
  3   2   3  1   
  4   2  19  1   
  5   2  20  1   
  6   3   4  1   
  7   3  21  1   
  8   3  22  1   
  9   4   5  1   
 10   4   6  1   
 11   4  23  1   
 12   5   7  1   
 13   5  24  1   
 14   5  25  1   
 15   6   8  1   
 16   6  26  1   
 17   6  27  1   
 18   7   9  ar  
 19   7  10  ar  
 20   8  11  1   
 21   8  28  1   
 22   8  29  1   
 23   9  12  ar  
 24   9  30  1   
 25  10  13  ar  
 26  10  31  1   
 27  11  32  1   
 28  11  33  1   
 29  11  34  1   
 30  12  14  ar  
 31  12  35  1   
 32  13  14  ar  
 33  13  36  1   
 34  14  15  1   
 35  15  16  1   
 36  15  17  1   
 37  15  37  1   
 38  16  38  1   
 39  16  39  1   
 40  16  40  1   
 41  17  41  1   
 42  17  42  1   
 43  17  43  1   
@<TRIPOS>SUBSTRUCTURE
  1 ****   7 GROUP 4 **** **** 0

# MOE 2024.06 (io_trps.svl 2023.06)
