@<TRIPOS>MOLECULE
NONAME
37 39 1 0 0 
SMALL
USER_CHARGES


@<TRIPOS>ATOM
  1 N        0.1350     0.1110     0.2030 N.4   1 <1>  -0.9590 
  2 C        1.3450     0.9280     0.5280 C.3   1 <1>   0.4230 
  3 C       -1.1650     0.7090     0.6670 C.3   1 <1>   0.3430 
  4 C        0.2160    -1.3250     0.6420 C.3   1 <1>   0.3430 
  5 C        1.2570     2.3650    -0.0240 C.3   1 <1>  -0.0170 
  6 C        2.6420     0.3250    -0.0490 C.3   1 <1>  -0.0160 
  7 C       -2.3750    -0.1200     0.1690 C.3   1 <1>   0.1100 
  8 C       -1.0070    -2.1360     0.1450 C.3   1 <1>   0.1100 
  9 C        2.6780     2.6730    -0.4160 C.ar  1 <1>  -0.1440 
 10 C        3.4480     1.5380    -0.4300 C.ar  1 <1>  -0.1440 
 11 N       -1.9570    -1.2990    -0.6240 N.3   1 <1>  -0.8100 
 12 C        3.2230     3.9030    -0.7360 C.ar  1 <1>  -0.1500 
 13 C        4.7880     1.5960    -0.7640 C.ar  1 <1>  -0.1500 
 14 C       -3.1170    -2.0810    -1.0750 C.3   1 <1>   0.0300 
 15 C        4.5660     3.9720    -1.0720 C.ar  1 <1>  -0.1500 
 16 C        5.3450     2.8240    -1.0860 C.ar  1 <1>  -0.1500 
 17 H        0.0220     0.0460    -0.8220 H     1 <1>   0.4500 
 18 H        1.4630     0.9950     1.5970 H     1 <1>   0.0800 
 19 H       -1.2640     1.7150     0.2950 H     1 <1>   0.0800 
 20 H       -1.1870     0.7540     1.7430 H     1 <1>   0.0800 
 21 H        0.2620    -1.3800     1.7170 H     1 <1>   0.0800 
 22 H        1.1100    -1.7830     0.2520 H     1 <1>   0.0800 
 23 H        0.9130     3.0530     0.7270 H     1 <1>   0.0800 
 24 H        0.6390     2.4210    -0.9030 H     1 <1>   0.0800 
 25 H        2.4550    -0.2550    -0.9350 H     1 <1>   0.0800 
 26 H        3.1620    -0.2610     0.6870 H     1 <1>   0.0800 
 27 H       -3.0020     0.5110    -0.4390 H     1 <1>   0.0800 
 28 H       -2.9610    -0.4350     1.0160 H     1 <1>   0.0800 
 29 H       -1.5070    -2.5760     0.9910 H     1 <1>   0.0800 
 30 H       -0.6600    -2.9420    -0.4800 H     1 <1>   0.0800 
 31 H        2.6210     4.7950    -0.7280 H     1 <1>   0.1500 
 32 H        5.3960     0.7080    -0.7780 H     1 <1>   0.1500 
 33 H       -3.7690    -1.4630    -1.6690 H     1 <1>   0.0800 
 34 H       -3.6700    -2.4660    -0.2350 H     1 <1>   0.0800 
 35 H       -2.7900    -2.9060    -1.6860 H     1 <1>   0.0800 
 36 H        5.0080     4.9210    -1.3230 H     1 <1>   0.1500 
 37 H        6.3870     2.8890    -1.3480 H     1 <1>   0.1500 
@<TRIPOS>BOND
  1   1   2  1   
  2   1   3  1   
  3   1   4  1   
  4   1  17  1   
  5   2   5  1   
  6   2   6  1   
  7   2  18  1   
  8   3   7  1   
  9   3  19  1   
 10   3  20  1   
 11   4   8  1   
 12   4  21  1   
 13   4  22  1   
 14   5   9  1   
 15   5  23  1   
 16   5  24  1   
 17   6  10  1   
 18   6  25  1   
 19   6  26  1   
 20   7  11  1   
 21   7  27  1   
 22   7  28  1   
 23   8  11  1   
 24   8  29  1   
 25   8  30  1   
 26   9  10  ar  
 27   9  12  ar  
 28  10  13  ar  
 29  11  14  1   
 30  12  15  ar  
 31  12  31  1   
 32  13  16  ar  
 33  13  32  1   
 34  14  33  1   
 35  14  34  1   
 36  14  35  1   
 37  15  16  ar  
 38  15  36  1   
 39  16  37  1   
@<TRIPOS>SUBSTRUCTURE
  1 ****   2 GROUP 4 **** **** 0

# MOE 2024.06 (io_trps.svl 2023.06)
