@<TRIPOS>MOLECULE
NONAME
51 53 1 0 0 
SMALL
USER_CHARGES


@<TRIPOS>ATOM
  1 O        0.3620     1.2860    -1.9990 O.2   1 <1>  -0.5700 
  2 C        0.2920     1.9270    -0.9680 C.2   1 <1>   0.5440 
  3 N        1.4300     2.0990    -0.2020 N.am  1 <1>  -0.6600 
  4 C       -0.9860     2.4940    -0.5810 C.ar  1 <1>   0.0860 
  5 C        2.6980     1.3860    -0.5210 C.3   1 <1>   0.1400 
  6 C        1.5390     3.1010     0.8950 C.3   1 <1>   0.1400 
  7 C       -1.6450     3.4030    -1.4070 C.ar  1 <1>  -0.1500 
  8 C       -1.6010     2.1490     0.6220 C.ar  1 <1>  -0.1500 
  9 C        3.7900     2.4010    -0.8710 C.3   1 <1>  -0.1600 
 10 C        2.6270     4.1220     0.5550 C.3   1 <1>  -0.1600 
 11 C       -2.8580     3.9590    -1.0420 C.ar  1 <1>  -0.1500 
 12 C       -2.8140     2.7010     0.9940 C.ar  1 <1>  -0.1500 
 13 C        3.9760     3.4410     0.2480 C.3   1 <1>  -0.0190 
 14 C       -3.4430     3.6100     0.1620 C.ar  1 <1>  -0.1500 
 15 C        5.0770     4.4400    -0.1120 C.2   1 <1>   0.5690 
 16 O        4.7890     5.4520    -0.7050 O.2   1 <1>  -0.5700 
 17 N        6.3510     4.1180     0.2610 N.am  1 <1>  -0.5470 
 18 C        7.5980     4.7570     0.1150 C.ar  1 <1>   0.1170 
 19 C        8.7270     4.1070     0.6270 C.ar  1 <1>   0.0830 
 20 C        7.7600     5.9910    -0.5060 C.ar  1 <1>  -0.1500 
 21 O        8.5290     2.8950     1.2310 O.3   1 <1>  -0.3630 
 22 C        9.9820     4.6950     0.5100 C.ar  1 <1>  -0.1500 
 23 C        9.0100     6.5730    -0.6200 C.ar  1 <1>  -0.1500 
 24 C        9.6110     2.1720     1.7800 C.3   1 <1>   0.0400 
 25 C       10.1290     5.9230    -0.1100 C.ar  1 <1>   0.0830 
 26 O       11.3920     6.4230    -0.1790 O.3   1 <1>  -0.3620 
 27 C       11.6460     7.6680    -0.7910 C.3   1 <1>   0.0400 
 28 H        2.5610     0.7070    -1.3460 H     1 <1>   0.0800 
 29 H        2.9950     0.8050     0.3350 H     1 <1>   0.0800 
 30 H        1.7850     2.5920     1.8110 H     1 <1>   0.0800 
 31 H        0.6090     3.6210     1.0410 H     1 <1>   0.0800 
 32 H       -1.1920     3.6680    -2.3470 H     1 <1>   0.1500 
 33 H       -1.1170     1.4360     1.2670 H     1 <1>   0.1500 
 34 H        3.5190     2.8970    -1.7880 H     1 <1>   0.0800 
 35 H        4.7140     1.8780    -1.0450 H     1 <1>   0.0800 
 36 H        2.7470     4.8050     1.3770 H     1 <1>   0.0800 
 37 H        2.3060     4.6960    -0.2980 H     1 <1>   0.0800 
 38 H       -3.3470     4.6610    -1.6950 H     1 <1>   0.1500 
 39 H       -3.2710     2.4220     1.9280 H     1 <1>   0.1500 
 40 H        4.2850     2.9230     1.1380 H     1 <1>   0.0800 
 41 H       -4.3870     4.0410     0.4490 H     1 <1>   0.1500 
 42 H        6.4600     3.2240     0.7420 H     1 <1>   0.3700 
 43 H        6.9110     6.5110    -0.9070 H     1 <1>   0.1500 
 44 H       10.8680     4.2260     0.8910 H     1 <1>   0.1500 
 45 H        9.0880     7.5260    -1.1070 H     1 <1>   0.1500 
 46 H        9.2270     1.2610     2.2000 H     1 <1>   0.0800 
 47 H       10.0710     2.7640     2.5510 H     1 <1>   0.0800 
 48 H       10.3130     1.9460     0.9970 H     1 <1>   0.0800 
 49 H       12.7020     7.8600    -0.7310 H     1 <1>   0.0800 
 50 H       11.1050     8.4330    -0.2640 H     1 <1>   0.0800 
 51 H       11.3420     7.6190    -1.8220 H     1 <1>   0.0800 
@<TRIPOS>BOND
  1   1   2  2   
  2   2   3  am  
  3   2   4  1   
  4   3   5  1   
  5   3   6  1   
  6   4   7  ar  
  7   4   8  ar  
  8   5   9  1   
  9   5  28  1   
 10   5  29  1   
 11   6  10  1   
 12   6  30  1   
 13   6  31  1   
 14   7  11  ar  
 15   7  32  1   
 16   8  12  ar  
 17   8  33  1   
 18   9  13  1   
 19   9  34  1   
 20   9  35  1   
 21  10  13  1   
 22  10  36  1   
 23  10  37  1   
 24  11  14  ar  
 25  11  38  1   
 26  12  14  ar  
 27  12  39  1   
 28  13  15  1   
 29  13  40  1   
 30  14  41  1   
 31  15  16  2   
 32  15  17  am  
 33  17  18  1   
 34  17  42  1   
 35  18  19  ar  
 36  18  20  ar  
 37  19  21  1   
 38  19  22  ar  
 39  20  23  ar  
 40  20  43  1   
 41  21  24  1   
 42  22  25  ar  
 43  22  44  1   
 44  23  25  ar  
 45  23  45  1   
 46  24  46  1   
 47  24  47  1   
 48  24  48  1   
 49  25  26  1   
 50  26  27  1   
 51  27  49  1   
 52  27  50  1   
 53  27  51  1   
@<TRIPOS>SUBSTRUCTURE
  1 ****  13 GROUP 4 **** **** 0

# MOE 2024.06 (io_trps.svl 2023.06)
