@<TRIPOS>MOLECULE
NONAME
41 42 1 0 0 
SMALL
USER_CHARGES


@<TRIPOS>ATOM
  1 CL      -4.1800     3.9900    -2.8090 Cl    1 <1>  -0.1770 
  2 C       -2.5940     3.9300    -2.0670 C.ar  1 <1>   0.1770 
  3 C       -2.4400     3.3210    -0.8240 C.ar  1 <1>   0.1170 
  4 C       -1.5300     4.4960    -2.7390 C.ar  1 <1>  -0.1500 
  5 N       -3.5570     2.7610    -0.1820 N.am  1 <1>  -0.5470 
  6 C       -1.1600     3.2930    -0.2750 C.ar  1 <1>  -0.1500 
  7 C       -0.2680     4.4590    -2.1710 C.ar  1 <1>  -0.1500 
  8 C       -3.8000     2.3350     1.0920 C.2   1 <1>   0.5690 
  9 C       -0.0680     3.8540    -0.9320 C.ar  1 <1>  -0.1440 
 10 O       -2.9840     2.3480     1.9810 O.2   1 <1>  -0.5700 
 11 C       -5.2150     1.8220     1.3710 C.3   1 <1>   0.1710 
 12 C        1.3270     3.8060    -0.2860 C.3   1 <1>   1.1640 
 13 N       -6.2190     2.2890     0.3660 N.3   1 <1>  -0.8100 
 14 F        1.5660     2.6600     0.3380 F     1 <1>  -0.3400 
 15 F        2.3090     3.9560    -1.1680 F     1 <1>  -0.3400 
 16 F        1.4900     4.7660     0.6160 F     1 <1>  -0.3400 
 17 C       -6.5880     3.6960     0.6030 C.3   1 <1>   0.1100 
 18 C       -7.4070     1.4260     0.3640 C.3   1 <1>   0.1100 
 19 C       -7.4670     4.1910    -0.5460 C.3   1 <1>  -0.1600 
 20 C       -8.3240     1.8280    -0.7940 C.3   1 <1>  -0.1600 
 21 C       -8.7220     3.3130    -0.7040 C.3   1 <1>  -0.0190 
 22 C       -9.5780     3.7420    -1.8920 C.2   1 <1>   0.5690 
 23 O      -10.7220     4.0710    -1.7160 O.2   1 <1>  -0.5700 
 24 N       -9.0590     3.7530    -3.1340 N.am  1 <1>  -0.8000 
 25 H       -1.6880     4.9600    -3.6970 H     1 <1>   0.1500 
 26 H       -4.4230     2.7340    -0.7380 H     1 <1>   0.3700 
 27 H       -1.0130     2.8240     0.6820 H     1 <1>   0.1500 
 28 H        0.5560     4.9070    -2.7040 H     1 <1>   0.1500 
 29 H       -5.5100     2.1230     2.3600 H     1 <1>   0.0800 
 30 H       -5.1630     0.7480     1.3540 H     1 <1>   0.0800 
 31 H       -5.7040     4.3090     0.6570 H     1 <1>   0.0800 
 32 H       -7.1180     3.7850     1.5380 H     1 <1>   0.0800 
 33 H       -7.9310     1.5140     1.3020 H     1 <1>   0.0800 
 34 H       -7.1100     0.3980     0.2330 H     1 <1>   0.0800 
 35 H       -6.8860     4.1810    -1.4500 H     1 <1>   0.0800 
 36 H       -7.7630     5.2080    -0.3560 H     1 <1>   0.0800 
 37 H       -9.2100     1.2180    -0.7760 H     1 <1>   0.0800 
 38 H       -7.8110     1.6360    -1.7190 H     1 <1>   0.0800 
 39 H       -9.3230     3.4380     0.1800 H     1 <1>   0.0800 
 40 H       -9.6430     4.0440    -3.9180 H     1 <1>   0.3700 
 41 H       -8.0950     3.4960    -3.3430 H     1 <1>   0.3700 
@<TRIPOS>BOND
  1   1   2  1   
  2   2   3  ar  
  3   2   4  ar  
  4   3   5  1   
  5   3   6  ar  
  6   4   7  ar  
  7   4  25  1   
  8   5   8  am  
  9   5  26  1   
 10   6   9  ar  
 11   6  27  1   
 12   7   9  ar  
 13   7  28  1   
 14   8  10  2   
 15   8  11  1   
 16   9  12  1   
 17  11  13  1   
 18  11  29  1   
 19  11  30  1   
 20  12  14  1   
 21  12  15  1   
 22  12  16  1   
 23  13  17  1   
 24  13  18  1   
 25  17  19  1   
 26  17  31  1   
 27  17  32  1   
 28  18  20  1   
 29  18  33  1   
 30  18  34  1   
 31  19  21  1   
 32  19  35  1   
 33  19  36  1   
 34  20  21  1   
 35  20  37  1   
 36  20  38  1   
 37  21  22  1   
 38  21  39  1   
 39  22  23  2   
 40  22  24  am  
 41  24  40  1   
 42  24  41  1   
@<TRIPOS>SUBSTRUCTURE
  1 ****   5 GROUP 4 **** **** 0

# MOE 2024.06 (io_trps.svl 2023.06)
