@<TRIPOS>MOLECULE
NONAME
33 33 1 0 0 
SMALL
USER_CHARGES


@<TRIPOS>ATOM
  1 S       -0.1730     0.3710    -1.1240 S.o2  1 <1>   1.4470 
  2 O        0.8960     0.5190    -2.0860 O.2   1 <1>  -0.6500 
  3 O       -1.5400     0.5250    -1.5770 O.2   1 <1>  -0.6500 
  4 N        0.0430     1.5140     0.1210 N.am  1 <1>  -0.8490 
  5 C       -0.0270    -1.2300    -0.2770 C.ar  1 <1>  -0.0090 
  6 C        1.3540     1.9840     0.5690 C.3   1 <1>   0.2760 
  7 C       -1.1500     2.1520     0.6920 C.3   1 <1>   0.1960 
  8 C       -0.9480    -1.6170     0.6910 C.ar  1 <1>  -0.1500 
  9 C        1.0140    -2.1060    -0.5660 C.ar  1 <1>  -0.1500 
 10 C        1.9970     2.9300    -0.4450 C.3   1 <1>  -0.2400 
 11 C        2.2760     0.8150     0.9060 C.3   1 <1>  -0.2400 
 12 C       -1.6120     3.3500    -0.1420 C.3   1 <1>   0.0400 
 13 C       -0.8320    -2.8270     1.3530 C.ar  1 <1>  -0.1500 
 14 C        1.1380    -3.3190     0.0900 C.ar  1 <1>  -0.1500 
 15 C       -2.8260     3.9410     0.4740 C.1   1 <1>   0.3570 
 16 C        0.2140    -3.6800     1.0530 C.ar  1 <1>  -0.1500 
 17 N       -3.7430     4.3860     0.9780 N.1   1 <1>  -0.5570 
 18 H        1.2160     2.5420     1.4810 H     1 <1>   0.0800 
 19 H       -0.9440     2.4730     1.6990 H     1 <1>   0.0800 
 20 H       -1.9490     1.4310     0.7460 H     1 <1>   0.0800 
 21 H       -1.7700    -0.9650     0.9280 H     1 <1>   0.1500 
 22 H        1.7390    -1.8370    -1.3170 H     1 <1>   0.1500 
 23 H        2.2870     2.4120    -1.3400 H     1 <1>   0.0800 
 24 H        2.8840     3.3610    -0.0190 H     1 <1>   0.0800 
 25 H        1.3310     3.7290    -0.7040 H     1 <1>   0.0800 
 26 H        2.5730     0.2860     0.0190 H     1 <1>   0.0800 
 27 H        1.7930     0.1400     1.5900 H     1 <1>   0.0800 
 28 H        3.1680     1.1860     1.3770 H     1 <1>   0.0800 
 29 H       -1.8480     3.0490    -1.1460 H     1 <1>   0.0800 
 30 H       -0.8500     4.1040    -0.1690 H     1 <1>   0.0800 
 31 H       -1.5560    -3.1070     2.0990 H     1 <1>   0.1500 
 32 H        1.9520    -3.9810    -0.1500 H     1 <1>   0.1500 
 33 H        0.3070    -4.6220     1.5650 H     1 <1>   0.1500 
@<TRIPOS>BOND
  1   1   2  2   
  2   1   3  2   
  3   1   4  am  
  4   1   5  1   
  5   4   6  1   
  6   4   7  1   
  7   5   8  ar  
  8   5   9  ar  
  9   6  10  1   
 10   6  11  1   
 11   6  18  1   
 12   7  12  1   
 13   7  19  1   
 14   7  20  1   
 15   8  13  ar  
 16   8  21  1   
 17   9  14  ar  
 18   9  22  1   
 19  10  23  1   
 20  10  24  1   
 21  10  25  1   
 22  11  26  1   
 23  11  27  1   
 24  11  28  1   
 25  12  15  1   
 26  12  29  1   
 27  12  30  1   
 28  13  16  ar  
 29  13  31  1   
 30  14  16  ar  
 31  14  32  1   
 32  15  17  3   
 33  16  33  1   
@<TRIPOS>SUBSTRUCTURE
  1 ****   4 GROUP 4 **** **** 0

# MOE 2024.06 (io_trps.svl 2023.06)
