@<TRIPOS>MOLECULE
NONAME
56 58 1 0 0 
SMALL
USER_CHARGES


@<TRIPOS>ATOM
  1 N        0.0080     0.1970    -0.2630 N.4   1 <1>  -0.9590 
  2 C        1.2770     0.9890    -0.3960 C.3   1 <1>   0.4230 
  3 C       -1.1690     0.9630     0.2920 C.3   1 <1>   0.4230 
  4 C        0.1870    -1.1040     0.4670 C.3   1 <1>   0.3430 
  5 C        2.3090     0.2500    -1.2520 C.3   1 <1>  -0.1600 
  6 C        1.8860     1.3620     0.9610 C.3   1 <1>  -0.1600 
  7 C       -2.4380     0.0990     0.1580 C.3   1 <1>  -0.1600 
  8 C       -1.3460     2.3180    -0.4310 C.3   1 <1>  -0.1600 
  9 C       -1.0460    -1.9850     0.2910 C.3   1 <1>  -0.1600 
 10 C        3.5600     1.1110    -1.4350 C.3   1 <1>   0.3430 
 11 C        3.1470     2.2060     0.7670 C.3   1 <1>   0.3430 
 12 C       -2.2980    -1.2800     0.8090 C.3   1 <1>  -0.1600 
 13 C       -2.5630     3.1340     0.0360 C.3   1 <1>  -0.2400 
 14 N        4.1270     1.4840    -0.1040 N.4   1 <1>  -0.9590 
 15 C        5.3760     2.2940    -0.3130 C.3   1 <1>   0.3430 
 16 C        6.2110     2.4260     0.9630 C.3   1 <1>  -0.0170 
 17 C        7.4880     3.1640     0.6140 C.ar  1 <1>  -0.1430 
 18 C        7.5410     4.5480     0.6920 C.ar  1 <1>  -0.1500 
 19 C        8.6100     2.4610     0.2020 C.ar  1 <1>  -0.1500 
 20 C        8.7010     5.2220     0.3530 C.ar  1 <1>  -0.1500 
 21 C        9.7700     3.1360    -0.1380 C.ar  1 <1>  -0.1500 
 22 C        9.8150     4.5160    -0.0640 C.ar  1 <1>  -0.1500 
 23 H       -0.2960    -0.0620    -1.2110 H     1 <1>   0.4500 
 24 H        1.0500     1.9040    -0.9190 H     1 <1>   0.0800 
 25 H       -1.0030     1.1540     1.3410 H     1 <1>   0.0800 
 26 H        0.3410    -0.9170     1.5180 H     1 <1>   0.0800 
 27 H        1.0420    -1.6370     0.0890 H     1 <1>   0.0800 
 28 H        1.8940     0.0480    -2.2250 H     1 <1>   0.0800 
 29 H        2.6020    -0.6830    -0.8080 H     1 <1>   0.0800 
 30 H        2.1430     0.4870     1.5290 H     1 <1>   0.0800 
 31 H        1.1840     1.9420     1.5340 H     1 <1>   0.0800 
 32 H       -2.6920    -0.0150    -0.8820 H     1 <1>   0.0800 
 33 H       -3.2650     0.5950     0.6350 H     1 <1>   0.0800 
 34 H       -1.4350     2.1590    -1.4920 H     1 <1>   0.0800 
 35 H       -0.4930     2.9440    -0.2480 H     1 <1>   0.0800 
 36 H       -0.9060    -2.9030     0.8360 H     1 <1>   0.0800 
 37 H       -1.1660    -2.2430    -0.7470 H     1 <1>   0.0800 
 38 H        3.3110     2.0040    -1.9870 H     1 <1>   0.0800 
 39 H        4.2940     0.5630    -2.0060 H     1 <1>   0.0800 
 40 H        3.5890     2.4120     1.7290 H     1 <1>   0.0800 
 41 H        2.8870     3.1500     0.3130 H     1 <1>   0.0800 
 42 H       -3.1700    -1.8760     0.5950 H     1 <1>   0.0800 
 43 H       -2.2340    -1.1690     1.8800 H     1 <1>   0.0800 
 44 H       -3.4880     2.6740    -0.2700 H     1 <1>   0.0800 
 45 H       -2.5350     4.1170    -0.4040 H     1 <1>   0.0800 
 46 H       -2.5670     3.2470     1.1060 H     1 <1>   0.0800 
 47 H        4.4220     0.6190     0.3750 H     1 <1>   0.4500 
 48 H        5.1270     3.2780    -0.6760 H     1 <1>   0.0800 
 49 H        5.9930     1.8190    -1.0610 H     1 <1>   0.0800 
 50 H        6.4600     1.4560     1.3540 H     1 <1>   0.0800 
 51 H        5.6830     2.9800     1.7180 H     1 <1>   0.0800 
 52 H        6.6890     5.1190     1.0190 H     1 <1>   0.1500 
 53 H        8.6010     1.3870     0.1410 H     1 <1>   0.1500 
 54 H        8.7410     6.2960     0.4150 H     1 <1>   0.1500 
 55 H       10.6400     2.5890    -0.4570 H     1 <1>   0.1500 
 56 H       10.7180     5.0410    -0.3270 H     1 <1>   0.1500 
@<TRIPOS>BOND
  1   1   2  1   
  2   1   3  1   
  3   1   4  1   
  4   1  23  1   
  5   2   5  1   
  6   2   6  1   
  7   2  24  1   
  8   3   7  1   
  9   3   8  1   
 10   3  25  1   
 11   4   9  1   
 12   4  26  1   
 13   4  27  1   
 14   5  10  1   
 15   5  28  1   
 16   5  29  1   
 17   6  11  1   
 18   6  30  1   
 19   6  31  1   
 20   7  12  1   
 21   7  32  1   
 22   7  33  1   
 23   8  13  1   
 24   8  34  1   
 25   8  35  1   
 26   9  12  1   
 27   9  36  1   
 28   9  37  1   
 29  10  14  1   
 30  10  38  1   
 31  10  39  1   
 32  11  14  1   
 33  11  40  1   
 34  11  41  1   
 35  12  42  1   
 36  12  43  1   
 37  13  44  1   
 38  13  45  1   
 39  13  46  1   
 40  14  15  1   
 41  14  47  1   
 42  15  16  1   
 43  15  48  1   
 44  15  49  1   
 45  16  17  1   
 46  16  50  1   
 47  16  51  1   
 48  17  18  ar  
 49  17  19  ar  
 50  18  20  ar  
 51  18  52  1   
 52  19  21  ar  
 53  19  53  1   
 54  20  22  ar  
 55  20  54  1   
 56  21  22  ar  
 57  21  55  1   
 58  22  56  1   
@<TRIPOS>SUBSTRUCTURE
  1 ****  11 GROUP 4 **** **** 0

# MOE 2024.06 (io_trps.svl 2023.06)
