@<TRIPOS>MOLECULE
NONAME
47 50 1 0 0 
SMALL
USER_CHARGES


@<TRIPOS>ATOM
  1 CL      -2.0030     0.5720    -3.3220 Cl    1 <1>  -0.1850 
  2 C       -2.9690     0.9670    -1.9260 C.ar  1 <1>   0.1690 
  3 C       -2.3670     1.5330    -0.8210 C.ar  1 <1>  -0.1580 
  4 C       -4.3260     0.7070    -1.9460 C.ar  1 <1>  -0.1580 
  5 C       -3.1390     1.8540     0.2820 C.ar  1 <1>  -0.1580 
  6 C       -5.0950     1.0310    -0.8410 C.ar  1 <1>  -0.1580 
  7 C       -4.5090     1.6170     0.2760 C.ar  1 <1>  -0.1520 
  8 C       -5.3500     2.0070     1.4820 C.3   1 <1>   0.4920 
  9 N       -5.8180     3.4060     1.2710 N.pl3 1 <1>  -0.7680 
 10 C       -6.7230     3.8530     0.3910 C.cat 1 <1>   1.0680 
 11 C       -4.9680     4.4910     1.5770 C.2   1 <1>   0.2700 
 12 N       -6.4760     5.1360     0.1120 N.pl3 1 <1>  -0.7040 
 13 N       -7.7680     3.1670    -0.1500 N.pl3 1 <1>  -0.5970 
 14 C       -3.8240     4.6900     2.4210 C.2   1 <1>   0.6990 
 15 C       -5.4020     5.5380     0.8420 C.2   1 <1>   0.4200 
 16 C       -8.4960     2.0690     0.5790 C.3   1 <1>   0.1600 
 17 C       -8.2830     3.4320    -1.5420 C.3   1 <1>   0.1600 
 18 O       -3.3510     3.8210     3.1260 O.2   1 <1>  -0.5750 
 19 N       -3.2480     5.9270     2.4180 N.am  1 <1>  -0.4960 
 20 N       -4.8130     6.7940     0.8570 N.am  1 <1>  -0.4420 
 21 C      -10.0350     2.2060     0.4890 C.3   1 <1>   0.3360 
 22 C       -9.8250     3.5500    -1.6060 C.3   1 <1>   0.3360 
 23 C       -3.6990     6.9710     1.6670 C.2   1 <1>   0.6860 
 24 C       -5.3280     7.9130     0.0150 C.3   1 <1>   0.0510 
 25 N      -10.5070     2.4070    -0.9190 N.4   1 <1>  -0.9090 
 26 O       -3.1090     8.0230     1.7300 O.2   1 <1>  -0.5750 
 27 H       -1.3060     1.7140    -0.8270 H     1 <1>   0.1420 
 28 H       -4.7600     0.2510    -2.8180 H     1 <1>   0.1420 
 29 H       -2.6510     2.2810     1.1430 H     1 <1>   0.1420 
 30 H       -6.1450     0.8100    -0.8690 H     1 <1>   0.1420 
 31 H       -4.7630     1.9370     2.3820 H     1 <1>   0.0710 
 32 H       -6.1760     1.3290     1.5880 H     1 <1>   0.0710 
 33 H       -6.9970     5.7400    -0.5140 H     1 <1>   0.4440 
 34 H       -8.2260     2.0770     1.6210 H     1 <1>   0.0710 
 35 H       -8.2070     1.1150     0.1700 H     1 <1>   0.0710 
 36 H       -7.9730     2.6230    -2.1820 H     1 <1>   0.0710 
 37 H       -7.8480     4.3300    -1.9460 H     1 <1>   0.0710 
 38 H       -2.4320     6.0920     3.0060 H     1 <1>   0.3630 
 39 H      -10.3430     3.0460     1.0910 H     1 <1>   0.0710 
 40 H      -10.4960     1.3240     0.9050 H     1 <1>   0.0710 
 41 H      -10.1370     3.5910    -2.6380 H     1 <1>   0.0710 
 42 H      -10.1230     4.4750    -1.1400 H     1 <1>   0.0710 
 43 H       -6.3940     8.0020     0.1270 H     1 <1>   0.0710 
 44 H       -5.0850     7.7330    -1.0180 H     1 <1>   0.0710 
 45 H       -4.8840     8.8490     0.3090 H     1 <1>   0.0710 
 46 H      -11.5270     2.5700    -0.9160 H     1 <1>   0.4440 
 47 H      -10.3740     1.5400    -1.4620 H     1 <1>   0.4440 
@<TRIPOS>BOND
  1   1   2  1   
  2   2   3  ar  
  3   2   4  ar  
  4   3   5  ar  
  5   3  27  1   
  6   4   6  ar  
  7   4  28  1   
  8   5   7  ar  
  9   5  29  1   
 10   6   7  ar  
 11   6  30  1   
 12   7   8  1   
 13   8   9  1   
 14   8  31  1   
 15   8  32  1   
 16   9  10  ar  
 17   9  11  1   
 18  10  12  ar  
 19  10  13  ar  
 20  11  14  1   
 21  11  15  2   
 22  12  15  1   
 23  12  33  1   
 24  13  16  1   
 25  13  17  1   
 26  14  18  2   
 27  14  19  am  
 28  15  20  1   
 29  16  21  1   
 30  16  34  1   
 31  16  35  1   
 32  17  22  1   
 33  17  36  1   
 34  17  37  1   
 35  19  23  am  
 36  19  38  1   
 37  20  23  am  
 38  20  24  1   
 39  21  25  1   
 40  21  39  1   
 41  21  40  1   
 42  22  25  1   
 43  22  41  1   
 44  22  42  1   
 45  23  26  2   
 46  24  43  1   
 47  24  44  1   
 48  24  45  1   
 49  25  46  1   
 50  25  47  1   
@<TRIPOS>SUBSTRUCTURE
  1 ****   9 GROUP 4 **** **** 0

# MOE 2024.06 (io_trps.svl 2023.06)
