@<TRIPOS>MOLECULE
NONAME
36 37 1 0 0 
SMALL
USER_CHARGES


@<TRIPOS>ATOM
  1 O       -4.3450    -2.6980     2.4670 O.2   1 <1>  -0.5700 
  2 C       -4.8950    -2.8480     1.3870 C.2   1 <1>   0.6340 
  3 O       -4.6920    -4.0600     0.8330 O.3   1 <1>  -0.4300 
  4 C       -5.7260    -1.8500     0.7860 C.ar  1 <1>   0.0860 
  5 C       -4.6660    -4.3000    -0.5630 C.3   1 <1>   0.1200 
  6 C       -5.3610    -1.1320    -0.3860 C.ar  1 <1>  -0.1710 
  7 C       -6.9590    -1.5390     1.3760 C.ar  1 <1>  -0.1500 
  8 C       -3.2150    -4.3190    -1.0890 C.3   1 <1>   0.3430 
  9 O       -4.2670    -1.3080    -0.9610 O.3   1 <1>  -0.8290 
 10 C       -6.2480    -0.1850    -0.9230 C.ar  1 <1>  -0.1500 
 11 C       -7.8160    -0.6030     0.8430 C.ar  1 <1>  -0.1500 
 12 N       -2.4230    -3.1530    -0.6210 N.4   1 <1>  -0.9590 
 13 C       -7.4530     0.0730    -0.3230 C.ar  1 <1>   0.0830 
 14 C       -1.5390    -2.5280    -1.6420 C.3   1 <1>   0.3430 
 15 C       -1.7580    -3.2920     0.7120 C.3   1 <1>   0.3430 
 16 O       -8.2940     0.9790    -0.8470 O.3   1 <1>  -0.5320 
 17 C       -0.9100    -1.2370    -1.0840 C.3   1 <1>   0.1200 
 18 C       -1.1190    -1.9570     1.1340 C.3   1 <1>   0.1200 
 19 O       -0.2550    -1.4940     0.1300 O.3   1 <1>  -0.5600 
 20 H       -5.2550    -3.5650    -1.0810 H     1 <1>   0.0800 
 21 H       -5.1200    -5.2590    -0.7330 H     1 <1>   0.0800 
 22 H       -7.2330    -2.0570     2.2780 H     1 <1>   0.1500 
 23 H       -3.2580    -4.3110    -2.1650 H     1 <1>   0.0800 
 24 H       -2.7340    -5.2330    -0.7840 H     1 <1>   0.0800 
 25 H       -5.9540     0.3370    -1.8130 H     1 <1>   0.1500 
 26 H       -8.7550    -0.3910     1.3180 H     1 <1>   0.1500 
 27 H       -3.1560    -2.3990    -0.5040 H     1 <1>   0.4500 
 28 H       -2.1220    -2.2800    -2.5140 H     1 <1>   0.0800 
 29 H       -0.7580    -3.2110    -1.9280 H     1 <1>   0.0800 
 30 H       -0.9900    -4.0440     0.6610 H     1 <1>   0.0800 
 31 H       -2.4720    -3.5950     1.4580 H     1 <1>   0.0800 
 32 H       -9.1020     1.0920    -0.3210 H     1 <1>   0.4500 
 33 H       -1.6710    -0.4910    -0.9210 H     1 <1>   0.0800 
 34 H       -0.1860    -0.8450    -1.7750 H     1 <1>   0.0800 
 35 H       -0.5470    -2.0860     2.0350 H     1 <1>   0.0800 
 36 H       -1.8820    -1.2160     1.3120 H     1 <1>   0.0800 
@<TRIPOS>BOND
  1   1   2  2   
  2   2   3  1   
  3   2   4  1   
  4   3   5  1   
  5   4   6  ar  
  6   4   7  ar  
  7   5   8  1   
  8   5  20  1   
  9   5  21  1   
 10   6   9  1   
 11   6  10  ar  
 12   7  11  ar  
 13   7  22  1   
 14   8  12  1   
 15   8  23  1   
 16   8  24  1   
 17  10  13  ar  
 18  10  25  1   
 19  11  13  ar  
 20  11  26  1   
 21  12  14  1   
 22  12  15  1   
 23  12  27  1   
 24  13  16  1   
 25  14  17  1   
 26  14  28  1   
 27  14  29  1   
 28  15  18  1   
 29  15  30  1   
 30  15  31  1   
 31  16  32  1   
 32  17  19  1   
 33  17  33  1   
 34  17  34  1   
 35  18  19  1   
 36  18  35  1   
 37  18  36  1   
@<TRIPOS>SUBSTRUCTURE
  1 ****   9 GROUP 4 **** **** 0

# MOE 2024.06 (io_trps.svl 2023.06)
