@<TRIPOS>MOLECULE
NONAME
46 48 1 0 0 
SMALL
USER_CHARGES


@<TRIPOS>ATOM
  1 S       -0.2970     0.0090     0.9010 S.o2  1 <1>   1.4470 
  2 O       -0.6200     0.1850     2.2990 O.2   1 <1>  -0.6500 
  3 O       -0.8080    -1.1310     0.1750 O.2   1 <1>  -0.6500 
  4 N       -0.9100     1.3280     0.0670 N.am  1 <1>  -0.9140 
  5 C        1.4940     0.1480     0.6510 C.ar  1 <1>  -0.0090 
  6 C       -2.1140     1.9080     0.6220 C.3   1 <1>   0.2760 
  7 C        2.2410    -0.9180     0.1610 C.ar  1 <1>  -0.1500 
  8 C        2.1740     1.3220     0.9510 C.ar  1 <1>  -0.1500 
  9 C       -3.3250     1.0170     0.3520 C.3   1 <1>  -0.1600 
 10 C       -2.4380     3.1530    -0.1960 C.3   1 <1>  -0.1600 
 11 C        3.6080    -0.8150    -0.0220 C.ar  1 <1>  -0.1500 
 12 C        3.5410     1.4300     0.7680 C.ar  1 <1>  -0.1500 
 13 C       -3.7070     1.2650    -1.1110 C.3   1 <1>  -0.1600 
 14 C       -3.1550     2.6540    -1.4580 C.3   1 <1>  -0.1600 
 15 C        4.2840     0.3600     0.2820 C.ar  1 <1>   0.1170 
 16 N        5.6680     0.4200     0.0710 N.am  1 <1>  -0.5470 
 17 C        6.6360     1.2120     0.6220 C.2   1 <1>   0.6900 
 18 O        6.3780     2.0000     1.5120 O.2   1 <1>  -0.5700 
 19 N        7.9200     1.0900     0.1650 N.am  1 <1>  -0.6600 
 20 C        9.0180     1.9330     0.6880 C.3   1 <1>   0.1400 
 21 C        8.3630     0.3160    -1.0160 C.3   1 <1>   0.1400 
 22 C       10.1010     1.8710    -0.3820 C.3   1 <1>  -0.1600 
 23 C        9.8710     0.5360    -1.0850 C.3   1 <1>  -0.1600 
 24 H       -1.1800     0.9460    -0.8350 H     1 <1>   0.4200 
 25 H       -1.9880     2.1440     1.6670 H     1 <1>   0.0800 
 26 H        1.7420    -1.8430    -0.0790 H     1 <1>   0.1500 
 27 H        1.6240     2.1650     1.3340 H     1 <1>   0.1500 
 28 H       -4.1320     1.3540     0.9790 H     1 <1>   0.0800 
 29 H       -3.1570    -0.0230     0.5670 H     1 <1>   0.0800 
 30 H       -1.5600     3.7340    -0.4200 H     1 <1>   0.0800 
 31 H       -3.1170     3.7650     0.3710 H     1 <1>   0.0800 
 32 H        4.1550    -1.6600    -0.3990 H     1 <1>   0.1500 
 33 H        4.0300     2.3570     1.0070 H     1 <1>   0.1500 
 34 H       -4.7750     1.2200    -1.2430 H     1 <1>   0.0800 
 35 H       -3.2490     0.5220    -1.7410 H     1 <1>   0.0800 
 36 H       -2.4540     2.5740    -2.2720 H     1 <1>   0.0800 
 37 H       -3.9420     3.3300    -1.7430 H     1 <1>   0.0800 
 38 H        6.0550    -0.3010    -0.5240 H     1 <1>   0.3700 
 39 H        9.3710     1.5110     1.6140 H     1 <1>   0.0800 
 40 H        8.6840     2.9430     0.8580 H     1 <1>   0.0800 
 41 H        7.8870     0.7130    -1.8970 H     1 <1>   0.0800 
 42 H        8.1300    -0.7290    -0.9050 H     1 <1>   0.0800 
 43 H       11.0860     1.9490     0.0430 H     1 <1>   0.0800 
 44 H        9.9520     2.6810    -1.0740 H     1 <1>   0.0800 
 45 H       10.2290     0.5400    -2.0990 H     1 <1>   0.0800 
 46 H       10.3640    -0.2510    -0.5420 H     1 <1>   0.0800 
@<TRIPOS>BOND
  1   1   2  2   
  2   1   3  2   
  3   1   4  am  
  4   1   5  1   
  5   4   6  1   
  6   4  24  1   
  7   5   7  ar  
  8   5   8  ar  
  9   6   9  1   
 10   6  10  1   
 11   6  25  1   
 12   7  11  ar  
 13   7  26  1   
 14   8  12  ar  
 15   8  27  1   
 16   9  13  1   
 17   9  28  1   
 18   9  29  1   
 19  10  14  1   
 20  10  30  1   
 21  10  31  1   
 22  11  15  ar  
 23  11  32  1   
 24  12  15  ar  
 25  12  33  1   
 26  13  14  1   
 27  13  34  1   
 28  13  35  1   
 29  14  36  1   
 30  14  37  1   
 31  15  16  1   
 32  16  17  am  
 33  16  38  1   
 34  17  18  2   
 35  17  19  am  
 36  19  20  1   
 37  19  21  1   
 38  20  22  1   
 39  20  39  1   
 40  20  40  1   
 41  21  23  1   
 42  21  41  1   
 43  21  42  1   
 44  22  23  1   
 45  22  43  1   
 46  22  44  1   
 47  23  45  1   
 48  23  46  1   
@<TRIPOS>SUBSTRUCTURE
  1 ****   8 GROUP 4 **** **** 0

# MOE 2024.06 (io_trps.svl 2023.06)
