@<TRIPOS>MOLECULE
NONAME
49 51 1 0 0 
SMALL
USER_CHARGES


@<TRIPOS>ATOM
  1 O        0.1120     0.4660    -0.2890 O.2   1 <1>  -0.5700 
  2 C       -0.1090     1.6600    -0.1990 C.2   1 <1>   0.5440 
  3 N        0.8800     2.5530    -0.5570 N.am  1 <1>  -0.6600 
  4 C       -1.4080     2.1000     0.2710 C.ar  1 <1>   0.0860 
  5 C        0.6220     3.9700    -0.9350 C.3   1 <1>   0.1400 
  6 C        2.2910     2.1180    -0.7520 C.3   1 <1>   0.1400 
  7 C       -1.5420     3.0060     1.3210 C.ar  1 <1>  -0.1500 
  8 C       -2.5820     1.6210    -0.3050 C.ar  1 <1>  -0.1500 
  9 C        1.5340     4.8950    -0.1230 C.3   1 <1>  -0.1600 
 10 C        3.2250     3.0290     0.0540 C.3   1 <1>  -0.1600 
 11 C       -2.7840     3.4270     1.7560 C.ar  1 <1>  -0.1500 
 12 C       -3.8250     2.0410     0.1300 C.ar  1 <1>  -0.1500 
 13 C        3.0110     4.5120    -0.2860 C.3   1 <1>  -0.1600 
 14 C       -3.9650     2.9640     1.1710 C.ar  1 <1>   0.0860 
 15 C       -5.2600     3.4240     1.6410 C.2   1 <1>   0.3980 
 16 O       -5.3550     3.9910     2.7110 O.2   1 <1>  -0.5700 
 17 C       -6.4520     3.2180     0.8550 C.ar  1 <1>   0.0860 
 18 C       -6.5990     3.7490    -0.4330 C.ar  1 <1>   0.0830 
 19 C       -7.5080     2.4640     1.3630 C.ar  1 <1>  -0.1500 
 20 O       -5.6370     4.5160    -0.9840 O.3   1 <1>  -0.3630 
 21 C       -7.7330     3.4930    -1.1870 C.ar  1 <1>  -0.1500 
 22 C       -8.6480     2.2120     0.6220 C.ar  1 <1>   0.0830 
 23 C       -5.5610     5.8550    -0.5450 C.3   1 <1>   0.0400 
 24 C       -8.7580     2.7270    -0.6670 C.ar  1 <1>  -0.1500 
 25 O       -9.6070     1.4570     1.2160 O.3   1 <1>  -0.3630 
 26 C      -10.8310     1.1880     0.5690 C.3   1 <1>   0.0400 
 27 H       -0.4080     4.2340    -0.7760 H     1 <1>   0.0800 
 28 H        0.8320     4.0890    -1.9850 H     1 <1>   0.0800 
 29 H        2.5330     2.1730    -1.8000 H     1 <1>   0.0800 
 30 H        2.4220     1.0990    -0.4310 H     1 <1>   0.0800 
 31 H       -0.6530     3.3770     1.8010 H     1 <1>   0.1500 
 32 H       -2.5060     0.9050    -1.1060 H     1 <1>   0.1500 
 33 H        1.2570     4.8370     0.9150 H     1 <1>   0.0800 
 34 H        1.3870     5.9110    -0.4450 H     1 <1>   0.0800 
 35 H        4.2450     2.7550    -0.1460 H     1 <1>   0.0800 
 36 H        3.0420     2.8660     1.1010 H     1 <1>   0.0800 
 37 H       -2.8490     4.1280     2.5710 H     1 <1>   0.1500 
 38 H       -4.6990     1.6390    -0.3510 H     1 <1>   0.1500 
 39 H        3.6210     5.1240     0.3560 H     1 <1>   0.0800 
 40 H        3.3160     4.6900    -1.3040 H     1 <1>   0.0800 
 41 H       -7.4350     2.0650     2.3600 H     1 <1>   0.1500 
 42 H       -7.8060     3.9000    -2.1800 H     1 <1>   0.1500 
 43 H       -4.7780     6.3460    -1.0940 H     1 <1>   0.0800 
 44 H       -5.3390     5.8760     0.5080 H     1 <1>   0.0800 
 45 H       -6.5030     6.3370    -0.7360 H     1 <1>   0.0800 
 46 H       -9.6260     2.5440    -1.2720 H     1 <1>   0.1500 
 47 H      -11.4370     0.5980     1.2330 H     1 <1>   0.0800 
 48 H      -10.6360     0.6360    -0.3340 H     1 <1>   0.0800 
 49 H      -11.3250     2.1190     0.3540 H     1 <1>   0.0800 
@<TRIPOS>BOND
  1   1   2  2   
  2   2   3  am  
  3   2   4  1   
  4   3   5  1   
  5   3   6  1   
  6   4   7  ar  
  7   4   8  ar  
  8   5   9  1   
  9   5  27  1   
 10   5  28  1   
 11   6  10  1   
 12   6  29  1   
 13   6  30  1   
 14   7  11  ar  
 15   7  31  1   
 16   8  12  ar  
 17   8  32  1   
 18   9  13  1   
 19   9  33  1   
 20   9  34  1   
 21  10  13  1   
 22  10  35  1   
 23  10  36  1   
 24  11  14  ar  
 25  11  37  1   
 26  12  14  ar  
 27  12  38  1   
 28  13  39  1   
 29  13  40  1   
 30  14  15  1   
 31  15  16  2   
 32  15  17  1   
 33  17  18  ar  
 34  17  19  ar  
 35  18  20  1   
 36  18  21  ar  
 37  19  22  ar  
 38  19  41  1   
 39  20  23  1   
 40  21  24  ar  
 41  21  42  1   
 42  22  24  ar  
 43  22  25  1   
 44  23  43  1   
 45  23  44  1   
 46  23  45  1   
 47  24  46  1   
 48  25  26  1   
 49  26  47  1   
 50  26  48  1   
 51  26  49  1   
@<TRIPOS>SUBSTRUCTURE
  1 ****  12 GROUP 4 **** **** 0

# MOE 2024.06 (io_trps.svl 2023.06)
