@<TRIPOS>MOLECULE
NONAME
51 54 1 0 0 
SMALL
USER_CHARGES


@<TRIPOS>ATOM
  1 O       -2.3720    -0.1360     2.3330 O.2   1 <1>  -0.5700 
  2 C       -2.9540    -0.8480     1.5370 C.2   1 <1>   0.7060 
  3 O       -4.2650    -0.6570     1.3860 O.3   1 <1>  -0.2330 
  4 C       -2.3180    -1.8770     0.7630 C.2   1 <1>  -0.1240 
  5 C       -5.0180    -1.3750     0.5270 C.ar  1 <1>   0.0820 
  6 C       -3.0350    -2.6480    -0.0950 C.2   1 <1>  -0.1670 
  7 C       -0.8120    -2.0520     0.9680 C.3   1 <1>  -0.0220 
  8 C       -4.4420    -2.3890    -0.2520 C.ar  1 <1>   0.0280 
  9 C       -6.3670    -1.0730     0.4380 C.ar  1 <1>  -0.1500 
 10 C       -2.3930    -3.7790    -0.9020 C.3   1 <1>  -0.0220 
 11 C       -0.1610    -2.8920    -0.1360 C.3   1 <1>  -0.1600 
 12 C       -5.2880    -3.0710    -1.1350 C.ar  1 <1>  -0.1500 
 13 C       -7.1850    -1.7650    -0.4340 C.ar  1 <1>   0.0830 
 14 C       -0.9890    -4.1480    -0.4060 C.3   1 <1>  -0.1600 
 15 C       -6.6330    -2.7700    -1.2270 C.ar  1 <1>  -0.1500 
 16 O       -8.4900    -1.4130    -0.4630 O.3   1 <1>  -0.3630 
 17 C       -9.4240    -2.0720    -1.3120 C.3   1 <1>   0.1810 
 18 C      -10.8210    -1.4850    -1.1590 C.2   1 <1>   0.5690 
 19 O      -11.6750    -1.8410    -1.9340 O.2   1 <1>  -0.5700 
 20 N      -11.0360    -0.5780    -0.1600 N.am  1 <1>  -0.5470 
 21 C      -12.1740     0.1930     0.1190 C.ar  1 <1>   0.1170 
 22 C      -13.3800    -0.3920     0.5170 C.ar  1 <1>  -0.1430 
 23 C      -12.0860     1.5840     0.0230 C.ar  1 <1>  -0.1430 
 24 C      -14.4740     0.4100     0.7960 C.ar  1 <1>  -0.1500 
 25 C      -13.5380    -1.9010     0.6620 C.3   1 <1>  -0.0970 
 26 C      -13.1900     2.3690     0.3120 C.ar  1 <1>  -0.1500 
 27 C      -10.7920     2.2650    -0.4080 C.3   1 <1>  -0.0970 
 28 C      -14.3820     1.7860     0.6960 C.ar  1 <1>  -0.1500 
 29 H       -0.6510    -2.5240     1.9220 H     1 <1>   0.0800 
 30 H       -0.3320    -1.0890     0.9950 H     1 <1>   0.0800 
 31 H       -6.7770    -0.2930     1.0520 H     1 <1>   0.1500 
 32 H       -2.3350    -3.4740    -1.9320 H     1 <1>   0.0800 
 33 H       -3.0020    -4.6630    -0.8460 H     1 <1>   0.0800 
 34 H        0.8380    -3.1630     0.1590 H     1 <1>   0.0800 
 35 H       -0.0950    -2.3070    -1.0380 H     1 <1>   0.0800 
 36 H       -4.8960    -3.8460    -1.7660 H     1 <1>   0.1500 
 37 H       -0.4980    -4.7640    -1.1400 H     1 <1>   0.0800 
 38 H       -1.0730    -4.7190     0.5030 H     1 <1>   0.0800 
 39 H       -7.2370    -3.3260    -1.9200 H     1 <1>   0.1500 
 40 H       -9.4470    -3.1140    -1.0520 H     1 <1>   0.0800 
 41 H       -9.1020    -1.9520    -2.3300 H     1 <1>   0.0800 
 42 H      -10.1910    -0.3080     0.3450 H     1 <1>   0.3700 
 43 H      -15.4080    -0.0310     1.0950 H     1 <1>   0.1500 
 44 H      -13.6820    -2.3440    -0.3060 H     1 <1>   0.0800 
 45 H      -14.3860    -2.1410     1.2770 H     1 <1>   0.0800 
 46 H      -12.6640    -2.3300     1.1160 H     1 <1>   0.0800 
 47 H      -13.1320     3.4400     0.2370 H     1 <1>   0.1500 
 48 H      -10.0150     2.0710     0.3090 H     1 <1>   0.0800 
 49 H      -10.9220     3.3280    -0.4890 H     1 <1>   0.0800 
 50 H      -10.4850     1.8900    -1.3690 H     1 <1>   0.0800 
 51 H      -15.2370     2.4000     0.9150 H     1 <1>   0.1500 
@<TRIPOS>BOND
  1   1   2  2   
  2   2   3  1   
  3   2   4  1   
  4   3   5  1   
  5   4   6  2   
  6   4   7  1   
  7   5   8  ar  
  8   5   9  ar  
  9   6   8  1   
 10   6  10  1   
 11   7  11  1   
 12   7  29  1   
 13   7  30  1   
 14   8  12  ar  
 15   9  13  ar  
 16   9  31  1   
 17  10  14  1   
 18  10  32  1   
 19  10  33  1   
 20  11  14  1   
 21  11  34  1   
 22  11  35  1   
 23  12  15  ar  
 24  12  36  1   
 25  13  15  ar  
 26  13  16  1   
 27  14  37  1   
 28  14  38  1   
 29  15  39  1   
 30  16  17  1   
 31  17  18  1   
 32  17  40  1   
 33  17  41  1   
 34  18  19  2   
 35  18  20  am  
 36  20  21  1   
 37  20  42  1   
 38  21  22  ar  
 39  21  23  ar  
 40  22  24  ar  
 41  22  25  1   
 42  23  26  ar  
 43  23  27  1   
 44  24  28  ar  
 45  24  43  1   
 46  25  44  1   
 47  25  45  1   
 48  25  46  1   
 49  26  28  ar  
 50  26  47  1   
 51  27  48  1   
 52  27  49  1   
 53  27  50  1   
 54  28  51  1   
@<TRIPOS>SUBSTRUCTURE
  1 ****  13 GROUP 4 **** **** 0

# MOE 2024.06 (io_trps.svl 2023.06)
