@<TRIPOS>MOLECULE
NONAME
41 43 1 0 0 
SMALL
USER_CHARGES


@<TRIPOS>ATOM
  1 S       -0.2230    -0.0850    -0.5950 S.3   1 <1>  -0.0800 
  2 C       -1.4290     1.0540    -0.0110 C.2   1 <1>  -0.1400 
  3 C       -1.0090    -1.4130     0.2420 C.2   1 <1>  -0.1100 
  4 C       -2.3390     0.4240     0.7560 C.2   1 <1>  -0.1500 
  5 C       -1.2820     2.5020    -0.4320 C.3   1 <1>   0.3200 
  6 C       -2.0990    -0.9800     0.9000 C.2   1 <1>  -0.1500 
  7 N       -0.0210     3.0160     0.1180 N.am  1 <1>  -0.7300 
  8 C        0.3610     4.3170     0.0570 C.2   1 <1>   0.5690 
  9 O       -0.3820     5.1580    -0.3900 O.2   1 <1>  -0.5700 
 10 C        1.7340     4.7290     0.6090 C.3   1 <1>   0.1710 
 11 N        2.9090     4.4680    -0.2720 N.3   1 <1>  -0.8100 
 12 C        4.1220     5.1140     0.2840 C.3   1 <1>   0.1100 
 13 C        3.1560     3.0220    -0.5010 C.3   1 <1>   0.1100 
 14 C        5.3700     4.8910    -0.5910 C.3   1 <1>   0.2090 
 15 C        4.3910     2.7690    -1.3870 C.3   1 <1>   0.2090 
 16 N        5.5980     3.4310    -0.8070 N.pl3 1 <1>  -0.8380 
 17 C        6.6420     2.7390    -0.2300 C.ar  1 <1>   0.7200 
 18 N        7.6690     3.4570     0.2280 N.ar  1 <1>  -0.6200 
 19 N        6.5390     1.4100    -0.1740 N.ar  1 <1>  -0.6200 
 20 C        8.6590     2.7870     0.7640 C.ar  1 <1>   0.1600 
 21 C        7.5440     0.7670     0.3680 C.ar  1 <1>   0.1600 
 22 C        8.6470     1.4180     0.8600 C.ar  1 <1>  -0.1500 
 23 H       -0.5650    -2.3890     0.1490 H     1 <1>   0.1500 
 24 H       -3.1820     0.8880     1.2380 H     1 <1>   0.1500 
 25 H       -2.1040     3.0880    -0.0580 H     1 <1>   0.0800 
 26 H       -1.2640     2.5770    -1.5060 H     1 <1>   0.0800 
 27 H       -2.7570    -1.5940     1.4900 H     1 <1>   0.1500 
 28 H        0.6090     2.2970     0.4720 H     1 <1>   0.3700 
 29 H        1.8820     4.2390     1.5550 H     1 <1>   0.0800 
 30 H        1.6820     5.7870     0.8000 H     1 <1>   0.0800 
 31 H        4.3240     4.7250     1.2680 H     1 <1>   0.0800 
 32 H        3.9520     6.1730     0.3710 H     1 <1>   0.0800 
 33 H        2.3060     2.5850    -0.9940 H     1 <1>   0.0800 
 34 H        3.3030     2.5190     0.4390 H     1 <1>   0.0800 
 35 H        6.2170     5.3590    -0.1220 H     1 <1>   0.0800 
 36 H        5.2220     5.3680    -1.5440 H     1 <1>   0.0800 
 37 H        4.2070     3.1750    -2.3660 H     1 <1>   0.0800 
 38 H        4.5380     1.7100    -1.5030 H     1 <1>   0.0800 
 39 H        9.5020     3.3450     1.1350 H     1 <1>   0.1500 
 40 H        7.4860    -0.3070     0.4210 H     1 <1>   0.1500 
 41 H        9.4650     0.8810     1.3010 H     1 <1>   0.1500 
@<TRIPOS>BOND
  1   1   2  1   
  2   1   3  1   
  3   2   4  2   
  4   2   5  1   
  5   3   6  2   
  6   3  23  1   
  7   4   6  1   
  8   4  24  1   
  9   5   7  1   
 10   5  25  1   
 11   5  26  1   
 12   6  27  1   
 13   7   8  am  
 14   7  28  1   
 15   8   9  2   
 16   8  10  1   
 17  10  11  1   
 18  10  29  1   
 19  10  30  1   
 20  11  12  1   
 21  11  13  1   
 22  12  14  1   
 23  12  31  1   
 24  12  32  1   
 25  13  15  1   
 26  13  33  1   
 27  13  34  1   
 28  14  16  1   
 29  14  35  1   
 30  14  36  1   
 31  15  16  1   
 32  15  37  1   
 33  15  38  1   
 34  16  17  1   
 35  17  18  ar  
 36  17  19  ar  
 37  18  20  ar  
 38  19  21  ar  
 39  20  22  ar  
 40  20  39  1   
 41  21  22  ar  
 42  21  40  1   
 43  22  41  1   
@<TRIPOS>SUBSTRUCTURE
  1 ****  13 GROUP 4 **** **** 0

# MOE 2024.06 (io_trps.svl 2023.06)
