@<TRIPOS>MOLECULE
NONAME
41 42 1 0 0 
SMALL
USER_CHARGES


@<TRIPOS>ATOM
  1 CL      -0.1390     0.2160    -0.4630 Cl    1 <1>  -0.1770 
  2 C       -1.0220     1.6830    -0.1060 C.ar  1 <1>   0.1770 
  3 C       -0.4660     2.9200    -0.3880 C.ar  1 <1>  -0.1440 
  4 C       -2.2770     1.5710     0.4560 C.ar  1 <1>  -0.1500 
  5 C       -1.2060     4.0510    -0.0930 C.ar  1 <1>  -0.1500 
  6 C        0.9190     3.0380    -1.0080 C.3   1 <1>  -0.0960 
  7 C       -3.0280     2.6990     0.7660 C.ar  1 <1>  -0.0090 
  8 C       -2.4760     3.9470     0.4770 C.ar  1 <1>   0.0830 
  9 S       -4.6790     2.4850     1.4950 S.o2  1 <1>   1.4470 
 10 O       -3.2100     5.0510     0.7570 O.3   1 <1>  -0.3630 
 11 O       -5.1760     3.6440     2.2060 O.2   1 <1>  -0.6500 
 12 O       -4.6900     1.2140     2.1890 O.2   1 <1>  -0.6500 
 13 N       -5.6860     2.2760     0.1460 N.am  1 <1>  -0.8490 
 14 C       -2.6220     6.3250     0.9120 C.3   1 <1>   0.0400 
 15 C       -5.9990     3.5400    -0.5570 C.3   1 <1>   0.1960 
 16 C       -6.9130     1.5380     0.5160 C.3   1 <1>   0.1960 
 17 C       -7.3960     4.0980    -0.2010 C.3   1 <1>   0.2000 
 18 C       -8.0910     1.8120    -0.4460 C.3   1 <1>   0.2000 
 19 O       -8.4100     3.1780    -0.5140 O.3   1 <1>  -0.5600 
 20 C       -7.7170     5.3840    -0.9580 C.3   1 <1>  -0.2400 
 21 C       -9.3650     1.0830    -0.0250 C.3   1 <1>  -0.2400 
 22 H       -2.6710     0.5900     0.6570 H     1 <1>   0.1500 
 23 H       -0.7860     5.0130    -0.3190 H     1 <1>   0.1500 
 24 H        0.9390     2.5390    -1.9610 H     1 <1>   0.0800 
 25 H        1.6500     2.5800    -0.3650 H     1 <1>   0.0800 
 26 H        1.1940     4.0660    -1.1560 H     1 <1>   0.0800 
 27 H       -3.3690     6.9890     1.3100 H     1 <1>   0.0800 
 28 H       -2.2940     6.6800    -0.0480 H     1 <1>   0.0800 
 29 H       -1.7990     6.2500     1.6010 H     1 <1>   0.0800 
 30 H       -5.9700     3.3600    -1.6170 H     1 <1>   0.0800 
 31 H       -5.2560     4.2880    -0.3460 H     1 <1>   0.0800 
 32 H       -7.2270     1.8180     1.5090 H     1 <1>   0.0800 
 33 H       -6.6940     0.4840     0.5320 H     1 <1>   0.0800 
 34 H       -7.4420     4.2890     0.8580 H     1 <1>   0.0800 
 35 H       -7.8120     1.4970    -1.4370 H     1 <1>   0.0800 
 36 H       -7.7050     5.2070    -2.0190 H     1 <1>   0.0800 
 37 H       -6.9900     6.1400    -0.7230 H     1 <1>   0.0800 
 38 H       -8.6870     5.7430    -0.6680 H     1 <1>   0.0800 
 39 H       -9.6760     1.4100     0.9510 H     1 <1>   0.0800 
 40 H       -9.1920     0.0220     0.0040 H     1 <1>   0.0800 
 41 H      -10.1490     1.2820    -0.7330 H     1 <1>   0.0800 
@<TRIPOS>BOND
  1   1   2  1   
  2   2   3  ar  
  3   2   4  ar  
  4   3   5  ar  
  5   3   6  1   
  6   4   7  ar  
  7   4  22  1   
  8   5   8  ar  
  9   5  23  1   
 10   6  24  1   
 11   6  25  1   
 12   6  26  1   
 13   7   8  ar  
 14   7   9  1   
 15   8  10  1   
 16   9  11  2   
 17   9  12  2   
 18   9  13  am  
 19  10  14  1   
 20  13  15  1   
 21  13  16  1   
 22  14  27  1   
 23  14  28  1   
 24  14  29  1   
 25  15  17  1   
 26  15  30  1   
 27  15  31  1   
 28  16  18  1   
 29  16  32  1   
 30  16  33  1   
 31  17  19  1   
 32  17  20  1   
 33  17  34  1   
 34  18  19  1   
 35  18  21  1   
 36  18  35  1   
 37  20  36  1   
 38  20  37  1   
 39  20  38  1   
 40  21  39  1   
 41  21  40  1   
 42  21  41  1   
@<TRIPOS>SUBSTRUCTURE
  1 ****   7 GROUP 4 **** **** 0

# MOE 2024.06 (io_trps.svl 2023.06)
