@<TRIPOS>MOLECULE
NONAME
52 54 1 0 0 
SMALL
USER_CHARGES


@<TRIPOS>ATOM
  1 O        0.5740     4.5020    -1.7160 O.2   1 <1>  -0.5700 
  2 C       -0.1500     3.7310    -1.1290 C.2   1 <1>   0.5690 
  3 N        0.3410     2.6710    -0.4060 N.am  1 <1>  -0.5470 
  4 C       -1.6910     3.9070    -1.1730 C.3   1 <1>   0.2040 
  5 C        1.6370     2.2350    -0.1220 C.ar  1 <1>   0.1170 
  6 C       -2.3590     2.5260    -0.9750 C.ar  1 <1>  -0.1440 
  7 C       -2.1710     4.5800    -2.4760 C.3   1 <1>  -0.1600 
  8 C       -2.1340     4.9420    -0.1210 C.3   1 <1>  -0.1600 
  9 C        1.8090     0.9550     0.3880 C.ar  1 <1>  -0.1500 
 10 C        2.7750     3.0140    -0.3080 C.ar  1 <1>  -0.1500 
 11 C       -2.8180     2.1030     0.2690 C.ar  1 <1>  -0.1500 
 12 C       -2.4710     1.6510    -2.0500 C.ar  1 <1>  -0.1500 
 13 C       -2.0720     6.0960    -2.2660 C.3   1 <1>  -0.1600 
 14 C       -1.9160     6.3130    -0.7600 C.3   1 <1>  -0.1600 
 15 C        3.0660     0.4710     0.6930 C.ar  1 <1>  -0.1500 
 16 C        4.0310     2.5280    -0.0040 C.ar  1 <1>  -0.1500 
 17 C       -3.3830     0.8500     0.4370 C.ar  1 <1>   0.0820 
 18 C       -3.0250     0.3920    -1.8910 C.ar  1 <1>  -0.1500 
 19 C        4.2190     1.2380     0.5070 C.ar  1 <1>   0.0860 
 20 O       -3.8290     0.5320     1.6770 O.3   1 <1>  -0.3630 
 21 C       -3.4690    -0.0240    -0.6500 C.ar  1 <1>   0.0820 
 22 C        5.5200     0.6930     0.8360 C.2   1 <1>   0.4230 
 23 C       -5.2220     0.3560     1.8140 C.3   1 <1>   0.0400 
 24 O       -3.9680    -1.2810    -0.5520 O.3   1 <1>  -0.3620 
 25 O        5.6740    -0.4080     1.2990 O.2   1 <1>  -0.5700 
 26 C        6.7770     1.5090     0.6060 C.3   1 <1>  -0.1790 
 27 C       -3.2340    -2.1920     0.2360 C.3   1 <1>   0.0400 
 28 H       -0.3980     2.0460    -0.0770 H     1 <1>   0.3700 
 29 H       -3.2030     4.3280    -2.6470 H     1 <1>   0.0800 
 30 H       -1.5920     4.2660    -3.3280 H     1 <1>   0.0800 
 31 H       -1.5900     4.8460     0.8030 H     1 <1>   0.0800 
 32 H       -3.1860     4.8280     0.0730 H     1 <1>   0.0800 
 33 H        0.9500     0.3270     0.5470 H     1 <1>   0.1500 
 34 H        2.6820     4.0130    -0.6930 H     1 <1>   0.1500 
 35 H       -2.7500     2.7310     1.1380 H     1 <1>   0.1500 
 36 H       -2.1210     1.9340    -3.0280 H     1 <1>   0.1500 
 37 H       -2.9540     6.5880    -2.6410 H     1 <1>   0.0800 
 38 H       -1.2100     6.4880    -2.7800 H     1 <1>   0.0800 
 39 H       -0.9140     6.6530    -0.5530 H     1 <1>   0.0800 
 40 H       -2.6150     7.0410    -0.3850 H     1 <1>   0.0800 
 41 H        3.1660    -0.5270     1.0860 H     1 <1>   0.1500 
 42 H        4.8750     3.1730    -0.1700 H     1 <1>   0.1500 
 43 H       -3.1070    -0.2770    -2.7290 H     1 <1>   0.1500 
 44 H       -5.4430     0.2140     2.8560 H     1 <1>   0.0800 
 45 H       -5.5310    -0.5080     1.2530 H     1 <1>   0.0800 
 46 H       -5.7210     1.2360     1.4470 H     1 <1>   0.0800 
 47 H        6.8630     1.7690    -0.4330 H     1 <1>   0.0800 
 48 H        7.6420     0.9330     0.8850 H     1 <1>   0.0800 
 49 H        6.7530     2.4000     1.2040 H     1 <1>   0.0800 
 50 H       -3.2550    -1.8750     1.2630 H     1 <1>   0.0800 
 51 H       -2.2210    -2.2250    -0.1250 H     1 <1>   0.0800 
 52 H       -3.6910    -3.1600     0.1430 H     1 <1>   0.0800 
@<TRIPOS>BOND
  1   1   2  2   
  2   2   3  am  
  3   2   4  1   
  4   3   5  1   
  5   3  28  1   
  6   4   6  1   
  7   4   7  1   
  8   4   8  1   
  9   5   9  ar  
 10   5  10  ar  
 11   6  11  ar  
 12   6  12  ar  
 13   7  13  1   
 14   7  29  1   
 15   7  30  1   
 16   8  14  1   
 17   8  31  1   
 18   8  32  1   
 19   9  15  ar  
 20   9  33  1   
 21  10  16  ar  
 22  10  34  1   
 23  11  17  ar  
 24  11  35  1   
 25  12  18  ar  
 26  12  36  1   
 27  13  14  1   
 28  13  37  1   
 29  13  38  1   
 30  14  39  1   
 31  14  40  1   
 32  15  19  ar  
 33  15  41  1   
 34  16  19  ar  
 35  16  42  1   
 36  17  20  1   
 37  17  21  ar  
 38  18  21  ar  
 39  18  43  1   
 40  19  22  1   
 41  20  23  1   
 42  21  24  1   
 43  22  25  2   
 44  22  26  1   
 45  23  44  1   
 46  23  45  1   
 47  23  46  1   
 48  24  27  1   
 49  26  47  1   
 50  26  48  1   
 51  26  49  1   
 52  27  50  1   
 53  27  51  1   
 54  27  52  1   
@<TRIPOS>SUBSTRUCTURE
  1 ****   3 GROUP 4 **** **** 0

# MOE 2024.06 (io_trps.svl 2023.06)
