@<TRIPOS>MOLECULE
NONAME
36 36 1 0 0 
SMALL
USER_CHARGES


@<TRIPOS>ATOM
  1 O       -1.0680    -0.7850     1.6030 O.2   1 <1>  -0.5700 
  2 C       -1.2400    -1.7240     0.8520 C.2   1 <1>   0.6900 
  3 N       -2.2660    -1.7270    -0.0530 N.am  1 <1>  -0.6600 
  4 N       -0.3760    -2.7590     0.9450 N.am  1 <1>  -0.7300 
  5 C       -3.0620    -2.9560    -0.3430 C.3   1 <1>   0.1400 
  6 C       -2.9810    -0.4610    -0.3960 C.3   1 <1>   0.1400 
  7 C        0.2000    -3.4670    -0.2100 C.3   1 <1>   0.1400 
  8 C       -4.4450    -2.8960     0.3310 C.3   1 <1>   0.1400 
  9 C       -4.3440    -0.4000     0.3060 C.3   1 <1>   0.1400 
 10 C        1.7190    -3.3980    -0.1130 C.3   1 <1>  -0.2400 
 11 N       -5.1500    -1.6210     0.0020 N.am  1 <1>  -0.6600 
 12 C       -6.1740    -1.5710    -0.9040 C.2   1 <1>   0.6900 
 13 O       -6.2780    -0.6460    -1.6830 O.2   1 <1>  -0.5700 
 14 N       -7.1110    -2.5420    -0.9650 N.am  1 <1>  -0.7300 
 15 C       -7.7360    -3.1710     0.2110 C.3   1 <1>   0.1400 
 16 C       -9.2460    -2.9940     0.1100 C.3   1 <1>  -0.2400 
 17 H        0.2780    -2.6350     1.7180 H     1 <1>   0.3700 
 18 H       -2.5440    -3.8310     0.0080 H     1 <1>   0.0800 
 19 H       -3.1900    -3.0480    -1.4070 H     1 <1>   0.0800 
 20 H       -3.1300    -0.4130    -1.4600 H     1 <1>   0.0800 
 21 H       -2.3900     0.3910    -0.1070 H     1 <1>   0.0800 
 22 H       -0.1310    -3.0070    -1.1270 H     1 <1>   0.0800 
 23 H       -0.1260    -4.4930    -0.1990 H     1 <1>   0.0800 
 24 H       -4.3230    -2.9640     1.3980 H     1 <1>   0.0800 
 25 H       -5.0260    -3.7400     0.0070 H     1 <1>   0.0800 
 26 H       -4.8720     0.4830    -0.0090 H     1 <1>   0.0800 
 27 H       -4.1910    -0.3310     1.3690 H     1 <1>   0.0800 
 28 H        2.0460    -2.3730    -0.1220 H     1 <1>   0.0800 
 29 H        2.1580    -3.9020    -0.9550 H     1 <1>   0.0800 
 30 H        2.0620    -3.8790     0.7860 H     1 <1>   0.0800 
 31 H       -7.7550    -2.3950    -1.7420 H     1 <1>   0.3700 
 32 H       -7.3700    -2.7080     1.1130 H     1 <1>   0.0800 
 33 H       -7.4850    -4.2180     0.2310 H     1 <1>   0.0800 
 34 H       -9.4980    -1.9490     0.0880 H     1 <1>   0.0800 
 35 H       -9.7190    -3.4380     0.9680 H     1 <1>   0.0800 
 36 H       -9.6250    -3.4760    -0.7740 H     1 <1>   0.0800 
@<TRIPOS>BOND
  1   1   2  2   
  2   2   3  am  
  3   2   4  am  
  4   3   5  1   
  5   3   6  1   
  6   4   7  1   
  7   4  17  1   
  8   5   8  1   
  9   5  18  1   
 10   5  19  1   
 11   6   9  1   
 12   6  20  1   
 13   6  21  1   
 14   7  10  1   
 15   7  22  1   
 16   7  23  1   
 17   8  11  1   
 18   8  24  1   
 19   8  25  1   
 20   9  11  1   
 21   9  26  1   
 22   9  27  1   
 23  10  28  1   
 24  10  29  1   
 25  10  30  1   
 26  11  12  am  
 27  12  13  2   
 28  12  14  am  
 29  14  15  1   
 30  14  31  1   
 31  15  16  1   
 32  15  32  1   
 33  15  33  1   
 34  16  34  1   
 35  16  35  1   
 36  16  36  1   
@<TRIPOS>SUBSTRUCTURE
  1 ****   5 GROUP 4 **** **** 0

# MOE 2024.06 (io_trps.svl 2023.06)
