@<TRIPOS>MOLECULE
NONAME
35 36 1 0 0 
SMALL
USER_CHARGES


@<TRIPOS>ATOM
  1 CL       0.5090     0.1330    -1.4600 Cl    1 <1>  -0.1770 
  2 C        1.2080     1.5950    -0.8120 C.ar  1 <1>   0.1770 
  3 C        0.4180     2.7180    -0.6730 C.ar  1 <1>  -0.1500 
  4 C        2.5390     1.6040    -0.4490 C.ar  1 <1>  -0.1500 
  5 C        0.9490     3.8950    -0.1510 C.ar  1 <1>  -0.0090 
  6 C        3.0870     2.7670     0.0600 C.ar  1 <1>  -0.1500 
  7 S       -0.0580     5.3920     0.0400 S.o2  1 <1>   1.4470 
  8 C        2.2970     3.9090     0.2030 C.ar  1 <1>   0.0830 
  9 O        0.1480     6.2860    -1.0770 O.2   1 <1>  -0.6500 
 10 O       -0.0410     5.8890     1.3960 O.2   1 <1>  -0.6500 
 11 N       -1.6370     4.8350    -0.0780 N.am  1 <1>  -0.9140 
 12 O        2.7980     5.0750     0.6830 O.3   1 <1>  -0.3620 
 13 C       -2.5650     5.8590    -0.5680 C.3   1 <1>   0.1960 
 14 C        4.1440     5.2190     1.0810 C.3   1 <1>   0.0400 
 15 C       -4.0210     5.3750    -0.4930 C.3   1 <1>   0.2000 
 16 O       -4.8740     6.4080    -0.8590 O.3   1 <1>  -0.5600 
 17 C       -4.4960     4.9830     0.9010 C.3   1 <1>  -0.1600 
 18 C       -6.1530     6.1840    -0.3570 C.3   1 <1>   0.1200 
 19 C       -5.9910     5.2440     0.8360 C.3   1 <1>  -0.1600 
 20 H       -0.6110     2.6650    -0.9790 H     1 <1>   0.1500 
 21 H        3.1330     0.7150    -0.5660 H     1 <1>   0.1500 
 22 H        4.1250     2.7650     0.3350 H     1 <1>   0.1500 
 23 H       -1.8750     4.6840     0.9020 H     1 <1>   0.4200 
 24 H       -2.3320     6.0940    -1.5940 H     1 <1>   0.0800 
 25 H       -2.4610     6.7550     0.0220 H     1 <1>   0.0800 
 26 H        4.2820     6.2290     1.4230 H     1 <1>   0.0800 
 27 H        4.7820     5.0300     0.2360 H     1 <1>   0.0800 
 28 H        4.3480     4.5320     1.8840 H     1 <1>   0.0800 
 29 H       -4.1790     4.5680    -1.1890 H     1 <1>   0.0800 
 30 H       -4.0420     5.6260     1.6350 H     1 <1>   0.0800 
 31 H       -4.2650     3.9570     1.1290 H     1 <1>   0.0800 
 32 H       -6.7470     5.7350    -1.1350 H     1 <1>   0.0800 
 33 H       -6.5760     7.1320    -0.0720 H     1 <1>   0.0800 
 34 H       -6.3580     5.6950     1.7410 H     1 <1>   0.0800 
 35 H       -6.5350     4.3340     0.6520 H     1 <1>   0.0800 
@<TRIPOS>BOND
  1   1   2  1   
  2   2   3  ar  
  3   2   4  ar  
  4   3   5  ar  
  5   3  20  1   
  6   4   6  ar  
  7   4  21  1   
  8   5   7  1   
  9   5   8  ar  
 10   6   8  ar  
 11   6  22  1   
 12   7   9  2   
 13   7  10  2   
 14   7  11  am  
 15   8  12  1   
 16  11  13  1   
 17  11  23  1   
 18  12  14  1   
 19  13  15  1   
 20  13  24  1   
 21  13  25  1   
 22  14  26  1   
 23  14  27  1   
 24  14  28  1   
 25  15  16  1   
 26  15  17  1   
 27  15  29  1   
 28  16  18  1   
 29  17  19  1   
 30  17  30  1   
 31  17  31  1   
 32  18  19  1   
 33  18  32  1   
 34  18  33  1   
 35  19  34  1   
 36  19  35  1   
@<TRIPOS>SUBSTRUCTURE
  1 ****  11 GROUP 4 **** **** 0

# MOE 2024.06 (io_trps.svl 2023.06)
