@<TRIPOS>MOLECULE
NONAME
46 48 1 0 0 
SMALL
USER_CHARGES


@<TRIPOS>ATOM
  1 CL      -0.6810    -3.0950     2.7390 Cl    1 <1>  -0.1770 
  2 C       -1.6290    -2.4860     1.3930 C.ar  1 <1>   0.1770 
  3 C       -1.1390    -2.5580     0.0830 C.ar  1 <1>   0.1000 
  4 C       -2.8660    -1.9400     1.6780 C.ar  1 <1>  -0.1500 
  5 N        0.1040    -3.0990    -0.2720 N.pl3 1 <1>  -0.8380 
  6 C       -1.9450    -2.0550    -0.9310 C.ar  1 <1>  -0.1500 
  7 C       -3.6490    -1.4470     0.6480 C.ar  1 <1>  -0.1500 
  8 C        0.2440    -4.5790    -0.1200 C.3   1 <1>   0.2090 
  9 C        1.3040    -2.3100     0.1440 C.3   1 <1>   0.2090 
 10 C       -3.1860    -1.5060    -0.6550 C.ar  1 <1>  -0.1500 
 11 C        1.5360    -5.0880    -0.7920 C.3   1 <1>   0.3430 
 12 C        2.5830    -2.8460    -0.5300 C.3   1 <1>   0.3430 
 13 N        2.7560    -4.3340    -0.3340 N.4   1 <1>  -0.9590 
 14 C        4.0030    -4.8330    -0.9700 C.3   1 <1>   0.4860 
 15 C        5.1800    -4.1430    -0.3090 C.ar  1 <1>  -0.1430 
 16 C        5.6220    -4.4980     0.9640 C.ar  1 <1>  -0.1430 
 17 C        5.8140    -3.1190    -1.0000 C.ar  1 <1>  -0.1500 
 18 C        6.6780    -3.7990     1.5270 C.ar  1 <1>  -0.1500 
 19 C        5.0020    -5.6310     1.7730 C.3   1 <1>  -0.0970 
 20 C        6.8690    -2.4280    -0.4310 C.ar  1 <1>  -0.1430 
 21 C        7.2960    -2.7720     0.8380 C.ar  1 <1>  -0.1500 
 22 C        7.5620    -1.3090    -1.1880 C.3   1 <1>  -0.0970 
 23 H       -3.2130    -1.9000     2.6950 H     1 <1>   0.1500 
 24 H       -1.5930    -2.0970    -1.9450 H     1 <1>   0.1500 
 25 H       -4.6150    -1.0190     0.8600 H     1 <1>   0.1500 
 26 H       -0.6070    -5.0610    -0.5710 H     1 <1>   0.0800 
 27 H        0.2550    -4.8410     0.9230 H     1 <1>   0.0800 
 28 H        1.4200    -2.3510     1.2130 H     1 <1>   0.0800 
 29 H        1.1620    -1.2780    -0.1310 H     1 <1>   0.0800 
 30 H       -3.7940    -1.1230    -1.4570 H     1 <1>   0.1500 
 31 H        1.4220    -4.9750    -1.8580 H     1 <1>   0.0800 
 32 H        1.6490    -6.1380    -0.5800 H     1 <1>   0.0800 
 33 H        3.4330    -2.3200    -0.1270 H     1 <1>   0.0800 
 34 H        2.5260    -2.6240    -1.5830 H     1 <1>   0.0800 
 35 H        2.8750    -4.4750     0.6760 H     1 <1>   0.4500 
 36 H        3.9960    -4.6190    -2.0260 H     1 <1>   0.0800 
 37 H        4.0920    -5.8990    -0.8380 H     1 <1>   0.0800 
 38 H        5.4950    -2.8490    -1.9920 H     1 <1>   0.1500 
 39 H        7.0380    -4.0500     2.5100 H     1 <1>   0.1500 
 40 H        4.0930    -5.3050     2.2430 H     1 <1>   0.0800 
 41 H        5.6780    -5.9500     2.5470 H     1 <1>   0.0800 
 42 H        4.8030    -6.4860     1.1530 H     1 <1>   0.0800 
 43 H        8.1170    -2.2460     1.2940 H     1 <1>   0.1500 
 44 H        6.9020    -0.8670    -1.9120 H     1 <1>   0.0800 
 45 H        8.4260    -1.6970    -1.6990 H     1 <1>   0.0800 
 46 H        7.8820    -0.5390    -0.5090 H     1 <1>   0.0800 
@<TRIPOS>BOND
  1   1   2  1   
  2   2   3  ar  
  3   2   4  ar  
  4   3   5  1   
  5   3   6  ar  
  6   4   7  ar  
  7   4  23  1   
  8   5   8  1   
  9   5   9  1   
 10   6  10  ar  
 11   6  24  1   
 12   7  10  ar  
 13   7  25  1   
 14   8  11  1   
 15   8  26  1   
 16   8  27  1   
 17   9  12  1   
 18   9  28  1   
 19   9  29  1   
 20  10  30  1   
 21  11  13  1   
 22  11  31  1   
 23  11  32  1   
 24  12  13  1   
 25  12  33  1   
 26  12  34  1   
 27  13  14  1   
 28  13  35  1   
 29  14  15  1   
 30  14  36  1   
 31  14  37  1   
 32  15  16  ar  
 33  15  17  ar  
 34  16  18  ar  
 35  16  19  1   
 36  17  20  ar  
 37  17  38  1   
 38  18  21  ar  
 39  18  39  1   
 40  19  40  1   
 41  19  41  1   
 42  19  42  1   
 43  20  21  ar  
 44  20  22  1   
 45  21  43  1   
 46  22  44  1   
 47  22  45  1   
 48  22  46  1   
@<TRIPOS>SUBSTRUCTURE
  1 ****  12 GROUP 4 **** **** 0

# MOE 2024.06 (io_trps.svl 2023.06)
