@<TRIPOS>MOLECULE
NONAME
48 48 1 0 0 
SMALL
USER_CHARGES


@<TRIPOS>ATOM
  1 N        0.2680    -0.4160    -0.4100 N.4   1 <1>  -0.9590 
  2 C        1.5090     0.4290    -0.4080 C.3   1 <1>   0.3430 
  3 C       -0.6100    -0.0910    -1.5820 C.3   1 <1>   0.2630 
  4 C       -0.5220    -0.2680     0.8570 C.3   1 <1>   0.2630 
  5 C        2.8060    -0.3750    -0.1050 C.3   1 <1>   0.0000 
  6 C        3.9850     0.6360    -0.1260 C.3   1 <1>   0.3430 
  7 C        2.7230    -1.0600     1.2790 C.3   1 <1>  -0.2400 
  8 C        3.0190    -1.4600    -1.1860 C.3   1 <1>  -0.2400 
  9 N        5.3070    -0.0110     0.1310 N.4   1 <1>  -0.9060 
 10 C        6.4560     0.9190     0.0970 C.3   1 <1>   0.4230 
 11 C        7.7490     0.0930    -0.0010 C.3   1 <1>  -0.1600 
 12 C        6.4550     1.8180     1.3390 C.3   1 <1>  -0.1600 
 13 C        8.9770     0.7980     0.6150 C.3   1 <1>  -0.0800 
 14 C        7.6090     2.8380     1.2820 C.3   1 <1>  -0.1600 
 15 C        8.8430     2.3240     0.5170 C.3   1 <1>  -0.1600 
 16 C       10.2710     0.3180    -0.0510 C.3   1 <1>  -0.2400 
 17 H        0.5480    -1.4050    -0.4980 H     1 <1>   0.4500 
 18 H        1.3960     1.2230     0.3130 H     1 <1>   0.0800 
 19 H        1.6180     0.8880    -1.3780 H     1 <1>   0.0800 
 20 H       -0.9390     0.9340    -1.5350 H     1 <1>   0.0800 
 21 H       -1.4790    -0.7300    -1.5870 H     1 <1>   0.0800 
 22 H       -0.0750    -0.2400    -2.5070 H     1 <1>   0.0800 
 23 H       -0.8590     0.7490     0.9740 H     1 <1>   0.0800 
 24 H        0.0780    -0.5330     1.7120 H     1 <1>   0.0800 
 25 H       -1.3860    -0.9130     0.8360 H     1 <1>   0.0800 
 26 H        3.8100     1.3930     0.6220 H     1 <1>   0.0800 
 27 H        4.0150     1.1250    -1.0880 H     1 <1>   0.0800 
 28 H        2.5670    -0.3350     2.0600 H     1 <1>   0.0800 
 29 H        3.6210    -1.6080     1.5040 H     1 <1>   0.0800 
 30 H        1.9160    -1.7700     1.3140 H     1 <1>   0.0800 
 31 H        3.1050    -1.0180    -2.1650 H     1 <1>   0.0800 
 32 H        2.2000    -2.1580    -1.2100 H     1 <1>   0.0800 
 33 H        3.9080    -2.0360    -0.9990 H     1 <1>   0.0800 
 34 H        5.4800    -0.7410    -0.5700 H     1 <1>   0.4500 
 35 H        5.3120    -0.4770     1.0460 H     1 <1>   0.4500 
 36 H        6.3930     1.5500    -0.7760 H     1 <1>   0.0800 
 37 H        7.9370    -0.0940    -1.0440 H     1 <1>   0.0800 
 38 H        7.6420    -0.8570     0.4930 H     1 <1>   0.0800 
 39 H        6.5830     1.2090     2.2180 H     1 <1>   0.0800 
 40 H        5.5330     2.3620     1.4350 H     1 <1>   0.0800 
 41 H        9.0350     0.5410     1.6620 H     1 <1>   0.0800 
 42 H        7.8960     3.0880     2.2900 H     1 <1>   0.0800 
 43 H        7.2750     3.7490     0.8150 H     1 <1>   0.0800 
 44 H        8.7710     2.6070    -0.5190 H     1 <1>   0.0800 
 45 H        9.7260     2.7980     0.9150 H     1 <1>   0.0800 
 46 H       10.2900     0.5810    -1.0940 H     1 <1>   0.0800 
 47 H       10.3670    -0.7500     0.0370 H     1 <1>   0.0800 
 48 H       11.1240     0.7690     0.4260 H     1 <1>   0.0800 
@<TRIPOS>BOND
  1   1   2  1   
  2   1   3  1   
  3   1   4  1   
  4   1  17  1   
  5   2   5  1   
  6   2  18  1   
  7   2  19  1   
  8   3  20  1   
  9   3  21  1   
 10   3  22  1   
 11   4  23  1   
 12   4  24  1   
 13   4  25  1   
 14   5   6  1   
 15   5   7  1   
 16   5   8  1   
 17   6   9  1   
 18   6  26  1   
 19   6  27  1   
 20   7  28  1   
 21   7  29  1   
 22   7  30  1   
 23   8  31  1   
 24   8  32  1   
 25   8  33  1   
 26   9  10  1   
 27   9  34  1   
 28   9  35  1   
 29  10  11  1   
 30  10  12  1   
 31  10  36  1   
 32  11  13  1   
 33  11  37  1   
 34  11  38  1   
 35  12  14  1   
 36  12  39  1   
 37  12  40  1   
 38  13  15  1   
 39  13  16  1   
 40  13  41  1   
 41  14  15  1   
 42  14  42  1   
 43  14  43  1   
 44  15  44  1   
 45  15  45  1   
 46  16  46  1   
 47  16  47  1   
 48  16  48  1   
@<TRIPOS>SUBSTRUCTURE
  1 ****   9 GROUP 4 **** **** 0

# MOE 2024.06 (io_trps.svl 2023.06)
