@<TRIPOS>MOLECULE
NONAME
52 54 1 0 0 
SMALL
USER_CHARGES


@<TRIPOS>ATOM
  1 CL       0.3320    -0.5210     0.4930 Cl    1 <1>  -0.1770 
  2 C        1.8440    -1.3890     0.6110 C.ar  1 <1>   0.1770 
  3 C        1.8880    -2.5850     1.3020 C.ar  1 <1>  -0.1500 
  4 C        2.9750    -0.8670     0.0120 C.ar  1 <1>  -0.1500 
  5 C        3.0880    -3.2680     1.3920 C.ar  1 <1>  -0.1500 
  6 C        4.1710    -1.5570     0.1060 C.ar  1 <1>  -0.1500 
  7 C        4.2420    -2.7660     0.7960 C.ar  1 <1>   0.1000 
  8 N        5.4320    -3.4830     0.8970 N.pl3 1 <1>  -0.8380 
  9 C        5.5340    -4.8120     0.2250 C.3   1 <1>   0.2090 
 10 C        6.7160    -2.7980     1.2420 C.3   1 <1>   0.2090 
 11 C        6.5420    -4.7740    -0.9440 C.3   1 <1>   0.3430 
 12 C        7.7050    -2.8160     0.0570 C.3   1 <1>   0.3430 
 13 N        7.8740    -4.1930    -0.5430 N.4   1 <1>  -0.9590 
 14 C        8.8410    -4.1890    -1.6730 C.3   1 <1>   0.4860 
 15 C       10.1980    -3.7850    -1.1350 C.ar  1 <1>  -0.1430 
 16 C       10.6990    -2.5160    -1.3760 C.ar  1 <1>  -0.1500 
 17 C       10.9490    -4.6750    -0.3840 C.ar  1 <1>  -0.1500 
 18 C       11.9300    -2.1260    -0.8760 C.ar  1 <1>   0.0830 
 19 C       12.1830    -4.3110     0.1280 C.ar  1 <1>   0.0830 
 20 O       12.2820    -0.8430    -1.1680 O.3   1 <1>  -0.3630 
 21 C       12.7030    -3.0370    -0.1430 C.ar  1 <1>   0.0830 
 22 O       12.8050    -5.2670     0.8690 O.3   1 <1>  -0.3630 
 23 C       13.0470    -0.0750    -0.2610 C.3   1 <1>   0.0400 
 24 O       13.9580    -2.7090     0.2640 O.3   1 <1>  -0.3630 
 25 C       13.5090    -4.9110     2.0410 C.3   1 <1>   0.0400 
 26 C       14.9830    -3.0790    -0.6320 C.3   1 <1>   0.0400 
 27 H        0.9950    -2.9690     1.7620 H     1 <1>   0.1500 
 28 H        2.9110     0.0660    -0.5180 H     1 <1>   0.1500 
 29 H        3.1380    -4.1940     1.9350 H     1 <1>   0.1500 
 30 H        5.0470    -1.1540    -0.3630 H     1 <1>   0.1500 
 31 H        4.5670    -5.1030    -0.1520 H     1 <1>   0.0800 
 32 H        5.8390    -5.5500     0.9470 H     1 <1>   0.0800 
 33 H        7.1590    -3.2940     2.0880 H     1 <1>   0.0800 
 34 H        6.5200    -1.7800     1.5350 H     1 <1>   0.0800 
 35 H        6.1120    -4.1770    -1.7320 H     1 <1>   0.0800 
 36 H        6.6740    -5.7740    -1.3220 H     1 <1>   0.0800 
 37 H        8.6580    -2.4430     0.3970 H     1 <1>   0.0800 
 38 H        7.3380    -2.1390    -0.6960 H     1 <1>   0.0800 
 39 H        8.2780    -4.7860     0.1930 H     1 <1>   0.4500 
 40 H        8.5250    -3.4960    -2.4360 H     1 <1>   0.0800 
 41 H        8.9110    -5.1720    -2.1090 H     1 <1>   0.0800 
 42 H       10.1460    -1.7990    -1.9580 H     1 <1>   0.1500 
 43 H       10.5980    -5.6710    -0.1800 H     1 <1>   0.1500 
 44 H       12.8810     0.9640    -0.4790 H     1 <1>   0.0800 
 45 H       14.0870    -0.3090    -0.3950 H     1 <1>   0.0800 
 46 H       12.7340    -0.2950     0.7440 H     1 <1>   0.0800 
 47 H       12.9950    -4.1060     2.5350 H     1 <1>   0.0800 
 48 H       13.5490    -5.7720     2.6830 H     1 <1>   0.0800 
 49 H       14.5070    -4.6150     1.7740 H     1 <1>   0.0800 
 50 H       15.9240    -2.7720    -0.2130 H     1 <1>   0.0800 
 51 H       14.9670    -4.1470    -0.7610 H     1 <1>   0.0800 
 52 H       14.8190    -2.5840    -1.5730 H     1 <1>   0.0800 
@<TRIPOS>BOND
  1   1   2  1   
  2   2   3  ar  
  3   2   4  ar  
  4   3   5  ar  
  5   3  27  1   
  6   4   6  ar  
  7   4  28  1   
  8   5   7  ar  
  9   5  29  1   
 10   6   7  ar  
 11   6  30  1   
 12   7   8  1   
 13   8   9  1   
 14   8  10  1   
 15   9  11  1   
 16   9  31  1   
 17   9  32  1   
 18  10  12  1   
 19  10  33  1   
 20  10  34  1   
 21  11  13  1   
 22  11  35  1   
 23  11  36  1   
 24  12  13  1   
 25  12  37  1   
 26  12  38  1   
 27  13  14  1   
 28  13  39  1   
 29  14  15  1   
 30  14  40  1   
 31  14  41  1   
 32  15  16  ar  
 33  15  17  ar  
 34  16  18  ar  
 35  16  42  1   
 36  17  19  ar  
 37  17  43  1   
 38  18  20  1   
 39  18  21  ar  
 40  19  21  ar  
 41  19  22  1   
 42  20  23  1   
 43  21  24  1   
 44  22  25  1   
 45  23  44  1   
 46  23  45  1   
 47  23  46  1   
 48  24  26  1   
 49  25  47  1   
 50  25  48  1   
 51  25  49  1   
 52  26  50  1   
 53  26  51  1   
 54  26  52  1   
@<TRIPOS>SUBSTRUCTURE
  1 ****  12 GROUP 4 **** **** 0

# MOE 2024.06 (io_trps.svl 2023.06)
