@<TRIPOS>MOLECULE
NONAME
33 35 1 0 0 
SMALL
USER_CHARGES


@<TRIPOS>ATOM
  1 S        0.0320    -0.0640     0.0280 S.3   1 <1>  -0.2860 
  2 C        1.1870     1.2070    -0.3920 C.2   1 <1>   0.2420 
  3 C        1.3390    -1.1890     0.6890 C.3   1 <1>   0.1500 
  4 N        1.0630     2.3380    -0.9840 N.2   1 <1>  -0.3380 
  5 N        2.4100     0.9150    -0.0140 N.pl3 1 <1>   0.0480 
  6 C        2.6480    -0.3560     0.7070 C.3   1 <1>   0.0960 
  7 C        1.4050    -2.3990    -0.2460 C.3   1 <1>  -0.2400 
  8 N        2.3060     2.8470    -1.0080 N.2   1 <1>  -0.3380 
  9 C        3.0900     1.9910    -0.4280 C.2   1 <1>   0.0070 
 10 C        4.5800     2.1960    -0.2290 C.3   1 <1>   0.3000 
 11 O        5.2460     0.9480    -0.2470 O.3   1 <1>  -0.3630 
 12 C        6.5950     0.8620    -0.1040 C.ar  1 <1>   0.0820 
 13 C        7.1830    -0.3890    -0.2780 C.ar  1 <1>  -0.1430 
 14 C        7.3930     1.9610     0.2070 C.ar  1 <1>  -0.1500 
 15 C        8.5550    -0.5260    -0.1330 C.ar  1 <1>  -0.1500 
 16 C        6.3440    -1.6090    -0.6290 C.3   1 <1>  -0.0970 
 17 C        8.7610     1.8110     0.3480 C.ar  1 <1>  -0.1500 
 18 C        9.3420     0.5680     0.1790 C.ar  1 <1>  -0.1500 
 19 H        1.0440    -1.4830     1.6820 H     1 <1>   0.0800 
 20 H        3.4510    -0.8890     0.2340 H     1 <1>   0.0800 
 21 H        2.9270    -0.1280     1.7190 H     1 <1>   0.0800 
 22 H        1.6470    -2.0870    -1.2480 H     1 <1>   0.0800 
 23 H        0.4550    -2.9020    -0.2620 H     1 <1>   0.0800 
 24 H        2.1530    -3.0930     0.0920 H     1 <1>   0.0800 
 25 H        4.7560     2.6630     0.7230 H     1 <1>   0.0800 
 26 H        4.9780     2.8060    -1.0210 H     1 <1>   0.0800 
 27 H        6.9790     2.9410     0.3460 H     1 <1>   0.1500 
 28 H        9.0220    -1.4870    -0.2620 H     1 <1>   0.1500 
 29 H        5.6990    -1.3850    -1.4600 H     1 <1>   0.0800 
 30 H        5.7440    -1.8920     0.2160 H     1 <1>   0.0800 
 31 H        6.9680    -2.4410    -0.9020 H     1 <1>   0.0800 
 32 H        9.3760     2.6610     0.5890 H     1 <1>   0.1500 
 33 H       10.4060     0.4510     0.2900 H     1 <1>   0.1500 
@<TRIPOS>BOND
  1   1   2  1   
  2   1   3  1   
  3   2   4  2   
  4   2   5  1   
  5   3   6  1   
  6   3   7  1   
  7   3  19  1   
  8   4   8  1   
  9   5   6  1   
 10   5   9  1   
 11   6  20  1   
 12   6  21  1   
 13   7  22  1   
 14   7  23  1   
 15   7  24  1   
 16   8   9  2   
 17   9  10  1   
 18  10  11  1   
 19  10  25  1   
 20  10  26  1   
 21  11  12  1   
 22  12  13  ar  
 23  12  14  ar  
 24  13  15  ar  
 25  13  16  1   
 26  14  17  ar  
 27  14  27  1   
 28  15  18  ar  
 29  15  28  1   
 30  16  29  1   
 31  16  30  1   
 32  16  31  1   
 33  17  18  ar  
 34  17  32  1   
 35  18  33  1   
@<TRIPOS>SUBSTRUCTURE
  1 ****  11 GROUP 4 **** **** 0

# MOE 2024.06 (io_trps.svl 2023.06)
