@<TRIPOS>MOLECULE
NONAME
52 54 1 0 0 
SMALL
USER_CHARGES


@<TRIPOS>ATOM
  1 CL      -2.1810    -0.8690     3.3880 Cl    1 <1>  -0.1770 
  2 C       -2.5900     0.2050     2.0740 C.ar  1 <1>   0.1770 
  3 C       -3.7960     0.0480     1.4240 C.ar  1 <1>  -0.1500 
  4 C       -1.6980     1.1940     1.7070 C.ar  1 <1>  -0.1500 
  5 C       -4.1340     0.8960     0.3760 C.ar  1 <1>   0.1000 
  6 C       -2.0280     2.0420     0.6640 C.ar  1 <1>  -0.1500 
  7 N       -5.3530     0.7410    -0.2820 N.pl3 1 <1>  -0.8380 
  8 C       -3.2360     1.8990    -0.0020 C.ar  1 <1>  -0.1430 
  9 C       -6.5700     1.1490     0.4870 C.3   1 <1>   0.2090 
 10 C       -5.5040    -0.4840    -1.1340 C.3   1 <1>   0.2090 
 11 C       -3.5780     2.8400    -1.1480 C.3   1 <1>  -0.0970 
 12 C       -7.8750     0.7490    -0.2270 C.3   1 <1>   0.1400 
 13 C       -6.6240    -1.4200    -0.6460 C.3   1 <1>   0.1400 
 14 N       -7.9440    -0.7230    -0.5080 N.am  1 <1>  -0.6600 
 15 C       -9.1090    -1.4590    -0.4420 C.2   1 <1>   0.5440 
 16 O       -9.0200    -2.6670    -0.3160 O.2   1 <1>  -0.5700 
 17 C      -10.4240    -0.8520    -0.5070 C.ar  1 <1>   0.0860 
 18 C      -11.4340    -1.2460     0.3730 C.ar  1 <1>  -0.1500 
 19 C      -10.7530     0.1220    -1.4530 C.ar  1 <1>  -0.1500 
 20 C      -12.6980    -0.6920     0.3190 C.ar  1 <1>  -0.1500 
 21 C      -12.0170     0.6780    -1.5070 C.ar  1 <1>  -0.1500 
 22 C      -13.0140     0.2820    -0.6220 C.ar  1 <1>   0.1990 
 23 N      -14.2910     0.8190    -0.6790 N.am  1 <1>  -0.6930 
 24 S      -14.6230     2.5120    -0.4840 S.o2  1 <1>   1.3330 
 25 C      -15.4530    -0.0770    -0.9000 C.3   1 <1>   0.1160 
 26 O      -13.5980     3.2650    -1.1650 O.2   1 <1>  -0.6500 
 27 O      -16.0200     2.7080    -0.7890 O.2   1 <1>  -0.6500 
 28 C      -14.4090     2.7100     1.2710 C.3   1 <1>  -0.1350 
 29 H       -4.4710    -0.7270     1.7280 H     1 <1>   0.1500 
 30 H       -0.7650     1.2960     2.2300 H     1 <1>   0.1500 
 31 H       -1.3360     2.8140     0.3740 H     1 <1>   0.1500 
 32 H       -6.5510     2.2160     0.6190 H     1 <1>   0.0800 
 33 H       -6.5500     0.6960     1.4630 H     1 <1>   0.0800 
 34 H       -4.5740    -1.0270    -1.1560 H     1 <1>   0.0800 
 35 H       -5.7230    -0.1770    -2.1420 H     1 <1>   0.0800 
 36 H       -4.4770     3.3810    -0.9160 H     1 <1>   0.0800 
 37 H       -3.7420     2.2720    -2.0450 H     1 <1>   0.0800 
 38 H       -2.7870     3.5450    -1.3260 H     1 <1>   0.0800 
 39 H       -7.9350     1.2880    -1.1560 H     1 <1>   0.0800 
 40 H       -8.7090     1.0420     0.3870 H     1 <1>   0.0800 
 41 H       -6.3480    -1.8330     0.3080 H     1 <1>   0.0800 
 42 H       -6.7260    -2.2370    -1.3390 H     1 <1>   0.0800 
 43 H      -11.2110    -2.0070     1.1020 H     1 <1>   0.1500 
 44 H      -10.0070     0.4340    -2.1620 H     1 <1>   0.1500 
 45 H      -13.4540    -1.0170     1.0110 H     1 <1>   0.1500 
 46 H      -12.2440     1.4220    -2.2510 H     1 <1>   0.1500 
 47 H      -15.1240    -1.0900    -1.0540 H     1 <1>   0.0800 
 48 H      -15.9950     0.2460    -1.7730 H     1 <1>   0.0800 
 49 H      -16.1110    -0.0410    -0.0500 H     1 <1>   0.0800 
 50 H      -13.4060     2.4580     1.5510 H     1 <1>   0.0800 
 51 H      -15.0900     2.0740     1.8010 H     1 <1>   0.0800 
 52 H      -14.6000     3.7280     1.5500 H     1 <1>   0.0800 
@<TRIPOS>BOND
  1   1   2  1   
  2   2   3  ar  
  3   2   4  ar  
  4   3   5  ar  
  5   3  29  1   
  6   4   6  ar  
  7   4  30  1   
  8   5   7  1   
  9   5   8  ar  
 10   6   8  ar  
 11   6  31  1   
 12   7   9  1   
 13   7  10  1   
 14   8  11  1   
 15   9  12  1   
 16   9  32  1   
 17   9  33  1   
 18  10  13  1   
 19  10  34  1   
 20  10  35  1   
 21  11  36  1   
 22  11  37  1   
 23  11  38  1   
 24  12  14  1   
 25  12  39  1   
 26  12  40  1   
 27  13  14  1   
 28  13  41  1   
 29  13  42  1   
 30  14  15  am  
 31  15  16  2   
 32  15  17  1   
 33  17  18  ar  
 34  17  19  ar  
 35  18  20  ar  
 36  18  43  1   
 37  19  21  ar  
 38  19  44  1   
 39  20  22  ar  
 40  20  45  1   
 41  21  22  ar  
 42  21  46  1   
 43  22  23  1   
 44  23  24  am  
 45  23  25  1   
 46  24  26  2   
 47  24  27  2   
 48  24  28  1   
 49  25  47  1   
 50  25  48  1   
 51  25  49  1   
 52  28  50  1   
 53  28  51  1   
 54  28  52  1   
@<TRIPOS>SUBSTRUCTURE
  1 ****  12 GROUP 4 **** **** 0

# MOE 2024.06 (io_trps.svl 2023.06)
