@<TRIPOS>MOLECULE
NONAME
51 53 1 0 0 
SMALL
USER_CHARGES


@<TRIPOS>ATOM
  1 O       -5.1930    -3.1380    -0.7360 O.3   1 <1>  -0.5600 
  2 C       -4.7980    -3.2000     0.5940 C.3   1 <1>   0.2800 
  3 C       -6.0050    -2.0670    -1.1290 C.3   1 <1>   0.1200 
  4 C       -4.0460    -1.9030     0.9820 C.3   1 <1>  -0.1600 
  5 C       -3.8780    -4.4180     0.6800 C.3   1 <1>  -0.2400 
  6 C       -6.0310    -3.4520     1.4740 C.3   1 <1>  -0.2400 
  7 C       -5.4420    -0.7160    -0.6530 C.3   1 <1>  -0.1600 
  8 C       -3.9980    -0.8010    -0.1120 C.3   1 <1>   0.1440 
  9 C       -3.5630     0.5680     0.4680 C.ar  1 <1>  -0.1440 
 10 C       -3.0270    -1.1230    -1.2830 C.3   1 <1>  -0.1600 
 11 C       -3.7010     1.7170    -0.3060 C.ar  1 <1>  -0.1500 
 12 C       -2.9980     0.7110     1.7350 C.ar  1 <1>  -0.1500 
 13 C       -1.5410    -1.0270    -0.9260 C.3   1 <1>   0.3430 
 14 C       -3.2970     2.9550     0.1600 C.ar  1 <1>  -0.1500 
 15 C       -2.5940     1.9490     2.2050 C.ar  1 <1>  -0.1500 
 16 N       -1.0480    -2.3230    -0.3960 N.4   1 <1>  -0.9590 
 17 C       -2.7420     3.0730     1.4180 C.ar  1 <1>  -0.1500 
 18 C        0.2090    -2.1980     0.3740 C.3   1 <1>   0.3430 
 19 C       -0.7870    -3.3370    -1.4470 C.3   1 <1>   0.3430 
 20 C        0.7590    -3.6170     0.4180 C.3   1 <1>  -0.1600 
 21 C        0.1240    -4.3510    -0.7670 C.3   1 <1>  -0.1600 
 22 H       -7.0010    -2.2280    -0.7540 H     1 <1>   0.0800 
 23 H       -6.0480    -2.0900    -2.2050 H     1 <1>   0.0800 
 24 H       -3.0650    -2.1330     1.3440 H     1 <1>   0.0800 
 25 H       -4.5670    -1.4910     1.8280 H     1 <1>   0.0800 
 26 H       -3.0590    -4.3250    -0.0030 H     1 <1>   0.0800 
 27 H       -4.4280    -5.3080     0.4300 H     1 <1>   0.0800 
 28 H       -3.4970    -4.5340     1.6790 H     1 <1>   0.0800 
 29 H       -6.6820    -2.5980     1.4930 H     1 <1>   0.0800 
 30 H       -5.7270    -3.6530     2.4860 H     1 <1>   0.0800 
 31 H       -6.5780    -4.3040     1.1120 H     1 <1>   0.0800 
 32 H       -6.0820    -0.3440     0.1280 H     1 <1>   0.0800 
 33 H       -5.5220    -0.0190    -1.4650 H     1 <1>   0.0800 
 34 H       -3.1980    -0.3910    -2.0510 H     1 <1>   0.0800 
 35 H       -3.2400    -2.0720    -1.7360 H     1 <1>   0.0800 
 36 H       -4.1260     1.6740    -1.2930 H     1 <1>   0.1500 
 37 H       -2.8560    -0.1230     2.3960 H     1 <1>   0.1500 
 38 H       -1.3960    -0.2440    -0.1980 H     1 <1>   0.0800 
 39 H       -0.9770    -0.7650    -1.8070 H     1 <1>   0.0800 
 40 H       -3.4180     3.8300    -0.4560 H     1 <1>   0.1500 
 41 H       -2.1660     2.0400     3.1890 H     1 <1>   0.1500 
 42 H       -1.7690    -2.7080     0.2260 H     1 <1>   0.4500 
 43 H       -2.4300     4.0370     1.7840 H     1 <1>   0.1500 
 44 H        0.0360    -1.8010     1.3620 H     1 <1>   0.0800 
 45 H        0.8990    -1.5600    -0.1550 H     1 <1>   0.0800 
 46 H       -0.2660    -2.8810    -2.2740 H     1 <1>   0.0800 
 47 H       -1.6990    -3.7910    -1.8020 H     1 <1>   0.0800 
 48 H        0.4780    -4.0870     1.3450 H     1 <1>   0.0800 
 49 H        1.8340    -3.6050     0.3530 H     1 <1>   0.0800 
 50 H        0.8650    -4.7100    -1.4600 H     1 <1>   0.0800 
 51 H       -0.4560    -5.1900    -0.4240 H     1 <1>   0.0800 
@<TRIPOS>BOND
  1   1   2  1   
  2   1   3  1   
  3   2   4  1   
  4   2   5  1   
  5   2   6  1   
  6   3   7  1   
  7   3  22  1   
  8   3  23  1   
  9   4   8  1   
 10   4  24  1   
 11   4  25  1   
 12   5  26  1   
 13   5  27  1   
 14   5  28  1   
 15   6  29  1   
 16   6  30  1   
 17   6  31  1   
 18   7   8  1   
 19   7  32  1   
 20   7  33  1   
 21   8   9  1   
 22   8  10  1   
 23   9  11  ar  
 24   9  12  ar  
 25  10  13  1   
 26  10  34  1   
 27  10  35  1   
 28  11  14  ar  
 29  11  36  1   
 30  12  15  ar  
 31  12  37  1   
 32  13  16  1   
 33  13  38  1   
 34  13  39  1   
 35  14  17  ar  
 36  14  40  1   
 37  15  17  ar  
 38  15  41  1   
 39  16  18  1   
 40  16  19  1   
 41  16  42  1   
 42  17  43  1   
 43  18  20  1   
 44  18  44  1   
 45  18  45  1   
 46  19  21  1   
 47  19  46  1   
 48  19  47  1   
 49  20  21  1   
 50  20  48  1   
 51  20  49  1   
 52  21  50  1   
 53  21  51  1   
@<TRIPOS>SUBSTRUCTURE
  1 ****   8 GROUP 4 **** **** 0

# MOE 2024.06 (io_trps.svl 2023.06)
