@<TRIPOS>MOLECULE
NONAME
49 51 1 0 0 
SMALL
USER_CHARGES


@<TRIPOS>ATOM
  1 O       -7.2940    -0.8940     0.5410 O.3   1 <1>  -0.3630 
  2 C       -6.5700     0.1460     0.0580 C.ar  1 <1>   0.0830 
  3 C       -6.8620    -2.1880     0.1630 C.3   1 <1>   0.0400 
  4 C       -7.1200     0.9020    -0.9740 C.ar  1 <1>  -0.1440 
  5 C       -5.3230     0.4670     0.5910 C.ar  1 <1>  -0.1440 
  6 C       -6.3910     1.9440    -1.5210 C.ar  1 <1>  -0.1500 
  7 C       -8.5150     0.6010    -1.4830 C.3   1 <1>   0.4870 
  8 C       -4.5950     1.5110     0.0240 C.ar  1 <1>   0.0820 
  9 C       -4.7410    -0.2820     1.7910 C.3   1 <1>  -0.0970 
 10 C       -5.1330     2.2410    -1.0320 C.ar  1 <1>  -0.1500 
 11 N       -9.4540     0.7050    -0.3410 N.4   1 <1>  -0.9590 
 12 O       -3.3640     1.7770     0.5380 O.3   1 <1>  -0.3630 
 13 C      -10.8160     0.1370    -0.6510 C.3   1 <1>   0.3430 
 14 C       -9.5230     2.1140     0.2050 C.3   1 <1>   0.3430 
 15 C       -2.5100     2.7530    -0.0170 C.3   1 <1>   0.0400 
 16 C      -11.8040     0.2830     0.5270 C.3   1 <1>   0.2090 
 17 C      -10.5130     2.2360     1.3800 C.3   1 <1>   0.2090 
 18 N      -11.8480     1.7050     0.9720 N.pl3 1 <1>  -0.8380 
 19 C      -12.7990     2.5410     0.4330 C.ar  1 <1>   0.7200 
 20 N      -14.0390     2.0700     0.3750 N.ar  1 <1>  -0.6200 
 21 N      -12.3770     3.7220    -0.0150 N.ar  1 <1>  -0.6200 
 22 C      -14.9410     2.8770    -0.1280 C.ar  1 <1>   0.1600 
 23 C      -13.3020     4.5090    -0.5140 C.ar  1 <1>   0.1600 
 24 C      -14.6200     4.1300    -0.5920 C.ar  1 <1>  -0.1500 
 25 H       -5.8590    -2.3510     0.5150 H     1 <1>   0.0800 
 26 H       -6.8900    -2.2690    -0.9090 H     1 <1>   0.0800 
 27 H       -7.5220    -2.9110     0.6070 H     1 <1>   0.0800 
 28 H       -6.7870     2.5350    -2.3290 H     1 <1>   0.1500 
 29 H       -8.5330    -0.3980    -1.8870 H     1 <1>   0.0800 
 30 H       -8.7910     1.2950    -2.2600 H     1 <1>   0.0800 
 31 H       -5.5010    -0.8080     2.3390 H     1 <1>   0.0800 
 32 H       -4.2750     0.4080     2.4720 H     1 <1>   0.0800 
 33 H       -3.9980    -0.9830     1.4580 H     1 <1>   0.0800 
 34 H       -4.5860     3.0490    -1.4820 H     1 <1>   0.1500 
 35 H       -9.0100     0.1260     0.3930 H     1 <1>   0.4500 
 36 H      -10.7290    -0.9050    -0.9090 H     1 <1>   0.0800 
 37 H      -11.2360     0.6550    -1.4980 H     1 <1>   0.0800 
 38 H       -9.8470     2.7880    -0.5710 H     1 <1>   0.0800 
 39 H       -8.5460     2.4290     0.5330 H     1 <1>   0.0800 
 40 H       -1.5910     2.7470     0.5410 H     1 <1>   0.0800 
 41 H       -2.9790     3.7170     0.0650 H     1 <1>   0.0800 
 42 H       -2.3130     2.5030    -1.0450 H     1 <1>   0.0800 
 43 H      -11.4940    -0.3390     1.3480 H     1 <1>   0.0800 
 44 H      -12.7790    -0.0540     0.2180 H     1 <1>   0.0800 
 45 H      -10.5940     3.2660     1.6850 H     1 <1>   0.0800 
 46 H      -10.1480     1.6800     2.2260 H     1 <1>   0.0800 
 47 H      -15.9610     2.5330    -0.1710 H     1 <1>   0.1500 
 48 H      -13.0050     5.4810    -0.8700 H     1 <1>   0.1500 
 49 H      -15.3690     4.7840    -0.9980 H     1 <1>   0.1500 
@<TRIPOS>BOND
  1   1   2  1   
  2   1   3  1   
  3   2   4  ar  
  4   2   5  ar  
  5   3  25  1   
  6   3  26  1   
  7   3  27  1   
  8   4   6  ar  
  9   4   7  1   
 10   5   8  ar  
 11   5   9  1   
 12   6  10  ar  
 13   6  28  1   
 14   7  11  1   
 15   7  29  1   
 16   7  30  1   
 17   8  10  ar  
 18   8  12  1   
 19   9  31  1   
 20   9  32  1   
 21   9  33  1   
 22  10  34  1   
 23  11  13  1   
 24  11  14  1   
 25  11  35  1   
 26  12  15  1   
 27  13  16  1   
 28  13  36  1   
 29  13  37  1   
 30  14  17  1   
 31  14  38  1   
 32  14  39  1   
 33  15  40  1   
 34  15  41  1   
 35  15  42  1   
 36  16  18  1   
 37  16  43  1   
 38  16  44  1   
 39  17  18  1   
 40  17  45  1   
 41  17  46  1   
 42  18  19  1   
 43  19  20  ar  
 44  19  21  ar  
 45  20  22  ar  
 46  21  23  ar  
 47  22  24  ar  
 48  22  47  1   
 49  23  24  ar  
 50  23  48  1   
 51  24  49  1   
@<TRIPOS>SUBSTRUCTURE
  1 ****  14 GROUP 4 **** **** 0

# MOE 2024.06 (io_trps.svl 2023.06)
