@<TRIPOS>MOLECULE
NONAME
36 38 1 0 0 
SMALL
USER_CHARGES


@<TRIPOS>ATOM
  1 BR      -0.5670     0.1210     0.6900 Br    1 <1>  -0.0580 
  2 C        0.9610     1.2160     0.2790 C.2   1 <1>   0.1980 
  3 O        2.0280     1.0320     1.0390 O.3   1 <1>  -0.2800 
  4 C        1.1190     2.1550    -0.6740 C.2   1 <1>  -0.1810 
  5 C        2.9480     1.8790     0.5710 C.ar  1 <1>   0.1400 
  6 C        2.4470     2.6060    -0.5020 C.ar  1 <1>   0.0000 
  7 C        0.1640     2.6930    -1.7350 C.3   1 <1>   0.0820 
  8 C        4.2400     2.0600     1.0430 C.ar  1 <1>  -0.1500 
  9 C        3.2710     3.5440    -1.1270 C.ar  1 <1>  -0.1500 
 10 C       -1.3070     2.6520    -1.3390 C.2   1 <1>   0.5690 
 11 C        5.0490     2.9920     0.4210 C.ar  1 <1>  -0.1440 
 12 C        4.5580     3.7280    -0.6610 C.ar  1 <1>  -0.1500 
 13 O       -2.0500     2.0210    -2.0530 O.2   1 <1>  -0.5700 
 14 N       -1.7720     3.3190    -0.2310 N.am  1 <1>  -0.6600 
 15 C        6.4710     3.2280     0.8970 C.3   1 <1>  -0.0970 
 16 C       -3.1930     3.1880     0.2110 C.3   1 <1>   0.1400 
 17 C       -0.9480     4.1490     0.7030 C.3   1 <1>   0.1400 
 18 C       -3.7810     4.5590     0.5800 C.3   1 <1>   0.1200 
 19 C       -1.6680     5.4630     1.0500 C.3   1 <1>   0.1200 
 20 O       -2.9650     5.2140     1.5100 O.3   1 <1>  -0.5600 
 21 H        0.2980     2.1220    -2.6360 H     1 <1>   0.0800 
 22 H        0.4110     3.7120    -1.9610 H     1 <1>   0.0800 
 23 H        4.5790     1.4730     1.8760 H     1 <1>   0.1500 
 24 H        2.9020     4.1110    -1.9620 H     1 <1>   0.1500 
 25 H        5.1980     4.4490    -1.1390 H     1 <1>   0.1500 
 26 H        6.7070     2.5950     1.7340 H     1 <1>   0.0800 
 27 H        6.5920     4.2530     1.2000 H     1 <1>   0.0800 
 28 H        7.1640     3.0160     0.1020 H     1 <1>   0.0800 
 29 H       -3.2370     2.5420     1.0700 H     1 <1>   0.0800 
 30 H       -3.7930     2.7450    -0.5650 H     1 <1>   0.0800 
 31 H        0.0070     4.3860     0.2720 H     1 <1>   0.0800 
 32 H       -0.7750     3.5930     1.6080 H     1 <1>   0.0800 
 33 H       -4.7540     4.4380     1.0230 H     1 <1>   0.0800 
 34 H       -3.8740     5.1780    -0.2960 H     1 <1>   0.0800 
 35 H       -1.7270     6.1030     0.1870 H     1 <1>   0.0800 
 36 H       -1.1390     5.9810     1.8300 H     1 <1>   0.0800 
@<TRIPOS>BOND
  1   1   2  1   
  2   2   3  1   
  3   2   4  2   
  4   3   5  1   
  5   4   6  1   
  6   4   7  1   
  7   5   6  ar  
  8   5   8  ar  
  9   6   9  ar  
 10   7  10  1   
 11   7  21  1   
 12   7  22  1   
 13   8  11  ar  
 14   8  23  1   
 15   9  12  ar  
 16   9  24  1   
 17  10  13  2   
 18  10  14  am  
 19  11  12  ar  
 20  11  15  1   
 21  12  25  1   
 22  14  16  1   
 23  14  17  1   
 24  15  26  1   
 25  15  27  1   
 26  15  28  1   
 27  16  18  1   
 28  16  29  1   
 29  16  30  1   
 30  17  19  1   
 31  17  31  1   
 32  17  32  1   
 33  18  20  1   
 34  18  33  1   
 35  18  34  1   
 36  19  20  1   
 37  19  35  1   
 38  19  36  1   
@<TRIPOS>SUBSTRUCTURE
  1 ****   4 GROUP 4 **** **** 0

# MOE 2024.06 (io_trps.svl 2023.06)
