@<TRIPOS>MOLECULE
NONAME
44 46 1 0 0 
SMALL
USER_CHARGES


@<TRIPOS>ATOM
  1 S       -0.8050     0.8970    -1.4910 S.o2  1 <1>   1.4470 
  2 O       -1.3400     1.8810    -2.4060 O.2   1 <1>  -0.6500 
  3 O       -0.6910    -0.4790    -1.9200 O.2   1 <1>  -0.6500 
  4 N       -1.7950     0.9240    -0.1100 N.am  1 <1>  -0.8490 
  5 C        0.7890     1.4810    -0.8510 C.ar  1 <1>  -0.0090 
  6 C       -1.4980    -0.1330     0.8820 C.3   1 <1>   0.1960 
  7 C       -3.2380     0.9530    -0.4170 C.3   1 <1>   0.1960 
  8 C        0.8920     2.6490    -0.1370 C.ar  1 <1>  -0.1500 
  9 C        1.9630     0.7400    -1.0720 C.ar  1 <1>  -0.1500 
 10 C       -2.1370    -1.5080     0.5670 C.3   1 <1>   0.1960 
 11 C       -3.8010    -0.4330    -0.7920 C.3   1 <1>   0.1960 
 12 C        2.1160     3.1150     0.3820 C.ar  1 <1>   0.0000 
 13 C        3.1690     1.1620    -0.5850 C.ar  1 <1>  -0.1500 
 14 N       -3.5820    -1.3990     0.2990 N.am  1 <1>  -0.8490 
 15 C        3.2810     2.3540     0.1550 C.ar  1 <1>   0.0000 
 16 C        2.2200     4.3100     1.1200 C.ar  1 <1>  -0.1500 
 17 S       -4.2830    -2.9120    -0.0080 S.o2  1 <1>   1.3330 
 18 C        4.5060     2.8160     0.6760 C.ar  1 <1>  -0.1500 
 19 C        3.4220     4.7360     1.6160 C.ar  1 <1>  -0.1500 
 20 O       -4.3340    -3.0960    -1.4400 O.2   1 <1>  -0.6500 
 21 O       -3.6150    -3.8850     0.8270 O.2   1 <1>  -0.6500 
 22 C       -5.9560    -2.6980     0.6200 C.3   1 <1>  -0.0550 
 23 C        4.5780     3.9800     1.3910 C.ar  1 <1>  -0.1500 
 24 C       -6.8510    -3.9420     0.4850 C.3   1 <1>  -0.2400 
 25 H       -1.8740     0.1880     1.8380 H     1 <1>   0.0800 
 26 H       -0.4330    -0.2520     0.9860 H     1 <1>   0.0800 
 27 H       -3.4380     1.6520    -1.2120 H     1 <1>   0.0800 
 28 H       -3.7670     1.3060     0.4510 H     1 <1>   0.0800 
 29 H        0.0110     3.2400     0.0410 H     1 <1>   0.1500 
 30 H        1.8970    -0.1750    -1.6380 H     1 <1>   0.1500 
 31 H       -1.9790    -2.1480     1.4180 H     1 <1>   0.0800 
 32 H       -1.6440    -1.9700    -0.2720 H     1 <1>   0.0800 
 33 H       -3.3340    -0.7790    -1.7000 H     1 <1>   0.0800 
 34 H       -4.8560    -0.3380    -0.9830 H     1 <1>   0.0800 
 35 H        4.0600     0.5850    -0.7620 H     1 <1>   0.1500 
 36 H        1.3300     4.8890     1.2890 H     1 <1>   0.1500 
 37 H        5.3920     2.2330     0.5000 H     1 <1>   0.1500 
 38 H        3.4960     5.6500     2.1790 H     1 <1>   0.1500 
 39 H       -6.4220    -1.8850     0.0980 H     1 <1>   0.0800 
 40 H       -5.9010    -2.4280     1.6570 H     1 <1>   0.0800 
 41 H        5.5150     4.3280     1.7880 H     1 <1>   0.1500 
 42 H       -6.9420    -4.2220    -0.5510 H     1 <1>   0.0800 
 43 H       -7.8320    -3.7420     0.8790 H     1 <1>   0.0800 
 44 H       -6.4210    -4.7680     1.0260 H     1 <1>   0.0800 
@<TRIPOS>BOND
  1   1   2  2   
  2   1   3  2   
  3   1   4  am  
  4   1   5  1   
  5   4   6  1   
  6   4   7  1   
  7   5   8  ar  
  8   5   9  ar  
  9   6  10  1   
 10   6  25  1   
 11   6  26  1   
 12   7  11  1   
 13   7  27  1   
 14   7  28  1   
 15   8  12  ar  
 16   8  29  1   
 17   9  13  ar  
 18   9  30  1   
 19  10  14  1   
 20  10  31  1   
 21  10  32  1   
 22  11  14  1   
 23  11  33  1   
 24  11  34  1   
 25  12  15  ar  
 26  12  16  ar  
 27  13  15  ar  
 28  13  35  1   
 29  14  17  am  
 30  15  18  ar  
 31  16  19  ar  
 32  16  36  1   
 33  17  20  2   
 34  17  21  2   
 35  17  22  1   
 36  18  23  ar  
 37  18  37  1   
 38  19  23  ar  
 39  19  38  1   
 40  22  24  1   
 41  22  39  1   
 42  22  40  1   
 43  23  41  1   
 44  24  42  1   
 45  24  43  1   
 46  24  44  1   
@<TRIPOS>SUBSTRUCTURE
  1 ****   4 GROUP 4 **** **** 0

# MOE 2024.06 (io_trps.svl 2023.06)
