@<TRIPOS>MOLECULE
NONAME
33 35 1 0 0 
SMALL
USER_CHARGES


@<TRIPOS>ATOM
  1 O       -0.4870    -0.9530     2.0110 O.2   1 <1>  -0.5700 
  2 C       -0.8700    -1.3450     0.9250 C.2   1 <1>   0.7060 
  3 O        0.0190    -1.8970     0.0920 O.3   1 <1>  -0.4300 
  4 C       -2.2300    -1.2340     0.5110 C.2   1 <1>  -0.1240 
  5 C        1.3900    -1.9830     0.4260 C.3   1 <1>   0.0400 
  6 C       -2.9620    -2.1120    -0.2400 C.2   1 <1>  -0.0380 
  7 C       -2.8700     0.0750     1.0110 C.3   1 <1>   0.4940 
  8 N       -4.2900    -1.8720    -0.5130 N.pl3 1 <1>  -0.5840 
  9 C       -2.4570    -3.4270    -0.8140 C.3   1 <1>  -0.1020 
 10 N       -4.3430     0.0370     0.8700 N.pl3 1 <1>   0.3140 
 11 C       -2.3250     1.2620     0.2120 C.2   1 <1>  -0.0400 
 12 C       -4.9730    -0.8440     0.1190 C.2   1 <1>   0.2700 
 13 N       -5.2500     0.8640     1.3680 N.2   1 <1>  -0.4180 
 14 O       -1.0490     1.5780     0.3330 O.3   1 <1>  -0.2800 
 15 C       -2.9280     2.1110    -0.6530 C.2   1 <1>  -0.1500 
 16 N       -6.2300    -0.6010     0.1130 N.2   1 <1>  -0.3380 
 17 N       -6.3800     0.4660     0.9000 N.2   1 <1>   0.0000 
 18 C       -0.8080     2.6150    -0.4390 C.2   1 <1>  -0.0400 
 19 C       -1.9320     2.9970    -1.0800 C.2   1 <1>  -0.1500 
 20 C        0.5960     3.1750    -0.4800 C.3   1 <1>  -0.0600 
 21 H        1.9120    -2.4480    -0.3910 H     1 <1>   0.0800 
 22 H        1.4970    -2.5740     1.3190 H     1 <1>   0.0800 
 23 H        1.7700    -0.9890     0.5900 H     1 <1>   0.0800 
 24 H       -2.6560     0.2250     2.0530 H     1 <1>   0.0800 
 25 H       -4.8570    -2.5160    -1.0770 H     1 <1>   0.4000 
 26 H       -3.1820    -4.2040    -0.6520 H     1 <1>   0.0800 
 27 H       -1.5410    -3.7450    -0.3530 H     1 <1>   0.0800 
 28 H       -2.2920    -3.3230    -1.8710 H     1 <1>   0.0800 
 29 H       -3.9560     2.1410    -0.9760 H     1 <1>   0.1500 
 30 H       -2.0720     3.8050    -1.7760 H     1 <1>   0.1500 
 31 H        1.2780     2.4180    -0.8210 H     1 <1>   0.0800 
 32 H        0.8880     3.4910     0.5050 H     1 <1>   0.0800 
 33 H        0.6420     4.0160    -1.1470 H     1 <1>   0.0800 
@<TRIPOS>BOND
  1   1   2  2   
  2   2   3  1   
  3   2   4  1   
  4   3   5  1   
  5   4   6  2   
  6   4   7  1   
  7   5  21  1   
  8   5  22  1   
  9   5  23  1   
 10   6   8  1   
 11   6   9  1   
 12   7  10  1   
 13   7  11  1   
 14   7  24  1   
 15   8  12  1   
 16   8  25  1   
 17   9  26  1   
 18   9  27  1   
 19   9  28  1   
 20  10  12  1   
 21  10  13  1   
 22  11  14  1   
 23  11  15  2   
 24  12  16  2   
 25  13  17  2   
 26  14  18  1   
 27  15  19  1   
 28  15  29  1   
 29  16  17  1   
 30  18  19  2   
 31  18  20  1   
 32  19  30  1   
 33  20  31  1   
 34  20  32  1   
 35  20  33  1   
@<TRIPOS>SUBSTRUCTURE
  1 ****   7 GROUP 4 **** **** 0

# MOE 2024.06 (io_trps.svl 2023.06)
