@<TRIPOS>MOLECULE
NONAME
44 44 1 0 0 
SMALL
USER_CHARGES


@<TRIPOS>ATOM
  1 O        8.3800    -0.9460    -0.4080 O.2   1 <1>  -0.5700 
  2 C        7.7760    -1.9750    -0.2230 C.2   1 <1>   0.5690 
  3 N        8.3740    -3.1990    -0.2020 N.am  1 <1>  -0.7300 
  4 C        6.2710    -1.8860    -0.0030 C.3   1 <1>   0.1810 
  5 C        9.7830    -3.5540    -0.3830 C.3   1 <1>   0.3000 
  6 O        5.6890    -3.1720     0.1850 O.3   1 <1>  -0.3620 
  7 C       10.2470    -3.1250    -1.7750 C.3   1 <1>  -0.2400 
  8 C       10.6230    -2.8980     0.7120 C.3   1 <1>  -0.2400 
  9 C        9.8690    -5.0740    -0.2570 C.3   1 <1>  -0.2400 
 10 C        4.3570    -3.3220     0.3820 C.ar  1 <1>   0.0820 
 11 C        3.8990    -4.6150     0.5700 C.ar  1 <1>  -0.1500 
 12 C        3.4510    -2.2660     0.4060 C.ar  1 <1>  -0.1500 
 13 C        2.5540    -4.8630     0.7710 C.ar  1 <1>  -0.1500 
 14 C        2.1050    -2.5130     0.6070 C.ar  1 <1>  -0.1500 
 15 C        1.6480    -3.8120     0.7850 C.ar  1 <1>  -0.1440 
 16 C        0.1750    -4.0830     0.9780 C.3   1 <1>   0.4860 
 17 N       -0.3810    -4.3250    -0.3680 N.4   1 <1>  -0.9060 
 18 C       -1.8320    -4.5940    -0.3750 C.3   1 <1>   0.3430 
 19 C       -2.2630    -4.8240    -1.8150 C.3   1 <1>  -0.2400 
 20 H        7.7620    -3.9990    -0.0370 H     1 <1>   0.3700 
 21 H        5.8200    -1.4290    -0.8640 H     1 <1>   0.0800 
 22 H        6.0790    -1.2930     0.8720 H     1 <1>   0.0800 
 23 H       10.2190    -2.0550    -1.8700 H     1 <1>   0.0800 
 24 H        9.6190    -3.5590    -2.5320 H     1 <1>   0.0800 
 25 H       11.2580    -3.4460    -1.9440 H     1 <1>   0.0800 
 26 H       10.2570    -3.1750     1.6840 H     1 <1>   0.0800 
 27 H       10.5960    -1.8280     0.6200 H     1 <1>   0.0800 
 28 H       11.6480    -3.2110     0.6300 H     1 <1>   0.0800 
 29 H        9.5320    -5.3930     0.7130 H     1 <1>   0.0800 
 30 H       10.8870    -5.3970    -0.3810 H     1 <1>   0.0800 
 31 H        9.2720    -5.5500    -1.0150 H     1 <1>   0.0800 
 32 H        4.6070    -5.4250     0.5580 H     1 <1>   0.1500 
 33 H        3.7750    -1.2500     0.2720 H     1 <1>   0.1500 
 34 H        2.2340    -5.8810     0.9190 H     1 <1>   0.1500 
 35 H        1.4240    -1.6770     0.6250 H     1 <1>   0.1500 
 36 H       -0.3010    -3.2320     1.4390 H     1 <1>   0.0800 
 37 H        0.0360    -4.9470     1.6090 H     1 <1>   0.0800 
 38 H        0.1320    -5.1100    -0.7870 H     1 <1>   0.4500 
 39 H       -0.1620    -3.5100    -0.9530 H     1 <1>   0.4500 
 40 H       -2.3710    -3.7540     0.0370 H     1 <1>   0.0800 
 41 H       -2.0540    -5.4700     0.2160 H     1 <1>   0.0800 
 42 H       -2.0760    -3.9520    -2.4180 H     1 <1>   0.0800 
 43 H       -3.3200    -5.0220    -1.8420 H     1 <1>   0.0800 
 44 H       -1.7570    -5.6730    -2.2390 H     1 <1>   0.0800 
@<TRIPOS>BOND
  1   1   2  2   
  2   2   3  am  
  3   2   4  1   
  4   3   5  1   
  5   3  20  1   
  6   4   6  1   
  7   4  21  1   
  8   4  22  1   
  9   5   7  1   
 10   5   8  1   
 11   5   9  1   
 12   6  10  1   
 13   7  23  1   
 14   7  24  1   
 15   7  25  1   
 16   8  26  1   
 17   8  27  1   
 18   8  28  1   
 19   9  29  1   
 20   9  30  1   
 21   9  31  1   
 22  10  11  ar  
 23  10  12  ar  
 24  11  13  ar  
 25  11  32  1   
 26  12  14  ar  
 27  12  33  1   
 28  13  15  ar  
 29  13  34  1   
 30  14  15  ar  
 31  14  35  1   
 32  15  16  1   
 33  16  17  1   
 34  16  36  1   
 35  16  37  1   
 36  17  18  1   
 37  17  38  1   
 38  17  39  1   
 39  18  19  1   
 40  18  40  1   
 41  18  41  1   
 42  19  42  1   
 43  19  43  1   
 44  19  44  1   
@<TRIPOS>SUBSTRUCTURE
  1 ****  10 GROUP 4 **** **** 0

# MOE 2024.06 (io_trps.svl 2023.06)
