@<TRIPOS>MOLECULE
NONAME
47 48 1 0 0 
SMALL
USER_CHARGES


@<TRIPOS>ATOM
  1 BR       1.2120    -0.5710    -2.7170 Br    1 <1>  -0.1110 
  2 C        0.3130    -1.9290    -1.6790 C.ar  1 <1>   0.1110 
  3 C        0.9610    -2.5180    -0.6020 C.ar  1 <1>   0.0820 
  4 C       -0.9700    -2.2730    -2.0540 C.ar  1 <1>  -0.1500 
  5 O        2.2250    -2.1120    -0.3120 O.3   1 <1>  -0.3630 
  6 C        0.2770    -3.4900     0.1220 C.ar  1 <1>  -0.1500 
  7 C       -1.6460    -3.2410    -1.3270 C.ar  1 <1>  -0.1430 
  8 C        2.9920    -2.7160     0.7060 C.3   1 <1>   0.0400 
  9 C       -1.0220    -3.8500    -0.2370 C.ar  1 <1>   0.0830 
 10 C       -3.0560    -3.6360    -1.7230 C.3   1 <1>   0.4870 
 11 O       -1.7420    -4.7850     0.4440 O.3   1 <1>  -0.3630 
 12 N       -3.9660    -3.3400    -0.5890 N.4   1 <1>  -0.9590 
 13 C       -1.1220    -5.6420     1.3850 C.3   1 <1>   0.0400 
 14 C       -5.3220    -3.9660    -0.7710 C.3   1 <1>   0.3430 
 15 C       -4.0420    -1.8630    -0.2930 C.3   1 <1>   0.3430 
 16 C       -6.2630    -3.6670     0.4130 C.3   1 <1>   0.1400 
 17 C       -4.9740    -1.5610     0.8930 C.3   1 <1>   0.1400 
 18 N       -6.3070    -2.1990     0.6800 N.am  1 <1>  -0.6600 
 19 C       -7.4510    -1.4500     0.5850 C.2   1 <1>   0.7800 
 20 O       -7.4360    -0.2380     0.6610 O.2   1 <1>  -0.5700 
 21 O       -8.5970    -2.0940     0.3730 O.3   1 <1>  -0.4300 
 22 C       -9.8140    -1.3890     0.2770 C.3   1 <1>   0.1200 
 23 C      -10.9300    -2.4010     0.0330 C.3   1 <1>  -0.2400 
 24 H       -1.4120    -1.7830    -2.9040 H     1 <1>   0.1500 
 25 H        0.7560    -3.9540     0.9610 H     1 <1>   0.1500 
 26 H        3.9600    -2.2480     0.7150 H     1 <1>   0.0800 
 27 H        3.0990    -3.7650     0.4900 H     1 <1>   0.0800 
 28 H        2.5050    -2.5610     1.6520 H     1 <1>   0.0800 
 29 H       -3.0720    -4.6910    -1.9430 H     1 <1>   0.0800 
 30 H       -3.3640    -3.0950    -2.6040 H     1 <1>   0.0800 
 31 H       -3.5010    -3.7910     0.2170 H     1 <1>   0.4500 
 32 H       -0.7900    -5.0610     2.2280 H     1 <1>   0.0800 
 33 H       -0.2920    -6.1420     0.9150 H     1 <1>   0.0800 
 34 H       -1.8440    -6.3690     1.7100 H     1 <1>   0.0800 
 35 H       -5.2220    -5.0340    -0.8780 H     1 <1>   0.0800 
 36 H       -5.7790    -3.5840    -1.6690 H     1 <1>   0.0800 
 37 H       -4.4130    -1.3370    -1.1580 H     1 <1>   0.0800 
 38 H       -3.0580    -1.4810    -0.0720 H     1 <1>   0.0800 
 39 H       -5.9150    -4.1760     1.2940 H     1 <1>   0.0800 
 40 H       -7.2440    -4.0460     0.1860 H     1 <1>   0.0800 
 41 H       -5.0750    -0.4940     1.0000 H     1 <1>   0.0800 
 42 H       -4.5410    -1.9370     1.8040 H     1 <1>   0.0800 
 43 H       -9.7430    -0.6890    -0.5390 H     1 <1>   0.0800 
 44 H       -9.9730    -0.8540     1.1990 H     1 <1>   0.0800 
 45 H      -10.7560    -2.9330    -0.8850 H     1 <1>   0.0800 
 46 H      -11.8710    -1.8880    -0.0430 H     1 <1>   0.0800 
 47 H      -10.9860    -3.0970     0.8510 H     1 <1>   0.0800 
@<TRIPOS>BOND
  1   1   2  1   
  2   2   3  ar  
  3   2   4  ar  
  4   3   5  1   
  5   3   6  ar  
  6   4   7  ar  
  7   4  24  1   
  8   5   8  1   
  9   6   9  ar  
 10   6  25  1   
 11   7   9  ar  
 12   7  10  1   
 13   8  26  1   
 14   8  27  1   
 15   8  28  1   
 16   9  11  1   
 17  10  12  1   
 18  10  29  1   
 19  10  30  1   
 20  11  13  1   
 21  12  14  1   
 22  12  15  1   
 23  12  31  1   
 24  13  32  1   
 25  13  33  1   
 26  13  34  1   
 27  14  16  1   
 28  14  35  1   
 29  14  36  1   
 30  15  17  1   
 31  15  37  1   
 32  15  38  1   
 33  16  18  1   
 34  16  39  1   
 35  16  40  1   
 36  17  18  1   
 37  17  41  1   
 38  17  42  1   
 39  18  19  am  
 40  19  20  2   
 41  19  21  1   
 42  21  22  1   
 43  22  23  1   
 44  22  43  1   
 45  22  44  1   
 46  23  45  1   
 47  23  46  1   
 48  23  47  1   
@<TRIPOS>SUBSTRUCTURE
  1 ****  12 GROUP 4 **** **** 0

# MOE 2024.06 (io_trps.svl 2023.06)
