@<TRIPOS>MOLECULE
NONAME
48 50 1 0 0 
SMALL
USER_CHARGES


@<TRIPOS>ATOM
  1 O       -0.5480    -0.4660    -0.1420 O.2   1 <1>  -0.5700 
  2 C       -0.6500     0.5730    -0.7510 C.2   1 <1>   0.5690 
  3 N       -1.8150     1.2480    -1.0070 N.am  1 <1>  -0.2370 
  4 C        0.5450     1.3010    -1.3790 C.3   1 <1>   0.2510 
  5 C       -3.0760     0.9330    -0.4520 C.ar  1 <1>   0.1170 
  6 C       -1.5600     2.2990    -1.8500 C.2   1 <1>   0.5690 
  7 N        1.4900     1.9460    -0.4080 N.3   1 <1>  -0.8100 
  8 C       -0.1190     2.3380    -2.2890 C.3   1 <1>  -0.0990 
  9 C       -3.8440     1.9110     0.1690 C.ar  1 <1>  -0.1500 
 10 C       -3.5760    -0.3640    -0.5100 C.ar  1 <1>  -0.1500 
 11 O       -2.3540     3.1170    -2.2340 O.2   1 <1>  -0.5700 
 12 C        2.3450     1.0160     0.3760 C.3   1 <1>   0.1900 
 13 C        0.8150     2.9230     0.4970 C.3   1 <1>   0.1100 
 14 C       -5.0760     1.6110     0.7240 C.ar  1 <1>   0.0830 
 15 C       -4.8080    -0.6750     0.0390 C.ar  1 <1>  -0.1500 
 16 C        3.5260     1.8250     0.9650 C.3   1 <1>  -0.1600 
 17 C        2.8720    -0.1900    -0.4320 C.3   1 <1>  -0.1600 
 18 C        1.6970     3.3890     1.6660 C.3   1 <1>  -0.1600 
 19 O       -5.7450     2.6350     1.3120 O.3   1 <1>  -0.3630 
 20 C       -5.5610     0.3080     0.6560 C.ar  1 <1>  -0.1500 
 21 C        3.1820     3.2790     1.3250 C.3   1 <1>  -0.1600 
 22 C        3.8140    -1.0820     0.3810 C.3   1 <1>   0.1200 
 23 C       -7.0320     2.4510     1.8580 C.3   1 <1>   0.0400 
 24 O        4.1270    -2.1920    -0.3790 O.3   1 <1>  -0.6800 
 25 H        1.0800     0.6210    -2.0150 H     1 <1>   0.0800 
 26 H       -0.0680     2.0220    -3.3140 H     1 <1>   0.0800 
 27 H        0.3030     3.3210    -2.2000 H     1 <1>   0.0800 
 28 H       -3.4890     2.9240     0.2220 H     1 <1>   0.1500 
 29 H       -2.9980    -1.1390    -0.9820 H     1 <1>   0.1500 
 30 H        1.7530     0.6280     1.1910 H     1 <1>   0.0800 
 31 H       -0.0850     2.5000     0.9110 H     1 <1>   0.0800 
 32 H        0.5400     3.7930    -0.0740 H     1 <1>   0.0800 
 33 H       -5.1800    -1.6830    -0.0140 H     1 <1>   0.1500 
 34 H        4.3440     1.8380     0.2670 H     1 <1>   0.0800 
 35 H        3.8690     1.3230     1.8520 H     1 <1>   0.0800 
 36 H        3.3940     0.1660    -1.3020 H     1 <1>   0.0800 
 37 H        2.0440    -0.8050    -0.7290 H     1 <1>   0.0800 
 38 H        1.4850     2.7830     2.5300 H     1 <1>   0.0800 
 39 H        1.4470     4.4040     1.9180 H     1 <1>   0.0800 
 40 H       -6.5120     0.0430     1.0760 H     1 <1>   0.1500 
 41 H        3.3860     3.9080     0.4750 H     1 <1>   0.0800 
 42 H        3.7900     3.6160     2.1460 H     1 <1>   0.0800 
 43 H        3.3470    -1.4170     1.2920 H     1 <1>   0.0800 
 44 H        4.7360    -0.5760     0.6140 H     1 <1>   0.0800 
 45 H       -7.3680     3.3960     2.2440 H     1 <1>   0.0800 
 46 H       -6.9740     1.7300     2.6540 H     1 <1>   0.0800 
 47 H       -7.6970     2.1170     1.0810 H     1 <1>   0.0800 
 48 H        3.3200    -2.7050    -0.5800 H     1 <1>   0.4000 
@<TRIPOS>BOND
  1   1   2  2   
  2   2   3  am  
  3   2   4  1   
  4   3   5  1   
  5   3   6  am  
  6   4   7  1   
  7   4   8  1   
  8   4  25  1   
  9   5   9  ar  
 10   5  10  ar  
 11   6   8  1   
 12   6  11  2   
 13   7  12  1   
 14   7  13  1   
 15   8  26  1   
 16   8  27  1   
 17   9  14  ar  
 18   9  28  1   
 19  10  15  ar  
 20  10  29  1   
 21  12  16  1   
 22  12  17  1   
 23  12  30  1   
 24  13  18  1   
 25  13  31  1   
 26  13  32  1   
 27  14  19  1   
 28  14  20  ar  
 29  15  20  ar  
 30  15  33  1   
 31  16  21  1   
 32  16  34  1   
 33  16  35  1   
 34  17  22  1   
 35  17  36  1   
 36  17  37  1   
 37  18  21  1   
 38  18  38  1   
 39  18  39  1   
 40  19  23  1   
 41  20  40  1   
 42  21  41  1   
 43  21  42  1   
 44  22  24  1   
 45  22  43  1   
 46  22  44  1   
 47  23  45  1   
 48  23  46  1   
 49  23  47  1   
 50  24  48  1   
@<TRIPOS>SUBSTRUCTURE
  1 ****   2 GROUP 4 **** **** 0

# MOE 2024.06 (io_trps.svl 2023.06)
