@<TRIPOS>MOLECULE
NONAME
51 53 1 0 0 
SMALL
USER_CHARGES


@<TRIPOS>ATOM
  1 O       -0.3900     0.0320    -0.2760 O.2   1 <1>  -0.5700 
  2 C       -0.8950     1.1300    -0.1410 C.2   1 <1>   0.6900 
  3 N       -2.2400     1.2990    -0.3580 N.am  1 <1>  -0.6600 
  4 N       -0.1490     2.2030     0.2560 N.am  1 <1>  -0.5470 
  5 C       -3.1450     0.1240    -0.5490 C.3   1 <1>   0.1400 
  6 C       -2.9170     2.6070    -0.6090 C.3   1 <1>   0.1400 
  7 C        1.2350     2.3650     0.4070 C.ar  1 <1>   0.1170 
  8 C       -4.3950     0.2560     0.3310 C.3   1 <1>   0.1400 
  9 C       -4.1830     2.7570     0.2530 C.3   1 <1>   0.1400 
 10 C        2.1650     1.5950    -0.2840 C.ar  1 <1>  -0.1500 
 11 C        1.7070     3.3510     1.2650 C.ar  1 <1>  -0.1500 
 12 N       -5.0800     1.5700     0.1110 N.am  1 <1>  -0.6600 
 13 C        3.5220     1.8020    -0.1180 C.ar  1 <1>  -0.1500 
 14 C        3.0640     3.5610     1.4320 C.ar  1 <1>  -0.1500 
 15 C       -6.3920     1.6390    -0.3240 C.2   1 <1>   0.7150 
 16 C        3.9820     2.7860     0.7420 C.ar  1 <1>  -0.1440 
 17 O       -6.8620     0.6540    -0.8680 O.2   1 <1>  -0.5700 
 18 C       -7.2260     2.8160    -0.1750 C.2   1 <1>   0.0550 
 19 C        5.4740     3.0120     0.9240 C.3   1 <1>  -0.0170 
 20 O       -6.9570     3.7870     0.6980 O.3   1 <1>  -0.2800 
 21 C       -8.3820     3.1400    -0.8220 C.2   1 <1>  -0.1500 
 22 C        5.9900     4.0380    -0.0900 C.3   1 <1>  -0.1600 
 23 C       -7.8940     4.7040     0.6210 C.2   1 <1>  -0.0100 
 24 C       -8.8110     4.3640    -0.3080 C.2   1 <1>  -0.1500 
 25 C        7.4960     4.2830     0.0720 C.3   1 <1>  -0.1600 
 26 C        7.9990     5.3090    -0.9470 C.3   1 <1>  -0.2400 
 27 H       -0.7130     2.9640     0.6080 H     1 <1>   0.3700 
 28 H       -2.6370    -0.7920    -0.2970 H     1 <1>   0.0800 
 29 H       -3.4390     0.0640    -1.5820 H     1 <1>   0.0800 
 30 H       -3.1980     2.6530    -1.6470 H     1 <1>   0.0800 
 31 H       -2.2550     3.4320    -0.4190 H     1 <1>   0.0800 
 32 H       -4.1040     0.1810     1.3640 H     1 <1>   0.0800 
 33 H       -5.0610    -0.5630     0.1230 H     1 <1>   0.0800 
 34 H       -4.6870     3.6550    -0.0540 H     1 <1>   0.0800 
 35 H       -3.9050     2.8670     1.2870 H     1 <1>   0.0800 
 36 H        1.8300     0.8290    -0.9590 H     1 <1>   0.1500 
 37 H        1.0110     3.9600     1.8110 H     1 <1>   0.1500 
 38 H        4.2200     1.1920    -0.6640 H     1 <1>   0.1500 
 39 H        3.4060     4.3300     2.1020 H     1 <1>   0.1500 
 40 H        5.9960     2.0790     0.7970 H     1 <1>   0.0800 
 41 H        5.6650     3.3590     1.9250 H     1 <1>   0.0800 
 42 H       -8.8820     2.5650    -1.5820 H     1 <1>   0.1500 
 43 H        5.4570     4.9640     0.0430 H     1 <1>   0.0800 
 44 H        5.7880     3.6810    -1.0860 H     1 <1>   0.0800 
 45 H       -7.8380     5.5680     1.2610 H     1 <1>   0.1500 
 46 H       -9.6950     4.8970    -0.6090 H     1 <1>   0.1500 
 47 H        8.0300     3.3580    -0.0650 H     1 <1>   0.0800 
 48 H        7.7000     4.6440     1.0660 H     1 <1>   0.0800 
 49 H        7.8240     4.9600    -1.9500 H     1 <1>   0.0800 
 50 H        9.0550     5.4680    -0.8200 H     1 <1>   0.0800 
 51 H        7.4930     6.2500    -0.8150 H     1 <1>   0.0800 
@<TRIPOS>BOND
  1   1   2  2   
  2   2   3  am  
  3   2   4  am  
  4   3   5  1   
  5   3   6  1   
  6   4   7  1   
  7   4  27  1   
  8   5   8  1   
  9   5  28  1   
 10   5  29  1   
 11   6   9  1   
 12   6  30  1   
 13   6  31  1   
 14   7  10  ar  
 15   7  11  ar  
 16   8  12  1   
 17   8  32  1   
 18   8  33  1   
 19   9  12  1   
 20   9  34  1   
 21   9  35  1   
 22  10  13  ar  
 23  10  36  1   
 24  11  14  ar  
 25  11  37  1   
 26  12  15  am  
 27  13  16  ar  
 28  13  38  1   
 29  14  16  ar  
 30  14  39  1   
 31  15  17  2   
 32  15  18  1   
 33  16  19  1   
 34  18  20  1   
 35  18  21  2   
 36  19  22  1   
 37  19  40  1   
 38  19  41  1   
 39  20  23  1   
 40  21  24  1   
 41  21  42  1   
 42  22  25  1   
 43  22  43  1   
 44  22  44  1   
 45  23  24  2   
 46  23  45  1   
 47  24  46  1   
 48  25  26  1   
 49  25  47  1   
 50  25  48  1   
 51  26  49  1   
 52  26  50  1   
 53  26  51  1   
@<TRIPOS>SUBSTRUCTURE
  1 ****   4 GROUP 4 **** **** 0

# MOE 2024.06 (io_trps.svl 2023.06)
