@<TRIPOS>MOLECULE
NONAME
51 52 1 0 0 
SMALL
USER_CHARGES


@<TRIPOS>ATOM
  1 O        0.1970     0.3820    -1.6920 O.2   1 <1>  -0.5700 
  2 C        0.4040    -0.5090    -0.9040 C.2   1 <1>   0.5690 
  3 N       -0.6140    -1.0870    -0.2110 N.am  1 <1>  -0.7300 
  4 C        1.8330    -0.9860    -0.6750 C.3   1 <1>   0.1810 
  5 C       -2.0270    -0.7240    -0.3440 C.3   1 <1>   0.2200 
  6 O        1.8690    -2.0280     0.2900 O.3   1 <1>  -0.3630 
  7 C       -2.4070     0.2250     0.7880 C.3   1 <1>  -0.1600 
  8 C       -2.8830    -1.9870    -0.3100 C.3   1 <1>  -0.1600 
  9 C        3.0760    -2.5930     0.5020 C.ar  1 <1>   0.0830 
 10 C       -3.8930     0.5610     0.7210 C.3   1 <1>   0.3430 
 11 C       -4.3650    -1.6220    -0.3590 C.3   1 <1>   0.3430 
 12 C        3.3510    -3.8750     0.0300 C.ar  1 <1>  -0.1440 
 13 C        4.0320    -1.8720     1.2030 C.ar  1 <1>  -0.1500 
 14 N       -4.6990    -0.6970     0.7660 N.4   1 <1>  -0.9590 
 15 C        4.6140    -4.4010     0.2630 C.ar  1 <1>  -0.1500 
 16 C        2.3060    -4.6950    -0.7350 C.3   1 <1>   0.0630 
 17 C        5.2860    -2.4100     1.4320 C.ar  1 <1>  -0.1430 
 18 C       -6.1610    -0.3860     0.7790 C.3   1 <1>   0.2630 
 19 C        5.5720    -3.6780     0.9550 C.ar  1 <1>  -0.1500 
 20 C        2.0210    -6.0250    -0.0280 C.3   1 <1>  -0.2400 
 21 C        2.7560    -4.9340    -2.1790 C.3   1 <1>  -0.2400 
 22 C        6.3420    -1.6310     2.1940 C.3   1 <1>  -0.0970 
 23 H       -0.3560    -1.8130     0.4660 H     1 <1>   0.3700 
 24 H        2.4340    -0.1680    -0.3230 H     1 <1>   0.0800 
 25 H        2.2400    -1.3620    -1.5950 H     1 <1>   0.0800 
 26 H       -2.1730    -0.2240    -1.2900 H     1 <1>   0.0800 
 27 H       -1.8400     1.1350     0.6880 H     1 <1>   0.0800 
 28 H       -2.1760    -0.2110     1.7430 H     1 <1>   0.0800 
 29 H       -2.6830    -2.5570     0.5800 H     1 <1>   0.0800 
 30 H       -2.6460    -2.5980    -1.1630 H     1 <1>   0.0800 
 31 H       -4.0990     1.0950    -0.1940 H     1 <1>   0.0800 
 32 H       -4.1550     1.2000     1.5500 H     1 <1>   0.0800 
 33 H       -4.9580    -2.5200    -0.2890 H     1 <1>   0.0800 
 34 H       -4.5840    -1.1440    -1.3010 H     1 <1>   0.0800 
 35 H        3.7890    -0.8940     1.5720 H     1 <1>   0.1500 
 36 H       -4.4640    -1.1810     1.6450 H     1 <1>   0.4500 
 37 H        4.8650    -5.3830    -0.0930 H     1 <1>   0.1500 
 38 H        1.3770    -4.1540    -0.7730 H     1 <1>   0.0800 
 39 H       -6.4450     0.1250    -0.1280 H     1 <1>   0.0800 
 40 H       -6.4030     0.2460     1.6190 H     1 <1>   0.0800 
 41 H       -6.7370    -1.2940     0.8570 H     1 <1>   0.0800 
 42 H        6.5430    -4.1100     1.1210 H     1 <1>   0.1500 
 43 H        2.8910    -6.6550    -0.0230 H     1 <1>   0.0800 
 44 H        1.2230    -6.5460    -0.5250 H     1 <1>   0.0800 
 45 H        1.7270    -5.8390     0.9900 H     1 <1>   0.0800 
 46 H        3.6560    -5.5220    -2.2070 H     1 <1>   0.0800 
 47 H        2.9480    -3.9920    -2.6620 H     1 <1>   0.0800 
 48 H        1.9900    -5.4510    -2.7280 H     1 <1>   0.0800 
 49 H        5.9100    -0.7740     2.6800 H     1 <1>   0.0800 
 50 H        7.1070    -1.2950     1.5170 H     1 <1>   0.0800 
 51 H        6.7910    -2.2560     2.9450 H     1 <1>   0.0800 
@<TRIPOS>BOND
  1   1   2  2   
  2   2   3  am  
  3   2   4  1   
  4   3   5  1   
  5   3  23  1   
  6   4   6  1   
  7   4  24  1   
  8   4  25  1   
  9   5   7  1   
 10   5   8  1   
 11   5  26  1   
 12   6   9  1   
 13   7  10  1   
 14   7  27  1   
 15   7  28  1   
 16   8  11  1   
 17   8  29  1   
 18   8  30  1   
 19   9  12  ar  
 20   9  13  ar  
 21  10  14  1   
 22  10  31  1   
 23  10  32  1   
 24  11  14  1   
 25  11  33  1   
 26  11  34  1   
 27  12  15  ar  
 28  12  16  1   
 29  13  17  ar  
 30  13  35  1   
 31  14  18  1   
 32  14  36  1   
 33  15  19  ar  
 34  15  37  1   
 35  16  20  1   
 36  16  21  1   
 37  16  38  1   
 38  17  19  ar  
 39  17  22  1   
 40  18  39  1   
 41  18  40  1   
 42  18  41  1   
 43  19  42  1   
 44  20  43  1   
 45  20  44  1   
 46  20  45  1   
 47  21  46  1   
 48  21  47  1   
 49  21  48  1   
 50  22  49  1   
 51  22  50  1   
 52  22  51  1   
@<TRIPOS>SUBSTRUCTURE
  1 ****   6 GROUP 4 **** **** 0

# MOE 2024.06 (io_trps.svl 2023.06)
