@<TRIPOS>MOLECULE
NONAME
52 54 1 0 0 
SMALL
USER_CHARGES


@<TRIPOS>ATOM
  1 O       -2.3370    -0.9070    -2.6280 O.3   1 <1>  -0.3630 
  2 C       -3.1300    -1.2630    -1.5760 C.ar  1 <1>   0.0820 
  3 C       -0.9760    -0.5880    -2.4350 C.3   1 <1>   0.0400 
  4 C       -4.4500    -1.6010    -1.8550 C.ar  1 <1>   0.0820 
  5 C       -2.6930    -1.3030    -0.2550 C.ar  1 <1>  -0.1500 
  6 O       -4.8860    -1.5590    -3.1250 O.3   1 <1>  -0.5330 
  7 C       -5.3180    -1.9750    -0.8480 C.ar  1 <1>  -0.1500 
  8 C       -3.5680    -1.6710     0.7570 C.ar  1 <1>  -0.1500 
  9 C       -4.8850    -2.0050     0.4690 C.ar  1 <1>  -0.1430 
 10 C       -5.8530    -2.3910     1.5780 C.3   1 <1>   0.2530 
 11 N       -7.0570    -1.5390     1.5150 N.3   1 <1>  -0.8100 
 12 C       -8.1270    -1.9900     2.4320 C.3   1 <1>   0.1100 
 13 C       -6.7560    -0.1000     1.7220 C.3   1 <1>   0.1100 
 14 C       -9.4090    -1.1290     2.2930 C.3   1 <1>   0.3430 
 15 C       -8.0170     0.7840     1.5700 C.3   1 <1>   0.3430 
 16 N       -9.2250    -0.0490     1.2660 N.4   1 <1>  -0.9590 
 17 C      -10.4300     0.7380     0.9430 C.3   1 <1>   0.4810 
 18 C      -11.4240    -0.1990     0.3020 C.2   1 <1>  -0.2880 
 19 C      -11.6300    -0.3090    -1.0210 C.2   1 <1>  -0.1780 
 20 C      -12.5610    -1.1850    -1.6970 C.ar  1 <1>   0.0280 
 21 C      -12.3700    -1.5010    -3.0400 C.ar  1 <1>  -0.1500 
 22 C      -13.6660    -1.7390    -1.0530 C.ar  1 <1>  -0.1500 
 23 C      -13.2390    -2.3400    -3.7130 C.ar  1 <1>  -0.1500 
 24 C      -14.5390    -2.5790    -1.7210 C.ar  1 <1>  -0.1500 
 25 C      -14.3260    -2.8820    -3.0530 C.ar  1 <1>  -0.1500 
 26 H       -0.5480    -0.3530    -3.3930 H     1 <1>   0.0800 
 27 H       -0.4740    -1.4390    -2.0090 H     1 <1>   0.0800 
 28 H       -0.9060     0.2670    -1.7850 H     1 <1>   0.0800 
 29 H       -1.6830    -1.0540     0.0060 H     1 <1>   0.1500 
 30 H       -4.1450    -1.3020    -3.7090 H     1 <1>   0.4500 
 31 H       -6.3310    -2.2350    -1.0990 H     1 <1>   0.1500 
 32 H       -3.2130    -1.6950     1.7720 H     1 <1>   0.1500 
 33 H       -5.3810    -2.2940     2.5410 H     1 <1>   0.0800 
 34 H       -6.1340    -3.4220     1.4400 H     1 <1>   0.0800 
 35 H       -8.3750    -3.0160     2.2140 H     1 <1>   0.0800 
 36 H       -7.7800    -1.9510     3.4510 H     1 <1>   0.0800 
 37 H       -6.3280     0.0490     2.6990 H     1 <1>   0.0800 
 38 H       -6.0280     0.2290     1.0000 H     1 <1>   0.0800 
 39 H       -9.6520    -0.6940     3.2480 H     1 <1>   0.0800 
 40 H      -10.2240    -1.7720     2.0070 H     1 <1>   0.0800 
 41 H       -7.8470     1.4900     0.7730 H     1 <1>   0.0800 
 42 H       -8.1700     1.3430     2.4780 H     1 <1>   0.0800 
 43 H       -8.9540    -0.5750     0.4190 H     1 <1>   0.4500 
 44 H      -10.8470     1.1930     1.8280 H     1 <1>   0.0800 
 45 H      -10.1750     1.5150     0.2410 H     1 <1>   0.0800 
 46 H      -11.9640    -0.7890     1.0200 H     1 <1>   0.1500 
 47 H      -11.0580     0.2980    -1.7050 H     1 <1>   0.1500 
 48 H      -11.5290    -1.0900    -3.5700 H     1 <1>   0.1500 
 49 H      -13.8590    -1.5100    -0.0230 H     1 <1>   0.1500 
 50 H      -13.0700    -2.5720    -4.7500 H     1 <1>   0.1500 
 51 H      -15.3870    -2.9970    -1.2060 H     1 <1>   0.1500 
 52 H      -15.0040    -3.5360    -3.5740 H     1 <1>   0.1500 
@<TRIPOS>BOND
  1   1   2  1   
  2   1   3  1   
  3   2   4  ar  
  4   2   5  ar  
  5   3  26  1   
  6   3  27  1   
  7   3  28  1   
  8   4   6  1   
  9   4   7  ar  
 10   5   8  ar  
 11   5  29  1   
 12   6  30  1   
 13   7   9  ar  
 14   7  31  1   
 15   8   9  ar  
 16   8  32  1   
 17   9  10  1   
 18  10  11  1   
 19  10  33  1   
 20  10  34  1   
 21  11  12  1   
 22  11  13  1   
 23  12  14  1   
 24  12  35  1   
 25  12  36  1   
 26  13  15  1   
 27  13  37  1   
 28  13  38  1   
 29  14  16  1   
 30  14  39  1   
 31  14  40  1   
 32  15  16  1   
 33  15  41  1   
 34  15  42  1   
 35  16  17  1   
 36  16  43  1   
 37  17  18  1   
 38  17  44  1   
 39  17  45  1   
 40  18  19  2   
 41  18  46  1   
 42  19  20  1   
 43  19  47  1   
 44  20  21  ar  
 45  20  22  ar  
 46  21  23  ar  
 47  21  48  1   
 48  22  24  ar  
 49  22  49  1   
 50  23  25  ar  
 51  23  50  1   
 52  24  25  ar  
 53  24  51  1   
 54  25  52  1   
@<TRIPOS>SUBSTRUCTURE
  1 ****  11 GROUP 4 **** **** 0

# MOE 2024.06 (io_trps.svl 2023.06)
