@<TRIPOS>MOLECULE
NONAME
41 42 1 0 0 
SMALL
USER_CHARGES


@<TRIPOS>ATOM
  1 O       -0.1570    -0.8260    -1.1470 O.2   1 <1>  -0.5700 
  2 C        0.0830    -1.3740    -0.0960 C.2   1 <1>   0.5690 
  3 N        1.3470    -1.5630     0.4010 N.am  1 <1>  -0.5470 
  4 C       -1.1360    -1.8680     0.7020 C.3   1 <1>   0.4040 
  5 C        2.5890    -1.1580    -0.1140 C.ar  1 <1>   0.1170 
  6 N       -2.4150    -1.2040     0.2420 N.4   1 <1>  -0.9590 
  7 C        3.7290    -1.8480     0.2860 C.ar  1 <1>  -0.1500 
  8 C        2.7390    -0.0850    -0.9890 C.ar  1 <1>  -0.1500 
  9 C       -2.8750    -0.0680     1.0930 C.3   1 <1>   0.4230 
 10 C       -3.4800    -2.2140    -0.0170 C.3   1 <1>   0.3430 
 11 C        4.9850    -1.4900    -0.1730 C.ar  1 <1>  -0.1430 
 12 C        3.9900     0.2790    -1.4520 C.ar  1 <1>  -0.1500 
 13 C       -4.0800     0.6100     0.4250 C.3   1 <1>  -0.1600 
 14 C       -1.7570     0.9560     1.2880 C.3   1 <1>  -0.2400 
 15 C       -4.6770    -1.5540    -0.6990 C.3   1 <1>  -0.1600 
 16 C        5.1110    -0.4210    -1.0440 C.ar  1 <1>  -0.1500 
 17 C        6.2240    -2.2500     0.2670 C.3   1 <1>  -0.0970 
 18 C       -5.2130    -0.3780     0.1230 C.3   1 <1>  -0.1600 
 19 H        1.4430    -2.1180     1.2510 H     1 <1>   0.3700 
 20 H       -0.9780    -1.6820     1.7490 H     1 <1>   0.0800 
 21 H       -1.2080    -2.9320     0.5550 H     1 <1>   0.0800 
 22 H       -2.1550    -0.7850    -0.6720 H     1 <1>   0.4500 
 23 H        3.6370    -2.6780     0.9610 H     1 <1>   0.1500 
 24 H        1.8860     0.4780    -1.3160 H     1 <1>   0.1500 
 25 H       -3.1830    -0.4440     2.0560 H     1 <1>   0.0800 
 26 H       -3.7990    -2.6550     0.9140 H     1 <1>   0.0800 
 27 H       -3.1000    -2.9970    -0.6530 H     1 <1>   0.0800 
 28 H        4.0930     1.1090    -2.1290 H     1 <1>   0.1500 
 29 H       -3.7650     1.0860    -0.4890 H     1 <1>   0.0800 
 30 H       -4.4560     1.3820     1.0730 H     1 <1>   0.0800 
 31 H       -1.3720     1.2950     0.3410 H     1 <1>   0.0800 
 32 H       -0.9550     0.5610     1.8830 H     1 <1>   0.0800 
 33 H       -2.1420     1.8130     1.8120 H     1 <1>   0.0800 
 34 H       -5.4580    -2.2840    -0.8270 H     1 <1>   0.0800 
 35 H       -4.3890    -1.2170    -1.6800 H     1 <1>   0.0800 
 36 H        6.0810    -0.1310    -1.4090 H     1 <1>   0.1500 
 37 H        5.9580    -3.1710     0.7530 H     1 <1>   0.0800 
 38 H        6.7950    -1.6500     0.9520 H     1 <1>   0.0800 
 39 H        6.8360    -2.4810    -0.5860 H     1 <1>   0.0800 
 40 H       -5.9980     0.1220    -0.4220 H     1 <1>   0.0800 
 41 H       -5.6330    -0.7410     1.0460 H     1 <1>   0.0800 
@<TRIPOS>BOND
  1   1   2  2   
  2   2   3  am  
  3   2   4  1   
  4   3   5  1   
  5   3  19  1   
  6   4   6  1   
  7   4  20  1   
  8   4  21  1   
  9   5   7  ar  
 10   5   8  ar  
 11   6   9  1   
 12   6  10  1   
 13   6  22  1   
 14   7  11  ar  
 15   7  23  1   
 16   8  12  ar  
 17   8  24  1   
 18   9  13  1   
 19   9  14  1   
 20   9  25  1   
 21  10  15  1   
 22  10  26  1   
 23  10  27  1   
 24  11  16  ar  
 25  11  17  1   
 26  12  16  ar  
 27  12  28  1   
 28  13  18  1   
 29  13  29  1   
 30  13  30  1   
 31  14  31  1   
 32  14  32  1   
 33  14  33  1   
 34  15  18  1   
 35  15  34  1   
 36  15  35  1   
 37  16  36  1   
 38  17  37  1   
 39  17  38  1   
 40  17  39  1   
 41  18  40  1   
 42  18  41  1   
@<TRIPOS>SUBSTRUCTURE
  1 ****   2 GROUP 4 **** **** 0

# MOE 2024.06 (io_trps.svl 2023.06)
