@<TRIPOS>MOLECULE
NONAME
50 52 1 0 0 
SMALL
USER_CHARGES


@<TRIPOS>ATOM
  1 O        0.0320    -0.2820    -0.2960 O.2   1 <1>  -0.5700 
  2 C       -0.3930    -1.2880     0.2310 C.2   1 <1>   0.6340 
  3 O        0.3040    -1.8410     1.2280 O.3   1 <1>  -0.4300 
  4 C       -1.6390    -1.9220    -0.1650 C.ar  1 <1>   0.0860 
  5 C        1.5260    -1.2900     1.6770 C.3   1 <1>   0.0400 
  6 C       -2.1390    -3.0540     0.4830 C.ar  1 <1>  -0.1500 
  7 C       -2.3970    -1.4160    -1.2220 C.ar  1 <1>  -0.1500 
  8 C       -3.3340    -3.6400     0.1070 C.ar  1 <1>  -0.1500 
  9 C       -3.5920    -1.9950    -1.6060 C.ar  1 <1>  -0.1500 
 10 C       -4.0760    -3.1080    -0.9360 C.ar  1 <1>  -0.1440 
 11 C       -5.4040    -3.7250    -1.3350 C.3   1 <1>   0.4860 
 12 N       -6.4190    -3.3570    -0.3120 N.4   1 <1>  -0.9590 
 13 C       -7.7340    -4.0600    -0.5460 C.3   1 <1>   0.3430 
 14 C       -6.6170    -1.8600    -0.2260 C.3   1 <1>   0.3430 
 15 C       -8.7920    -3.7100     0.5210 C.3   1 <1>   0.2090 
 16 C       -7.6550    -1.4560     0.8420 C.3   1 <1>   0.2090 
 17 N       -8.9200    -2.2320     0.6840 N.pl3 1 <1>  -0.8380 
 18 C      -10.0980    -1.6170     0.2540 C.ar  1 <1>   0.1000 
 19 C      -11.3070    -1.9680     0.8380 C.ar  1 <1>  -0.1500 
 20 C      -10.1060    -0.6630    -0.7600 C.ar  1 <1>  -0.1500 
 21 C      -12.4990    -1.4000     0.4260 C.ar  1 <1>   0.0830 
 22 C      -11.2900    -0.0840    -1.1780 C.ar  1 <1>  -0.1500 
 23 O      -13.6250    -1.8200     1.0570 O.3   1 <1>  -0.3620 
 24 C      -12.4890    -0.4490    -0.5900 C.ar  1 <1>  -0.1500 
 25 C      -14.8850    -1.2680     0.7460 C.3   1 <1>   0.0400 
 26 H        1.9030    -1.8990     2.4790 H     1 <1>   0.0800 
 27 H        1.3490    -0.2860     2.0250 H     1 <1>   0.0800 
 28 H        2.2250    -1.2800     0.8590 H     1 <1>   0.0800 
 29 H       -1.5770    -3.4830     1.2970 H     1 <1>   0.1500 
 30 H       -2.0320    -0.5500    -1.7520 H     1 <1>   0.1500 
 31 H       -3.6690    -4.5150     0.6380 H     1 <1>   0.1500 
 32 H       -4.1330    -1.5640    -2.4330 H     1 <1>   0.1500 
 33 H       -5.2970    -4.7960    -1.3870 H     1 <1>   0.0800 
 34 H       -5.7020    -3.3630    -2.3050 H     1 <1>   0.0800 
 35 H       -6.0550    -3.6550     0.6010 H     1 <1>   0.4500 
 36 H       -7.5870    -5.1270    -0.5530 H     1 <1>   0.0800 
 37 H       -8.1280    -3.7740    -1.5080 H     1 <1>   0.0800 
 38 H       -6.9550    -1.4870    -1.1780 H     1 <1>   0.0800 
 39 H       -5.6810    -1.3770     0.0040 H     1 <1>   0.0800 
 40 H       -8.5230    -4.1480     1.4660 H     1 <1>   0.0800 
 41 H       -9.7400    -4.1280     0.2260 H     1 <1>   0.0800 
 42 H       -7.8600    -0.4020     0.7710 H     1 <1>   0.0800 
 43 H       -7.2540    -1.6390     1.8240 H     1 <1>   0.0800 
 44 H      -11.3250    -2.6900     1.6320 H     1 <1>   0.1500 
 45 H       -9.1900    -0.3710    -1.2330 H     1 <1>   0.1500 
 46 H      -11.2840     0.6540    -1.9620 H     1 <1>   0.1500 
 47 H      -13.3960     0.0130    -0.9330 H     1 <1>   0.1500 
 48 H      -15.6190    -1.7360     1.3780 H     1 <1>   0.0800 
 49 H      -15.1100    -1.4710    -0.2860 H     1 <1>   0.0800 
 50 H      -14.8590    -0.2100     0.9370 H     1 <1>   0.0800 
@<TRIPOS>BOND
  1   1   2  2   
  2   2   3  1   
  3   2   4  1   
  4   3   5  1   
  5   4   6  ar  
  6   4   7  ar  
  7   5  26  1   
  8   5  27  1   
  9   5  28  1   
 10   6   8  ar  
 11   6  29  1   
 12   7   9  ar  
 13   7  30  1   
 14   8  10  ar  
 15   8  31  1   
 16   9  10  ar  
 17   9  32  1   
 18  10  11  1   
 19  11  12  1   
 20  11  33  1   
 21  11  34  1   
 22  12  13  1   
 23  12  14  1   
 24  12  35  1   
 25  13  15  1   
 26  13  36  1   
 27  13  37  1   
 28  14  16  1   
 29  14  38  1   
 30  14  39  1   
 31  15  17  1   
 32  15  40  1   
 33  15  41  1   
 34  16  17  1   
 35  16  42  1   
 36  16  43  1   
 37  17  18  1   
 38  18  19  ar  
 39  18  20  ar  
 40  19  21  ar  
 41  19  44  1   
 42  20  22  ar  
 43  20  45  1   
 44  21  23  1   
 45  21  24  ar  
 46  22  24  ar  
 47  22  46  1   
 48  23  25  1   
 49  24  47  1   
 50  25  48  1   
 51  25  49  1   
 52  25  50  1   
@<TRIPOS>SUBSTRUCTURE
  1 ****  14 GROUP 4 **** **** 0

# MOE 2024.06 (io_trps.svl 2023.06)
