@<TRIPOS>MOLECULE
NONAME
47 49 1 0 0 
SMALL
USER_CHARGES


@<TRIPOS>ATOM
  1 O        0.1210    -0.2050    -1.4020 O.2   1 <1>  -0.5700 
  2 C        0.6390    -1.0940    -0.7510 C.2   1 <1>   0.5440 
  3 N        1.7310    -0.8250     0.0410 N.am  1 <1>  -0.5470 
  4 C        0.0890    -2.4320    -0.7530 C.ar  1 <1>   0.0860 
  5 C        2.4390     0.3670     0.2610 C.ar  1 <1>   0.1170 
  6 C       -1.2900    -2.6510    -0.5990 C.ar  1 <1>   0.1170 
  7 C        0.9290    -3.5420    -0.8800 C.ar  1 <1>  -0.1500 
  8 C        3.0360     0.5980     1.5030 C.ar  1 <1>  -0.1440 
  9 C        2.5830     1.3240    -0.7380 C.ar  1 <1>  -0.1500 
 10 N       -2.1570    -1.5570    -0.4980 N.am  1 <1>  -0.5470 
 11 C       -1.7750    -3.9550    -0.5560 C.ar  1 <1>  -0.1500 
 12 C        0.4320    -4.8300    -0.8390 C.ar  1 <1>  -0.1500 
 13 C        3.7480     1.7660     1.7170 C.ar  1 <1>  -0.1500 
 14 C        2.9160    -0.4090     2.6410 C.3   1 <1>  -0.0970 
 15 C        3.2900     2.4930    -0.5210 C.ar  1 <1>  -0.1430 
 16 C       -3.3200    -1.3570     0.1920 C.2   1 <1>   0.5690 
 17 C       -0.9260    -5.0370    -0.6720 C.ar  1 <1>  -0.1500 
 18 C        3.8750     2.7100     0.7140 C.ar  1 <1>  -0.1500 
 19 C        3.4280     3.5260    -1.6250 C.3   1 <1>  -0.0970 
 20 O       -3.8880    -2.2320     0.8030 O.2   1 <1>  -0.5700 
 21 C       -3.8850     0.0720     0.2160 C.3   1 <1>   0.2610 
 22 O       -3.3120     0.8750    -0.7940 O.3   1 <1>  -0.5600 
 23 C       -3.6110     0.8010     1.5370 C.3   1 <1>  -0.1600 
 24 C       -2.5170     1.8830    -0.2590 C.3   1 <1>   0.1200 
 25 C       -3.1110     2.1680     1.1080 C.3   1 <1>  -0.1600 
 26 H        1.9850    -1.5770     0.6770 H     1 <1>   0.3700 
 27 H        1.9850    -3.3920    -1.0200 H     1 <1>   0.1500 
 28 H        2.1380     1.1500    -1.7000 H     1 <1>   0.1500 
 29 H       -1.8140    -0.6950    -0.9530 H     1 <1>   0.3700 
 30 H       -2.8310    -4.1230    -0.4350 H     1 <1>   0.1500 
 31 H        1.0940    -5.6730    -0.9370 H     1 <1>   0.1500 
 32 H        4.2120     1.9560     2.6690 H     1 <1>   0.1500 
 33 H        3.4220    -1.3220     2.3820 H     1 <1>   0.0800 
 34 H        1.8800    -0.6200     2.8410 H     1 <1>   0.0800 
 35 H        3.3580    -0.0240     3.5430 H     1 <1>   0.0800 
 36 H       -1.3200    -6.0380    -0.6370 H     1 <1>   0.1500 
 37 H        4.4300     3.6130     0.8980 H     1 <1>   0.1500 
 38 H        2.6380     3.4170    -2.3460 H     1 <1>   0.0800 
 39 H        4.3720     3.4010    -2.1230 H     1 <1>   0.0800 
 40 H        3.3790     4.5190    -1.2150 H     1 <1>   0.0800 
 41 H       -4.9420     0.0320     0.0250 H     1 <1>   0.0800 
 42 H       -2.8440     0.2820     2.0870 H     1 <1>   0.0800 
 43 H       -4.4950     0.8570     2.1470 H     1 <1>   0.0800 
 44 H       -2.5400     2.7390    -0.9120 H     1 <1>   0.0800 
 45 H       -1.5090     1.5100    -0.1770 H     1 <1>   0.0800 
 46 H       -2.3830     2.5790     1.7860 H     1 <1>   0.0800 
 47 H       -3.9320     2.8550     1.0010 H     1 <1>   0.0800 
@<TRIPOS>BOND
  1   1   2  2   
  2   2   3  am  
  3   2   4  1   
  4   3   5  1   
  5   3  26  1   
  6   4   6  ar  
  7   4   7  ar  
  8   5   8  ar  
  9   5   9  ar  
 10   6  10  1   
 11   6  11  ar  
 12   7  12  ar  
 13   7  27  1   
 14   8  13  ar  
 15   8  14  1   
 16   9  15  ar  
 17   9  28  1   
 18  10  16  am  
 19  10  29  1   
 20  11  17  ar  
 21  11  30  1   
 22  12  17  ar  
 23  12  31  1   
 24  13  18  ar  
 25  13  32  1   
 26  14  33  1   
 27  14  34  1   
 28  14  35  1   
 29  15  18  ar  
 30  15  19  1   
 31  16  20  2   
 32  16  21  1   
 33  17  36  1   
 34  18  37  1   
 35  19  38  1   
 36  19  39  1   
 37  19  40  1   
 38  21  22  1   
 39  21  23  1   
 40  21  41  1   
 41  22  24  1   
 42  23  25  1   
 43  23  42  1   
 44  23  43  1   
 45  24  25  1   
 46  24  44  1   
 47  24  45  1   
 48  25  46  1   
 49  25  47  1   
@<TRIPOS>SUBSTRUCTURE
  1 ****   2 GROUP 4 **** **** 0

# MOE 2024.06 (io_trps.svl 2023.06)
