@<TRIPOS>MOLECULE
NONAME
29 30 1 0 0 
SMALL
USER_CHARGES


@<TRIPOS>ATOM
  1 S        0.0080    -0.2420    -0.3020 S.3   1 <1>  -0.4600 
  2 C        1.5780     0.5660    -0.7050 C.3   1 <1>   0.0700 
  3 C        0.4440    -2.0000    -0.3400 C.3   1 <1>   0.0700 
  4 C        2.6660     0.0450     0.2430 C.3   1 <1>   0.3430 
  5 C        1.6580    -2.2330     0.5690 C.3   1 <1>   0.3430 
  6 N        2.8660    -1.4470     0.1350 N.4   1 <1>  -0.9590 
  7 C        4.0730    -1.8790     0.8940 C.3   1 <1>   0.4860 
  8 C        5.2990    -1.2530     0.2550 C.ar  1 <1>  -0.1440 
  9 C        5.7560    -1.7050    -0.9760 C.ar  1 <1>  -0.1500 
 10 C        5.9750    -0.2190     0.8950 C.ar  1 <1>  -0.1500 
 11 C        6.8640    -1.1010    -1.5390 C.ar  1 <1>   0.1900 
 12 C        7.0870     0.3710     0.3120 C.ar  1 <1>  -0.1500 
 13 F        7.2810    -1.5240    -2.7000 F     1 <1>  -0.1900 
 14 C        7.5400    -0.0690    -0.9200 C.ar  1 <1>  -0.1500 
 15 H        1.4280     1.6240    -0.5800 H     1 <1>   0.0800 
 16 H        1.8060     0.3550    -1.7350 H     1 <1>   0.0800 
 17 H        0.6450    -2.2700    -1.3610 H     1 <1>   0.0800 
 18 H       -0.4160    -2.5420     0.0130 H     1 <1>   0.0800 
 19 H        2.3970     0.3040     1.2540 H     1 <1>   0.0800 
 20 H        3.5870     0.5520     0.0060 H     1 <1>   0.0800 
 21 H        1.8900    -3.2850     0.5610 H     1 <1>   0.0800 
 22 H        1.3900    -1.9600     1.5780 H     1 <1>   0.0800 
 23 H        3.0550    -1.6540    -0.8530 H     1 <1>   0.4500 
 24 H        4.1690    -2.9520     0.8620 H     1 <1>   0.0800 
 25 H        3.9970    -1.5740     1.9250 H     1 <1>   0.0800 
 26 H        5.2830    -2.5120    -1.5070 H     1 <1>   0.1500 
 27 H        5.6500     0.1420     1.8570 H     1 <1>   0.1500 
 28 H        7.6050     1.1710     0.8160 H     1 <1>   0.1500 
 29 H        8.4000     0.3740    -1.3910 H     1 <1>   0.1500 
@<TRIPOS>BOND
  1   1   2  1   
  2   1   3  1   
  3   2   4  1   
  4   2  15  1   
  5   2  16  1   
  6   3   5  1   
  7   3  17  1   
  8   3  18  1   
  9   4   6  1   
 10   4  19  1   
 11   4  20  1   
 12   5   6  1   
 13   5  21  1   
 14   5  22  1   
 15   6   7  1   
 16   6  23  1   
 17   7   8  1   
 18   7  24  1   
 19   7  25  1   
 20   8   9  ar  
 21   8  10  ar  
 22   9  11  ar  
 23   9  26  1   
 24  10  12  ar  
 25  10  27  1   
 26  11  13  1   
 27  11  14  ar  
 28  12  14  ar  
 29  12  28  1   
 30  14  29  1   
@<TRIPOS>SUBSTRUCTURE
  1 ****   8 GROUP 4 **** **** 0

# MOE 2024.06 (io_trps.svl 2023.06)
