@<TRIPOS>MOLECULE
NONAME
37 39 1 0 0 
SMALL
USER_CHARGES


@<TRIPOS>ATOM
  1 O       -0.2880    -0.2760    -1.2450 O.2   1 <1>  -0.5700 
  2 C       -0.4120    -1.4160    -0.8690 C.2   1 <1>   0.5690 
  3 N       -1.6460    -1.9730    -0.9130 N.am  1 <1>  -0.7300 
  4 C        0.8320    -2.1230    -0.3900 C.3   1 <1>  -0.0380 
  5 C       -2.2260    -3.2660    -0.5050 C.3   1 <1>   0.3000 
  6 C        1.1540    -1.6930     1.0170 C.2   1 <1>   0.5690 
  7 C       -1.7710    -4.3930    -1.4520 C.3   1 <1>  -0.1600 
  8 C       -3.7560    -3.1180    -0.6230 C.3   1 <1>  -0.1600 
  9 C       -1.8830    -3.6230     0.9560 C.3   1 <1>  -0.1600 
 10 O        1.4040    -2.5250     1.8500 O.2   1 <1>  -0.5700 
 11 N        1.1810    -0.3870     1.3350 N.am  1 <1>  -0.8000 
 12 C       -2.4520    -5.7190    -1.0580 C.3   1 <1>  -0.0800 
 13 C       -4.4610    -4.4320    -0.2360 C.3   1 <1>  -0.0800 
 14 C       -2.5690    -4.9460     1.3490 C.3   1 <1>  -0.0800 
 15 C       -3.9790    -5.5560    -1.1720 C.3   1 <1>  -0.1600 
 16 C       -2.0890    -6.0630     0.4010 C.3   1 <1>  -0.1600 
 17 C       -4.0940    -4.7890     1.2160 C.3   1 <1>  -0.1600 
 18 H       -2.3530    -1.3420    -1.2900 H     1 <1>   0.3700 
 19 H        1.6530    -1.8490    -1.0240 H     1 <1>   0.0800 
 20 H        0.7270    -3.1850    -0.4330 H     1 <1>   0.0800 
 21 H       -0.7080    -4.5250    -1.4040 H     1 <1>   0.0800 
 22 H       -2.0310    -4.1440    -2.4660 H     1 <1>   0.0800 
 23 H       -4.0220    -2.8620    -1.6330 H     1 <1>   0.0800 
 24 H       -4.0960    -2.3310     0.0260 H     1 <1>   0.0800 
 25 H       -2.2080    -2.8360     1.6130 H     1 <1>   0.0800 
 26 H       -0.8280    -3.7510     1.0840 H     1 <1>   0.0800 
 27 H        1.3880    -0.0910     2.2890 H     1 <1>   0.3700 
 28 H        0.8940     0.3390     0.6690 H     1 <1>   0.3700 
 29 H       -2.1210    -6.5080    -1.7120 H     1 <1>   0.0800 
 30 H       -5.5280    -4.3160    -0.3240 H     1 <1>   0.0800 
 31 H       -2.3150    -5.1980     2.3660 H     1 <1>   0.0800 
 32 H       -4.4640    -6.4810    -0.9090 H     1 <1>   0.0800 
 33 H       -4.2480    -5.3260    -2.1880 H     1 <1>   0.0800 
 34 H       -1.0240    -6.1870     0.4930 H     1 <1>   0.0800 
 35 H       -2.5490    -6.9960     0.6790 H     1 <1>   0.0800 
 36 H       -4.5810    -5.7060     1.5000 H     1 <1>   0.0800 
 37 H       -4.4410    -4.0170     1.8820 H     1 <1>   0.0800 
@<TRIPOS>BOND
  1   1   2  2   
  2   2   3  am  
  3   2   4  1   
  4   3   5  1   
  5   3  18  1   
  6   4   6  1   
  7   4  19  1   
  8   4  20  1   
  9   5   7  1   
 10   5   8  1   
 11   5   9  1   
 12   6  10  2   
 13   6  11  am  
 14   7  12  1   
 15   7  21  1   
 16   7  22  1   
 17   8  13  1   
 18   8  23  1   
 19   8  24  1   
 20   9  14  1   
 21   9  25  1   
 22   9  26  1   
 23  11  27  1   
 24  11  28  1   
 25  12  15  1   
 26  12  16  1   
 27  12  29  1   
 28  13  15  1   
 29  13  17  1   
 30  13  30  1   
 31  14  16  1   
 32  14  17  1   
 33  14  31  1   
 34  15  32  1   
 35  15  33  1   
 36  16  34  1   
 37  16  35  1   
 38  17  36  1   
 39  17  37  1   
@<TRIPOS>SUBSTRUCTURE
  1 ****   5 GROUP 4 **** **** 0

# MOE 2024.06 (io_trps.svl 2023.06)
