@<TRIPOS>MOLECULE
NONAME
36 37 1 0 0 
SMALL
USER_CHARGES


@<TRIPOS>ATOM
  1 S        0.4030    -2.0840    -0.7050 S.o2  1 <1>   1.5010 
  2 O        1.1940    -3.0180     0.0580 O.2   1 <1>  -0.6500 
  3 O       -0.1090    -2.4270    -2.0100 O.2   1 <1>  -0.6500 
  4 N       -0.9440    -1.7810     0.3150 N.am  1 <1>  -0.7570 
  5 C        1.2120    -0.4810    -0.7530 C.2   1 <1>  -0.0630 
  6 C       -1.7760    -0.6740     0.2510 C.ar  1 <1>   0.1990 
  7 C        1.9010     0.0070    -1.8540 C.2   1 <1>   0.1390 
  8 C        1.3220     0.5160     0.1620 C.2   1 <1>  -0.3020 
  9 C       -2.1210    -0.0730    -0.9550 C.ar  1 <1>  -0.1500 
 10 C       -2.2640    -0.1220     1.4290 C.ar  1 <1>  -0.1500 
 11 N        2.3850     1.1960    -1.6580 N.2   1 <1>  -0.7070 
 12 N        2.0190     1.5150    -0.4070 N.pl3 1 <1>   0.3140 
 13 C       -2.9030     1.0670    -0.9780 C.ar  1 <1>  -0.1500 
 14 C       -3.0490     1.0160     1.4080 C.ar  1 <1>  -0.1500 
 15 C        2.3350     2.8250     0.1970 C.3   1 <1>   0.0960 
 16 C       -3.3690     1.6230     0.2030 C.ar  1 <1>  -0.1430 
 17 C        1.0870     3.7150     0.2640 C.3   1 <1>  -0.2400 
 18 C       -4.2190     2.8820     0.1760 C.3   1 <1>  -0.0160 
 19 C       -3.3320     4.1280     0.2480 C.3   1 <1>  -0.2400 
 20 H       -0.7620    -2.1910     1.2230 H     1 <1>   0.4200 
 21 H        2.0190    -0.5340    -2.7790 H     1 <1>   0.1500 
 22 H        0.9340     0.5680     1.1620 H     1 <1>   0.1500 
 23 H       -1.7810    -0.4920    -1.8840 H     1 <1>   0.1500 
 24 H       -2.0250    -0.5810     2.3700 H     1 <1>   0.1500 
 25 H       -3.1490     1.5210    -1.9220 H     1 <1>   0.1500 
 26 H       -3.4100     1.4330     2.3320 H     1 <1>   0.1500 
 27 H        3.0920     3.2980    -0.4030 H     1 <1>   0.0800 
 28 H        2.7320     2.6610     1.1820 H     1 <1>   0.0800 
 29 H        0.6990     3.8790    -0.7260 H     1 <1>   0.0800 
 30 H        1.3410     4.6680     0.6940 H     1 <1>   0.0800 
 31 H        0.3260     3.2570     0.8710 H     1 <1>   0.0800 
 32 H       -4.9040     2.8770     1.0060 H     1 <1>   0.0800 
 33 H       -4.8030     2.9070    -0.7280 H     1 <1>   0.0800 
 34 H       -2.7580     4.1220     1.1580 H     1 <1>   0.0800 
 35 H       -3.9390     5.0160     0.2260 H     1 <1>   0.0800 
 36 H       -2.6550     4.1490    -0.5870 H     1 <1>   0.0800 
@<TRIPOS>BOND
  1   1   2  2   
  2   1   3  2   
  3   1   4  am  
  4   1   5  1   
  5   4   6  1   
  6   4  20  1   
  7   5   7  1   
  8   5   8  2   
  9   6   9  ar  
 10   6  10  ar  
 11   7  11  2   
 12   7  21  1   
 13   8  12  1   
 14   8  22  1   
 15   9  13  ar  
 16   9  23  1   
 17  10  14  ar  
 18  10  24  1   
 19  11  12  1   
 20  12  15  1   
 21  13  16  ar  
 22  13  25  1   
 23  14  16  ar  
 24  14  26  1   
 25  15  17  1   
 26  15  27  1   
 27  15  28  1   
 28  16  18  1   
 29  17  29  1   
 30  17  30  1   
 31  17  31  1   
 32  18  19  1   
 33  18  32  1   
 34  18  33  1   
 35  19  34  1   
 36  19  35  1   
 37  19  36  1   
@<TRIPOS>SUBSTRUCTURE
  1 ****   6 GROUP 4 **** **** 0

# MOE 2024.06 (io_trps.svl 2023.06)
