@<TRIPOS>MOLECULE
NONAME
37 39 1 0 0 
SMALL
USER_CHARGES


@<TRIPOS>ATOM
  1 BR      -0.3490    -1.8430    -3.5610 Br    1 <1>  -0.0570 
  2 C       -0.7390    -2.4610    -1.7760 C.2   1 <1>   0.0570 
  3 C        0.1870    -2.6680    -0.8270 C.2   1 <1>  -0.1100 
  4 C       -2.0940    -2.7250    -1.4120 C.2   1 <1>  -0.1500 
  5 S       -0.6180    -3.2240     0.6320 S.3   1 <1>  -0.0800 
  6 C       -2.2070    -3.1440    -0.1330 C.2   1 <1>  -0.1400 
  7 C       -3.3680    -3.5510     0.7530 C.3   1 <1>   0.5230 
  8 N       -4.6440    -3.0560     0.1730 N.4   1 <1>  -0.9590 
  9 C       -4.7200    -1.5450     0.2400 C.3   1 <1>   0.3430 
 10 C       -5.8400    -3.6830     0.8480 C.3   1 <1>   0.3430 
 11 C       -6.0470    -0.9930    -0.3200 C.3   1 <1>   0.2090 
 12 C       -7.1790    -3.1530     0.2920 C.3   1 <1>   0.2090 
 13 N       -7.2120    -1.6620     0.3280 N.pl3 1 <1>  -0.8380 
 14 C       -8.4530    -1.0700     0.1260 C.ar  1 <1>   0.1000 
 15 C       -9.0600    -1.0690    -1.1240 C.ar  1 <1>  -0.1500 
 16 C       -9.1080    -0.4640     1.1910 C.ar  1 <1>  -0.1500 
 17 C      -10.2930    -0.4710    -1.2840 C.ar  1 <1>   0.1770 
 18 C      -10.3450     0.1350     1.0230 C.ar  1 <1>  -0.1500 
 19 CL     -11.0440    -0.4770    -2.8590 Cl    1 <1>  -0.1770 
 20 C      -10.9460     0.1330    -0.2250 C.ar  1 <1>  -0.1500 
 21 H        1.2570    -2.5570    -0.8160 H     1 <1>   0.1500 
 22 H       -2.8740    -2.5820    -2.1390 H     1 <1>   0.1500 
 23 H       -3.2300    -3.1380     1.7390 H     1 <1>   0.0800 
 24 H       -3.3840    -4.6260     0.8360 H     1 <1>   0.0800 
 25 H       -4.6540    -3.3300    -0.8160 H     1 <1>   0.4500 
 26 H       -3.9000    -1.1080    -0.3050 H     1 <1>   0.0800 
 27 H       -4.6370    -1.2260     1.2660 H     1 <1>   0.0800 
 28 H       -5.8130    -3.4660     1.9040 H     1 <1>   0.0800 
 29 H       -5.8120    -4.7540     0.7300 H     1 <1>   0.0800 
 30 H       -6.0870    -1.1430    -1.3850 H     1 <1>   0.0800 
 31 H       -6.0990     0.0670    -0.1340 H     1 <1>   0.0800 
 32 H       -7.9900    -3.5380     0.8870 H     1 <1>   0.0800 
 33 H       -7.3200    -3.4950    -0.7180 H     1 <1>   0.0800 
 34 H       -8.5830    -1.5290    -1.9670 H     1 <1>   0.1500 
 35 H       -8.6390    -0.4630     2.1580 H     1 <1>   0.1500 
 36 H      -10.8400     0.6010     1.8590 H     1 <1>   0.1500 
 37 H      -11.9070     0.5920    -0.3780 H     1 <1>   0.1500 
@<TRIPOS>BOND
  1   1   2  1   
  2   2   3  2   
  3   2   4  1   
  4   3   5  1   
  5   3  21  1   
  6   4   6  2   
  7   4  22  1   
  8   5   6  1   
  9   6   7  1   
 10   7   8  1   
 11   7  23  1   
 12   7  24  1   
 13   8   9  1   
 14   8  10  1   
 15   8  25  1   
 16   9  11  1   
 17   9  26  1   
 18   9  27  1   
 19  10  12  1   
 20  10  28  1   
 21  10  29  1   
 22  11  13  1   
 23  11  30  1   
 24  11  31  1   
 25  12  13  1   
 26  12  32  1   
 27  12  33  1   
 28  13  14  1   
 29  14  15  ar  
 30  14  16  ar  
 31  15  17  ar  
 32  15  34  1   
 33  16  18  ar  
 34  16  35  1   
 35  17  19  1   
 36  17  20  ar  
 37  18  20  ar  
 38  18  36  1   
 39  20  37  1   
@<TRIPOS>SUBSTRUCTURE
  1 ****  11 GROUP 4 **** **** 0

# MOE 2024.06 (io_trps.svl 2023.06)
