@<TRIPOS>MOLECULE
NONAME
54 57 1 0 0 
SMALL
USER_CHARGES


@<TRIPOS>ATOM
  1 S        0.1530     0.0880     0.3950 S.3   1 <1>  -0.3320 
  2 C        0.9850     1.6710     0.3310 C.ar  1 <1>   0.7220 
  3 C       -1.6570     0.4530     0.2850 C.3   1 <1>   0.0700 
  4 N        0.2150     2.7550     0.2950 N.ar  1 <1>  -0.3100 
  5 N        2.2880     1.6130     0.3330 N.ar  1 <1>  -0.6200 
  6 C       -2.0220     0.6460    -1.1870 C.3   1 <1>  -0.2400 
  7 N        0.7820     3.9260     0.2470 N.ar  1 <1>  -0.3100 
  8 C        2.8610     2.8010     0.2780 C.ar  1 <1>   0.3930 
  9 C        2.1210     4.0070     0.2360 C.ar  1 <1>   0.3100 
 10 O        4.2000     2.6790     0.2780 O.3   1 <1>  -0.3620 
 11 C        2.6480     5.3680     0.1730 C.ar  1 <1>   0.0000 
 12 C        5.0710     3.7520     0.4140 C.3   1 <1>   0.7130 
 13 C        3.9160     5.6670    -0.3520 C.ar  1 <1>   0.1000 
 14 C        1.8820     6.4590     0.6050 C.ar  1 <1>  -0.1500 
 15 N        4.7840     4.6570    -0.6840 N.pl3 1 <1>  -0.8690 
 16 C        6.5180     3.2930     0.3080 C.ar  1 <1>  -0.1430 
 17 C        4.3410     6.9810    -0.5000 C.ar  1 <1>  -0.1500 
 18 C        2.3170     7.7640     0.4810 C.ar  1 <1>  -0.1500 
 19 C        7.4690     3.7750     1.1990 C.ar  1 <1>  -0.1500 
 20 C        6.9180     2.4070    -0.6860 C.ar  1 <1>  -0.1500 
 21 C        3.5490     8.0300    -0.0850 C.ar  1 <1>  -0.1500 
 22 C        8.7900     3.3800     1.0960 C.ar  1 <1>  -0.1500 
 23 C        8.2400     2.0170    -0.7850 C.ar  1 <1>  -0.1500 
 24 C        9.1930     2.4970     0.1010 C.ar  1 <1>   0.1000 
 25 N       10.5170     2.0890    -0.0180 N.pl3 1 <1>  -0.8380 
 26 C       10.9500     1.0060     0.8990 C.3   1 <1>   0.2090 
 27 C       11.5200     3.1480    -0.2870 C.3   1 <1>   0.2090 
 28 C       10.9380    -0.3110     0.1330 C.3   1 <1>  -0.2400 
 29 C       12.4680     2.6700    -1.3800 C.3   1 <1>  -0.2400 
 30 H       -1.8630     1.3280     0.8760 H     1 <1>   0.0800 
 31 H       -2.1710    -0.3950     0.7040 H     1 <1>   0.0800 
 32 H       -1.4890     1.4840    -1.5990 H     1 <1>   0.0800 
 33 H       -3.0760     0.8320    -1.2800 H     1 <1>   0.0800 
 34 H       -1.7760    -0.2380    -1.7480 H     1 <1>   0.0800 
 35 H        4.8860     4.2180     1.3680 H     1 <1>   0.0800 
 36 H        0.9120     6.2940     1.0430 H     1 <1>   0.1500 
 37 H        5.6710     4.9340    -1.1120 H     1 <1>   0.4000 
 38 H        5.3040     7.1830    -0.9340 H     1 <1>   0.1500 
 39 H        1.6940     8.5760     0.8180 H     1 <1>   0.1500 
 40 H        7.1870     4.4630     1.9780 H     1 <1>   0.1500 
 41 H        6.1950     2.0210    -1.3850 H     1 <1>   0.1500 
 42 H        3.8850     9.0470    -0.1970 H     1 <1>   0.1500 
 43 H        9.5230     3.7510     1.7880 H     1 <1>   0.1500 
 44 H        8.5530     1.3330    -1.5520 H     1 <1>   0.1500 
 45 H       10.2750     0.9440     1.7360 H     1 <1>   0.0800 
 46 H       11.9400     1.2030     1.2740 H     1 <1>   0.0800 
 47 H       12.0660     3.3800     0.6120 H     1 <1>   0.0800 
 48 H       11.0180     4.0410    -0.6190 H     1 <1>   0.0800 
 49 H        9.9420    -0.5260    -0.2070 H     1 <1>   0.0800 
 50 H       11.2620    -1.1090     0.7750 H     1 <1>   0.0800 
 51 H       11.5980    -0.2540    -0.7130 H     1 <1>   0.0800 
 52 H       13.0210     1.8110    -1.0480 H     1 <1>   0.0800 
 53 H       13.1620     3.4510    -1.6260 H     1 <1>   0.0800 
 54 H       11.9070     2.4150    -2.2610 H     1 <1>   0.0800 
@<TRIPOS>BOND
  1   1   2  1   
  2   1   3  1   
  3   2   4  ar  
  4   2   5  ar  
  5   3   6  1   
  6   3  30  1   
  7   3  31  1   
  8   4   7  ar  
  9   5   8  ar  
 10   6  32  1   
 11   6  33  1   
 12   6  34  1   
 13   7   9  ar  
 14   8   9  ar  
 15   8  10  1   
 16   9  11  1   
 17  10  12  1   
 18  11  13  ar  
 19  11  14  ar  
 20  12  15  1   
 21  12  16  1   
 22  12  35  1   
 23  13  15  1   
 24  13  17  ar  
 25  14  18  ar  
 26  14  36  1   
 27  15  37  1   
 28  16  19  ar  
 29  16  20  ar  
 30  17  21  ar  
 31  17  38  1   
 32  18  21  ar  
 33  18  39  1   
 34  19  22  ar  
 35  19  40  1   
 36  20  23  ar  
 37  20  41  1   
 38  21  42  1   
 39  22  24  ar  
 40  22  43  1   
 41  23  24  ar  
 42  23  44  1   
 43  24  25  1   
 44  25  26  1   
 45  25  27  1   
 46  26  28  1   
 47  26  45  1   
 48  26  46  1   
 49  27  29  1   
 50  27  47  1   
 51  27  48  1   
 52  28  49  1   
 53  28  50  1   
 54  28  51  1   
 55  29  52  1   
 56  29  53  1   
 57  29  54  1   
@<TRIPOS>SUBSTRUCTURE
  1 ****  12 GROUP 4 **** **** 0

# MOE 2024.06 (io_trps.svl 2023.06)
