@<TRIPOS>MOLECULE
NONAME
38 39 1 0 0 
SMALL
USER_CHARGES


@<TRIPOS>ATOM
  1 CL       0.3480    -0.6140    -0.8770 Cl    1 <1>  -0.1770 
  2 C       -0.8130     0.6290    -0.4420 C.ar  1 <1>   0.1770 
  3 C       -0.4630     1.9060     0.0230 C.ar  1 <1>   0.0830 
  4 C       -2.1410     0.2670    -0.5820 C.ar  1 <1>  -0.1500 
  5 O        0.7890     2.4150     0.2110 O.3   1 <1>  -0.3630 
  6 C       -1.4890     2.7860     0.3390 C.ar  1 <1>  -0.1500 
  7 C       -3.1510     1.1590    -0.2650 C.ar  1 <1>  -0.1430 
  8 C        1.9700     1.7340    -0.1260 C.3   1 <1>   0.1200 
  9 C       -2.8160     2.4200     0.1980 C.ar  1 <1>  -0.1500 
 10 C       -4.6090     0.7610    -0.4170 C.3   1 <1>  -0.0960 
 11 C        3.1470     2.6670     0.1660 C.3   1 <1>   0.3430 
 12 N        4.4660     2.0780    -0.2420 N.4   1 <1>  -0.9590 
 13 C        4.8210     0.8660     0.5600 C.3   1 <1>   0.3430 
 14 C        5.5370     3.1140    -0.1630 C.3   1 <1>   0.3430 
 15 C        6.1150     0.2520     0.0210 C.3   1 <1>  -0.1600 
 16 C        6.8460     2.5480    -0.7180 C.3   1 <1>  -0.1600 
 17 C        7.2660     1.2660     0.0120 C.3   1 <1>  -0.1600 
 18 H       -2.3810    -0.7190    -0.9390 H     1 <1>   0.1500 
 19 H       -1.2460     3.7690     0.6990 H     1 <1>   0.1500 
 20 H        1.9280     1.4930    -1.1730 H     1 <1>   0.0800 
 21 H        2.0240     0.8500     0.4830 H     1 <1>   0.0800 
 22 H       -3.5900     3.1250     0.4520 H     1 <1>   0.1500 
 23 H       -4.7170    -0.0030    -1.1650 H     1 <1>   0.0800 
 24 H       -5.2000     1.6090    -0.7130 H     1 <1>   0.0800 
 25 H       -4.9840     0.3860     0.5180 H     1 <1>   0.0800 
 26 H        3.1620     2.8930     1.2200 H     1 <1>   0.0800 
 27 H        2.9860     3.5850    -0.3760 H     1 <1>   0.0800 
 28 H        4.4060     1.7870    -1.2280 H     1 <1>   0.4500 
 29 H        4.0320     0.1330     0.5020 H     1 <1>   0.0800 
 30 H        4.9570     1.1390     1.5940 H     1 <1>   0.0800 
 31 H        5.6820     3.4120     0.8640 H     1 <1>   0.0800 
 32 H        5.2540     3.9850    -0.7320 H     1 <1>   0.0800 
 33 H        5.9460    -0.1220    -0.9740 H     1 <1>   0.0800 
 34 H        6.3880    -0.5890     0.6360 H     1 <1>   0.0800 
 35 H        7.6210     3.2870    -0.6110 H     1 <1>   0.0800 
 36 H        6.7330     2.3530    -1.7710 H     1 <1>   0.0800 
 37 H        8.1290     0.8360    -0.4690 H     1 <1>   0.0800 
 38 H        7.5420     1.5040     1.0260 H     1 <1>   0.0800 
@<TRIPOS>BOND
  1   1   2  1   
  2   2   3  ar  
  3   2   4  ar  
  4   3   5  1   
  5   3   6  ar  
  6   4   7  ar  
  7   4  18  1   
  8   5   8  1   
  9   6   9  ar  
 10   6  19  1   
 11   7   9  ar  
 12   7  10  1   
 13   8  11  1   
 14   8  20  1   
 15   8  21  1   
 16   9  22  1   
 17  10  23  1   
 18  10  24  1   
 19  10  25  1   
 20  11  12  1   
 21  11  26  1   
 22  11  27  1   
 23  12  13  1   
 24  12  14  1   
 25  12  28  1   
 26  13  15  1   
 27  13  29  1   
 28  13  30  1   
 29  14  16  1   
 30  14  31  1   
 31  14  32  1   
 32  15  17  1   
 33  15  33  1   
 34  15  34  1   
 35  16  17  1   
 36  16  35  1   
 37  16  36  1   
 38  17  37  1   
 39  17  38  1   
@<TRIPOS>SUBSTRUCTURE
  1 ****   8 GROUP 4 **** **** 0

# MOE 2024.06 (io_trps.svl 2023.06)
