@<TRIPOS>MOLECULE
NONAME
43 45 1 0 0 
SMALL
USER_CHARGES


@<TRIPOS>ATOM
  1 F       -1.6930     1.8060    -2.2470 F     1 <1>  -0.1900 
  2 C       -2.2740     1.8340    -1.0790 C.ar  1 <1>   0.1900 
  3 C       -3.4140     1.0760    -0.8920 C.ar  1 <1>  -0.1500 
  4 C       -1.7340     2.6190    -0.0810 C.ar  1 <1>  -0.1500 
  5 C       -4.0460     1.1100     0.3450 C.ar  1 <1>  -0.1440 
  6 C       -2.3610     2.6420     1.1530 C.ar  1 <1>  -0.1500 
  7 C       -3.5090     1.8910     1.3630 C.ar  1 <1>  -0.1500 
  8 C       -5.3120     0.3080     0.5800 C.3   1 <1>   0.4870 
  9 N       -6.4340     0.9740    -0.1360 N.4   1 <1>  -0.9590 
 10 C       -6.6940     2.3640     0.4050 C.3   1 <1>   0.3430 
 11 C       -7.6900     0.1370    -0.1060 C.3   1 <1>   0.3430 
 12 C       -7.8760     3.0650    -0.2960 C.3   1 <1>   0.2090 
 13 C       -8.8800     0.8240    -0.8120 C.3   1 <1>   0.2090 
 14 N       -9.0910     2.1990    -0.2750 N.pl3 1 <1>  -0.8380 
 15 C      -10.2900     2.8130    -0.6110 C.ar  1 <1>   0.1000 
 16 C      -11.2570     3.0070     0.3650 C.ar  1 <1>  -0.1500 
 17 C      -10.5490     3.2420    -1.9070 C.ar  1 <1>  -0.1500 
 18 C      -12.4720     3.6180     0.0730 C.ar  1 <1>  -0.1430 
 19 C      -11.7500     3.8500    -2.2170 C.ar  1 <1>  -0.1500 
 20 C      -12.7060     4.0370    -1.2330 C.ar  1 <1>  -0.1500 
 21 C      -13.5480     3.8350     1.1490 C.3   1 <1>   1.1630 
 22 F      -13.1260     3.5590     2.3780 F     1 <1>  -0.3400 
 23 F      -14.6170     3.0760     0.9430 F     1 <1>  -0.3400 
 24 F      -13.9830     5.0890     1.1790 F     1 <1>  -0.3400 
 25 H       -3.7770     0.4780    -1.7090 H     1 <1>   0.1500 
 26 H       -0.8430     3.1940    -0.2670 H     1 <1>   0.1500 
 27 H       -1.9520     3.2430     1.9490 H     1 <1>   0.1500 
 28 H       -3.9720     1.9240     2.3360 H     1 <1>   0.1500 
 29 H       -5.5230     0.2520     1.6360 H     1 <1>   0.0800 
 30 H       -5.1740    -0.6930     0.2050 H     1 <1>   0.0800 
 31 H       -6.1410     1.0880    -1.1140 H     1 <1>   0.4500 
 32 H       -5.8120     2.9740     0.2930 H     1 <1>   0.0800 
 33 H       -6.9200     2.3040     1.4570 H     1 <1>   0.0800 
 34 H       -7.9770    -0.0450     0.9160 H     1 <1>   0.0800 
 35 H       -7.5100    -0.8160    -0.5740 H     1 <1>   0.0800 
 36 H       -7.6130     3.2990    -1.3130 H     1 <1>   0.0800 
 37 H       -8.0930     3.9910     0.2110 H     1 <1>   0.0800 
 38 H       -9.7730     0.2430    -0.6550 H     1 <1>   0.0800 
 39 H       -8.7010     0.8720    -1.8730 H     1 <1>   0.0800 
 40 H      -11.0380     2.6670     1.3610 H     1 <1>   0.1500 
 41 H       -9.8110     3.1010    -2.6740 H     1 <1>   0.1500 
 42 H      -11.9450     4.1800    -3.2230 H     1 <1>   0.1500 
 43 H      -13.6390     4.5130    -1.4920 H     1 <1>   0.1500 
@<TRIPOS>BOND
  1   1   2  1   
  2   2   3  ar  
  3   2   4  ar  
  4   3   5  ar  
  5   3  25  1   
  6   4   6  ar  
  7   4  26  1   
  8   5   7  ar  
  9   5   8  1   
 10   6   7  ar  
 11   6  27  1   
 12   7  28  1   
 13   8   9  1   
 14   8  29  1   
 15   8  30  1   
 16   9  10  1   
 17   9  11  1   
 18   9  31  1   
 19  10  12  1   
 20  10  32  1   
 21  10  33  1   
 22  11  13  1   
 23  11  34  1   
 24  11  35  1   
 25  12  14  1   
 26  12  36  1   
 27  12  37  1   
 28  13  14  1   
 29  13  38  1   
 30  13  39  1   
 31  14  15  1   
 32  15  16  ar  
 33  15  17  ar  
 34  16  18  ar  
 35  16  40  1   
 36  17  19  ar  
 37  17  41  1   
 38  18  20  ar  
 39  18  21  1   
 40  19  20  ar  
 41  19  42  1   
 42  20  43  1   
 43  21  22  1   
 44  21  23  1   
 45  21  24  1   
@<TRIPOS>SUBSTRUCTURE
  1 ****  12 GROUP 4 **** **** 0

# MOE 2024.06 (io_trps.svl 2023.06)
