@<TRIPOS>MOLECULE
NONAME
30 31 1 0 0 
SMALL
USER_CHARGES


@<TRIPOS>ATOM
  1 S       -0.1870    -0.2140    -2.0570 S.o2  1 <1>   1.4470 
  2 O        0.5230     0.7190    -2.9040 O.2   1 <1>  -0.6500 
  3 O       -1.0620    -1.1820    -2.6840 O.2   1 <1>  -0.6500 
  4 N       -1.1610     0.7340    -1.0390 N.am  1 <1>  -0.8490 
  5 C        0.9870    -1.0070    -0.9280 C.ar  1 <1>  -0.0090 
  6 C       -0.4220     1.7640    -0.2930 C.3   1 <1>   0.1960 
  7 C       -2.0350    -0.0380    -0.1490 C.3   1 <1>   0.1960 
  8 C        0.7270    -2.2210    -0.3130 C.ar  1 <1>   0.1900 
  9 C        2.1850    -0.3880    -0.5940 C.ar  1 <1>  -0.1500 
 10 C       -1.3860     2.6400     0.5270 C.3   1 <1>   0.1200 
 11 C       -2.9510     0.9000     0.6560 C.3   1 <1>   0.1200 
 12 F       -0.3920    -2.8490    -0.5480 F     1 <1>  -0.1900 
 13 C        1.6010    -2.8140     0.5780 C.ar  1 <1>  -0.1500 
 14 C        3.0920    -0.9280     0.3220 C.ar  1 <1>  -0.1790 
 15 O       -2.1950     1.8490     1.3550 O.3   1 <1>  -0.5600 
 16 C        2.7780    -2.1640     0.8900 C.ar  1 <1>  -0.1500 
 17 C        4.3110    -0.2150     0.6810 C.2   1 <1>   0.9790 
 18 O        5.1950    -0.7720     1.3520 O.co2 1 <1>  -0.9000 
 19 O        4.4640     0.9690     0.3340 O.co2 1 <1>  -0.9000 
 20 H        0.1230     2.3900    -0.9800 H     1 <1>   0.0800 
 21 H        0.2860     1.3110     0.3800 H     1 <1>   0.0800 
 22 H       -1.4490    -0.6240     0.5390 H     1 <1>   0.0800 
 23 H       -2.6440    -0.7100    -0.7310 H     1 <1>   0.0800 
 24 H        2.4360     0.5590    -1.0490 H     1 <1>   0.1500 
 25 H       -2.0180     3.2140    -0.1270 H     1 <1>   0.0800 
 26 H       -0.8310     3.3140     1.1550 H     1 <1>   0.0800 
 27 H       -3.5210     0.3380     1.3750 H     1 <1>   0.0800 
 28 H       -3.6310     1.4150     0.0000 H     1 <1>   0.0800 
 29 H        1.3620    -3.7630     1.0230 H     1 <1>   0.1500 
 30 H        3.4750    -2.6010     1.5880 H     1 <1>   0.1500 
@<TRIPOS>BOND
  1   1   2  2   
  2   1   3  2   
  3   1   4  am  
  4   1   5  1   
  5   4   6  1   
  6   4   7  1   
  7   5   8  ar  
  8   5   9  ar  
  9   6  10  1   
 10   6  20  1   
 11   6  21  1   
 12   7  11  1   
 13   7  22  1   
 14   7  23  1   
 15   8  12  1   
 16   8  13  ar  
 17   9  14  ar  
 18   9  24  1   
 19  10  15  1   
 20  10  25  1   
 21  10  26  1   
 22  11  15  1   
 23  11  27  1   
 24  11  28  1   
 25  13  16  ar  
 26  13  29  1   
 27  14  16  ar  
 28  14  17  1   
 29  16  30  1   
 30  17  18  ar  
 31  17  19  ar  
@<TRIPOS>SUBSTRUCTURE
  1 ****   5 GROUP 4 **** **** 0

# MOE 2024.06 (io_trps.svl 2023.06)
