@<TRIPOS>MOLECULE
NONAME
46 47 1 0 0 
SMALL
USER_CHARGES


@<TRIPOS>ATOM
  1 O       -0.2630     0.9330    -2.2320 O.2   1 <1>  -0.5700 
  2 C       -0.1420     1.6920    -1.3020 C.2   1 <1>   0.5690 
  3 N       -1.1000     1.8750    -0.3370 N.am  1 <1>  -0.5470 
  4 C        1.1600     2.4970    -1.1810 C.3   1 <1>   0.1710 
  5 C       -2.3290     1.2320    -0.1080 C.ar  1 <1>   0.1170 
  6 N        2.3290     1.7150    -0.6790 N.3   1 <1>  -0.8100 
  7 C       -3.2980     1.8670     0.6730 C.ar  1 <1>  -0.1430 
  8 C       -2.6040    -0.0360    -0.6140 C.ar  1 <1>  -0.1500 
  9 C        3.5900     2.4890    -0.6840 C.3   1 <1>   0.1100 
 10 C        2.1020     1.0530     0.6300 C.3   1 <1>   0.1100 
 11 C       -4.5020     1.2310     0.9270 C.ar  1 <1>  -0.1500 
 12 C       -3.0720     3.2580     1.2540 C.3   1 <1>  -0.0970 
 13 C       -3.8080    -0.6680    -0.3590 C.ar  1 <1>  -0.1430 
 14 C        4.8080     1.6160    -0.2860 C.3   1 <1>   0.3430 
 15 C        3.3160     0.1950     1.0680 C.3   1 <1>   0.3430 
 16 C       -4.7580    -0.0280     0.4150 C.ar  1 <1>  -0.1500 
 17 C       -4.0950    -2.0470    -0.9260 C.3   1 <1>  -0.0970 
 18 N        4.3920     0.2060     0.0200 N.4   1 <1>  -0.9590 
 19 C        5.5390    -0.6950     0.2870 C.3   1 <1>   0.3430 
 20 C        5.0860    -2.1470     0.1920 C.3   1 <1>  -0.2400 
 21 H       -0.9340     2.6440     0.3050 H     1 <1>   0.3700 
 22 H        0.9920     3.3450    -0.5430 H     1 <1>   0.0800 
 23 H        1.3910     2.8680    -2.1640 H     1 <1>   0.0800 
 24 H       -1.8710    -0.5400    -1.2140 H     1 <1>   0.1500 
 25 H        3.5120     3.3230    -0.0070 H     1 <1>   0.0800 
 26 H        3.7600     2.8870    -1.6710 H     1 <1>   0.0800 
 27 H        1.2430     0.4070     0.5630 H     1 <1>   0.0800 
 28 H        1.8960     1.7910     1.3870 H     1 <1>   0.0800 
 29 H       -5.2570     1.7100     1.5260 H     1 <1>   0.1500 
 30 H       -2.8250     3.9510     0.4700 H     1 <1>   0.0800 
 31 H       -2.2760     3.2340     1.9760 H     1 <1>   0.0800 
 32 H       -3.9580     3.6170     1.7450 H     1 <1>   0.0800 
 33 H        5.2910     2.0520     0.5730 H     1 <1>   0.0800 
 34 H        5.5160     1.6190    -1.0970 H     1 <1>   0.0800 
 35 H        2.9780    -0.8130     1.2410 H     1 <1>   0.0800 
 36 H        3.7040     0.5750     1.9990 H     1 <1>   0.0800 
 37 H       -5.7000    -0.5060     0.6200 H     1 <1>   0.1500 
 38 H       -3.1930    -2.5080    -1.2840 H     1 <1>   0.0800 
 39 H       -4.7890    -1.9660    -1.7430 H     1 <1>   0.0800 
 40 H       -4.5230    -2.6770    -0.1670 H     1 <1>   0.0800 
 41 H        3.8990    -0.0960    -0.8370 H     1 <1>   0.4500 
 42 H        5.9510    -0.4960     1.2640 H     1 <1>   0.0800 
 43 H        6.3110    -0.5230    -0.4470 H     1 <1>   0.0800 
 44 H        4.3910    -2.3950     0.9730 H     1 <1>   0.0800 
 45 H        5.9420    -2.7890     0.3000 H     1 <1>   0.0800 
 46 H        4.6420    -2.3460    -0.7670 H     1 <1>   0.0800 
@<TRIPOS>BOND
  1   1   2  2   
  2   2   3  am  
  3   2   4  1   
  4   3   5  1   
  5   3  21  1   
  6   4   6  1   
  7   4  22  1   
  8   4  23  1   
  9   5   7  ar  
 10   5   8  ar  
 11   6   9  1   
 12   6  10  1   
 13   7  11  ar  
 14   7  12  1   
 15   8  13  ar  
 16   8  24  1   
 17   9  14  1   
 18   9  25  1   
 19   9  26  1   
 20  10  15  1   
 21  10  27  1   
 22  10  28  1   
 23  11  16  ar  
 24  11  29  1   
 25  12  30  1   
 26  12  31  1   
 27  12  32  1   
 28  13  16  ar  
 29  13  17  1   
 30  14  18  1   
 31  14  33  1   
 32  14  34  1   
 33  15  18  1   
 34  15  35  1   
 35  15  36  1   
 36  16  37  1   
 37  17  38  1   
 38  17  39  1   
 39  17  40  1   
 40  18  19  1   
 41  18  41  1   
 42  19  20  1   
 43  19  42  1   
 44  19  43  1   
 45  20  44  1   
 46  20  45  1   
 47  20  46  1   
@<TRIPOS>SUBSTRUCTURE
  1 ****   2 GROUP 4 **** **** 0

# MOE 2024.06 (io_trps.svl 2023.06)
