@<TRIPOS>MOLECULE
NONAME
53 55 1 0 0 
SMALL
USER_CHARGES


@<TRIPOS>ATOM
  1 O       -1.4060     2.3400     1.6310 O.2   1 <1>  -0.5700 
  2 C       -1.0260     2.0090     0.5380 C.2   1 <1>   0.5690 
  3 N       -1.7970     1.3280    -0.3600 N.am  1 <1>  -0.5470 
  4 C        0.3750     2.3730     0.1160 C.3   1 <1>  -0.1790 
  5 C       -3.1050     0.8440    -0.2210 C.ar  1 <1>   0.1170 
  6 C       -3.6120     0.4170     1.0010 C.ar  1 <1>  -0.1500 
  7 C       -3.9290     0.7700    -1.3370 C.ar  1 <1>  -0.1500 
  8 C       -4.9070    -0.0530     1.1110 C.ar  1 <1>  -0.1500 
  9 C       -5.2280     0.3040    -1.2340 C.ar  1 <1>  -0.1500 
 10 C       -5.7290    -0.1030    -0.0050 C.ar  1 <1>  -0.1430 
 11 C       -7.1610    -0.5860     0.1200 C.3   1 <1>   0.4860 
 12 N       -7.9470     0.4430     0.8530 N.4   1 <1>  -0.9590 
 13 C       -9.3450    -0.0300     1.1640 C.3   1 <1>   0.3430 
 14 C       -7.9710     1.7640     0.1180 C.3   1 <1>   0.3430 
 15 C      -10.1670     1.0170     1.9440 C.3   1 <1>   0.2090 
 16 C       -8.7760     2.8500     0.8630 C.3   1 <1>   0.2090 
 17 N      -10.1180     2.3540     1.2880 N.pl3 1 <1>  -0.8380 
 18 C      -11.2250     2.7390     0.5320 C.ar  1 <1>   0.1000 
 19 C      -12.1620     3.6350     1.0460 C.ar  1 <1>  -0.1430 
 20 C      -11.4120     2.2270    -0.7490 C.ar  1 <1>  -0.1500 
 21 C      -13.2560     3.9990     0.2790 C.ar  1 <1>  -0.1500 
 22 C      -11.9960     4.2230     2.4400 C.3   1 <1>  -0.0970 
 23 C      -12.5060     2.5910    -1.5140 C.ar  1 <1>  -0.1430 
 24 C      -13.4290     3.4810    -0.9920 C.ar  1 <1>  -0.1500 
 25 C      -12.7130     2.0350    -2.9120 C.3   1 <1>  -0.0970 
 26 H       -1.3730     1.1860    -1.2750 H     1 <1>   0.3700 
 27 H        0.3420     3.0460    -0.7190 H     1 <1>   0.0800 
 28 H        0.9200     1.4880    -0.1520 H     1 <1>   0.0800 
 29 H        0.8830     2.8580     0.9310 H     1 <1>   0.0800 
 30 H       -2.9840     0.4500     1.8750 H     1 <1>   0.1500 
 31 H       -3.5510     1.0860    -2.2930 H     1 <1>   0.1500 
 32 H       -5.2540    -0.3770     2.0780 H     1 <1>   0.1500 
 33 H       -5.8360     0.2630    -2.1220 H     1 <1>   0.1500 
 34 H       -7.1750    -1.5190     0.6600 H     1 <1>   0.0800 
 35 H       -7.5810    -0.7500    -0.8590 H     1 <1>   0.0800 
 36 H       -7.4600     0.6190     1.7400 H     1 <1>   0.4500 
 37 H       -9.3070    -0.9400     1.7400 H     1 <1>   0.0800 
 38 H       -9.8670    -0.2410     0.2460 H     1 <1>   0.0800 
 39 H       -8.4150     1.6280    -0.8540 H     1 <1>   0.0800 
 40 H       -6.9640     2.1220    -0.0300 H     1 <1>   0.0800 
 41 H       -9.7900     1.1060     2.9480 H     1 <1>   0.0800 
 42 H      -11.1920     0.6900     2.0100 H     1 <1>   0.0800 
 43 H       -8.8990     3.7070     0.2210 H     1 <1>   0.0800 
 44 H       -8.2300     3.1740     1.7320 H     1 <1>   0.0800 
 45 H      -10.6980     1.5390    -1.1500 H     1 <1>   0.1500 
 46 H      -13.9840     4.6890     0.6660 H     1 <1>   0.1500 
 47 H      -12.0090     3.4350     3.1710 H     1 <1>   0.0800 
 48 H      -12.7860     4.9150     2.6680 H     1 <1>   0.0800 
 49 H      -11.0570     4.7410     2.5060 H     1 <1>   0.0800 
 50 H      -14.2860     3.7760    -1.5730 H     1 <1>   0.1500 
 51 H      -11.9260     1.3530    -3.1790 H     1 <1>   0.0800 
 52 H      -12.7270     2.8400    -3.6250 H     1 <1>   0.0800 
 53 H      -13.6510     1.5130    -2.9610 H     1 <1>   0.0800 
@<TRIPOS>BOND
  1   1   2  2   
  2   2   3  am  
  3   2   4  1   
  4   3   5  1   
  5   3  26  1   
  6   4  27  1   
  7   4  28  1   
  8   4  29  1   
  9   5   6  ar  
 10   5   7  ar  
 11   6   8  ar  
 12   6  30  1   
 13   7   9  ar  
 14   7  31  1   
 15   8  10  ar  
 16   8  32  1   
 17   9  10  ar  
 18   9  33  1   
 19  10  11  1   
 20  11  12  1   
 21  11  34  1   
 22  11  35  1   
 23  12  13  1   
 24  12  14  1   
 25  12  36  1   
 26  13  15  1   
 27  13  37  1   
 28  13  38  1   
 29  14  16  1   
 30  14  39  1   
 31  14  40  1   
 32  15  17  1   
 33  15  41  1   
 34  15  42  1   
 35  16  17  1   
 36  16  43  1   
 37  16  44  1   
 38  17  18  1   
 39  18  19  ar  
 40  18  20  ar  
 41  19  21  ar  
 42  19  22  1   
 43  20  23  ar  
 44  20  45  1   
 45  21  24  ar  
 46  21  46  1   
 47  22  47  1   
 48  22  48  1   
 49  22  49  1   
 50  23  24  ar  
 51  23  25  1   
 52  24  50  1   
 53  25  51  1   
 54  25  52  1   
 55  25  53  1   
@<TRIPOS>SUBSTRUCTURE
  1 ****  14 GROUP 4 **** **** 0

# MOE 2024.06 (io_trps.svl 2023.06)
