@<TRIPOS>MOLECULE
NONAME
27 29 1 0 0 
SMALL
USER_CHARGES


@<TRIPOS>ATOM
  1 O        0.7090    -0.1680    -1.3900 O.2   1 <1>  -0.5700 
  2 C        1.2830    -1.0720    -0.8560 C.2   1 <1>   0.4480 
  3 C        1.1040    -2.5310    -1.2510 C.3   1 <1>  -0.0190 
  4 C        2.2360    -0.8890     0.3160 C.3   1 <1>  -0.0190 
  5 C        2.4820    -3.1120    -1.6250 C.3   1 <1>  -0.1600 
  6 C        0.5420    -3.2960    -0.0360 C.3   1 <1>  -0.1600 
  7 C        3.6060    -1.4820    -0.0670 C.3   1 <1>  -0.1600 
  8 C        1.6690    -1.6590     1.5260 C.3   1 <1>  -0.1600 
  9 C        3.4780    -2.9870    -0.4400 C.3   1 <1>  -0.1060 
 10 C        1.5010    -3.1500     1.1650 C.3   1 <1>  -0.0800 
 11 C        4.8420    -3.6120    -0.8170 C.2   1 <1>   0.9060 
 12 C        2.8750    -3.7300     0.7790 C.3   1 <1>  -0.1600 
 13 O        4.8690    -4.7820    -1.2210 O.co2 1 <1>  -0.9000 
 14 O        5.8780    -2.9430    -0.7050 O.co2 1 <1>  -0.9000 
 15 H        0.4310    -2.6020    -2.0860 H     1 <1>   0.0800 
 16 H        2.3340     0.1570     0.5460 H     1 <1>   0.0800 
 17 H        2.3800    -4.1480    -1.8990 H     1 <1>   0.0800 
 18 H        2.8800    -2.5920    -2.4790 H     1 <1>   0.0800 
 19 H        0.4260    -4.3360    -0.2840 H     1 <1>   0.0800 
 20 H       -0.4270    -2.9050     0.2210 H     1 <1>   0.0800 
 21 H        4.2960    -1.3730     0.7510 H     1 <1>   0.0800 
 22 H        4.0160    -0.9430    -0.9040 H     1 <1>   0.0800 
 23 H        2.3370    -1.5590     2.3640 H     1 <1>   0.0800 
 24 H        0.7180    -1.2410     1.8070 H     1 <1>   0.0800 
 25 H        1.1090    -3.6880     2.0110 H     1 <1>   0.0800 
 26 H        3.5550    -3.6550     1.6110 H     1 <1>   0.0800 
 27 H        2.7780    -4.7760     0.5420 H     1 <1>   0.0800 
@<TRIPOS>BOND
  1   1   2  2   
  2   2   3  1   
  3   2   4  1   
  4   3   5  1   
  5   3   6  1   
  6   3  15  1   
  7   4   7  1   
  8   4   8  1   
  9   4  16  1   
 10   5   9  1   
 11   5  17  1   
 12   5  18  1   
 13   6  10  1   
 14   6  19  1   
 15   6  20  1   
 16   7   9  1   
 17   7  21  1   
 18   7  22  1   
 19   8  10  1   
 20   8  23  1   
 21   8  24  1   
 22   9  11  1   
 23   9  12  1   
 24  10  12  1   
 25  10  25  1   
 26  11  13  ar  
 27  11  14  ar  
 28  12  26  1   
 29  12  27  1   
@<TRIPOS>SUBSTRUCTURE
  1 ****   9 GROUP 4 **** **** 0

# MOE 2024.06 (io_trps.svl 2023.06)
