@<TRIPOS>MOLECULE
NONAME
54 58 1 0 0 
SMALL
USER_CHARGES


@<TRIPOS>ATOM
  1 O        0.0240    -0.2160    -1.7650 O.2   1 <1>  -0.5700 
  2 C        0.9350    -1.0020    -1.8560 C.2   1 <1>   0.5690 
  3 N        1.9520    -0.6380    -2.6800 N.am  1 <1>  -0.7300 
  4 C        0.8770    -2.3270    -1.0450 C.3   1 <1>   0.0610 
  5 C        3.2880    -1.2130    -2.9540 C.3   1 <1>   0.3200 
  6 C        0.8380    -3.5590    -1.9840 C.3   1 <1>  -0.1600 
  7 C        2.0740    -2.4620    -0.0680 C.3   1 <1>  -0.1600 
  8 C       -0.4160    -2.3810    -0.1850 C.3   1 <1>  -0.1600 
  9 C        4.3460    -0.5100    -2.1210 C.2   1 <1>  -0.0400 
 10 C        0.7720    -4.9100    -1.2150 C.3   1 <1>   0.0610 
 11 C        1.9990    -3.7820     0.7170 C.3   1 <1>  -0.0800 
 12 C       -0.5140    -3.6910     0.6120 C.3   1 <1>  -0.0800 
 13 O        5.6070    -0.8620    -2.2870 O.3   1 <1>  -0.2800 
 14 C        4.2490     0.4570    -1.1810 C.2   1 <1>  -0.1500 
 15 C        0.7950    -6.1030    -2.2120 C.2   1 <1>   0.5690 
 16 C        2.0040    -4.9610    -0.2740 C.3   1 <1>  -0.1600 
 17 C       -0.5250    -4.8770    -0.3660 C.3   1 <1>  -0.1600 
 18 C        0.7030    -3.8100     1.5440 C.3   1 <1>  -0.1600 
 19 C        6.3370    -0.1340    -1.4670 C.2   1 <1>  -0.0100 
 20 C        5.5580     0.7050    -0.7520 C.2   1 <1>  -0.1500 
 21 O        1.0580    -5.8910    -3.3710 O.2   1 <1>  -0.5700 
 22 N        0.5500    -7.3940    -1.8720 N.am  1 <1>  -0.7300 
 23 C        0.2950    -8.0830    -0.5940 C.3   1 <1>   0.3200 
 24 C        0.9180    -9.4640    -0.6530 C.2   1 <1>  -0.0400 
 25 O        0.4880   -10.3190    -1.5620 O.3   1 <1>  -0.2800 
 26 C        1.8960   -10.0220     0.0940 C.2   1 <1>  -0.1500 
 27 C        1.1750   -11.4340    -1.4180 C.2   1 <1>  -0.0100 
 28 C        2.0650   -11.3180    -0.4090 C.2   1 <1>  -0.1500 
 29 H        1.8160     0.2820    -3.1010 H     1 <1>   0.3700 
 30 H        3.5170    -1.0820    -3.9970 H     1 <1>   0.0800 
 31 H        3.3160    -2.2630    -2.7430 H     1 <1>   0.0800 
 32 H        1.7040    -3.5660    -2.6160 H     1 <1>   0.0800 
 33 H       -0.0160    -3.4780    -2.6350 H     1 <1>   0.0800 
 34 H        2.0740    -1.6310     0.6160 H     1 <1>   0.0800 
 35 H        3.0070    -2.4390    -0.5920 H     1 <1>   0.0800 
 36 H       -1.2800    -2.2880    -0.8210 H     1 <1>   0.0800 
 37 H       -0.4330    -1.5460     0.4960 H     1 <1>   0.0800 
 38 H        2.8490    -3.8570     1.3750 H     1 <1>   0.0800 
 39 H       -1.4190    -3.6910     1.1960 H     1 <1>   0.0800 
 40 H        3.3660     0.9520    -0.8150 H     1 <1>   0.1500 
 41 H        2.9040    -4.9330    -0.8630 H     1 <1>   0.0800 
 42 H        2.0210    -5.8780     0.2810 H     1 <1>   0.0800 
 43 H       -0.6410    -5.7740     0.2070 H     1 <1>   0.0800 
 44 H       -1.3790    -4.8000    -1.0170 H     1 <1>   0.0800 
 45 H        0.6470    -4.7240     2.1080 H     1 <1>   0.0800 
 46 H        0.7030    -2.9940     2.2460 H     1 <1>   0.0800 
 47 H        7.4040    -0.2760    -1.4550 H     1 <1>   0.1500 
 48 H        5.8460     1.4230    -0.0040 H     1 <1>   0.1500 
 49 H        0.6190    -8.0550    -2.6510 H     1 <1>   0.3700 
 50 H       -0.7670    -8.1810    -0.4480 H     1 <1>   0.0800 
 51 H        0.7130    -7.5390     0.2290 H     1 <1>   0.0800 
 52 H        2.4550    -9.5960     0.9090 H     1 <1>   0.1500 
 53 H        0.9680   -12.2610    -2.0750 H     1 <1>   0.1500 
 54 H        2.7680   -12.0450    -0.0440 H     1 <1>   0.1500 
@<TRIPOS>BOND
  1   1   2  2   
  2   2   3  am  
  3   2   4  1   
  4   3   5  1   
  5   3  29  1   
  6   4   6  1   
  7   4   7  1   
  8   4   8  1   
  9   5   9  1   
 10   5  30  1   
 11   5  31  1   
 12   6  10  1   
 13   6  32  1   
 14   6  33  1   
 15   7  11  1   
 16   7  34  1   
 17   7  35  1   
 18   8  12  1   
 19   8  36  1   
 20   8  37  1   
 21   9  13  1   
 22   9  14  2   
 23  10  15  1   
 24  10  16  1   
 25  10  17  1   
 26  11  16  1   
 27  11  18  1   
 28  11  38  1   
 29  12  17  1   
 30  12  18  1   
 31  12  39  1   
 32  13  19  1   
 33  14  20  1   
 34  14  40  1   
 35  15  21  2   
 36  15  22  am  
 37  16  41  1   
 38  16  42  1   
 39  17  43  1   
 40  17  44  1   
 41  18  45  1   
 42  18  46  1   
 43  19  20  2   
 44  19  47  1   
 45  20  48  1   
 46  22  23  1   
 47  22  49  1   
 48  23  24  1   
 49  23  50  1   
 50  23  51  1   
 51  24  25  1   
 52  24  26  2   
 53  25  27  1   
 54  26  28  1   
 55  26  52  1   
 56  27  28  2   
 57  27  53  1   
 58  28  54  1   
@<TRIPOS>SUBSTRUCTURE
  1 ****  16 GROUP 4 **** **** 0

# MOE 2024.06 (io_trps.svl 2023.06)
