@<TRIPOS>MOLECULE
NONAME
33 33 1 0 0 
SMALL
USER_CHARGES


@<TRIPOS>ATOM
  1 S        0.3360     1.0510     0.2880 S.3   1 <1>  -0.3320 
  2 C       -1.4110     1.2630    -0.0840 C.ar  1 <1>   0.1020 
  3 C        0.8800    -0.4960    -0.5630 C.3   1 <1>  -0.0100 
  4 C       -2.0380     2.3690     0.4470 C.ar  1 <1>  -0.1500 
  5 C       -2.1130     0.3660    -0.8690 C.ar  1 <1>  -0.1500 
  6 C       -3.3910     2.6020     0.2010 C.ar  1 <1>   0.0830 
  7 C       -3.4530     0.5940    -1.1110 C.ar  1 <1>  -0.1500 
  8 O       -4.0060     3.6990     0.7170 O.3   1 <1>  -0.3630 
  9 C       -4.1350     1.7020    -0.5920 C.ar  1 <1>   0.0860 
 10 C       -3.3200     4.7030     1.4340 C.3   1 <1>   0.0400 
 11 C       -5.5530     1.8500    -0.9000 C.2   1 <1>   0.5440 
 12 O       -6.0540     1.2230    -1.8150 O.2   1 <1>  -0.5700 
 13 N       -6.3670     2.6710    -0.1750 N.am  1 <1>  -0.7300 
 14 C       -7.7940     2.9210    -0.3980 C.3   1 <1>   0.2200 
 15 C       -7.9580     4.3730    -0.8330 C.3   1 <1>  -0.2400 
 16 C       -8.5330     2.6430     0.9050 C.3   1 <1>  -0.2400 
 17 H        1.9250    -0.6320    -0.3500 H     1 <1>   0.0800 
 18 H        0.7190    -0.3690    -1.6180 H     1 <1>   0.0800 
 19 H        0.3010    -1.3120    -0.1700 H     1 <1>   0.0800 
 20 H       -1.4460     3.0310     1.0480 H     1 <1>   0.1500 
 21 H       -1.6400    -0.4980    -1.2910 H     1 <1>   0.1500 
 22 H       -3.9940    -0.1090    -1.7220 H     1 <1>   0.1500 
 23 H       -4.0240     5.4760     1.6870 H     1 <1>   0.0800 
 24 H       -2.5420     5.1100     0.8110 H     1 <1>   0.0800 
 25 H       -2.9100     4.2750     2.3320 H     1 <1>   0.0800 
 26 H       -5.9110     3.2730     0.5150 H     1 <1>   0.3700 
 27 H       -8.1660     2.2670    -1.1710 H     1 <1>   0.0800 
 28 H       -7.5920     5.0430    -0.0760 H     1 <1>   0.0800 
 29 H       -8.9960     4.5860    -1.0090 H     1 <1>   0.0800 
 30 H       -7.4190     4.5400    -1.7480 H     1 <1>   0.0800 
 31 H       -8.1780     3.2850     1.6910 H     1 <1>   0.0800 
 32 H       -8.3910     1.6170     1.1920 H     1 <1>   0.0800 
 33 H       -9.5860     2.8130     0.7710 H     1 <1>   0.0800 
@<TRIPOS>BOND
  1   1   2  1   
  2   1   3  1   
  3   2   4  ar  
  4   2   5  ar  
  5   3  17  1   
  6   3  18  1   
  7   3  19  1   
  8   4   6  ar  
  9   4  20  1   
 10   5   7  ar  
 11   5  21  1   
 12   6   8  1   
 13   6   9  ar  
 14   7   9  ar  
 15   7  22  1   
 16   8  10  1   
 17   9  11  1   
 18  10  23  1   
 19  10  24  1   
 20  10  25  1   
 21  11  12  2   
 22  11  13  am  
 23  13  14  1   
 24  13  26  1   
 25  14  15  1   
 26  14  16  1   
 27  14  27  1   
 28  15  28  1   
 29  15  29  1   
 30  15  30  1   
 31  16  31  1   
 32  16  32  1   
 33  16  33  1   
@<TRIPOS>SUBSTRUCTURE
  1 ****   9 GROUP 4 **** **** 0

# MOE 2024.06 (io_trps.svl 2023.06)
