@<TRIPOS>MOLECULE
NONAME
49 50 1 0 0 
SMALL
USER_CHARGES


@<TRIPOS>ATOM
  1 CL       0.1800     0.9100     0.8480 Cl    1 <1>  -0.1770 
  2 C        1.8270     1.2140     0.3440 C.ar  1 <1>   0.1770 
  3 C        2.0830     2.0800    -0.7110 C.ar  1 <1>  -0.1440 
  4 C        2.8460     0.5750     1.0200 C.ar  1 <1>  -0.1500 
  5 C        3.4020     2.2960    -1.0780 C.ar  1 <1>  -0.1500 
  6 C        0.9520     2.7790    -1.4510 C.3   1 <1>  -0.0960 
  7 C        4.1680     0.7890     0.6530 C.ar  1 <1>   0.1990 
  8 C        4.4280     1.6580    -0.4030 C.ar  1 <1>  -0.1500 
  9 N        5.2090     0.1540     1.3260 N.am  1 <1>  -0.6930 
 10 S        5.3800    -1.5700     1.3490 S.o2  1 <1>   1.3330 
 11 C        6.3240     0.9760     1.8970 C.3   1 <1>   0.2570 
 12 O        4.0900    -2.1510     1.6190 O.2   1 <1>  -0.6500 
 13 O        6.5080    -1.8550     2.2080 O.2   1 <1>  -0.6500 
 14 C        5.8440    -1.9150    -0.3350 C.3   1 <1>  -0.1350 
 15 C        7.6230     0.9170     1.0870 C.2   1 <1>   0.5690 
 16 O        7.8340     1.7910     0.2810 O.2   1 <1>  -0.5700 
 17 N        8.4700    -0.1390     1.2970 N.am  1 <1>  -0.5470 
 18 C        9.6740    -0.5150     0.6860 C.ar  1 <1>   0.1170 
 19 C       10.1050    -1.8260     0.8400 C.ar  1 <1>  -0.1500 
 20 C       10.4630     0.3520    -0.0610 C.ar  1 <1>  -0.1500 
 21 C       11.2810    -2.2630     0.2580 C.ar  1 <1>  -0.1500 
 22 C       11.6390    -0.0830    -0.6450 C.ar  1 <1>  -0.1500 
 23 C       12.0610    -1.3960    -0.4940 C.ar  1 <1>  -0.1430 
 24 C       13.3600    -1.8600    -1.1490 C.3   1 <1>   0.0630 
 25 C       13.0900    -2.9720    -2.1680 C.3   1 <1>  -0.2400 
 26 C       14.3720    -2.3210    -0.0950 C.3   1 <1>  -0.2400 
 27 H        2.6090    -0.0860     1.8340 H     1 <1>   0.1500 
 28 H        3.6380     2.9620    -1.8900 H     1 <1>   0.1500 
 29 H        0.2930     2.0500    -1.8870 H     1 <1>   0.0800 
 30 H        1.3340     3.4070    -2.2360 H     1 <1>   0.0800 
 31 H        0.3890     3.3900    -0.7680 H     1 <1>   0.0800 
 32 H        5.4440     1.8380    -0.7070 H     1 <1>   0.1500 
 33 H        6.5220     0.6500     2.9020 H     1 <1>   0.0800 
 34 H        6.0110     2.0040     1.9510 H     1 <1>   0.0800 
 35 H        6.7450    -1.3940    -0.5940 H     1 <1>   0.0800 
 36 H        5.0630    -1.6060    -1.0030 H     1 <1>   0.0800 
 37 H        6.0060    -2.9670    -0.4630 H     1 <1>   0.0800 
 38 H        8.0900    -0.8550     1.9320 H     1 <1>   0.3700 
 39 H        9.5170    -2.5150     1.4190 H     1 <1>   0.1500 
 40 H       10.1670     1.3760    -0.1920 H     1 <1>   0.1500 
 41 H       11.5880    -3.2840     0.3930 H     1 <1>   0.1500 
 42 H       12.2260     0.6120    -1.2200 H     1 <1>   0.1500 
 43 H       13.7960    -1.0290    -1.6790 H     1 <1>   0.0800 
 44 H       12.7000    -3.8490    -1.6840 H     1 <1>   0.0800 
 45 H       13.9980    -3.2370    -2.6790 H     1 <1>   0.0800 
 46 H       12.3740    -2.6340    -2.8950 H     1 <1>   0.0800 
 47 H       14.0110    -3.1850     0.4320 H     1 <1>   0.0800 
 48 H       14.5410    -1.5320     0.6160 H     1 <1>   0.0800 
 49 H       15.3090    -2.5680    -0.5610 H     1 <1>   0.0800 
@<TRIPOS>BOND
  1   1   2  1   
  2   2   3  ar  
  3   2   4  ar  
  4   3   5  ar  
  5   3   6  1   
  6   4   7  ar  
  7   4  27  1   
  8   5   8  ar  
  9   5  28  1   
 10   6  29  1   
 11   6  30  1   
 12   6  31  1   
 13   7   8  ar  
 14   7   9  1   
 15   8  32  1   
 16   9  10  am  
 17   9  11  1   
 18  10  12  2   
 19  10  13  2   
 20  10  14  1   
 21  11  15  1   
 22  11  33  1   
 23  11  34  1   
 24  14  35  1   
 25  14  36  1   
 26  14  37  1   
 27  15  16  2   
 28  15  17  am  
 29  17  18  1   
 30  17  38  1   
 31  18  19  ar  
 32  18  20  ar  
 33  19  21  ar  
 34  19  39  1   
 35  20  22  ar  
 36  20  40  1   
 37  21  23  ar  
 38  21  41  1   
 39  22  23  ar  
 40  22  42  1   
 41  23  24  1   
 42  24  25  1   
 43  24  26  1   
 44  24  43  1   
 45  25  44  1   
 46  25  45  1   
 47  25  46  1   
 48  26  47  1   
 49  26  48  1   
 50  26  49  1   
@<TRIPOS>SUBSTRUCTURE
  1 ****  15 GROUP 4 **** **** 0

# MOE 2024.06 (io_trps.svl 2023.06)
