@<TRIPOS>MOLECULE
NONAME
34 35 1 0 0 
SMALL
USER_CHARGES


@<TRIPOS>ATOM
  1 BR      -1.3010     0.2630     1.0590 Br    1 <1>  -0.1110 
  2 C        0.0960     1.5730     1.2470 C.ar  1 <1>   0.1110 
  3 C        0.0280     2.7920     0.5730 C.ar  1 <1>   0.0860 
  4 C        1.1600     1.2240     2.0540 C.ar  1 <1>  -0.1500 
  5 C       -1.0840     3.1810    -0.2630 C.2   1 <1>   0.6340 
  6 C        1.1190     3.6480     0.7410 C.ar  1 <1>  -0.1500 
  7 C        2.2150     2.1070     2.1970 C.ar  1 <1>  -0.1500 
  8 O       -2.2480     3.0480     0.0480 O.2   1 <1>  -0.5700 
  9 O       -0.7880     3.7500    -1.4360 O.3   1 <1>  -0.4300 
 10 C        2.2140     3.3320     1.5370 C.ar  1 <1>  -0.0090 
 11 C       -1.7970     4.1850    -2.3260 C.3   1 <1>   0.0400 
 12 S        3.5990     4.4940     1.7090 S.o2  1 <1>   1.4470 
 13 O        4.7370     3.8250     2.3020 O.2   1 <1>  -0.6500 
 14 O        3.1070     5.7230     2.2890 O.2   1 <1>  -0.6500 
 15 N        4.0040     4.8340     0.1000 N.am  1 <1>  -0.8490 
 16 C        4.8310     6.0480     0.0000 C.3   1 <1>   0.1960 
 17 C        4.7040     3.7190    -0.5620 C.3   1 <1>   0.1960 
 18 C        5.2030     6.3500    -1.4640 C.3   1 <1>   0.1200 
 19 C        5.0610     4.0780    -2.0150 C.3   1 <1>   0.1200 
 20 O        5.8300     5.2460    -2.0540 O.3   1 <1>  -0.5600 
 21 H        1.1640     0.2740     2.5600 H     1 <1>   0.1500 
 22 H        1.1120     4.5990     0.2330 H     1 <1>   0.1500 
 23 H        3.0500     1.8420     2.8270 H     1 <1>   0.1500 
 24 H       -1.3260     4.6040    -3.1980 H     1 <1>   0.0800 
 25 H       -2.3980     4.9300    -1.8340 H     1 <1>   0.0800 
 26 H       -2.4050     3.3410    -2.6020 H     1 <1>   0.0800 
 27 H        5.7330     5.9300     0.5770 H     1 <1>   0.0800 
 28 H        4.2900     6.8900     0.3980 H     1 <1>   0.0800 
 29 H        4.0760     2.8450    -0.5610 H     1 <1>   0.0800 
 30 H        5.6120     3.4800    -0.0330 H     1 <1>   0.0800 
 31 H        5.8860     7.1800    -1.5110 H     1 <1>   0.0800 
 32 H        4.3230     6.5920    -2.0340 H     1 <1>   0.0800 
 33 H        4.1700     4.2320    -2.5990 H     1 <1>   0.0800 
 34 H        5.6400     3.2900    -2.4630 H     1 <1>   0.0800 
@<TRIPOS>BOND
  1   1   2  1   
  2   2   3  ar  
  3   2   4  ar  
  4   3   5  1   
  5   3   6  ar  
  6   4   7  ar  
  7   4  21  1   
  8   5   8  2   
  9   5   9  1   
 10   6  10  ar  
 11   6  22  1   
 12   7  10  ar  
 13   7  23  1   
 14   9  11  1   
 15  10  12  1   
 16  11  24  1   
 17  11  25  1   
 18  11  26  1   
 19  12  13  2   
 20  12  14  2   
 21  12  15  am  
 22  15  16  1   
 23  15  17  1   
 24  16  18  1   
 25  16  27  1   
 26  16  28  1   
 27  17  19  1   
 28  17  29  1   
 29  17  30  1   
 30  18  20  1   
 31  18  31  1   
 32  18  32  1   
 33  19  20  1   
 34  19  33  1   
 35  19  34  1   
@<TRIPOS>SUBSTRUCTURE
  1 ****   6 GROUP 4 **** **** 0

# MOE 2024.06 (io_trps.svl 2023.06)
