@<TRIPOS>MOLECULE
NONAME
44 46 1 0 0 
SMALL
USER_CHARGES


@<TRIPOS>ATOM
  1 I       -2.2080    -1.7290     2.9240 I     1 <1>  -0.0810 
  2 C       -2.2970    -0.3500     1.2930 C.ar  1 <1>   0.0810 
  3 C       -2.4920    -0.7330    -0.0370 C.ar  1 <1>  -0.1440 
  4 C       -2.1400     0.9730     1.6730 C.ar  1 <1>  -0.1500 
  5 C       -2.5220     0.2930    -0.9770 C.ar  1 <1>  -0.1500 
  6 C       -2.6670    -2.1730    -0.5690 C.3   1 <1>   0.3400 
  7 C       -2.1760     1.9640     0.7120 C.ar  1 <1>  -0.1500 
  8 C       -2.3680     1.6200    -0.6130 C.ar  1 <1>  -0.1500 
  9 C       -3.9320    -2.8500    -0.0300 C.2   1 <1>  -0.1240 
 10 C       -1.3870    -2.9970    -0.3710 C.2   1 <1>  -0.1240 
 11 C       -3.8390    -4.0460     0.6050 C.2   1 <1>  -0.0380 
 12 C       -5.1710    -2.1800    -0.2470 C.2   1 <1>   0.4950 
 13 C       -1.4480    -4.1950     0.2740 C.2   1 <1>  -0.0380 
 14 C       -0.2300    -2.3630    -0.9220 C.2   1 <1>   0.7060 
 15 N       -2.6360    -4.6900     0.7660 N.pl3 1 <1>  -0.6000 
 16 C       -5.0560    -4.7550     1.1840 C.3   1 <1>  -0.0220 
 17 O       -5.3250    -1.2290    -0.9760 O.2   1 <1>  -0.5700 
 18 C       -6.3980    -2.7200     0.4660 C.3   1 <1>  -0.0990 
 19 C       -0.2690    -5.1230     0.5190 C.3   1 <1>  -0.1020 
 20 O       -0.2430    -1.7550    -1.9770 O.2   1 <1>  -0.5700 
 21 O        0.9170    -2.4270    -0.2380 O.3   1 <1>  -0.4300 
 22 C       -6.3640    -4.2540     0.5530 C.3   1 <1>  -0.1600 
 23 C        2.0770    -1.7650    -0.6860 C.3   1 <1>   0.1200 
 24 C        3.1890    -2.0300     0.3240 C.3   1 <1>  -0.2400 
 25 H       -1.9920     1.2310     2.7060 H     1 <1>   0.1500 
 26 H       -2.6700     0.0670    -2.0200 H     1 <1>   0.1500 
 27 H       -2.8150    -2.1190    -1.6340 H     1 <1>   0.0800 
 28 H       -2.0570     2.9960     0.9910 H     1 <1>   0.1500 
 29 H       -2.3990     2.3860    -1.3680 H     1 <1>   0.1500 
 30 H       -2.6160    -5.5810     1.2750 H     1 <1>   0.4000 
 31 H       -5.0760    -4.5840     2.2470 H     1 <1>   0.0800 
 32 H       -4.9750    -5.8150     1.0180 H     1 <1>   0.0800 
 33 H       -7.2810    -2.4070    -0.0630 H     1 <1>   0.0800 
 34 H       -6.4310    -2.2940     1.4520 H     1 <1>   0.0800 
 35 H       -0.5430    -6.1370     0.2890 H     1 <1>   0.0800 
 36 H        0.0280    -5.0670     1.5510 H     1 <1>   0.0800 
 37 H        0.5750    -4.8730    -0.0960 H     1 <1>   0.0800 
 38 H       -7.2050    -4.6120     1.1210 H     1 <1>   0.0800 
 39 H       -6.4420    -4.6560    -0.4430 H     1 <1>   0.0800 
 40 H        1.8620    -0.7120    -0.7570 H     1 <1>   0.0800 
 41 H        2.3360    -2.1490    -1.6580 H     1 <1>   0.0800 
 42 H        2.9070    -1.6530     1.2910 H     1 <1>   0.0800 
 43 H        4.0890    -1.5330     0.0110 H     1 <1>   0.0800 
 44 H        3.3860    -3.0850     0.3910 H     1 <1>   0.0800 
@<TRIPOS>BOND
  1   1   2  1   
  2   2   3  ar  
  3   2   4  ar  
  4   3   5  ar  
  5   3   6  1   
  6   4   7  ar  
  7   4  25  1   
  8   5   8  ar  
  9   5  26  1   
 10   6   9  1   
 11   6  10  1   
 12   6  27  1   
 13   7   8  ar  
 14   7  28  1   
 15   8  29  1   
 16   9  11  2   
 17   9  12  1   
 18  10  13  2   
 19  10  14  1   
 20  11  15  1   
 21  11  16  1   
 22  12  17  2   
 23  12  18  1   
 24  13  15  1   
 25  13  19  1   
 26  14  20  2   
 27  14  21  1   
 28  15  30  1   
 29  16  22  1   
 30  16  31  1   
 31  16  32  1   
 32  18  22  1   
 33  18  33  1   
 34  18  34  1   
 35  19  35  1   
 36  19  36  1   
 37  19  37  1   
 38  21  23  1   
 39  22  38  1   
 40  22  39  1   
 41  23  24  1   
 42  23  40  1   
 43  23  41  1   
 44  24  42  1   
 45  24  43  1   
 46  24  44  1   
@<TRIPOS>SUBSTRUCTURE
  1 ****   6 GROUP 4 **** **** 0

# MOE 2024.06 (io_trps.svl 2023.06)
