@<TRIPOS>MOLECULE
NONAME
43 45 1 0 0 
SMALL
USER_CHARGES


@<TRIPOS>ATOM
  1 S       -0.2040     1.9220     0.6620 S.o2  1 <1>   1.4470 
  2 O       -1.0060     2.1180     1.8460 O.2   1 <1>  -0.6500 
  3 O        0.0150     2.9840    -0.2910 O.2   1 <1>  -0.6500 
  4 N        1.3320     1.4830     1.2870 N.am  1 <1>  -0.7570 
  5 C       -0.6800     0.3840    -0.1710 C.ar  1 <1>  -0.0090 
  6 C        2.3190     0.9290     0.4930 C.ar  1 <1>   0.1990 
  7 C       -1.3340    -0.6320     0.5190 C.ar  1 <1>  -0.1500 
  8 C       -0.3480     0.1600    -1.5050 C.ar  1 <1>  -0.1500 
  9 C        2.6650    -0.4060     0.6450 C.ar  1 <1>  -0.1500 
 10 C        2.9500     1.6880    -0.4840 C.ar  1 <1>  -0.1500 
 11 C       -1.6400    -1.8320    -0.0980 C.ar  1 <1>   0.0830 
 12 C       -0.6600    -1.0320    -2.1380 C.ar  1 <1>  -0.1500 
 13 C        3.6140    -0.9870    -0.1870 C.ar  1 <1>   0.0830 
 14 C        3.9090     1.1210    -1.3040 C.ar  1 <1>  -0.1500 
 15 O       -2.2490    -2.8030     0.6260 O.3   1 <1>  -0.3630 
 16 C       -1.3110    -2.0300    -1.4390 C.ar  1 <1>   0.0830 
 17 O        3.9780    -2.2940    -0.1270 O.3   1 <1>  -0.3630 
 18 C        4.2380    -0.2150    -1.1540 C.ar  1 <1>  -0.1500 
 19 C       -2.2780    -4.1040     0.0680 C.3   1 <1>   0.1200 
 20 O       -1.6170    -3.1880    -2.0730 O.3   1 <1>  -0.3630 
 21 C        3.2170    -3.2760     0.5460 C.3   1 <1>   0.2000 
 22 C       -2.5580    -4.0350    -1.4400 C.3   1 <1>   0.1200 
 23 C        4.0820    -4.5310     0.6260 C.3   1 <1>  -0.2400 
 24 C        1.9290    -3.5450    -0.2380 C.3   1 <1>  -0.2400 
 25 H        1.2100     1.1090     2.2210 H     1 <1>   0.4200 
 26 H       -1.6070    -0.4970     1.5510 H     1 <1>   0.1500 
 27 H        0.1670     0.9300    -2.0570 H     1 <1>   0.1500 
 28 H        2.1740    -0.9770     1.4060 H     1 <1>   0.1500 
 29 H        2.6850     2.7240    -0.5990 H     1 <1>   0.1500 
 30 H       -0.3990    -1.1920    -3.1690 H     1 <1>   0.1500 
 31 H        4.3970     1.7160    -2.0570 H     1 <1>   0.1500 
 32 H        4.9790    -0.6690    -1.7880 H     1 <1>   0.1500 
 33 H       -3.0440    -4.6640     0.5730 H     1 <1>   0.0800 
 34 H       -1.3250    -4.5680     0.2490 H     1 <1>   0.0800 
 35 H        3.0070    -2.9310     1.5430 H     1 <1>   0.0800 
 36 H       -3.5410    -3.6370    -1.6210 H     1 <1>   0.0800 
 37 H       -2.4820    -5.0090    -1.8890 H     1 <1>   0.0800 
 38 H        4.3320    -4.8770    -0.3620 H     1 <1>   0.0800 
 39 H        3.5530    -5.3120     1.1410 H     1 <1>   0.0800 
 40 H        4.9860    -4.3190     1.1670 H     1 <1>   0.0800 
 41 H        2.1610    -3.8560    -1.2410 H     1 <1>   0.0800 
 42 H        1.3150    -2.6650    -0.2790 H     1 <1>   0.0800 
 43 H        1.3640    -4.3230     0.2400 H     1 <1>   0.0800 
@<TRIPOS>BOND
  1   1   2  2   
  2   1   3  2   
  3   1   4  am  
  4   1   5  1   
  5   4   6  1   
  6   4  25  1   
  7   5   7  ar  
  8   5   8  ar  
  9   6   9  ar  
 10   6  10  ar  
 11   7  11  ar  
 12   7  26  1   
 13   8  12  ar  
 14   8  27  1   
 15   9  13  ar  
 16   9  28  1   
 17  10  14  ar  
 18  10  29  1   
 19  11  15  1   
 20  11  16  ar  
 21  12  16  ar  
 22  12  30  1   
 23  13  17  1   
 24  13  18  ar  
 25  14  18  ar  
 26  14  31  1   
 27  15  19  1   
 28  16  20  1   
 29  17  21  1   
 30  18  32  1   
 31  19  22  1   
 32  19  33  1   
 33  19  34  1   
 34  20  22  1   
 35  21  23  1   
 36  21  24  1   
 37  21  35  1   
 38  22  36  1   
 39  22  37  1   
 40  23  38  1   
 41  23  39  1   
 42  23  40  1   
 43  24  41  1   
 44  24  42  1   
 45  24  43  1   
@<TRIPOS>SUBSTRUCTURE
  1 ****   5 GROUP 4 **** **** 0

# MOE 2024.06 (io_trps.svl 2023.06)
