@<TRIPOS>MOLECULE
NONAME
42 42 1 0 0 
SMALL
USER_CHARGES


@<TRIPOS>ATOM
  1 BR       1.1870     0.8930    -1.2110 Br    1 <1>  -0.1110 
  2 C       -0.2030     2.0020    -0.4660 C.ar  1 <1>   0.1110 
  3 C        0.1160     2.9190     0.5250 C.ar  1 <1>  -0.1440 
  4 C       -1.4850     1.8480    -0.9550 C.ar  1 <1>  -0.1500 
  5 C       -0.9020     3.7160     1.0280 C.ar  1 <1>  -0.1500 
  6 C        1.5300     3.0510     1.0420 C.3   1 <1>   0.4870 
  7 C       -2.4960     2.6370    -0.4350 C.ar  1 <1>   0.0820 
  8 C       -2.1970     3.5940     0.5440 C.ar  1 <1>   0.0820 
  9 N        2.2950     3.8160     0.0340 N.4   1 <1>  -0.9060 
 10 O       -3.7470     2.4350    -0.9150 O.3   1 <1>  -0.3620 
 11 O       -3.1240     4.4300     1.0690 O.3   1 <1>  -0.3620 
 12 C        3.7200     4.0170     0.4240 C.3   1 <1>   0.3430 
 13 C       -4.7300     1.9510    -0.0240 C.3   1 <1>   0.2000 
 14 C       -3.7410     5.3470     0.1920 C.3   1 <1>   0.1200 
 15 C        4.5030     4.7740    -0.6550 C.3   1 <1>   0.1200 
 16 C       -4.5300     0.4460     0.1590 C.3   1 <1>  -0.2400 
 17 C       -6.0930     2.2590    -0.6390 C.3   1 <1>  -0.2400 
 18 C       -4.7150     6.1930     1.0040 C.3   1 <1>  -0.2400 
 19 O        5.7970     4.9210    -0.1960 O.3   1 <1>  -0.6800 
 20 H       -1.7060     1.1250    -1.7190 H     1 <1>   0.1500 
 21 H       -0.7200     4.4450     1.8000 H     1 <1>   0.1500 
 22 H        1.9630     2.0730     1.1830 H     1 <1>   0.0800 
 23 H        1.5290     3.5680     1.9880 H     1 <1>   0.0800 
 24 H        1.8210     4.7150    -0.1140 H     1 <1>   0.4500 
 25 H        2.2350     3.2980    -0.8530 H     1 <1>   0.4500 
 26 H        4.1930     3.0610     0.5820 H     1 <1>   0.0800 
 27 H        3.7710     4.5800     1.3430 H     1 <1>   0.0800 
 28 H       -4.6350     2.4590     0.9200 H     1 <1>   0.0800 
 29 H       -4.2620     4.8090    -0.5790 H     1 <1>   0.0800 
 30 H       -2.9760     5.9610    -0.2510 H     1 <1>   0.0800 
 31 H        4.0950     5.7570    -0.8210 H     1 <1>   0.0800 
 32 H        4.5380     4.2180    -1.5770 H     1 <1>   0.0800 
 33 H       -4.5770    -0.0570    -0.7910 H     1 <1>   0.0800 
 34 H       -5.2990     0.0500     0.7960 H     1 <1>   0.0800 
 35 H       -3.5800     0.2490     0.6220 H     1 <1>   0.0800 
 36 H       -6.1910     1.7780    -1.5950 H     1 <1>   0.0800 
 37 H       -6.2110     3.3200    -0.7590 H     1 <1>   0.0800 
 38 H       -6.8760     1.9030     0.0070 H     1 <1>   0.0800 
 39 H       -5.4680     5.5660     1.4470 H     1 <1>   0.0800 
 40 H       -5.1990     6.9070     0.3630 H     1 <1>   0.0800 
 41 H       -4.1910     6.7260     1.7770 H     1 <1>   0.0800 
 42 H        6.3660     5.3930    -0.8430 H     1 <1>   0.4000 
@<TRIPOS>BOND
  1   1   2  1   
  2   2   3  ar  
  3   2   4  ar  
  4   3   5  ar  
  5   3   6  1   
  6   4   7  ar  
  7   4  20  1   
  8   5   8  ar  
  9   5  21  1   
 10   6   9  1   
 11   6  22  1   
 12   6  23  1   
 13   7   8  ar  
 14   7  10  1   
 15   8  11  1   
 16   9  12  1   
 17   9  24  1   
 18   9  25  1   
 19  10  13  1   
 20  11  14  1   
 21  12  15  1   
 22  12  26  1   
 23  12  27  1   
 24  13  16  1   
 25  13  17  1   
 26  13  28  1   
 27  14  18  1   
 28  14  29  1   
 29  14  30  1   
 30  15  19  1   
 31  15  31  1   
 32  15  32  1   
 33  16  33  1   
 34  16  34  1   
 35  16  35  1   
 36  17  36  1   
 37  17  37  1   
 38  17  38  1   
 39  18  39  1   
 40  18  40  1   
 41  18  41  1   
 42  19  42  1   
@<TRIPOS>SUBSTRUCTURE
  1 ****   5 GROUP 4 **** **** 0

# MOE 2024.06 (io_trps.svl 2023.06)
