@<TRIPOS>MOLECULE
NONAME
61 64 1 0 0 
SMALL
USER_CHARGES


@<TRIPOS>ATOM
  1 O        1.0170    -0.3880     2.4730 O.2   1 <1>  -0.5700 
  2 C        1.1490    -0.1100     1.3150 C.2   1 <1>   0.4480 
  3 C        1.9400    -1.0020     0.3190 C.3   1 <1>   0.3410 
  4 C        0.5080     1.1630     0.7890 C.3   1 <1>  -0.1790 
  5 O        1.1850    -1.1300    -0.8570 O.3   1 <1>  -0.6800 
  6 C        3.4000    -0.5110    -0.0210 C.3   1 <1>   0.0000 
  7 C        2.1480    -2.4390     0.8400 C.3   1 <1>  -0.0800 
  8 C        4.2550    -1.8160    -0.2020 C.3   1 <1>  -0.0800 
  9 C        3.9770     0.3650     1.1310 C.3   1 <1>  -0.1600 
 10 C        3.4410     0.3290    -1.3270 C.3   1 <1>  -0.2400 
 11 C        3.2650    -2.9860    -0.0420 C.3   1 <1>  -0.1600 
 12 C        0.9140    -3.3630     0.8640 C.3   1 <1>  -0.2400 
 13 C        5.4340    -1.9530     0.8000 C.3   1 <1>  -0.0800 
 14 C        5.4910     0.6130     1.0220 C.3   1 <1>  -0.1600 
 15 C        6.3260    -0.6860     0.8680 C.3   1 <1>  -0.0800 
 16 C        6.2450    -3.2660     0.6520 C.3   1 <1>  -0.1600 
 17 C        7.5540    -0.6140    -0.1270 C.3   1 <1>   0.0000 
 18 C        7.7640    -3.0650     0.5880 C.3   1 <1>  -0.1600 
 19 C        8.0530    -2.0450    -0.5170 C.3   1 <1>  -0.0800 
 20 C        8.6650     0.2020     0.5970 C.3   1 <1>  -0.1600 
 21 C        7.2250     0.0970    -1.4630 C.3   1 <1>  -0.2400 
 22 C        9.5140    -2.1240    -1.0150 C.3   1 <1>  -0.1600 
 23 C       10.0530     0.1260    -0.0490 C.3   1 <1>  -0.1600 
 24 C       10.4850    -1.3320    -0.1460 C.3   1 <1>   0.2000 
 25 O       11.7300    -1.3780    -0.7310 O.3   1 <1>  -0.6800 
 26 H        1.2540     1.8160     0.3810 H     1 <1>   0.0800 
 27 H        0.0060     1.6730     1.5910 H     1 <1>   0.0800 
 28 H       -0.2120     0.9290     0.0280 H     1 <1>   0.0800 
 29 H        0.4810    -1.7860    -0.6960 H     1 <1>   0.4000 
 30 H        2.5310    -2.3730     1.8450 H     1 <1>   0.0800 
 31 H        4.6670    -1.8560    -1.1950 H     1 <1>   0.0800 
 32 H        3.7850    -0.1090     2.0790 H     1 <1>   0.0800 
 33 H        3.4820     1.3190     1.1550 H     1 <1>   0.0800 
 34 H        4.4210     0.7090    -1.5280 H     1 <1>   0.0800 
 35 H        3.1490    -0.2670    -2.1740 H     1 <1>   0.0800 
 36 H        2.7700     1.1650    -1.2630 H     1 <1>   0.0800 
 37 H        2.8700    -3.2410    -1.0110 H     1 <1>   0.0800 
 38 H        3.6950    -3.8720     0.3890 H     1 <1>   0.0800 
 39 H        0.5530    -3.5730    -0.1260 H     1 <1>   0.0800 
 40 H        0.1250    -2.9150     1.4430 H     1 <1>   0.0800 
 41 H        1.1750    -4.2980     1.3270 H     1 <1>   0.0800 
 42 H        4.9800    -2.0310     1.7740 H     1 <1>   0.0800 
 43 H        5.8140     1.1240     1.9130 H     1 <1>   0.0800 
 44 H        5.6570     1.3020     0.2220 H     1 <1>   0.0800 
 45 H        6.7680    -0.8060     1.8420 H     1 <1>   0.0800 
 46 H        5.9450    -3.7760    -0.2470 H     1 <1>   0.0800 
 47 H        6.0160    -3.9220     1.4740 H     1 <1>   0.0800 
 48 H        8.2250    -4.0100     0.3590 H     1 <1>   0.0800 
 49 H        8.1520    -2.7260     1.5330 H     1 <1>   0.0800 
 50 H        7.4630    -2.3730    -1.3570 H     1 <1>   0.0800 
 51 H        8.7820    -0.1600     1.6030 H     1 <1>   0.0800 
 52 H        8.3670     1.2340     0.6710 H     1 <1>   0.0800 
 53 H        6.3620    -0.3490    -1.9190 H     1 <1>   0.0800 
 54 H        8.0380     0.0050    -2.1590 H     1 <1>   0.0800 
 55 H        7.0520     1.1480    -1.3360 H     1 <1>   0.0800 
 56 H        9.5520    -1.7330    -2.0150 H     1 <1>   0.0800 
 57 H        9.8320    -3.1510    -1.0570 H     1 <1>   0.0800 
 58 H       10.7560     0.6640     0.5630 H     1 <1>   0.0800 
 59 H       10.0300     0.5790    -1.0240 H     1 <1>   0.0800 
 60 H       10.5630    -1.7730     0.8340 H     1 <1>   0.0800 
 61 H       11.6900    -0.9740    -1.6170 H     1 <1>   0.4000 
@<TRIPOS>BOND
  1   1   2  2   
  2   2   3  1   
  3   2   4  1   
  4   3   5  1   
  5   3   6  1   
  6   3   7  1   
  7   4  26  1   
  8   4  27  1   
  9   4  28  1   
 10   5  29  1   
 11   6   8  1   
 12   6   9  1   
 13   6  10  1   
 14   7  11  1   
 15   7  12  1   
 16   7  30  1   
 17   8  11  1   
 18   8  13  1   
 19   8  31  1   
 20   9  14  1   
 21   9  32  1   
 22   9  33  1   
 23  10  34  1   
 24  10  35  1   
 25  10  36  1   
 26  11  37  1   
 27  11  38  1   
 28  12  39  1   
 29  12  40  1   
 30  12  41  1   
 31  13  15  1   
 32  13  16  1   
 33  13  42  1   
 34  14  15  1   
 35  14  43  1   
 36  14  44  1   
 37  15  17  1   
 38  15  45  1   
 39  16  18  1   
 40  16  46  1   
 41  16  47  1   
 42  17  19  1   
 43  17  20  1   
 44  17  21  1   
 45  18  19  1   
 46  18  48  1   
 47  18  49  1   
 48  19  22  1   
 49  19  50  1   
 50  20  23  1   
 51  20  51  1   
 52  20  52  1   
 53  21  53  1   
 54  21  54  1   
 55  21  55  1   
 56  22  24  1   
 57  22  56  1   
 58  22  57  1   
 59  23  24  1   
 60  23  58  1   
 61  23  59  1   
 62  24  25  1   
 63  24  60  1   
 64  25  61  1   
@<TRIPOS>SUBSTRUCTURE
  1 ****  13 GROUP 4 **** **** 0

# MOE 2024.06 (io_trps.svl 2023.06)
