@<TRIPOS>MOLECULE
NONAME
45 46 1 0 0 
SMALL
USER_CHARGES


@<TRIPOS>ATOM
  1 O       -1.1940    -0.3720    -0.0620 O.3   1 <1>  -0.3630 
  2 C       -2.3120    -1.0520     0.2950 C.ar  1 <1>   0.0820 
  3 C       -0.2220    -0.1860     0.9430 C.3   1 <1>   0.0400 
  4 C       -3.2190    -0.5780     1.2470 C.ar  1 <1>   0.0820 
  5 C       -2.5420    -2.2670    -0.3260 C.ar  1 <1>  -0.1500 
  6 O       -3.0810     0.6260     1.8580 O.3   1 <1>  -0.3630 
  7 C       -4.3150    -1.3490     1.5920 C.ar  1 <1>  -0.1500 
  8 C       -3.6540    -3.0340     0.0120 C.ar  1 <1>   0.0820 
  9 C       -3.2710     1.7570     1.0370 C.3   1 <1>   0.0400 
 10 C       -4.5410    -2.5750     0.9830 C.ar  1 <1>  -0.1440 
 11 O       -3.9190    -4.2340    -0.5720 O.3   1 <1>  -0.3630 
 12 C       -5.7660    -3.3810     1.3900 C.3   1 <1>   0.3530 
 13 C       -3.1440    -4.7200    -1.6460 C.3   1 <1>   0.0400 
 14 N       -6.9610    -2.6800     0.8800 N.pl3 1 <1>  -0.8690 
 15 C       -7.9160    -3.4770     0.2650 C.ar  1 <1>   0.1000 
 16 C       -8.0630    -3.4860    -1.1220 C.ar  1 <1>  -0.1430 
 17 C       -8.7380    -4.2840     1.0410 C.ar  1 <1>  -0.1500 
 18 C       -9.0230    -4.3000    -1.7010 C.ar  1 <1>  -0.1500 
 19 C       -7.1760    -2.6220    -2.0080 C.3   1 <1>  -0.0970 
 20 C       -9.6950    -5.0980     0.4620 C.ar  1 <1>  -0.1430 
 21 C       -9.8340    -5.1020    -0.9150 C.ar  1 <1>  -0.1500 
 22 C      -10.5910    -5.9770     1.3150 C.3   1 <1>  -0.0970 
 23 H        0.6570     0.2340     0.4870 H     1 <1>   0.0800 
 24 H        0.0110    -1.1400     1.3830 H     1 <1>   0.0800 
 25 H       -0.6020     0.4870     1.6890 H     1 <1>   0.0800 
 26 H       -1.8340    -2.5900    -1.0630 H     1 <1>   0.1500 
 27 H       -4.9980    -0.9790     2.3360 H     1 <1>   0.1500 
 28 H       -3.2020     2.6350     1.6520 H     1 <1>   0.0800 
 29 H       -4.2460     1.6970     0.5860 H     1 <1>   0.0800 
 30 H       -2.5090     1.7780     0.2790 H     1 <1>   0.0800 
 31 H       -5.8230    -3.4410     2.4620 H     1 <1>   0.0800 
 32 H       -5.7290    -4.3840     0.9990 H     1 <1>   0.0800 
 33 H       -3.5720    -5.6510    -1.9720 H     1 <1>   0.0800 
 34 H       -2.1360    -4.8820    -1.3050 H     1 <1>   0.0800 
 35 H       -3.1710    -4.0040    -2.4490 H     1 <1>   0.0800 
 36 H       -6.6310    -1.9420     0.2530 H     1 <1>   0.4000 
 37 H       -8.6160    -4.2570     2.1070 H     1 <1>   0.1500 
 38 H       -9.1470    -4.3180    -2.7680 H     1 <1>   0.1500 
 39 H       -7.3340    -1.5840    -1.7810 H     1 <1>   0.0800 
 40 H       -7.3960    -2.7820    -3.0480 H     1 <1>   0.0800 
 41 H       -6.1430    -2.8660    -1.8390 H     1 <1>   0.0800 
 42 H      -10.5740    -5.7280    -1.3810 H     1 <1>   0.1500 
 43 H      -10.3810    -5.8390     2.3600 H     1 <1>   0.0800 
 44 H      -10.4310    -7.0110     1.0660 H     1 <1>   0.0800 
 45 H      -11.6220    -5.7300     1.1370 H     1 <1>   0.0800 
@<TRIPOS>BOND
  1   1   2  1   
  2   1   3  1   
  3   2   4  ar  
  4   2   5  ar  
  5   3  23  1   
  6   3  24  1   
  7   3  25  1   
  8   4   6  1   
  9   4   7  ar  
 10   5   8  ar  
 11   5  26  1   
 12   6   9  1   
 13   7  10  ar  
 14   7  27  1   
 15   8  10  ar  
 16   8  11  1   
 17   9  28  1   
 18   9  29  1   
 19   9  30  1   
 20  10  12  1   
 21  11  13  1   
 22  12  14  1   
 23  12  31  1   
 24  12  32  1   
 25  13  33  1   
 26  13  34  1   
 27  13  35  1   
 28  14  15  1   
 29  14  36  1   
 30  15  16  ar  
 31  15  17  ar  
 32  16  18  ar  
 33  16  19  1   
 34  17  20  ar  
 35  17  37  1   
 36  18  21  ar  
 37  18  38  1   
 38  19  39  1   
 39  19  40  1   
 40  19  41  1   
 41  20  21  ar  
 42  20  22  1   
 43  21  42  1   
 44  22  43  1   
 45  22  44  1   
 46  22  45  1   
@<TRIPOS>SUBSTRUCTURE
  1 ****  10 GROUP 4 **** **** 0

# MOE 2024.06 (io_trps.svl 2023.06)
