@<TRIPOS>MOLECULE
NONAME
25 25 1 0 0 
SMALL
USER_CHARGES


@<TRIPOS>ATOM
  1 BR      -0.0500    -0.6670    -0.8930 Br    1 <1>  -0.1110 
  2 C       -1.8910    -0.2230    -0.5470 C.ar  1 <1>   0.1110 
  3 C       -2.8810    -0.9330    -1.1960 C.ar  1 <1>  -0.1500 
  4 C       -2.1780     0.7940     0.3440 C.ar  1 <1>  -0.1500 
  5 C       -4.1930    -0.5940    -0.9300 C.ar  1 <1>   0.1770 
  6 C       -3.5030     1.1150     0.5940 C.ar  1 <1>  -0.1500 
  7 CL      -5.4620    -1.4880    -1.7420 Cl    1 <1>  -0.1770 
  8 C       -4.5390     0.4280    -0.0420 C.ar  1 <1>   0.1170 
  9 N       -5.9030     0.7120     0.1740 N.am  1 <1>  -0.5470 
 10 C       -6.5410     1.7480     0.7960 C.2   1 <1>   0.5690 
 11 O       -5.9740     2.6740     1.3180 O.2   1 <1>  -0.5700 
 12 C       -8.0580     1.7190     0.8170 C.3   1 <1>  -0.0990 
 13 C       -8.6660     2.0060    -0.5660 C.3   1 <1>  -0.1600 
 14 C      -10.1970     1.9770    -0.5160 C.3   1 <1>  -0.2400 
 15 H       -2.6380    -1.7220    -1.8840 H     1 <1>   0.1500 
 16 H       -1.3810     1.3260     0.8340 H     1 <1>   0.1500 
 17 H       -3.7200     1.9030     1.2910 H     1 <1>   0.1500 
 18 H       -6.5310     0.0410    -0.2710 H     1 <1>   0.3700 
 19 H       -8.4010     2.4580     1.5190 H     1 <1>   0.0800 
 20 H       -8.3810     0.7570     1.1710 H     1 <1>   0.0800 
 21 H       -8.3220     1.2770    -1.2790 H     1 <1>   0.0800 
 22 H       -8.3400     2.9770    -0.9010 H     1 <1>   0.0800 
 23 H      -10.5480     1.0100    -0.2030 H     1 <1>   0.0800 
 24 H      -10.6000     2.1870    -1.4920 H     1 <1>   0.0800 
 25 H      -10.5650     2.7200     0.1700 H     1 <1>   0.0800 
@<TRIPOS>BOND
  1   1   2  1   
  2   2   3  ar  
  3   2   4  ar  
  4   3   5  ar  
  5   3  15  1   
  6   4   6  ar  
  7   4  16  1   
  8   5   7  1   
  9   5   8  ar  
 10   6   8  ar  
 11   6  17  1   
 12   8   9  1   
 13   9  10  am  
 14   9  18  1   
 15  10  11  2   
 16  10  12  1   
 17  12  13  1   
 18  12  19  1   
 19  12  20  1   
 20  13  14  1   
 21  13  21  1   
 22  13  22  1   
 23  14  23  1   
 24  14  24  1   
 25  14  25  1   
@<TRIPOS>SUBSTRUCTURE
  1 ****   8 GROUP 4 **** **** 0

# MOE 2024.06 (io_trps.svl 2023.06)
