@<TRIPOS>MOLECULE
NONAME
34 35 1 0 0 
SMALL
USER_CHARGES


@<TRIPOS>ATOM
  1 O       -1.2180    -0.1840    -2.1230 O.2   1 <1>  -0.5700 
  2 C       -1.8170     0.2480    -1.1780 C.2   1 <1>   0.6590 
  3 O       -3.0340     0.7480    -1.2430 O.3   1 <1>  -0.4300 
  4 C       -1.2870     0.2790     0.2270 C.3   1 <1>  -0.0990 
  5 C       -3.5390     1.1310     0.0150 C.3   1 <1>   0.2800 
  6 C       -2.2800     1.2300     0.9070 C.3   1 <1>  -0.0190 
  7 C       -4.4630    -0.0080     0.5020 C.3   1 <1>  -0.1600 
  8 C       -4.3510     2.4330    -0.1650 C.3   1 <1>  -0.1600 
  9 C       -1.7310     2.6460     0.9970 C.2   1 <1>   0.6590 
 10 C       -5.7050    -0.1940    -0.3830 C.3   1 <1>  -0.1600 
 11 C       -5.6030     2.2420    -1.0380 C.3   1 <1>  -0.1600 
 12 O       -1.8670     3.2930     2.0020 O.2   1 <1>  -0.5700 
 13 O       -1.1020     3.1170    -0.0730 O.3   1 <1>  -0.4300 
 14 C       -6.4930     1.1150    -0.5040 C.3   1 <1>  -0.1600 
 15 C       -0.5630     4.4190    -0.1380 C.3   1 <1>   0.1200 
 16 C       -1.6580     5.3850    -0.5840 C.3   1 <1>  -0.2400 
 17 H       -0.2710     0.6290     0.2530 H     1 <1>   0.0800 
 18 H       -1.3470    -0.7090     0.6420 H     1 <1>   0.0800 
 19 H       -2.4940     0.9060     1.9100 H     1 <1>   0.0800 
 20 H       -4.7940     0.2210     1.5000 H     1 <1>   0.0800 
 21 H       -3.9210    -0.9360     0.5490 H     1 <1>   0.0800 
 22 H       -3.7410     3.1930    -0.6180 H     1 <1>   0.0800 
 23 H       -4.6570     2.7900     0.8030 H     1 <1>   0.0800 
 24 H       -6.3380    -0.9580     0.0360 H     1 <1>   0.0800 
 25 H       -5.4020    -0.5200    -1.3640 H     1 <1>   0.0800 
 26 H       -5.3010     2.0080    -2.0450 H     1 <1>   0.0800 
 27 H       -6.1640     3.1600    -1.0700 H     1 <1>   0.0800 
 28 H       -6.8840     1.3910     0.4600 H     1 <1>   0.0800 
 29 H       -7.3280     0.9710    -1.1690 H     1 <1>   0.0800 
 30 H        0.2390     4.4040    -0.8560 H     1 <1>   0.0800 
 31 H       -0.1670     4.6900     0.8270 H     1 <1>   0.0800 
 32 H       -2.0530     5.0850    -1.5380 H     1 <1>   0.0800 
 33 H       -1.2500     6.3740    -0.6790 H     1 <1>   0.0800 
 34 H       -2.4500     5.4140     0.1440 H     1 <1>   0.0800 
@<TRIPOS>BOND
  1   1   2  2   
  2   2   3  1   
  3   2   4  1   
  4   3   5  1   
  5   4   6  1   
  6   4  17  1   
  7   4  18  1   
  8   5   6  1   
  9   5   7  1   
 10   5   8  1   
 11   6   9  1   
 12   6  19  1   
 13   7  10  1   
 14   7  20  1   
 15   7  21  1   
 16   8  11  1   
 17   8  22  1   
 18   8  23  1   
 19   9  12  2   
 20   9  13  1   
 21  10  14  1   
 22  10  24  1   
 23  10  25  1   
 24  11  14  1   
 25  11  26  1   
 26  11  27  1   
 27  13  15  1   
 28  14  28  1   
 29  14  29  1   
 30  15  16  1   
 31  15  30  1   
 32  15  31  1   
 33  16  32  1   
 34  16  33  1   
 35  16  34  1   
@<TRIPOS>SUBSTRUCTURE
  1 ****   5 GROUP 4 **** **** 0

# MOE 2024.06 (io_trps.svl 2023.06)
