@<TRIPOS>MOLECULE
NONAME
33 34 1 0 0 
SMALL
USER_CHARGES


@<TRIPOS>ATOM
  1 O       -0.0100     0.7270    -1.7390 O.2   1 <1>  -0.5700 
  2 C       -0.0340     1.8020    -1.1700 C.2   1 <1>   0.5440 
  3 N        1.1550     2.4370    -0.8810 N.am  1 <1>  -0.6600 
  4 C       -1.3070     2.3930    -0.8020 C.ar  1 <1>   0.0860 
  5 C        2.4820     1.8640    -1.2560 C.3   1 <1>   0.1400 
  6 C        1.2620     3.6920    -0.0790 C.3   1 <1>   0.1400 
  7 C       -2.0090     2.0010     0.3430 C.ar  1 <1>  -0.1440 
  8 C       -1.8530     3.4020    -1.5910 C.ar  1 <1>  -0.1500 
  9 C        3.3990     1.7820    -0.0250 C.3   1 <1>   0.1200 
 10 C        2.2510     3.5040     1.0840 C.3   1 <1>   0.1200 
 11 C       -3.2070     2.6150     0.6720 C.ar  1 <1>  -0.1500 
 12 C       -1.4650     0.8930     1.2350 C.3   1 <1>  -0.0960 
 13 C       -3.0470     4.0120    -1.2590 C.ar  1 <1>  -0.1500 
 14 O        3.4810     3.0240     0.6190 O.3   1 <1>  -0.5600 
 15 C       -3.7320     3.6210    -0.1220 C.ar  1 <1>  -0.1440 
 16 C       -5.0460     4.2840     0.2520 C.3   1 <1>  -0.0970 
 17 H        2.9410     2.4920    -1.9990 H     1 <1>   0.0800 
 18 H        2.3690     0.8810    -1.6780 H     1 <1>   0.0800 
 19 H        0.3060     3.9810     0.3180 H     1 <1>   0.0800 
 20 H        1.6120     4.4870    -0.7140 H     1 <1>   0.0800 
 21 H       -1.3260     3.7060    -2.4790 H     1 <1>   0.1500 
 22 H        4.3930     1.4990    -0.3210 H     1 <1>   0.0800 
 23 H        3.0260     1.0540     0.6740 H     1 <1>   0.0800 
 24 H        1.8590     2.8070     1.8040 H     1 <1>   0.0800 
 25 H        2.4300     4.4440     1.5740 H     1 <1>   0.0800 
 26 H       -3.7410     2.3100     1.5540 H     1 <1>   0.1500 
 27 H       -0.4930     1.1610     1.6080 H     1 <1>   0.0800 
 28 H       -1.3780    -0.0190     0.6710 H     1 <1>   0.0800 
 29 H       -2.1140     0.7130     2.0730 H     1 <1>   0.0800 
 30 H       -3.4430     4.7890    -1.8890 H     1 <1>   0.1500 
 31 H       -5.7100     3.5680     0.7030 H     1 <1>   0.0800 
 32 H       -5.5270     4.6890    -0.6190 H     1 <1>   0.0800 
 33 H       -4.8650     5.0800     0.9520 H     1 <1>   0.0800 
@<TRIPOS>BOND
  1   1   2  2   
  2   2   3  am  
  3   2   4  1   
  4   3   5  1   
  5   3   6  1   
  6   4   7  ar  
  7   4   8  ar  
  8   5   9  1   
  9   5  17  1   
 10   5  18  1   
 11   6  10  1   
 12   6  19  1   
 13   6  20  1   
 14   7  11  ar  
 15   7  12  1   
 16   8  13  ar  
 17   8  21  1   
 18   9  14  1   
 19   9  22  1   
 20   9  23  1   
 21  10  14  1   
 22  10  24  1   
 23  10  25  1   
 24  11  15  ar  
 25  11  26  1   
 26  12  27  1   
 27  12  28  1   
 28  12  29  1   
 29  13  15  ar  
 30  13  30  1   
 31  15  16  1   
 32  16  31  1   
 33  16  32  1   
 34  16  33  1   
@<TRIPOS>SUBSTRUCTURE
  1 ****   4 GROUP 4 **** **** 0

# MOE 2024.06 (io_trps.svl 2023.06)
