@<TRIPOS>MOLECULE
NONAME
48 52 1 0 0 
SMALL
USER_CHARGES


@<TRIPOS>ATOM
  1 O       -0.0760    -0.9010    -1.4810 O.2   1 <1>  -0.5700 
  2 C       -0.4290    -1.5940    -0.5590 C.2   1 <1>   0.5690 
  3 N        0.3690    -2.2790     0.2980 N.am  1 <1>  -0.1830 
  4 C       -1.8950    -1.7900    -0.2110 C.3   1 <1>  -0.0190 
  5 C        1.7560    -2.2610     0.2560 C.2   1 <1>   0.5790 
  6 C       -0.3570    -2.9360     1.2370 C.2   1 <1>   0.5690 
  7 C       -1.8450    -2.7100     1.0300 C.3   1 <1>  -0.0190 
  8 C       -2.7090    -2.3810    -1.3780 C.3   1 <1>  -0.1600 
  9 N        2.4660    -1.4340     0.9550 N.2   1 <1>  -0.7070 
 10 N        2.4260    -3.1290    -0.5240 N.2   1 <1>  -0.5650 
 11 O        0.0710    -3.6150     2.1380 O.2   1 <1>  -0.5700 
 12 C       -2.6300    -4.0240     0.8520 C.3   1 <1>  -0.1600 
 13 C       -4.0960    -2.8460    -0.9080 C.3   1 <1>  -0.1600 
 14 N        3.7100    -1.7750     0.5880 N.pl3 1 <1>   0.3140 
 15 C        3.6390    -2.7940    -0.2790 C.2   1 <1>   0.2700 
 16 C       -4.0530    -3.7520     0.3410 C.3   1 <1>  -0.1600 
 17 C        5.0030    -1.2120     1.0740 C.3   1 <1>   0.4570 
 18 N        4.7720    -3.3950    -0.7980 N.pl3 1 <1>  -0.5840 
 19 C        5.1250     0.2680     0.7130 C.ar  1 <1>  -0.1440 
 20 C        6.1880    -1.9890     0.4820 C.2   1 <1>  -0.2880 
 21 C        6.0430    -2.9980    -0.3920 C.2   1 <1>  -0.0380 
 22 C        5.1810     1.2330     1.7100 C.ar  1 <1>  -0.1500 
 23 C        5.1840     0.6670    -0.6170 C.ar  1 <1>  -0.1500 
 24 C        7.1940    -3.7710    -0.9980 C.3   1 <1>  -0.1020 
 25 C        5.2990     2.5730     1.3830 C.ar  1 <1>  -0.1500 
 26 C        5.3010     2.0060    -0.9430 C.ar  1 <1>  -0.1500 
 27 C        5.3600     2.9600     0.0570 C.ar  1 <1>  -0.1500 
 28 H       -2.3080    -0.8370     0.0650 H     1 <1>   0.0800 
 29 H       -2.2270    -2.1790     1.8840 H     1 <1>   0.0800 
 30 H       -2.1800    -3.2170    -1.8030 H     1 <1>   0.0800 
 31 H       -2.8150    -1.6420    -2.1550 H     1 <1>   0.0800 
 32 H       -2.6730    -4.5490     1.7920 H     1 <1>   0.0800 
 33 H       -2.1170    -4.6620     0.1520 H     1 <1>   0.0800 
 34 H       -4.5800    -3.3710    -1.7140 H     1 <1>   0.0800 
 35 H       -4.6970    -1.9800    -0.6870 H     1 <1>   0.0800 
 36 H       -4.6210    -3.2850     1.1270 H     1 <1>   0.0800 
 37 H       -4.5310    -4.6910     0.1190 H     1 <1>   0.0800 
 38 H        5.0130    -1.3240     2.1420 H     1 <1>   0.0800 
 39 H        4.6240    -4.1750    -1.4460 H     1 <1>   0.4000 
 40 H        7.1410    -1.6350     0.8300 H     1 <1>   0.1500 
 41 H        5.1300     0.9510     2.7470 H     1 <1>   0.1500 
 42 H        5.1360    -0.0660    -1.4060 H     1 <1>   0.1500 
 43 H        7.1150    -4.8110    -0.7390 H     1 <1>   0.0800 
 44 H        8.1330    -3.3960    -0.6330 H     1 <1>   0.0800 
 45 H        7.1800    -3.6730    -2.0680 H     1 <1>   0.0800 
 46 H        5.3410     3.3150     2.1610 H     1 <1>   0.1500 
 47 H        5.3430     2.3060    -1.9760 H     1 <1>   0.1500 
 48 H        5.4500     4.0020    -0.1980 H     1 <1>   0.1500 
@<TRIPOS>BOND
  1   1   2  2   
  2   2   3  am  
  3   2   4  1   
  4   3   5  1   
  5   3   6  am  
  6   4   7  1   
  7   4   8  1   
  8   4  28  1   
  9   5   9  2   
 10   5  10  1   
 11   6   7  1   
 12   6  11  2   
 13   7  12  1   
 14   7  29  1   
 15   8  13  1   
 16   8  30  1   
 17   8  31  1   
 18   9  14  1   
 19  10  15  2   
 20  12  16  1   
 21  12  32  1   
 22  12  33  1   
 23  13  16  1   
 24  13  34  1   
 25  13  35  1   
 26  14  15  1   
 27  14  17  1   
 28  15  18  1   
 29  16  36  1   
 30  16  37  1   
 31  17  19  1   
 32  17  20  1   
 33  17  38  1   
 34  18  21  1   
 35  18  39  1   
 36  19  22  ar  
 37  19  23  ar  
 38  20  21  2   
 39  20  40  1   
 40  21  24  1   
 41  22  25  ar  
 42  22  41  1   
 43  23  26  ar  
 44  23  42  1   
 45  24  43  1   
 46  24  44  1   
 47  24  45  1   
 48  25  27  ar  
 49  25  46  1   
 50  26  27  ar  
 51  26  47  1   
 52  27  48  1   
@<TRIPOS>SUBSTRUCTURE
  1 ****   5 GROUP 4 **** **** 0

# MOE 2024.06 (io_trps.svl 2023.06)
