@<TRIPOS>MOLECULE
NONAME
36 36 1 0 0 
SMALL
USER_CHARGES


@<TRIPOS>ATOM
  1 S       -0.2620     0.5280     0.1640 S.o2  1 <1>   1.4470 
  2 O        0.0880     1.0170     1.4790 O.2   1 <1>  -0.6500 
  3 O       -0.4080     1.4460    -0.9420 O.2   1 <1>  -0.6500 
  4 N        0.9660    -0.4780    -0.3950 N.am  1 <1>  -0.9140 
  5 C       -1.6880    -0.5870     0.2910 C.ar  1 <1>  -0.0090 
  6 C        2.3430    -0.1910    -0.0920 C.3   1 <1>   0.3560 
  7 C       -2.9760    -0.0680     0.3780 C.ar  1 <1>   0.0830 
  8 C       -1.5380    -1.9700     0.3330 C.ar  1 <1>  -0.1500 
  9 C        3.1430    -1.0580    -1.0630 C.3   1 <1>  -0.2400 
 10 C        2.6800    -0.6320     1.3330 C.3   1 <1>  -0.2400 
 11 C        2.7060     1.2760    -0.3400 C.3   1 <1>  -0.2400 
 12 O       -3.1040     1.2830     0.3690 O.3   1 <1>  -0.3630 
 13 C       -4.0770    -0.9170     0.4760 C.ar  1 <1>  -0.1500 
 14 C       -2.6300    -2.8130     0.4330 C.ar  1 <1>  -0.1500 
 15 C       -4.3550     1.9290     0.4390 C.3   1 <1>   0.0400 
 16 C       -3.9080    -2.2900     0.5000 C.ar  1 <1>  -0.1430 
 17 C       -5.1060    -3.2160     0.6090 C.3   1 <1>  -0.0970 
 18 H        0.8870    -0.3440    -1.3990 H     1 <1>   0.4200 
 19 H       -0.5540    -2.4050     0.2910 H     1 <1>   0.1500 
 20 H        2.9390    -0.7810    -2.0820 H     1 <1>   0.0800 
 21 H        2.9010    -2.0970    -0.9260 H     1 <1>   0.0800 
 22 H        4.1970    -0.9360    -0.8900 H     1 <1>   0.0800 
 23 H        2.3500    -1.6410     1.5010 H     1 <1>   0.0800 
 24 H        2.2270     0.0090     2.0640 H     1 <1>   0.0800 
 25 H        3.7420    -0.5920     1.4900 H     1 <1>   0.0800 
 26 H        2.4100     1.5840    -1.3260 H     1 <1>   0.0800 
 27 H        3.7680     1.4110    -0.2490 H     1 <1>   0.0800 
 28 H        2.2420     1.9210     0.3840 H     1 <1>   0.0800 
 29 H       -5.0730    -0.5230     0.5390 H     1 <1>   0.1500 
 30 H       -2.4800    -3.8790     0.4600 H     1 <1>   0.1500 
 31 H       -4.1830     2.9890     0.4070 H     1 <1>   0.0800 
 32 H       -4.8340     1.6640     1.3650 H     1 <1>   0.0800 
 33 H       -4.9500     1.6300    -0.4060 H     1 <1>   0.0800 
 34 H       -5.9910    -2.7390     0.2270 H     1 <1>   0.0800 
 35 H       -5.2710    -3.4790     1.6390 H     1 <1>   0.0800 
 36 H       -4.9360    -4.1150     0.0440 H     1 <1>   0.0800 
@<TRIPOS>BOND
  1   1   2  2   
  2   1   3  2   
  3   1   4  am  
  4   1   5  1   
  5   4   6  1   
  6   4  18  1   
  7   5   7  ar  
  8   5   8  ar  
  9   6   9  1   
 10   6  10  1   
 11   6  11  1   
 12   7  12  1   
 13   7  13  ar  
 14   8  14  ar  
 15   8  19  1   
 16   9  20  1   
 17   9  21  1   
 18   9  22  1   
 19  10  23  1   
 20  10  24  1   
 21  10  25  1   
 22  11  26  1   
 23  11  27  1   
 24  11  28  1   
 25  12  15  1   
 26  13  16  ar  
 27  13  29  1   
 28  14  16  ar  
 29  14  30  1   
 30  15  31  1   
 31  15  32  1   
 32  15  33  1   
 33  16  17  1   
 34  17  34  1   
 35  17  35  1   
 36  17  36  1   
@<TRIPOS>SUBSTRUCTURE
  1 ****   5 GROUP 4 **** **** 0

# MOE 2024.06 (io_trps.svl 2023.06)
