@<TRIPOS>MOLECULE
NONAME
42 44 1 0 0 
SMALL
USER_CHARGES


@<TRIPOS>ATOM
  1 S       -0.7190    -2.1310     0.7960 S.o2  1 <1>   1.4470 
  2 O       -1.7560    -3.0710     0.4450 O.2   1 <1>  -0.6500 
  3 O        0.0330    -2.3050     2.0160 O.2   1 <1>  -0.6500 
  4 N        0.4170    -2.2930    -0.4770 N.am  1 <1>  -0.7570 
  5 C       -1.3040    -0.4270     0.6060 C.ar  1 <1>  -0.0090 
  6 C        1.6160    -1.6050    -0.4930 C.ar  1 <1>   0.1990 
  7 C       -2.3250    -0.1150    -0.2850 C.ar  1 <1>  -0.1500 
  8 C       -0.7170     0.6150     1.3200 C.ar  1 <1>  -0.1500 
  9 C        1.6770    -0.3030    -0.9690 C.ar  1 <1>  -0.1500 
 10 C        2.7810    -2.2050    -0.0360 C.ar  1 <1>  -0.1500 
 11 C       -2.7490     1.1900    -0.4570 C.ar  1 <1>   0.0830 
 12 C       -1.1370     1.9260     1.1630 C.ar  1 <1>  -0.1500 
 13 C        2.8750     0.3870    -0.9830 C.ar  1 <1>  -0.1500 
 14 C        3.9800    -1.5160    -0.0520 C.ar  1 <1>  -0.1500 
 15 O       -3.7360     1.4460    -1.3520 O.3   1 <1>  -0.3630 
 16 C       -2.1590     2.2180     0.2790 C.ar  1 <1>   0.0830 
 17 C        4.0400    -0.2120    -0.5250 C.ar  1 <1>  -0.1430 
 18 C       -3.9260     2.7960    -1.7320 C.3   1 <1>   0.1200 
 19 O       -2.5700     3.5030     0.1460 O.3   1 <1>  -0.3620 
 20 C        5.3560     0.5650    -0.5480 C.3   1 <1>   0.0630 
 21 C       -3.8060     3.7170    -0.5090 C.3   1 <1>   0.1200 
 22 C        6.3820    -0.1240    -1.4530 C.3   1 <1>  -0.2400 
 23 C        5.9120     0.7410     0.8690 C.3   1 <1>  -0.2400 
 24 H        0.4700    -3.2800    -0.7030 H     1 <1>   0.4200 
 25 H       -2.7960    -0.8950    -0.8580 H     1 <1>   0.1500 
 26 H        0.0830     0.3970     2.0100 H     1 <1>   0.1500 
 27 H        0.7830     0.1690    -1.3340 H     1 <1>   0.1500 
 28 H        2.7470    -3.2100     0.3420 H     1 <1>   0.1500 
 29 H       -0.6790     2.7220     1.7230 H     1 <1>   0.1500 
 30 H        2.8950     1.3960    -1.3560 H     1 <1>   0.1500 
 31 H        4.8690    -2.0010     0.3100 H     1 <1>   0.1500 
 32 H       -4.9000     2.8800    -2.1800 H     1 <1>   0.0800 
 33 H       -3.1780     3.0470    -2.4630 H     1 <1>   0.0800 
 34 H        5.1710     1.5460    -0.9510 H     1 <1>   0.0800 
 35 H       -4.5960     3.5120     0.1920 H     1 <1>   0.0800 
 36 H       -3.8520     4.7500    -0.8020 H     1 <1>   0.0800 
 37 H        6.6430    -1.0940    -1.0700 H     1 <1>   0.0800 
 38 H        7.2750     0.4700    -1.5230 H     1 <1>   0.0800 
 39 H        5.9730    -0.2450    -2.4410 H     1 <1>   0.0800 
 40 H        6.1610    -0.2100     1.3040 H     1 <1>   0.0800 
 41 H        5.1780     1.2210     1.4920 H     1 <1>   0.0800 
 42 H        6.7970     1.3520     0.8490 H     1 <1>   0.0800 
@<TRIPOS>BOND
  1   1   2  2   
  2   1   3  2   
  3   1   4  am  
  4   1   5  1   
  5   4   6  1   
  6   4  24  1   
  7   5   7  ar  
  8   5   8  ar  
  9   6   9  ar  
 10   6  10  ar  
 11   7  11  ar  
 12   7  25  1   
 13   8  12  ar  
 14   8  26  1   
 15   9  13  ar  
 16   9  27  1   
 17  10  14  ar  
 18  10  28  1   
 19  11  15  1   
 20  11  16  ar  
 21  12  16  ar  
 22  12  29  1   
 23  13  17  ar  
 24  13  30  1   
 25  14  17  ar  
 26  14  31  1   
 27  15  18  1   
 28  16  19  1   
 29  17  20  1   
 30  18  21  1   
 31  18  32  1   
 32  18  33  1   
 33  19  21  1   
 34  20  22  1   
 35  20  23  1   
 36  20  34  1   
 37  21  35  1   
 38  21  36  1   
 39  22  37  1   
 40  22  38  1   
 41  22  39  1   
 42  23  40  1   
 43  23  41  1   
 44  23  42  1   
@<TRIPOS>SUBSTRUCTURE
  1 ****   9 GROUP 4 **** **** 0

# MOE 2024.06 (io_trps.svl 2023.06)
