@<TRIPOS>MOLECULE
NONAME
51 54 1 0 0 
SMALL
USER_CHARGES


@<TRIPOS>ATOM
  1 O       -4.3380    -4.8480     0.3220 O.2   1 <1>  -0.5740 
  2 C       -3.5920    -3.8970     0.2170 C.2   1 <1>   0.7900 
  3 O       -4.1230    -2.6840     0.0550 O.3   1 <1>  -0.4350 
  4 C       -2.1460    -4.0100     0.2520 C.2   1 <1>   0.2710 
  5 C       -5.5180    -2.4760     0.0030 C.3   1 <1>   0.1130 
  6 N       -1.4180    -5.2230     0.2530 N.pl3 1 <1>  -0.6410 
  7 C       -1.1960    -3.0270     0.2850 C.2   1 <1>   0.1750 
  8 C       -5.7630    -0.9820    -0.1770 C.3   1 <1>  -0.2460 
  9 C       -0.1280    -4.9240     0.2850 C.cat 1 <1>   1.0690 
 10 C       -1.4940    -6.6130     0.2390 C.ar  1 <1>   0.3810 
 11 N        0.0350    -3.6170     0.3050 N.pl3 1 <1>  -0.7030 
 12 C       -1.2610    -1.5070     0.3020 C.3   1 <1>  -0.0800 
 13 N        0.6750    -6.0010     0.2970 N.pl3 1 <1>  -0.5800 
 14 C       -0.1870    -7.0920     0.2710 C.ar  1 <1>   0.3050 
 15 C       -2.5670    -7.4970     0.2030 C.ar  1 <1>  -0.1570 
 16 C        2.1610    -6.0810     0.4590 C.3   1 <1>   0.1610 
 17 C        0.0650    -8.4610     0.2740 C.ar  1 <1>  -0.1570 
 18 C       -2.3130    -8.8540     0.2050 C.ar  1 <1>  -0.1570 
 19 C        2.9570    -5.0960    -0.4210 C.3   1 <1>   0.1030 
 20 C       -1.0040    -9.3340     0.2410 C.ar  1 <1>  -0.1570 
 21 N        2.7420    -3.6810    -0.0570 N.3   1 <1>  -0.8130 
 22 C        3.2190    -2.7950    -1.1430 C.3   1 <1>   0.1030 
 23 C        3.4620    -3.3120     1.1860 C.3   1 <1>   0.1030 
 24 C        3.0340    -1.3130    -0.7730 C.3   1 <1>   0.1130 
 25 C        3.2710    -1.8190     1.5130 C.3   1 <1>   0.1130 
 26 O        3.6720    -1.0250     0.4360 O.3   1 <1>  -0.5640 
 27 H       -5.9550    -2.8290     0.9230 H     1 <1>   0.0720 
 28 H       -5.9200    -3.0340    -0.8260 H     1 <1>   0.0720 
 29 H       -5.3550    -0.4330     0.6530 H     1 <1>   0.0720 
 30 H       -6.8210    -0.7930    -0.2210 H     1 <1>   0.0720 
 31 H       -5.3190    -0.6380    -1.0940 H     1 <1>   0.0720 
 32 H        1.0000    -3.2390     0.2610 H     1 <1>   0.4450 
 33 H       -2.2640    -1.1410     0.4090 H     1 <1>   0.0720 
 34 H       -0.8520    -1.1140    -0.6110 H     1 <1>   0.0720 
 35 H       -0.6820    -1.1270     1.1250 H     1 <1>   0.0720 
 36 H       -3.5790    -7.1380     0.1760 H     1 <1>   0.1430 
 37 H        2.4820    -7.0730     0.1940 H     1 <1>   0.0720 
 38 H        2.4150    -5.9350     1.4940 H     1 <1>   0.0720 
 39 H        1.0720    -8.8360     0.3020 H     1 <1>   0.1430 
 40 H       -3.1320    -9.5560     0.1780 H     1 <1>   0.1430 
 41 H        2.6680    -5.2550    -1.4470 H     1 <1>   0.0720 
 42 H        4.0080    -5.3240    -0.3470 H     1 <1>   0.0720 
 43 H       -0.8350   -10.4000     0.2420 H     1 <1>   0.1430 
 44 H        2.6710    -3.0000    -2.0470 H     1 <1>   0.0720 
 45 H        4.2630    -2.9760    -1.3380 H     1 <1>   0.0720 
 46 H        4.5160    -3.5070     1.0780 H     1 <1>   0.0720 
 47 H        3.0980    -3.8930     2.0140 H     1 <1>   0.0720 
 48 H        1.9910    -1.0670    -0.6780 H     1 <1>   0.0720 
 49 H        3.4700    -0.6830    -1.5290 H     1 <1>   0.0720 
 50 H        3.8720    -1.5430     2.3610 H     1 <1>   0.0720 
 51 H        2.2410    -1.6020     1.7350 H     1 <1>   0.0720 
@<TRIPOS>BOND
  1   1   2  2   
  2   2   3  1   
  3   2   4  1   
  4   3   5  1   
  5   4   6  1   
  6   4   7  2   
  7   5   8  1   
  8   5  27  1   
  9   5  28  1   
 10   6   9  ar  
 11   6  10  1   
 12   7  11  1   
 13   7  12  1   
 14   8  29  1   
 15   8  30  1   
 16   8  31  1   
 17   9  11  ar  
 18   9  13  ar  
 19  10  14  ar  
 20  10  15  ar  
 21  11  32  1   
 22  12  33  1   
 23  12  34  1   
 24  12  35  1   
 25  13  14  1   
 26  13  16  1   
 27  14  17  ar  
 28  15  18  ar  
 29  15  36  1   
 30  16  19  1   
 31  16  37  1   
 32  16  38  1   
 33  17  20  ar  
 34  17  39  1   
 35  18  20  ar  
 36  18  40  1   
 37  19  21  1   
 38  19  41  1   
 39  19  42  1   
 40  20  43  1   
 41  21  22  1   
 42  21  23  1   
 43  22  24  1   
 44  22  44  1   
 45  22  45  1   
 46  23  25  1   
 47  23  46  1   
 48  23  47  1   
 49  24  26  1   
 50  24  48  1   
 51  24  49  1   
 52  25  26  1   
 53  25  50  1   
 54  25  51  1   
@<TRIPOS>SUBSTRUCTURE
  1 ****   9 GROUP 4 **** **** 0

# MOE 2024.06 (io_trps.svl 2023.06)
