@<TRIPOS>MOLECULE
NONAME
38 39 1 0 0 
SMALL
USER_CHARGES


@<TRIPOS>ATOM
  1 O       -0.0170    -0.2970    -0.0610 O.3   1 <1>  -0.3630 
  2 C       -1.2310    -0.9100    -0.0530 C.ar  1 <1>   0.0830 
  3 C        1.1900    -1.0150    -0.1560 C.3   1 <1>   0.1200 
  4 C       -2.3800    -0.1160     0.0080 C.ar  1 <1>  -0.1440 
  5 C       -1.3510    -2.2990    -0.1050 C.ar  1 <1>  -0.1500 
  6 C        2.3320    -0.0060    -0.1660 C.3   1 <1>   0.0960 
  7 C       -3.6190    -0.7410     0.0130 C.ar  1 <1>  -0.1500 
  8 C       -2.3580     1.4180     0.0690 C.3   1 <1>   0.0640 
  9 C       -2.5940    -2.9060    -0.0970 C.ar  1 <1>  -0.1440 
 10 N        3.6180    -0.7140    -0.2860 N.pl3 1 <1>   0.0480 
 11 C       -3.7290    -2.1180    -0.0390 C.ar  1 <1>  -0.1500 
 12 C       -1.7400     2.0400    -1.1890 C.3   1 <1>  -0.2400 
 13 C       -1.6800     1.9360     1.3430 C.3   1 <1>  -0.2400 
 14 C       -2.7130    -4.4180    -0.1560 C.3   1 <1>  -0.0970 
 15 C        4.3000    -1.0080    -1.4150 C.2   1 <1>   0.0360 
 16 C        4.3610    -1.2340     0.7070 C.2   1 <1>  -0.3020 
 17 N        5.3970    -1.6630    -1.2120 N.2   1 <1>  -0.5650 
 18 C        5.4380    -1.8050     0.1260 C.2   1 <1>   0.0770 
 19 H        1.1740    -1.5820    -1.0710 H     1 <1>   0.0800 
 20 H        1.2640    -1.6660     0.6980 H     1 <1>   0.0800 
 21 H       -0.4850    -2.9290    -0.1530 H     1 <1>   0.1500 
 22 H        2.3310     0.5600     0.7470 H     1 <1>   0.0800 
 23 H        2.2240     0.6620    -1.0010 H     1 <1>   0.0800 
 24 H       -4.5220    -0.1570     0.0590 H     1 <1>   0.1500 
 25 H       -3.3780     1.7630     0.1080 H     1 <1>   0.0800 
 26 H       -4.7040    -2.5720    -0.0350 H     1 <1>   0.1500 
 27 H       -0.6910     1.8210    -1.2540 H     1 <1>   0.0800 
 28 H       -1.8650     3.1070    -1.1740 H     1 <1>   0.0800 
 29 H       -2.2270     1.6480    -2.0640 H     1 <1>   0.0800 
 30 H       -0.6300     1.7120     1.3420 H     1 <1>   0.0800 
 31 H       -2.1270     1.4760     2.2060 H     1 <1>   0.0800 
 32 H       -1.8000     3.0020     1.4200 H     1 <1>   0.0800 
 33 H       -1.8890    -4.8800     0.3580 H     1 <1>   0.0800 
 34 H       -2.7110    -4.7430    -1.1810 H     1 <1>   0.0800 
 35 H       -3.6260    -4.7430     0.3090 H     1 <1>   0.0800 
 36 H        3.9470    -0.7160    -2.3890 H     1 <1>   0.1500 
 37 H        4.0950    -1.1730     1.7470 H     1 <1>   0.1500 
 38 H        6.2540    -2.3200     0.6060 H     1 <1>   0.1500 
@<TRIPOS>BOND
  1   1   2  1   
  2   1   3  1   
  3   2   4  ar  
  4   2   5  ar  
  5   3   6  1   
  6   3  19  1   
  7   3  20  1   
  8   4   7  ar  
  9   4   8  1   
 10   5   9  ar  
 11   5  21  1   
 12   6  10  1   
 13   6  22  1   
 14   6  23  1   
 15   7  11  ar  
 16   7  24  1   
 17   8  12  1   
 18   8  13  1   
 19   8  25  1   
 20   9  11  ar  
 21   9  14  1   
 22  10  15  1   
 23  10  16  1   
 24  11  26  1   
 25  12  27  1   
 26  12  28  1   
 27  12  29  1   
 28  13  30  1   
 29  13  31  1   
 30  13  32  1   
 31  14  33  1   
 32  14  34  1   
 33  14  35  1   
 34  15  17  2   
 35  15  36  1   
 36  16  18  2   
 37  16  37  1   
 38  17  18  1   
 39  18  38  1   
@<TRIPOS>SUBSTRUCTURE
  1 ****   1 GROUP 4 **** **** 0

# MOE 2024.06 (io_trps.svl 2023.06)
