@<TRIPOS>MOLECULE
NONAME
36 37 1 0 0 
SMALL
USER_CHARGES


@<TRIPOS>ATOM
  1 S        0.0500     0.2650    -0.1570 S.3   1 <1>  -0.3710 
  2 C       -1.4560    -0.6850    -0.0150 C.2   1 <1>   0.6510 
  3 C       -0.5080     1.8820    -0.8840 C.3   1 <1>   0.1310 
  4 N       -2.5320    -0.1070    -0.4000 N.2   1 <1>  -0.6290 
  5 N       -1.3590    -1.9640     0.4920 N.am  1 <1>  -0.4200 
  6 C        0.6610     2.8350    -1.0390 C.2   1 <1>   0.6590 
  7 C       -3.7140    -0.8070    -0.3130 C.ar  1 <1>   0.1790 
  8 C       -2.5140    -2.7100     0.5940 C.2   1 <1>   0.5440 
  9 C       -0.0600    -2.5640     0.9200 C.3   1 <1>   0.1400 
 10 O        1.0810     3.1520    -2.1230 O.2   1 <1>  -0.5700 
 11 O        1.1790     3.3160     0.0850 O.3   1 <1>  -0.4300 
 12 C       -3.7550    -2.1170     0.1790 C.ar  1 <1>   0.0860 
 13 C       -4.8930    -0.1930    -0.7250 C.ar  1 <1>  -0.1500 
 14 O       -2.4730    -3.8500     1.0280 O.2   1 <1>  -0.5700 
 15 C        0.6200    -3.2440    -0.2690 C.3   1 <1>  -0.2400 
 16 C        2.2690     4.2080     0.0700 C.3   1 <1>   0.1200 
 17 C       -4.9880    -2.7750     0.2410 C.ar  1 <1>  -0.1500 
 18 C       -6.1010    -0.8560    -0.6580 C.ar  1 <1>  -0.1500 
 19 C        2.6140     4.5550     1.5150 C.3   1 <1>  -0.2400 
 20 C       -6.1480    -2.1540    -0.1720 C.ar  1 <1>  -0.1500 
 21 H       -1.2450     2.2970    -0.2230 H     1 <1>   0.0800 
 22 H       -0.9470     1.6680    -1.8410 H     1 <1>   0.0800 
 23 H       -0.2340    -3.2920     1.6940 H     1 <1>   0.0800 
 24 H        0.5840    -1.8140     1.3420 H     1 <1>   0.0800 
 25 H       -4.8460     0.8130    -1.1010 H     1 <1>   0.1500 
 26 H       -0.0070    -4.0270    -0.6570 H     1 <1>   0.0800 
 27 H        1.5490    -3.6810     0.0490 H     1 <1>   0.0800 
 28 H        0.8280    -2.5320    -1.0480 H     1 <1>   0.0800 
 29 H        1.9830     5.0870    -0.4820 H     1 <1>   0.0800 
 30 H        3.0970     3.7260    -0.4210 H     1 <1>   0.0800 
 31 H       -5.0220    -3.7830     0.6190 H     1 <1>   0.1500 
 32 H       -7.0060    -0.3710    -0.9800 H     1 <1>   0.1500 
 33 H        1.7750     5.0260     1.9950 H     1 <1>   0.0800 
 34 H        3.4460     5.2360     1.5340 H     1 <1>   0.0800 
 35 H        2.8870     3.6660     2.0540 H     1 <1>   0.0800 
 36 H       -7.0900    -2.6720    -0.1180 H     1 <1>   0.1500 
@<TRIPOS>BOND
  1   1   2  1   
  2   1   3  1   
  3   2   4  2   
  4   2   5  1   
  5   3   6  1   
  6   3  21  1   
  7   3  22  1   
  8   4   7  1   
  9   5   8  am  
 10   5   9  1   
 11   6  10  2   
 12   6  11  1   
 13   7  12  ar  
 14   7  13  ar  
 15   8  12  1   
 16   8  14  2   
 17   9  15  1   
 18   9  23  1   
 19   9  24  1   
 20  11  16  1   
 21  12  17  ar  
 22  13  18  ar  
 23  13  25  1   
 24  15  26  1   
 25  15  27  1   
 26  15  28  1   
 27  16  19  1   
 28  16  29  1   
 29  16  30  1   
 30  17  20  ar  
 31  17  31  1   
 32  18  20  ar  
 33  18  32  1   
 34  19  33  1   
 35  19  34  1   
 36  19  35  1   
 37  20  36  1   
@<TRIPOS>SUBSTRUCTURE
  1 ****   2 GROUP 4 **** **** 0

# MOE 2024.06 (io_trps.svl 2023.06)
