@<TRIPOS>MOLECULE
NONAME
51 53 1 0 0 
SMALL
USER_CHARGES


@<TRIPOS>ATOM
  1 S        0.5690    -0.2570    -0.1840 S.o2  1 <1>   1.4470 
  2 O        0.5810    -0.7660    -1.5400 O.2   1 <1>  -0.6500 
  3 O        0.1980    -1.1430     0.8980 O.2   1 <1>  -0.6500 
  4 N       -0.5270     1.0350    -0.1510 N.am  1 <1>  -0.8490 
  5 C        2.1540     0.5370     0.1960 C.ar  1 <1>  -0.0090 
  6 C       -1.9110     0.6010    -0.1600 C.3   1 <1>   0.1960 
  7 C       -0.4040     1.9660    -1.2600 C.3   1 <1>   0.1960 
  8 C        3.2910     0.2800    -0.5620 C.ar  1 <1>  -0.1500 
  9 C        2.2780     1.4210     1.2610 C.ar  1 <1>  -0.1500 
 10 C       -2.7040     1.8510    -0.5250 C.3   1 <1>  -0.1600 
 11 C       -1.6950     2.7710    -1.2140 C.3   1 <1>  -0.1600 
 12 C        4.4990     0.8890    -0.2720 C.ar  1 <1>  -0.1500 
 13 C        3.4840     2.0320     1.5540 C.ar  1 <1>  -0.1500 
 14 C        4.6160     1.7790     0.7870 C.ar  1 <1>   0.1170 
 15 N        5.8650     2.3610     1.0360 N.am  1 <1>  -0.5470 
 16 C        6.2490     3.4400     1.7870 C.2   1 <1>   0.5690 
 17 O        5.4830     4.1350     2.4070 O.2   1 <1>  -0.5700 
 18 C        7.7290     3.7900     1.8370 C.3   1 <1>   0.0440 
 19 C        8.5790     2.8590     0.9760 C.ar  1 <1>  -0.1430 
 20 C        8.7940     3.1500    -0.3630 C.ar  1 <1>  -0.1500 
 21 C        9.1170     1.7020     1.5180 C.ar  1 <1>  -0.1500 
 22 C        9.5310     2.2850    -1.1510 C.ar  1 <1>  -0.1500 
 23 C        9.8560     0.8360     0.7300 C.ar  1 <1>  -0.1500 
 24 C       10.0640     1.1250    -0.6160 C.ar  1 <1>   0.0830 
 25 O       10.7670     0.3310    -1.4600 O.3   1 <1>  -0.3630 
 26 C       11.3860    -0.8510    -1.0110 C.3   1 <1>   0.1200 
 27 C       12.1010    -1.4890    -2.1980 C.3   1 <1>  -0.2400 
 28 H       -2.1960     0.2060     0.8020 H     1 <1>   0.0800 
 29 H       -2.0530    -0.1570    -0.9140 H     1 <1>   0.0800 
 30 H       -0.3480     1.4320    -2.1950 H     1 <1>   0.0800 
 31 H        0.4660     2.5930    -1.1490 H     1 <1>   0.0800 
 32 H        3.2270    -0.4060    -1.3900 H     1 <1>   0.1500 
 33 H        1.4140     1.6330     1.8700 H     1 <1>   0.1500 
 34 H       -3.0840     2.3140     0.3690 H     1 <1>   0.0800 
 35 H       -3.5290     1.6000    -1.1690 H     1 <1>   0.0800 
 36 H       -2.0090     3.0520    -2.2040 H     1 <1>   0.0800 
 37 H       -1.5430     3.6600    -0.6270 H     1 <1>   0.0800 
 38 H        5.3600     0.6700    -0.8790 H     1 <1>   0.1500 
 39 H        3.5370     2.7070     2.3890 H     1 <1>   0.1500 
 40 H        6.6470     1.9220     0.5440 H     1 <1>   0.3700 
 41 H        8.0540     3.7430     2.8600 H     1 <1>   0.0800 
 42 H        7.8490     4.8050     1.5060 H     1 <1>   0.0800 
 43 H        8.3880     4.0460    -0.8000 H     1 <1>   0.1500 
 44 H        8.9620     1.4650     2.5570 H     1 <1>   0.1500 
 45 H        9.6990     2.5050    -2.1910 H     1 <1>   0.1500 
 46 H       10.2580    -0.0520     1.1780 H     1 <1>   0.1500 
 47 H       10.6270    -1.5100    -0.6270 H     1 <1>   0.0800 
 48 H       12.0880    -0.5950    -0.2360 H     1 <1>   0.0800 
 49 H       11.3940    -1.7260    -2.9720 H     1 <1>   0.0800 
 50 H       12.5870    -2.3960    -1.8860 H     1 <1>   0.0800 
 51 H       12.8460    -0.8160    -2.5850 H     1 <1>   0.0800 
@<TRIPOS>BOND
  1   1   2  2   
  2   1   3  2   
  3   1   4  am  
  4   1   5  1   
  5   4   6  1   
  6   4   7  1   
  7   5   8  ar  
  8   5   9  ar  
  9   6  10  1   
 10   6  28  1   
 11   6  29  1   
 12   7  11  1   
 13   7  30  1   
 14   7  31  1   
 15   8  12  ar  
 16   8  32  1   
 17   9  13  ar  
 18   9  33  1   
 19  10  11  1   
 20  10  34  1   
 21  10  35  1   
 22  11  36  1   
 23  11  37  1   
 24  12  14  ar  
 25  12  38  1   
 26  13  14  ar  
 27  13  39  1   
 28  14  15  1   
 29  15  16  am  
 30  15  40  1   
 31  16  17  2   
 32  16  18  1   
 33  18  19  1   
 34  18  41  1   
 35  18  42  1   
 36  19  20  ar  
 37  19  21  ar  
 38  20  22  ar  
 39  20  43  1   
 40  21  23  ar  
 41  21  44  1   
 42  22  24  ar  
 43  22  45  1   
 44  23  24  ar  
 45  23  46  1   
 46  24  25  1   
 47  25  26  1   
 48  26  27  1   
 49  26  47  1   
 50  26  48  1   
 51  27  49  1   
 52  27  50  1   
 53  27  51  1   
@<TRIPOS>SUBSTRUCTURE
  1 ****  12 GROUP 4 **** **** 0

# MOE 2024.06 (io_trps.svl 2023.06)
