@<TRIPOS>MOLECULE
NONAME
41 42 1 0 0 
SMALL
USER_CHARGES


@<TRIPOS>ATOM
  1 S        0.5440     0.3750     0.3740 S.o2  1 <1>   1.4470 
  2 O       -0.0390     1.5660    -0.1980 O.2   1 <1>  -0.6500 
  3 O        1.2330     0.4360     1.6440 O.2   1 <1>  -0.6500 
  4 N        1.6610    -0.1150    -0.7760 N.am  1 <1>  -0.9140 
  5 C       -0.6600    -0.9810     0.3830 C.ar  1 <1>  -0.0090 
  6 C        2.9200     0.5900    -0.6690 C.3   1 <1>   0.1960 
  7 C       -1.7710    -0.9610    -0.4460 C.ar  1 <1>  -0.1500 
  8 C       -0.4840    -2.0910     1.1990 C.ar  1 <1>  -0.1500 
  9 C        3.7930     0.1790    -1.8460 C.3   1 <1>  -0.2400 
 10 C       -2.7040    -1.9960    -0.4830 C.ar  1 <1>   0.0860 
 11 C       -1.3860    -3.1380     1.1880 C.ar  1 <1>  -0.1500 
 12 C       -2.4960    -3.1020     0.3490 C.ar  1 <1>   0.0830 
 13 C       -3.8310    -1.8910    -1.3840 C.2   1 <1>   0.5440 
 14 O       -3.3940    -4.1140     0.2980 O.3   1 <1>  -0.3630 
 15 O       -3.6340    -1.9000    -2.5850 O.2   1 <1>  -0.5700 
 16 N       -5.1150    -1.7080    -0.9260 N.am  1 <1>  -0.6600 
 17 C       -3.2040    -5.3410     0.9670 C.3   1 <1>   0.0400 
 18 C       -5.5110    -1.5650     0.4910 C.3   1 <1>   0.1400 
 19 C       -6.2750    -1.5510    -1.8270 C.3   1 <1>   0.1400 
 20 C       -7.0350    -1.5110     0.4640 C.3   1 <1>  -0.1600 
 21 C       -7.3830    -1.0060    -0.9340 C.3   1 <1>  -0.1600 
 22 H        1.2390     0.1690    -1.6570 H     1 <1>   0.4200 
 23 H        3.4070     0.3290     0.2580 H     1 <1>   0.0800 
 24 H        2.7530     1.6560    -0.6840 H     1 <1>   0.0800 
 25 H       -1.9300    -0.1170    -1.0970 H     1 <1>   0.1500 
 26 H        0.3740    -2.1330     1.8500 H     1 <1>   0.1500 
 27 H        3.9590    -0.8840    -1.8300 H     1 <1>   0.0800 
 28 H        4.7450     0.6730    -1.7780 H     1 <1>   0.0800 
 29 H        3.3310     0.4560    -2.7760 H     1 <1>   0.0800 
 30 H       -1.2060    -3.9740     1.8380 H     1 <1>   0.1500 
 31 H       -4.0220    -5.9900     0.7100 H     1 <1>   0.0800 
 32 H       -3.1970    -5.1650     2.0280 H     1 <1>   0.0800 
 33 H       -2.2770    -5.7780     0.6400 H     1 <1>   0.0800 
 34 H       -5.1070    -0.6450     0.8780 H     1 <1>   0.0800 
 35 H       -5.1610    -2.3950     1.0790 H     1 <1>   0.0800 
 36 H       -6.5410    -2.5170    -2.2220 H     1 <1>   0.0800 
 37 H       -6.0450    -0.8800    -2.6370 H     1 <1>   0.0800 
 38 H       -7.4260    -0.8770     1.2400 H     1 <1>   0.0800 
 39 H       -7.4200    -2.5070     0.5970 H     1 <1>   0.0800 
 40 H       -8.3540    -1.3320    -1.2600 H     1 <1>   0.0800 
 41 H       -7.3480     0.0700    -0.9550 H     1 <1>   0.0800 
@<TRIPOS>BOND
  1   1   2  2   
  2   1   3  2   
  3   1   4  am  
  4   1   5  1   
  5   4   6  1   
  6   4  22  1   
  7   5   7  ar  
  8   5   8  ar  
  9   6   9  1   
 10   6  23  1   
 11   6  24  1   
 12   7  10  ar  
 13   7  25  1   
 14   8  11  ar  
 15   8  26  1   
 16   9  27  1   
 17   9  28  1   
 18   9  29  1   
 19  10  12  ar  
 20  10  13  1   
 21  11  12  ar  
 22  11  30  1   
 23  12  14  1   
 24  13  15  2   
 25  13  16  am  
 26  14  17  1   
 27  16  18  1   
 28  16  19  1   
 29  17  31  1   
 30  17  32  1   
 31  17  33  1   
 32  18  20  1   
 33  18  34  1   
 34  18  35  1   
 35  19  21  1   
 36  19  36  1   
 37  19  37  1   
 38  20  21  1   
 39  20  38  1   
 40  20  39  1   
 41  21  40  1   
 42  21  41  1   
@<TRIPOS>SUBSTRUCTURE
  1 ****   7 GROUP 4 **** **** 0

# MOE 2024.06 (io_trps.svl 2023.06)
