@<TRIPOS>MOLECULE
NONAME
50 52 1 0 0 
SMALL
USER_CHARGES


@<TRIPOS>ATOM
  1 O       -0.9010    -0.7740     0.6400 O.2   1 <1>  -0.5700 
  2 C       -0.4670    -1.9110     0.6600 C.2   1 <1>   0.6900 
  3 N       -1.1400    -2.8960     1.3310 N.am  1 <1>  -0.6600 
  4 N        0.7030    -2.2410     0.0420 N.am  1 <1>  -0.5470 
  5 C       -1.3350    -4.2570     0.7370 C.3   1 <1>   0.1400 
  6 C       -2.2400    -2.5350     2.2760 C.3   1 <1>   0.1400 
  7 C        1.5390    -1.5170    -0.8210 C.ar  1 <1>   0.1170 
  8 C       -2.7130    -4.3670     0.0580 C.3   1 <1>   0.2090 
  9 C       -3.6080    -2.6340     1.5830 C.3   1 <1>   0.2090 
 10 C        2.9020    -1.8170    -0.8840 C.ar  1 <1>  -0.1440 
 11 C        1.0350    -0.5140    -1.6450 C.ar  1 <1>  -0.1500 
 12 N       -3.8180    -3.9930     0.9940 N.pl3 1 <1>  -0.8380 
 13 C        3.7240    -1.1160    -1.7540 C.ar  1 <1>  -0.1500 
 14 C        3.5150    -2.9000    -0.0050 C.3   1 <1>  -0.0970 
 15 C        1.8600     0.1810    -2.5080 C.ar  1 <1>  -0.1500 
 16 C       -5.1160    -4.2220     0.5130 C.ar  1 <1>   0.1000 
 17 C        3.2080    -0.1210    -2.5650 C.ar  1 <1>  -0.1500 
 18 C       -5.6470    -3.6360    -0.6500 C.ar  1 <1>   0.0820 
 19 C       -5.9310    -5.0740     1.2430 C.ar  1 <1>  -0.1500 
 20 O       -4.8910    -2.7960    -1.4060 O.3   1 <1>  -0.3620 
 21 C       -6.9430    -3.9180    -1.0530 C.ar  1 <1>  -0.1500 
 22 C       -7.2280    -5.3490     0.8450 C.ar  1 <1>  -0.1500 
 23 C       -5.3140    -1.4560    -1.4770 C.3   1 <1>   0.1200 
 24 C       -7.7360    -4.7720    -0.3050 C.ar  1 <1>  -0.1500 
 25 C       -4.1470    -0.6250    -2.0040 C.3   1 <1>  -0.2400 
 26 H        1.0910    -3.1070     0.3930 H     1 <1>   0.3700 
 27 H       -1.2700    -4.9960     1.5160 H     1 <1>   0.0800 
 28 H       -0.5730    -4.4680     0.0090 H     1 <1>   0.0800 
 29 H       -2.0990    -1.5350     2.6470 H     1 <1>   0.0800 
 30 H       -2.2220    -3.2050     3.1170 H     1 <1>   0.0800 
 31 H       -2.8680    -5.3750    -0.2840 H     1 <1>   0.0800 
 32 H       -2.7230    -3.7200    -0.8010 H     1 <1>   0.0800 
 33 H       -3.6580    -1.8900     0.8080 H     1 <1>   0.0800 
 34 H       -4.3880    -2.4320     2.2950 H     1 <1>   0.0800 
 35 H       -0.0120    -0.2740    -1.6120 H     1 <1>   0.1500 
 36 H        4.7750    -1.3380    -1.8090 H     1 <1>   0.1500 
 37 H        3.1140    -3.8610    -0.2710 H     1 <1>   0.0800 
 38 H        3.3020    -2.6980     1.0300 H     1 <1>   0.0800 
 39 H        4.5830    -2.9350    -0.1250 H     1 <1>   0.0800 
 40 H        1.4520     0.9550    -3.1350 H     1 <1>   0.1500 
 41 H        3.8530     0.4190    -3.2360 H     1 <1>   0.1500 
 42 H       -5.5330    -5.5230     2.1340 H     1 <1>   0.1500 
 43 H       -7.3300    -3.4780    -1.9530 H     1 <1>   0.1500 
 44 H       -7.8390    -6.0140     1.4300 H     1 <1>   0.1500 
 45 H       -5.5980    -1.1330    -0.4900 H     1 <1>   0.0800 
 46 H       -6.1600    -1.3990    -2.1390 H     1 <1>   0.0800 
 47 H       -8.7420    -4.9880    -0.6190 H     1 <1>   0.1500 
 48 H       -3.3040    -0.7060    -1.3390 H     1 <1>   0.0800 
 49 H       -4.4340     0.4080    -2.0660 H     1 <1>   0.0800 
 50 H       -3.8640    -0.9640    -2.9830 H     1 <1>   0.0800 
@<TRIPOS>BOND
  1   1   2  2   
  2   2   3  am  
  3   2   4  am  
  4   3   5  1   
  5   3   6  1   
  6   4   7  1   
  7   4  26  1   
  8   5   8  1   
  9   5  27  1   
 10   5  28  1   
 11   6   9  1   
 12   6  29  1   
 13   6  30  1   
 14   7  10  ar  
 15   7  11  ar  
 16   8  12  1   
 17   8  31  1   
 18   8  32  1   
 19   9  12  1   
 20   9  33  1   
 21   9  34  1   
 22  10  13  ar  
 23  10  14  1   
 24  11  15  ar  
 25  11  35  1   
 26  12  16  1   
 27  13  17  ar  
 28  13  36  1   
 29  14  37  1   
 30  14  38  1   
 31  14  39  1   
 32  15  17  ar  
 33  15  40  1   
 34  16  18  ar  
 35  16  19  ar  
 36  17  41  1   
 37  18  20  1   
 38  18  21  ar  
 39  19  22  ar  
 40  19  42  1   
 41  20  23  1   
 42  21  24  ar  
 43  21  43  1   
 44  22  24  ar  
 45  22  44  1   
 46  23  25  1   
 47  23  45  1   
 48  23  46  1   
 49  24  47  1   
 50  25  48  1   
 51  25  49  1   
 52  25  50  1   
@<TRIPOS>SUBSTRUCTURE
  1 ****   3 GROUP 4 **** **** 0

# MOE 2024.06 (io_trps.svl 2023.06)
