@<TRIPOS>MOLECULE
NONAME
38 40 1 0 0 
SMALL
USER_CHARGES


@<TRIPOS>ATOM
  1 CL       0.4150    -0.3880     0.1350 Cl    1 <1>  -0.1770 
  2 C       -0.6800    -1.7430     0.1340 C.ar  1 <1>   0.1770 
  3 C       -1.6270    -1.8540    -0.8660 C.ar  1 <1>  -0.1500 
  4 C       -0.5880    -2.6940     1.1320 C.ar  1 <1>  -0.1500 
  5 C       -2.4950    -2.9320    -0.8610 C.ar  1 <1>  -0.1500 
  6 C       -1.4620    -3.7670     1.1260 C.ar  1 <1>  -0.1500 
  7 C       -2.4410    -3.9110     0.1380 C.ar  1 <1>   0.0860 
  8 C       -3.3340    -5.0570     0.1630 C.2   1 <1>   0.6340 
  9 O       -2.9580    -6.1640     0.4830 O.2   1 <1>  -0.5700 
 10 O       -4.6400    -4.9330    -0.1410 O.3   1 <1>  -0.0870 
 11 N       -5.3120    -3.7830    -0.1070 N.2   1 <1>  -0.5130 
 12 C       -6.5690    -3.8280    -0.0580 C.2   1 <1>   0.3280 
 13 C       -7.3600    -2.5040    -0.0140 C.3   1 <1>  -0.0990 
 14 C       -7.3640    -5.1690    -0.0290 C.3   1 <1>  -0.0990 
 15 C       -8.7920    -2.8580     0.3530 C.3   1 <1>   0.4230 
 16 C       -8.9180    -5.0710    -0.0850 C.3   1 <1>   0.4230 
 17 N       -9.2440    -3.8000    -0.7170 N.4   1 <1>  -0.9590 
 18 C       -9.8160    -3.3060     1.3760 C.3   1 <1>  -0.1600 
 19 C       -9.6490    -4.8500     1.2630 C.3   1 <1>  -0.1600 
 20 C       -8.8370    -3.6410    -2.1600 C.3   1 <1>   0.2630 
 21 H       -1.6760    -1.1040    -1.6350 H     1 <1>   0.1500 
 22 H        0.1590    -2.5920     1.8990 H     1 <1>   0.1500 
 23 H       -3.2260    -3.0180    -1.6450 H     1 <1>   0.1500 
 24 H       -1.3880    -4.5150     1.8990 H     1 <1>   0.1500 
 25 H       -6.9420    -1.8730     0.7510 H     1 <1>   0.0800 
 26 H       -7.2900    -1.9650    -0.9400 H     1 <1>   0.0800 
 27 H       -7.0490    -5.7530    -0.8750 H     1 <1>   0.0800 
 28 H       -7.0750    -5.7310     0.8420 H     1 <1>   0.0800 
 29 H       -8.2060    -3.3620     1.1020 H     1 <1>   0.0800 
 30 H       -9.3400    -5.9100    -0.6170 H     1 <1>   0.0800 
 31 H      -10.2710    -3.7390    -0.7020 H     1 <1>   0.4500 
 32 H       -9.5870    -2.9420     2.3640 H     1 <1>   0.0800 
 33 H      -10.8070    -2.9810     1.1040 H     1 <1>   0.0800 
 34 H      -10.6090    -5.3380     1.2610 H     1 <1>   0.0800 
 35 H       -9.0710    -5.2500     2.0790 H     1 <1>   0.0800 
 36 H       -7.7730    -3.7580    -2.2790 H     1 <1>   0.0800 
 37 H       -9.1170    -2.6630    -2.5190 H     1 <1>   0.0800 
 38 H       -9.3300    -4.3820    -2.7690 H     1 <1>   0.0800 
@<TRIPOS>BOND
  1   1   2  1   
  2   2   3  ar  
  3   2   4  ar  
  4   3   5  ar  
  5   3  21  1   
  6   4   6  ar  
  7   4  22  1   
  8   5   7  ar  
  9   5  23  1   
 10   6   7  ar  
 11   6  24  1   
 12   7   8  1   
 13   8   9  2   
 14   8  10  1   
 15  10  11  1   
 16  11  12  2   
 17  12  13  1   
 18  12  14  1   
 19  13  15  1   
 20  13  25  1   
 21  13  26  1   
 22  14  16  1   
 23  14  27  1   
 24  14  28  1   
 25  15  17  1   
 26  15  18  1   
 27  15  29  1   
 28  16  17  1   
 29  16  19  1   
 30  16  30  1   
 31  17  20  1   
 32  17  31  1   
 33  18  19  1   
 34  18  32  1   
 35  18  33  1   
 36  19  34  1   
 37  19  35  1   
 38  20  36  1   
 39  20  37  1   
 40  20  38  1   
@<TRIPOS>SUBSTRUCTURE
  1 ****  11 GROUP 4 **** **** 0

# MOE 2024.06 (io_trps.svl 2023.06)
