@<TRIPOS>MOLECULE
NONAME
54 56 1 0 0 
SMALL
USER_CHARGES


@<TRIPOS>ATOM
  1 BR      -3.9950    -2.4460     3.8860 Br    1 <1>  -0.1110 
  2 C       -3.3500    -2.5580     2.0760 C.ar  1 <1>   0.1110 
  3 C       -3.2210    -3.8030     1.4940 C.ar  1 <1>  -0.1500 
  4 C       -3.0350    -1.3910     1.4080 C.ar  1 <1>  -0.1500 
  5 C       -2.7570    -3.8930     0.1880 C.ar  1 <1>  -0.1440 
  6 C       -2.5770    -1.4830     0.1050 C.ar  1 <1>  -0.1500 
  7 C       -2.4420    -2.7250    -0.4980 C.ar  1 <1>  -0.1500 
  8 C       -2.6030    -5.2620    -0.4820 C.3   1 <1>   0.3400 
  9 C       -3.9960    -5.8500    -0.6980 C.2   1 <1>  -0.1240 
 10 C       -1.6820    -6.1350     0.3900 C.2   1 <1>  -0.1240 
 11 C       -4.3970    -6.9130     0.0390 C.2   1 <1>  -0.0380 
 12 C       -4.8160    -5.2270    -1.6820 C.2   1 <1>   0.4950 
 13 C       -2.2140    -7.2160     1.0310 C.2   1 <1>  -0.0380 
 14 C       -0.3300    -5.6560     0.4560 C.2   1 <1>   0.7060 
 15 N       -3.5460    -7.5480     0.9090 N.pl3 1 <1>  -0.6000 
 16 C       -5.8080    -7.4720    -0.0750 C.3   1 <1>  -0.0220 
 17 O       -4.4430    -4.3500    -2.4240 O.2   1 <1>  -0.5700 
 18 C       -6.2380    -5.7340    -1.8620 C.3   1 <1>  -0.0990 
 19 C       -1.4520    -8.1760     1.9330 C.3   1 <1>  -0.1020 
 20 O        0.4490    -5.9360     1.3460 O.2   1 <1>  -0.5700 
 21 O        0.1080    -4.8500    -0.5220 O.3   1 <1>  -0.4300 
 22 C       -6.8070    -6.4140    -0.5970 C.3   1 <1>   0.0000 
 23 C        1.3940    -4.2530    -0.5130 C.3   1 <1>   0.1200 
 24 C       -8.1440    -7.0900    -0.9380 C.3   1 <1>  -0.2400 
 25 C       -7.0700    -5.3540     0.4910 C.3   1 <1>  -0.2400 
 26 C        2.4520    -5.2790    -0.9230 C.3   1 <1>   0.1200 
 27 O        3.6610    -4.6120    -1.1050 O.3   1 <1>  -0.5600 
 28 C        4.7230    -5.4530    -1.4190 C.3   1 <1>   0.0400 
 29 H       -3.4790    -4.6850     2.0540 H     1 <1>   0.1500 
 30 H       -3.1480    -0.4390     1.8930 H     1 <1>   0.1500 
 31 H       -2.3290    -0.5910    -0.4440 H     1 <1>   0.1500 
 32 H       -2.0940    -2.7780    -1.5150 H     1 <1>   0.1500 
 33 H       -2.1540    -5.1500    -1.4540 H     1 <1>   0.0800 
 34 H       -3.8980    -8.3460     1.4510 H     1 <1>   0.4000 
 35 H       -6.1380    -7.8250     0.8860 H     1 <1>   0.0800 
 36 H       -5.7810    -8.3160    -0.7430 H     1 <1>   0.0800 
 37 H       -6.2270    -6.4330    -2.6780 H     1 <1>   0.0800 
 38 H       -6.8650    -4.9090    -2.1490 H     1 <1>   0.0800 
 39 H       -1.6100    -7.9090     2.9620 H     1 <1>   0.0800 
 40 H       -0.3980    -8.1690     1.7330 H     1 <1>   0.0800 
 41 H       -1.7950    -9.1830     1.7790 H     1 <1>   0.0800 
 42 H        1.5940    -3.8650     0.4710 H     1 <1>   0.0800 
 43 H        1.3770    -3.4440    -1.2220 H     1 <1>   0.0800 
 44 H       -8.0110    -7.8390    -1.6990 H     1 <1>   0.0800 
 45 H       -8.8530    -6.3660    -1.3000 H     1 <1>   0.0800 
 46 H       -8.5620    -7.5650    -0.0670 H     1 <1>   0.0800 
 47 H       -6.1650    -4.8470     0.7770 H     1 <1>   0.0800 
 48 H       -7.4850    -5.8110     1.3720 H     1 <1>   0.0800 
 49 H       -7.7670    -4.6140     0.1380 H     1 <1>   0.0800 
 50 H        2.1790    -5.7460    -1.8540 H     1 <1>   0.0800 
 51 H        2.5770    -6.0170    -0.1500 H     1 <1>   0.0800 
 52 H        5.6040    -4.8480    -1.5440 H     1 <1>   0.0800 
 53 H        4.5060    -5.9740    -2.3360 H     1 <1>   0.0800 
 54 H        4.8740    -6.1510    -0.6130 H     1 <1>   0.0800 
@<TRIPOS>BOND
  1   1   2  1   
  2   2   3  ar  
  3   2   4  ar  
  4   3   5  ar  
  5   3  29  1   
  6   4   6  ar  
  7   4  30  1   
  8   5   7  ar  
  9   5   8  1   
 10   6   7  ar  
 11   6  31  1   
 12   7  32  1   
 13   8   9  1   
 14   8  10  1   
 15   8  33  1   
 16   9  11  2   
 17   9  12  1   
 18  10  13  2   
 19  10  14  1   
 20  11  15  1   
 21  11  16  1   
 22  12  17  2   
 23  12  18  1   
 24  13  15  1   
 25  13  19  1   
 26  14  20  2   
 27  14  21  1   
 28  15  34  1   
 29  16  22  1   
 30  16  35  1   
 31  16  36  1   
 32  18  22  1   
 33  18  37  1   
 34  18  38  1   
 35  19  39  1   
 36  19  40  1   
 37  19  41  1   
 38  21  23  1   
 39  22  24  1   
 40  22  25  1   
 41  23  26  1   
 42  23  42  1   
 43  23  43  1   
 44  24  44  1   
 45  24  45  1   
 46  24  46  1   
 47  25  47  1   
 48  25  48  1   
 49  25  49  1   
 50  26  27  1   
 51  26  50  1   
 52  26  51  1   
 53  27  28  1   
 54  28  52  1   
 55  28  53  1   
 56  28  54  1   
@<TRIPOS>SUBSTRUCTURE
  1 ****   8 GROUP 4 **** **** 0

# MOE 2024.06 (io_trps.svl 2023.06)
