@<TRIPOS>MOLECULE
NONAME
26 26 1 0 0 
SMALL
USER_CHARGES


@<TRIPOS>ATOM
  1 S       -0.0960    -0.0900    -0.6830 S.o2  1 <1>   1.3330 
  2 O       -0.8310     0.6470    -1.6820 O.2   1 <1>  -0.6500 
  3 O        0.0640    -1.5200    -0.7890 O.2   1 <1>  -0.6500 
  4 N        1.5220     0.5260    -0.6160 N.am  1 <1>  -0.5780 
  5 C       -0.7070     0.2990     0.9420 C.3   1 <1>  -0.1350 
  6 N        1.9320     1.8240    -0.3450 N.2   1 <1>  -0.4300 
  7 C        3.1330     2.2110    -0.4930 C.2   1 <1>   0.3280 
  8 C        3.5280     3.6450    -0.1780 C.3   1 <1>  -0.0990 
  9 C        4.3110     1.3640    -0.9760 C.3   1 <1>  -0.0990 
 10 C        4.6910     3.6940     0.8240 C.3   1 <1>  -0.1600 
 11 C        5.4730     1.4160     0.0270 C.3   1 <1>  -0.1600 
 12 C        5.8850     2.8640     0.3320 C.3   1 <1>  -0.1600 
 13 H        2.1820    -0.1770    -0.9450 H     1 <1>   0.4200 
 14 H       -0.6990     1.3610     1.0890 H     1 <1>   0.0800 
 15 H       -0.0890    -0.1580     1.6890 H     1 <1>   0.0800 
 16 H       -1.7120    -0.0590     1.0540 H     1 <1>   0.0800 
 17 H        3.8150     4.1330    -1.0920 H     1 <1>   0.0800 
 18 H        2.6820     4.1730     0.2250 H     1 <1>   0.0800 
 19 H        4.0280     0.3410    -1.1280 H     1 <1>   0.0800 
 20 H        4.6400     1.7530    -1.9230 H     1 <1>   0.0800 
 21 H        4.9960     4.7150     0.9750 H     1 <1>   0.0800 
 22 H        4.3560     3.3070     1.7720 H     1 <1>   0.0800 
 23 H        5.1710     0.9340     0.9420 H     1 <1>   0.0800 
 24 H        6.3170     0.8760    -0.3670 H     1 <1>   0.0800 
 25 H        6.6580     2.8670     1.0820 H     1 <1>   0.0800 
 26 H        6.2910     3.3150    -0.5580 H     1 <1>   0.0800 
@<TRIPOS>BOND
  1   1   2  2   
  2   1   3  2   
  3   1   4  am  
  4   1   5  1   
  5   4   6  1   
  6   4  13  1   
  7   5  14  1   
  8   5  15  1   
  9   5  16  1   
 10   6   7  2   
 11   7   8  1   
 12   7   9  1   
 13   8  10  1   
 14   8  17  1   
 15   8  18  1   
 16   9  11  1   
 17   9  19  1   
 18   9  20  1   
 19  10  12  1   
 20  10  21  1   
 21  10  22  1   
 22  11  12  1   
 23  11  23  1   
 24  11  24  1   
 25  12  25  1   
 26  12  26  1   
@<TRIPOS>SUBSTRUCTURE
  1 ****   6 GROUP 4 **** **** 0

# MOE 2024.06 (io_trps.svl 2023.06)
