@<TRIPOS>MOLECULE
NONAME
35 36 1 0 0 
SMALL
USER_CHARGES


@<TRIPOS>ATOM
  1 CL       1.2380     0.1180    -0.2670 Cl    1 <1>  -0.1770 
  2 C        0.6960     1.7820    -0.1200 C.ar  1 <1>   0.1770 
  3 C        1.5820     2.7580     0.3300 C.ar  1 <1>   0.0820 
  4 C       -0.6140     2.0970    -0.4500 C.ar  1 <1>  -0.1440 
  5 O        2.8620     2.4460     0.6440 O.3   1 <1>  -0.3630 
  6 C        1.1470     4.0720     0.4750 C.ar  1 <1>  -0.1440 
  7 C       -1.0330     3.4120    -0.3160 C.ar  1 <1>  -0.1500 
  8 C       -1.5840     1.0340    -0.9460 C.3   1 <1>  -0.0960 
  9 C        3.7520     2.3050    -0.4360 C.3   1 <1>   0.1200 
 10 C       -0.1620     4.3870     0.1440 C.ar  1 <1>  -0.1500 
 11 C        2.0820     5.1550     0.9930 C.3   1 <1>  -0.0970 
 12 C        5.1050     1.8690     0.1230 C.3   1 <1>  -0.1600 
 13 C        6.1130     1.6380    -1.0070 C.3   1 <1>   0.0960 
 14 N        7.4180     1.2270    -0.4570 N.pl3 1 <1>   0.0480 
 15 C        7.8460    -0.0260    -0.1860 C.2   1 <1>   0.0360 
 16 C        8.4500     2.0200    -0.1170 C.2   1 <1>  -0.3020 
 17 N        9.0480    -0.0820     0.2890 N.2   1 <1>  -0.5650 
 18 C        9.4310     1.2080     0.3330 C.2   1 <1>   0.0770 
 19 H       -2.0440     3.6870    -0.5650 H     1 <1>   0.1500 
 20 H       -1.2070     0.5840    -1.8470 H     1 <1>   0.0800 
 21 H       -2.5500     1.4580    -1.1540 H     1 <1>   0.0800 
 22 H       -1.7020     0.2690    -0.1990 H     1 <1>   0.0800 
 23 H        3.8240     3.2540    -0.9390 H     1 <1>   0.0800 
 24 H        3.3600     1.5650    -1.1130 H     1 <1>   0.0800 
 25 H       -0.5160     5.3980     0.2450 H     1 <1>   0.1500 
 26 H        2.5590     4.8240     1.8980 H     1 <1>   0.0800 
 27 H        1.5440     6.0610     1.2050 H     1 <1>   0.0800 
 28 H        2.8390     5.3670     0.2600 H     1 <1>   0.0800 
 29 H        4.9740     0.9550     0.6760 H     1 <1>   0.0800 
 30 H        5.4740     2.6330     0.7840 H     1 <1>   0.0800 
 31 H        6.2500     2.5410    -1.5750 H     1 <1>   0.0800 
 32 H        5.7610     0.8660    -1.6690 H     1 <1>   0.0800 
 33 H        7.2270    -0.8890    -0.3560 H     1 <1>   0.1500 
 34 H        8.4350     3.0900    -0.2090 H     1 <1>   0.1500 
 35 H       10.4070     1.4870     0.6940 H     1 <1>   0.1500 
@<TRIPOS>BOND
  1   1   2  1   
  2   2   3  ar  
  3   2   4  ar  
  4   3   5  1   
  5   3   6  ar  
  6   4   7  ar  
  7   4   8  1   
  8   5   9  1   
  9   6  10  ar  
 10   6  11  1   
 11   7  10  ar  
 12   7  19  1   
 13   8  20  1   
 14   8  21  1   
 15   8  22  1   
 16   9  12  1   
 17   9  23  1   
 18   9  24  1   
 19  10  25  1   
 20  11  26  1   
 21  11  27  1   
 22  11  28  1   
 23  12  13  1   
 24  12  29  1   
 25  12  30  1   
 26  13  14  1   
 27  13  31  1   
 28  13  32  1   
 29  14  15  1   
 30  14  16  1   
 31  15  17  2   
 32  15  33  1   
 33  16  18  2   
 34  16  34  1   
 35  17  18  1   
 36  18  35  1   
@<TRIPOS>SUBSTRUCTURE
  1 ****   9 GROUP 4 **** **** 0

# MOE 2024.06 (io_trps.svl 2023.06)
