@<TRIPOS>MOLECULE
NONAME
52 54 1 0 0 
SMALL
USER_CHARGES


@<TRIPOS>ATOM
  1 CL      -4.5420     2.9410     4.6250 Cl    1 <1>  -0.1770 
  2 C       -4.5930     2.6980     2.8980 C.ar  1 <1>   0.1770 
  3 C       -4.2690     1.4590     2.3780 C.ar  1 <1>  -0.1500 
  4 C       -4.9560     3.7470     2.0750 C.ar  1 <1>  -0.1500 
  5 C       -4.3070     1.2690     1.0070 C.ar  1 <1>  -0.1500 
  6 C       -4.9910     3.5510     0.7040 C.ar  1 <1>  -0.1500 
  7 C       -4.6670     2.3130     0.1660 C.ar  1 <1>  -0.1430 
  8 C       -4.7170     2.0980    -1.3460 C.3   1 <1>   0.0440 
  9 C       -6.0950     1.7180    -1.8640 C.2   1 <1>   0.5690 
 10 O       -6.1980     1.3040    -2.9930 O.2   1 <1>  -0.5700 
 11 N       -7.1810     1.8620    -1.0670 N.am  1 <1>  -0.7300 
 12 C       -8.5950     1.6550    -1.4890 C.3   1 <1>   0.2010 
 13 C       -9.6060     2.4480    -0.6490 C.2   1 <1>   0.5690 
 14 O       -9.1910     3.0380     0.3260 O.2   1 <1>  -0.5700 
 15 N      -10.9380     2.4730    -0.9930 N.am  1 <1>  -0.6600 
 16 C      -11.5380     1.7650    -2.1590 C.3   1 <1>   0.1400 
 17 C      -11.9340     3.2170    -0.1720 C.3   1 <1>   0.1400 
 18 C      -12.5920     0.7710    -1.6630 C.3   1 <1>  -0.1600 
 19 C      -13.0030     2.2480     0.3410 C.3   1 <1>  -0.1600 
 20 C      -13.6680     1.4620    -0.8050 C.3   1 <1>  -0.0800 
 21 C      -14.6830     0.4300    -0.2800 C.3   1 <1>  -0.0170 
 22 C      -15.8240     1.0850     0.4860 C.ar  1 <1>  -0.1430 
 23 C      -16.8550     1.7100    -0.1980 C.ar  1 <1>  -0.1500 
 24 C      -15.8440     1.0640     1.8730 C.ar  1 <1>  -0.1500 
 25 C      -17.8930     2.3090     0.4950 C.ar  1 <1>  -0.1500 
 26 C      -16.8810     1.6630     2.5670 C.ar  1 <1>  -0.1500 
 27 C      -17.9060     2.2860     1.8780 C.ar  1 <1>  -0.1500 
 28 H       -3.9920     0.6590     3.0400 H     1 <1>   0.1500 
 29 H       -5.2080     4.7000     2.5030 H     1 <1>   0.1500 
 30 H       -4.0590     0.3030     0.6000 H     1 <1>   0.1500 
 31 H       -5.2770     4.3680     0.0620 H     1 <1>   0.1500 
 32 H       -4.0280     1.3210    -1.6250 H     1 <1>   0.0800 
 33 H       -4.4070     2.9950    -1.8490 H     1 <1>   0.0800 
 34 H       -7.0820     2.2600    -0.1240 H     1 <1>   0.3700 
 35 H       -8.8270     0.6090    -1.4070 H     1 <1>   0.0800 
 36 H       -8.6910     1.9470    -2.5190 H     1 <1>   0.0800 
 37 H      -10.7940     1.2400    -2.7290 H     1 <1>   0.0800 
 38 H      -12.0000     2.4910    -2.8060 H     1 <1>   0.0800 
 39 H      -12.3920     3.9780    -0.7800 H     1 <1>   0.0800 
 40 H      -11.4590     3.7020     0.6630 H     1 <1>   0.0800 
 41 H      -12.1010     0.0050    -1.0880 H     1 <1>   0.0800 
 42 H      -13.0540     0.3010    -2.5120 H     1 <1>   0.0800 
 43 H      -13.7440     2.8130     0.8770 H     1 <1>   0.0800 
 44 H      -12.5440     1.5680     1.0380 H     1 <1>   0.0800 
 45 H      -14.1960     2.1640    -1.4290 H     1 <1>   0.0800 
 46 H      -14.1820    -0.2810     0.3540 H     1 <1>   0.0800 
 47 H      -15.0980    -0.1180    -1.1080 H     1 <1>   0.0800 
 48 H      -16.8540     1.7330    -1.2730 H     1 <1>   0.1500 
 49 H      -15.0520     0.5820     2.4190 H     1 <1>   0.1500 
 50 H      -18.6900     2.7930    -0.0420 H     1 <1>   0.1500 
 51 H      -16.8900     1.6430     3.6430 H     1 <1>   0.1500 
 52 H      -18.7130     2.7520     2.4170 H     1 <1>   0.1500 
@<TRIPOS>BOND
  1   1   2  1   
  2   2   3  ar  
  3   2   4  ar  
  4   3   5  ar  
  5   3  28  1   
  6   4   6  ar  
  7   4  29  1   
  8   5   7  ar  
  9   5  30  1   
 10   6   7  ar  
 11   6  31  1   
 12   7   8  1   
 13   8   9  1   
 14   8  32  1   
 15   8  33  1   
 16   9  10  2   
 17   9  11  am  
 18  11  12  1   
 19  11  34  1   
 20  12  13  1   
 21  12  35  1   
 22  12  36  1   
 23  13  14  2   
 24  13  15  am  
 25  15  16  1   
 26  15  17  1   
 27  16  18  1   
 28  16  37  1   
 29  16  38  1   
 30  17  19  1   
 31  17  39  1   
 32  17  40  1   
 33  18  20  1   
 34  18  41  1   
 35  18  42  1   
 36  19  20  1   
 37  19  43  1   
 38  19  44  1   
 39  20  21  1   
 40  20  45  1   
 41  21  22  1   
 42  21  46  1   
 43  21  47  1   
 44  22  23  ar  
 45  22  24  ar  
 46  23  25  ar  
 47  23  48  1   
 48  24  26  ar  
 49  24  49  1   
 50  25  27  ar  
 51  25  50  1   
 52  26  27  ar  
 53  26  51  1   
 54  27  52  1   
@<TRIPOS>SUBSTRUCTURE
  1 ****  13 GROUP 4 **** **** 0

# MOE 2024.06 (io_trps.svl 2023.06)
