@<TRIPOS>MOLECULE
NONAME
45 47 1 0 0 
SMALL
USER_CHARGES


@<TRIPOS>ATOM
  1 S       -0.6850     0.2330    -0.0300 S.3   1 <1>  -0.3320 
  2 C        0.8470     1.0820     0.3870 C.ar  1 <1>   0.1020 
  3 C       -1.4140     1.1400    -1.4800 C.3   1 <1>   0.1310 
  4 C        1.3640     2.1030    -0.3970 C.ar  1 <1>  -0.1500 
  5 C        1.4990     0.6710     1.5350 C.ar  1 <1>  -0.1500 
  6 C       -2.7840     0.5820    -1.8480 C.2   1 <1>   0.5690 
  7 C        2.5440     2.7190    -0.0140 C.ar  1 <1>  -0.1500 
  8 C        2.6780     1.2900     1.9120 C.ar  1 <1>  -0.1500 
  9 O       -2.8840     0.0600    -2.9350 O.2   1 <1>  -0.5700 
 10 N       -3.8650     0.6950    -1.0060 N.am  1 <1>  -0.6600 
 11 C        3.1980     2.3140     1.1380 C.ar  1 <1>  -0.1500 
 12 C       -5.1880     0.0910    -1.3580 C.3   1 <1>   0.1400 
 13 C       -3.8540     1.3520     0.3400 C.3   1 <1>   0.1400 
 14 C       -6.3260     1.1150    -1.2280 C.3   1 <1>   0.1400 
 15 C       -4.9900     2.3790     0.4670 C.3   1 <1>   0.1400 
 16 N       -6.3110     1.7710     0.1190 N.am  1 <1>  -0.6600 
 17 C       -7.4000     1.8810     0.9570 C.2   1 <1>   0.5690 
 18 O       -7.2920     2.4510     2.0220 O.2   1 <1>  -0.5700 
 19 C       -8.7720     1.2630     0.5770 C.3   1 <1>   0.2610 
 20 O       -9.2730     1.8200    -0.6100 O.3   1 <1>  -0.5600 
 21 C       -9.9100     1.5050     1.5700 C.3   1 <1>  -0.1600 
 22 C       -9.9800     2.9850    -0.3230 C.3   1 <1>   0.1200 
 23 C      -10.5150     2.8180     1.0970 C.3   1 <1>  -0.1600 
 24 H       -0.7340     1.0130    -2.3020 H     1 <1>   0.0800 
 25 H       -1.4870     2.1770    -1.2160 H     1 <1>   0.0800 
 26 H        0.8760     2.4250    -1.2950 H     1 <1>   0.1500 
 27 H        1.0850    -0.1260     2.1270 H     1 <1>   0.1500 
 28 H        2.9570     3.5130    -0.6130 H     1 <1>   0.1500 
 29 H        3.1900     0.9750     2.8050 H     1 <1>   0.1500 
 30 H        4.1160     2.7950     1.4310 H     1 <1>   0.1500 
 31 H       -5.3800    -0.7370    -0.6990 H     1 <1>   0.0800 
 32 H       -5.1760    -0.2900    -2.3650 H     1 <1>   0.0800 
 33 H       -2.9200     1.8510     0.5220 H     1 <1>   0.0800 
 34 H       -3.9750     0.5980     1.0990 H     1 <1>   0.0800 
 35 H       -7.2590     0.6150    -1.4090 H     1 <1>   0.0800 
 36 H       -6.2090     1.8690    -1.9860 H     1 <1>   0.0800 
 37 H       -4.8000     3.2040    -0.1950 H     1 <1>   0.0800 
 38 H       -5.0010     2.7620     1.4730 H     1 <1>   0.0800 
 39 H       -8.6380     0.2090     0.4200 H     1 <1>   0.0800 
 40 H       -9.5760     1.5420     2.5920 H     1 <1>   0.0800 
 41 H      -10.6300     0.7130     1.4700 H     1 <1>   0.0800 
 42 H      -10.7680     3.0970    -1.0470 H     1 <1>   0.0800 
 43 H       -9.2970     3.8160    -0.3860 H     1 <1>   0.0800 
 44 H      -10.1780     3.6380     1.7080 H     1 <1>   0.0800 
 45 H      -11.5900     2.7890     1.1100 H     1 <1>   0.0800 
@<TRIPOS>BOND
  1   1   2  1   
  2   1   3  1   
  3   2   4  ar  
  4   2   5  ar  
  5   3   6  1   
  6   3  24  1   
  7   3  25  1   
  8   4   7  ar  
  9   4  26  1   
 10   5   8  ar  
 11   5  27  1   
 12   6   9  2   
 13   6  10  am  
 14   7  11  ar  
 15   7  28  1   
 16   8  11  ar  
 17   8  29  1   
 18  10  12  1   
 19  10  13  1   
 20  11  30  1   
 21  12  14  1   
 22  12  31  1   
 23  12  32  1   
 24  13  15  1   
 25  13  33  1   
 26  13  34  1   
 27  14  16  1   
 28  14  35  1   
 29  14  36  1   
 30  15  16  1   
 31  15  37  1   
 32  15  38  1   
 33  16  17  am  
 34  17  18  2   
 35  17  19  1   
 36  19  20  1   
 37  19  21  1   
 38  19  39  1   
 39  20  22  1   
 40  21  23  1   
 41  21  40  1   
 42  21  41  1   
 43  22  23  1   
 44  22  42  1   
 45  22  43  1   
 46  23  44  1   
 47  23  45  1   
@<TRIPOS>SUBSTRUCTURE
  1 ****  13 GROUP 4 **** **** 0

# MOE 2024.06 (io_trps.svl 2023.06)
