@<TRIPOS>MOLECULE
NONAME
47 48 1 0 0 
SMALL
USER_CHARGES


@<TRIPOS>ATOM
  1 O        8.2770    -0.1770    -0.0090 O.3   1 <1>  -0.3630 
  2 C        9.6340    -0.2620    -0.0110 C.ar  1 <1>   0.0830 
  3 C        7.6080     1.0670     0.0700 C.3   1 <1>   0.1200 
  4 C       10.1980    -1.5350    -0.0020 C.ar  1 <1>  -0.1440 
  5 C       10.4630     0.8590    -0.0190 C.ar  1 <1>  -0.1500 
  6 C        6.0950     0.8180     0.1000 C.3   1 <1>   0.2000 
  7 C       11.5770    -1.6700     0.0010 C.ar  1 <1>  -0.1500 
  8 C        9.3180    -2.7770     0.0050 C.3   1 <1>  -0.0960 
  9 C       11.8400     0.7160    -0.0180 C.ar  1 <1>  -0.1430 
 10 O        5.7630     0.0130    -0.9840 O.3   1 <1>  -0.6800 
 11 C        5.2890     2.1410     0.0800 C.3   1 <1>   0.1100 
 12 C       12.3930    -0.5530    -0.0060 C.ar  1 <1>  -0.1500 
 13 C       12.7440     1.9360    -0.0260 C.3   1 <1>  -0.0970 
 14 N        3.8370     1.9970    -0.1950 N.3   1 <1>  -0.8100 
 15 C        3.1590     3.2970    -0.3340 C.3   1 <1>   0.1100 
 16 C        3.1290     1.0920     0.7300 C.3   1 <1>   0.1100 
 17 C        1.6960     3.1100    -0.7860 C.3   1 <1>   0.3430 
 18 C        1.6680     0.8860     0.2840 C.3   1 <1>   0.3430 
 19 N        0.9360     2.1940     0.1370 N.4   1 <1>  -0.9590 
 20 C       -0.4590     1.9780    -0.3450 C.3   1 <1>   0.2630 
 21 H        7.8740     1.6520    -0.7930 H     1 <1>   0.0800 
 22 H        7.9250     1.5670     0.9680 H     1 <1>   0.0800 
 23 H       10.0530     1.8490    -0.0290 H     1 <1>   0.1500 
 24 H        5.8620     0.2700     0.9950 H     1 <1>   0.0800 
 25 H       12.0260    -2.6470     0.0090 H     1 <1>   0.1500 
 26 H        8.6700    -2.7590     0.8630 H     1 <1>   0.0800 
 27 H        9.9100    -3.6720     0.0420 H     1 <1>   0.0800 
 28 H        8.7160    -2.8000    -0.8850 H     1 <1>   0.0800 
 29 H        6.4790    -0.6470    -1.1030 H     1 <1>   0.4000 
 30 H        5.7150     2.7690    -0.6830 H     1 <1>   0.0800 
 31 H        5.4270     2.6420     1.0230 H     1 <1>   0.0800 
 32 H       13.4610    -0.6780    -0.0020 H     1 <1>   0.1500 
 33 H       12.2340     2.7840    -0.4470 H     1 <1>   0.0800 
 34 H       13.6240     1.7450    -0.6150 H     1 <1>   0.0800 
 35 H       13.0430     2.1730     0.9790 H     1 <1>   0.0800 
 36 H        3.6730     3.8860    -1.0750 H     1 <1>   0.0800 
 37 H        3.1910     3.8330     0.5980 H     1 <1>   0.0800 
 38 H        3.1610     1.4840     1.7320 H     1 <1>   0.0800 
 39 H        3.6110     0.1300     0.7310 H     1 <1>   0.0800 
 40 H        1.7040     2.6940    -1.7800 H     1 <1>   0.0800 
 41 H        1.2130     4.0720    -0.8310 H     1 <1>   0.0800 
 42 H        1.1640     0.2590     1.0000 H     1 <1>   0.0800 
 43 H        1.6800     0.3690    -0.6620 H     1 <1>   0.0800 
 44 H        0.9150     2.6390     1.0640 H     1 <1>   0.4500 
 45 H       -0.4500     1.5100    -1.3170 H     1 <1>   0.0800 
 46 H       -0.9800     2.9190    -0.4210 H     1 <1>   0.0800 
 47 H       -0.9980     1.3420     0.3390 H     1 <1>   0.0800 
@<TRIPOS>BOND
  1   1   2  1   
  2   1   3  1   
  3   2   4  ar  
  4   2   5  ar  
  5   3   6  1   
  6   3  21  1   
  7   3  22  1   
  8   4   7  ar  
  9   4   8  1   
 10   5   9  ar  
 11   5  23  1   
 12   6  10  1   
 13   6  11  1   
 14   6  24  1   
 15   7  12  ar  
 16   7  25  1   
 17   8  26  1   
 18   8  27  1   
 19   8  28  1   
 20   9  12  ar  
 21   9  13  1   
 22  10  29  1   
 23  11  14  1   
 24  11  30  1   
 25  11  31  1   
 26  12  32  1   
 27  13  33  1   
 28  13  34  1   
 29  13  35  1   
 30  14  15  1   
 31  14  16  1   
 32  15  17  1   
 33  15  36  1   
 34  15  37  1   
 35  16  18  1   
 36  16  38  1   
 37  16  39  1   
 38  17  19  1   
 39  17  40  1   
 40  17  41  1   
 41  18  19  1   
 42  18  42  1   
 43  18  43  1   
 44  19  20  1   
 45  19  44  1   
 46  20  45  1   
 47  20  46  1   
 48  20  47  1   
@<TRIPOS>SUBSTRUCTURE
  1 ****   6 GROUP 4 **** **** 0

# MOE 2024.06 (io_trps.svl 2023.06)
