@<TRIPOS>MOLECULE
NONAME
35 35 1 0 0 
SMALL
USER_CHARGES


@<TRIPOS>ATOM
  1 O        3.7180     2.3060    -0.7430 O.3   1 <1>  -0.3630 
  2 C        4.9750     2.5540    -0.2770 C.ar  1 <1>   0.0830 
  3 C        2.6360     3.1890    -0.5550 C.3   1 <1>   0.1200 
  4 C        5.4760     3.7770     0.2020 C.ar  1 <1>   0.0820 
  5 C        5.8030     1.4450    -0.3090 C.ar  1 <1>  -0.1500 
  6 C        1.3610     2.4740    -0.9930 C.3   1 <1>  -0.2400 
  7 O        4.6810     4.8840     0.2230 O.3   1 <1>  -0.3620 
  8 C        6.7970     3.8310     0.6410 C.ar  1 <1>  -0.1500 
  9 C        7.1230     1.5070     0.1170 C.ar  1 <1>  -0.1440 
 10 C        5.0990     6.1190     0.7590 C.3   1 <1>   0.1200 
 11 C        7.6100     2.7120     0.5990 C.ar  1 <1>  -0.1500 
 12 C        8.0360     0.2970     0.0510 C.3   1 <1>   0.5660 
 13 C        3.9300     7.0930     0.6550 C.3   1 <1>  -0.2400 
 14 N        8.1660    -0.0590    -1.3590 N.4   1 <1>  -0.8530 
 15 C        7.4860    -0.9000     0.8160 C.3   1 <1>  -0.2400 
 16 H        2.8030     4.0670    -1.1550 H     1 <1>   0.0800 
 17 H        2.5850     3.4540     0.4870 H     1 <1>   0.0800 
 18 H        5.3700     0.5310    -0.6750 H     1 <1>   0.1500 
 19 H        1.4270     2.2040    -2.0320 H     1 <1>   0.0800 
 20 H        0.5170     3.1270    -0.8620 H     1 <1>   0.0800 
 21 H        1.2080     1.5920    -0.3980 H     1 <1>   0.0800 
 22 H        7.2190     4.7430     1.0200 H     1 <1>   0.1500 
 23 H        5.9390     6.4740     0.1880 H     1 <1>   0.0800 
 24 H        5.3770     5.9690     1.7880 H     1 <1>   0.0800 
 25 H        8.6250     2.8020     0.9490 H     1 <1>   0.1500 
 26 H        9.0030     0.5610     0.4530 H     1 <1>   0.0800 
 27 H        3.6470     7.2230    -0.3740 H     1 <1>   0.0800 
 28 H        4.2150     8.0490     1.0560 H     1 <1>   0.0800 
 29 H        3.0890     6.7240     1.2160 H     1 <1>   0.0800 
 30 H        7.2380    -0.2840    -1.7260 H     1 <1>   0.4500 
 31 H        8.7930    -0.8550    -1.4910 H     1 <1>   0.4500 
 32 H        8.5100     0.7550    -1.8770 H     1 <1>   0.4500 
 33 H        6.5380    -1.2250     0.4240 H     1 <1>   0.0800 
 34 H        7.3380    -0.6220     1.8450 H     1 <1>   0.0800 
 35 H        8.1830    -1.7190     0.7940 H     1 <1>   0.0800 
@<TRIPOS>BOND
  1   1   2  1   
  2   1   3  1   
  3   2   4  ar  
  4   2   5  ar  
  5   3   6  1   
  6   3  16  1   
  7   3  17  1   
  8   4   7  1   
  9   4   8  ar  
 10   5   9  ar  
 11   5  18  1   
 12   6  19  1   
 13   6  20  1   
 14   6  21  1   
 15   7  10  1   
 16   8  11  ar  
 17   8  22  1   
 18   9  11  ar  
 19   9  12  1   
 20  10  13  1   
 21  10  23  1   
 22  10  24  1   
 23  11  25  1   
 24  12  14  1   
 25  12  15  1   
 26  12  26  1   
 27  13  27  1   
 28  13  28  1   
 29  13  29  1   
 30  14  30  1   
 31  14  31  1   
 32  14  32  1   
 33  15  33  1   
 34  15  34  1   
 35  15  35  1   
@<TRIPOS>SUBSTRUCTURE
  1 ****   2 GROUP 4 **** **** 0

# MOE 2024.06 (io_trps.svl 2023.06)
