@<TRIPOS>MOLECULE
NONAME
36 36 1 0 0 
SMALL
USER_CHARGES


@<TRIPOS>ATOM
  1 S        0.2810     0.0200    -0.6110 S.o2  1 <1>   1.3330 
  2 O        1.5780    -0.2940    -1.1660 O.2   1 <1>  -0.6500 
  3 O       -0.0240    -0.3340     0.7520 O.2   1 <1>  -0.6500 
  4 N        0.0820     1.7290    -0.7870 N.am  1 <1>  -0.6930 
  5 C       -0.9720    -0.6180    -1.7010 C.3   1 <1>  -0.1350 
  6 C       -1.0700     2.3590    -0.3380 C.ar  1 <1>   0.1990 
  7 C        1.3330     2.5490    -0.8310 C.3   1 <1>   0.2570 
  8 C       -1.9820     2.8690    -1.2520 C.ar  1 <1>  -0.1500 
  9 C       -1.3360     2.4980     1.0180 C.ar  1 <1>  -0.1500 
 10 C        2.1790     2.5030     0.4480 C.2   1 <1>   0.5690 
 11 C       -3.1390     3.4940    -0.8230 C.ar  1 <1>  -0.1500 
 12 C       -2.4910     3.1230     1.4500 C.ar  1 <1>  -0.1500 
 13 O        2.1800     3.4640     1.1800 O.2   1 <1>  -0.5700 
 14 N        2.9250     1.3950     0.7180 N.am  1 <1>  -0.7300 
 15 C       -3.4020     3.6220     0.5320 C.ar  1 <1>  -0.1430 
 16 C        3.7280     1.1720     1.9440 C.3   1 <1>   0.0600 
 17 C       -4.6730     4.3080     1.0080 C.3   1 <1>  -0.0170 
 18 C       -4.4450     5.8130     1.1650 C.3   1 <1>  -0.2400 
 19 H       -0.9410    -1.6900    -1.7080 H     1 <1>   0.0800 
 20 H       -0.8140    -0.2600    -2.6980 H     1 <1>   0.0800 
 21 H       -1.9430    -0.3050    -1.3690 H     1 <1>   0.0800 
 22 H        1.0690     3.5760    -1.0140 H     1 <1>   0.0800 
 23 H        1.9410     2.2210    -1.6540 H     1 <1>   0.0800 
 24 H       -1.7800     2.7750    -2.3030 H     1 <1>   0.1500 
 25 H       -0.6310     2.1130     1.7350 H     1 <1>   0.1500 
 26 H       -3.8350     3.8840    -1.5450 H     1 <1>   0.1500 
 27 H       -2.6760     3.2200     2.5060 H     1 <1>   0.1500 
 28 H        2.8210     0.5770     0.0970 H     1 <1>   0.3700 
 29 H        3.7470     2.0640     2.5470 H     1 <1>   0.0800 
 30 H        4.7360     0.9110     1.6760 H     1 <1>   0.0800 
 31 H        3.2930     0.3730     2.5190 H     1 <1>   0.0800 
 32 H       -4.9800     3.8890     1.9510 H     1 <1>   0.0800 
 33 H       -5.4650     4.1340     0.3010 H     1 <1>   0.0800 
 34 H       -3.6660     5.9960     1.8840 H     1 <1>   0.0800 
 35 H       -5.3470     6.2920     1.5010 H     1 <1>   0.0800 
 36 H       -4.1520     6.2440     0.2250 H     1 <1>   0.0800 
@<TRIPOS>BOND
  1   1   2  2   
  2   1   3  2   
  3   1   4  am  
  4   1   5  1   
  5   4   6  1   
  6   4   7  1   
  7   5  19  1   
  8   5  20  1   
  9   5  21  1   
 10   6   8  ar  
 11   6   9  ar  
 12   7  10  1   
 13   7  22  1   
 14   7  23  1   
 15   8  11  ar  
 16   8  24  1   
 17   9  12  ar  
 18   9  25  1   
 19  10  13  2   
 20  10  14  am  
 21  11  15  ar  
 22  11  26  1   
 23  12  15  ar  
 24  12  27  1   
 25  14  16  1   
 26  14  28  1   
 27  15  17  1   
 28  16  29  1   
 29  16  30  1   
 30  16  31  1   
 31  17  18  1   
 32  17  32  1   
 33  17  33  1   
 34  18  34  1   
 35  18  35  1   
 36  18  36  1   
@<TRIPOS>SUBSTRUCTURE
  1 ****   6 GROUP 4 **** **** 0

# MOE 2024.06 (io_trps.svl 2023.06)
