@<TRIPOS>MOLECULE
NONAME
24 24 1 0 0 
SMALL
USER_CHARGES


@<TRIPOS>ATOM
  1 O        0.0260    -0.5310     0.9720 O.co2 1 <1>  -0.9000 
  2 C       -0.0820    -1.7520     0.7490 C.2   1 <1>   0.9790 
  3 O        0.9330    -2.4580     0.9280 O.co2 1 <1>  -0.9000 
  4 C       -1.3440    -2.2910     0.2750 C.ar  1 <1>  -0.1790 
  5 C       -1.6160    -3.6700     0.2220 C.ar  1 <1>   0.4100 
  6 C       -2.3450    -1.4300    -0.1570 C.ar  1 <1>  -0.1500 
  7 N       -2.7560    -4.1930    -0.2320 N.ar  1 <1>  -0.6200 
  8 N       -0.6900    -4.5780     0.6600 N.pl3 1 <1>  -0.8690 
  9 C       -3.5260    -1.9640    -0.6160 C.ar  1 <1>  -0.1500 
 10 C       -3.6730    -3.3370    -0.6320 C.ar  1 <1>   0.1600 
 11 C       -0.3780    -5.7930    -0.0830 C.3   1 <1>   0.2890 
 12 C       -0.7290    -6.9860     0.7970 C.3   1 <1>  -0.2400 
 13 C        1.1090    -5.7590    -0.4120 C.3   1 <1>  -0.2400 
 14 H       -2.1870    -0.3640    -0.1280 H     1 <1>   0.1500 
 15 H        0.1770    -4.0720     0.9380 H     1 <1>   0.4000 
 16 H       -4.3180    -1.3260    -0.9560 H     1 <1>   0.1500 
 17 H       -4.5960    -3.7520    -0.9930 H     1 <1>   0.1500 
 18 H       -0.9510    -5.8280    -0.9960 H     1 <1>   0.0800 
 19 H       -0.1720    -6.9470     1.7150 H     1 <1>   0.0800 
 20 H       -0.5040    -7.9020     0.2850 H     1 <1>   0.0800 
 21 H       -1.7800    -6.9630     1.0200 H     1 <1>   0.0800 
 22 H        1.6920    -5.7170     0.4900 H     1 <1>   0.0800 
 23 H        1.3260    -4.8890    -1.0070 H     1 <1>   0.0800 
 24 H        1.3850    -6.6350    -0.9680 H     1 <1>   0.0800 
@<TRIPOS>BOND
  1   1   2  ar  
  2   2   3  ar  
  3   2   4  1   
  4   4   5  ar  
  5   4   6  ar  
  6   5   7  ar  
  7   5   8  1   
  8   6   9  ar  
  9   6  14  1   
 10   7  10  ar  
 11   8  11  1   
 12   8  15  1   
 13   9  10  ar  
 14   9  16  1   
 15  10  17  1   
 16  11  12  1   
 17  11  13  1   
 18  11  18  1   
 19  12  19  1   
 20  12  20  1   
 21  12  21  1   
 22  13  22  1   
 23  13  23  1   
 24  13  24  1   
@<TRIPOS>SUBSTRUCTURE
  1 ****   5 GROUP 4 **** **** 0

# MOE 2024.06 (io_trps.svl 2023.06)
