@<TRIPOS>MOLECULE
NONAME
46 46 1 0 0 
SMALL
USER_CHARGES


@<TRIPOS>ATOM
  1 S       -0.5660    -0.1390    -0.1770 S.o2  1 <1>   1.2040 
  2 O       -0.7050     0.9460    -1.1190 O.2   1 <1>  -0.6500 
  3 O       -1.0510     0.0310     1.1760 O.2   1 <1>  -0.6500 
  4 C       -1.3580    -1.6250    -0.8530 C.ar  1 <1>  -0.0090 
  5 C        1.1900    -0.5050    -0.0660 C.3   1 <1>  -0.0550 
  6 C       -2.7150    -1.5970    -1.2150 C.ar  1 <1>   0.0860 
  7 C       -0.6490    -2.8160    -1.0120 C.ar  1 <1>  -0.1500 
  8 C        2.0280     0.6780     0.4530 C.3   1 <1>  -0.1600 
  9 C       -3.5760    -0.4330    -1.0840 C.2   1 <1>   0.5440 
 10 C       -3.2870    -2.7560    -1.7420 C.ar  1 <1>  -0.1500 
 11 C       -1.2410    -3.9530    -1.5290 C.ar  1 <1>  -0.1500 
 12 C        3.5120     0.3260     0.6580 C.3   1 <1>  -0.0800 
 13 O       -4.2640    -0.1030    -2.0290 O.2   1 <1>  -0.5700 
 14 N       -3.6680     0.2520     0.0980 N.am  1 <1>  -0.7300 
 15 C       -2.5680    -3.9230    -1.8990 C.ar  1 <1>  -0.1500 
 16 C        4.2400     1.5180     1.2900 C.3   1 <1>  -0.2400 
 17 C        4.2040    -0.0530    -0.6580 C.3   1 <1>  -0.2400 
 18 C       -4.3870     1.4940     0.3930 C.3   1 <1>   0.3000 
 19 C       -4.0690     1.8350     1.8470 C.3   1 <1>  -0.2400 
 20 C       -3.8790     2.6160    -0.5140 C.3   1 <1>  -0.2400 
 21 C       -5.8920     1.2790     0.2360 C.3   1 <1>  -0.2400 
 22 H        1.5490    -0.7790    -1.0400 H     1 <1>   0.0800 
 23 H        1.3390    -1.3350     0.5960 H     1 <1>   0.0800 
 24 H        0.3860    -2.8900    -0.7370 H     1 <1>   0.1500 
 25 H        1.6130     0.9990     1.3940 H     1 <1>   0.0800 
 26 H        1.9410     1.5030    -0.2350 H     1 <1>   0.0800 
 27 H       -4.3240    -2.7320    -2.0350 H     1 <1>   0.1500 
 28 H       -0.6720    -4.8610    -1.6440 H     1 <1>   0.1500 
 29 H        3.5850    -0.5070     1.3390 H     1 <1>   0.0800 
 30 H       -2.9750     0.0490     0.8280 H     1 <1>   0.3700 
 31 H       -3.0400    -4.8000    -2.3080 H     1 <1>   0.1500 
 32 H        4.1980     2.3760     0.6430 H     1 <1>   0.0800 
 33 H        5.2720     1.2750     1.4690 H     1 <1>   0.0800 
 34 H        3.7900     1.7770     2.2320 H     1 <1>   0.0800 
 35 H        4.0980     0.7350    -1.3830 H     1 <1>   0.0800 
 36 H        3.7930    -0.9580    -1.0670 H     1 <1>   0.0800 
 37 H        5.2540    -0.2190    -0.4910 H     1 <1>   0.0800 
 38 H       -3.0110     1.9800     1.9780 H     1 <1>   0.0800 
 39 H       -4.3990     1.0470     2.5000 H     1 <1>   0.0800 
 40 H       -4.5700     2.7420     2.1330 H     1 <1>   0.0800 
 41 H       -2.8130     2.7190    -0.4220 H     1 <1>   0.0800 
 42 H       -4.3380     3.5480    -0.2450 H     1 <1>   0.0800 
 43 H       -4.1190     2.4120    -1.5410 H     1 <1>   0.0800 
 44 H       -6.2180     0.4530     0.8420 H     1 <1>   0.0800 
 45 H       -6.1420     1.0790    -0.7900 H     1 <1>   0.0800 
 46 H       -6.4260     2.1600     0.5400 H     1 <1>   0.0800 
@<TRIPOS>BOND
  1   1   2  2   
  2   1   3  2   
  3   1   4  1   
  4   1   5  1   
  5   4   6  ar  
  6   4   7  ar  
  7   5   8  1   
  8   5  22  1   
  9   5  23  1   
 10   6   9  1   
 11   6  10  ar  
 12   7  11  ar  
 13   7  24  1   
 14   8  12  1   
 15   8  25  1   
 16   8  26  1   
 17   9  13  2   
 18   9  14  am  
 19  10  15  ar  
 20  10  27  1   
 21  11  15  ar  
 22  11  28  1   
 23  12  16  1   
 24  12  17  1   
 25  12  29  1   
 26  14  18  1   
 27  14  30  1   
 28  15  31  1   
 29  16  32  1   
 30  16  33  1   
 31  16  34  1   
 32  17  35  1   
 33  17  36  1   
 34  17  37  1   
 35  18  19  1   
 36  18  20  1   
 37  18  21  1   
 38  19  38  1   
 39  19  39  1   
 40  19  40  1   
 41  20  41  1   
 42  20  42  1   
 43  20  43  1   
 44  21  44  1   
 45  21  45  1   
 46  21  46  1   
@<TRIPOS>SUBSTRUCTURE
  1 ****   1 GROUP 4 **** **** 0

# MOE 2024.06 (io_trps.svl 2023.06)
