@<TRIPOS>MOLECULE
NONAME
40 41 1 0 0 
SMALL
USER_CHARGES


@<TRIPOS>ATOM
  1 CL      -0.7120    -0.1480     0.2250 Cl    1 <1>  -0.1770 
  2 C       -2.3620    -0.6910     0.0560 C.ar  1 <1>   0.1770 
  3 C       -2.6630    -1.6610    -0.8810 C.ar  1 <1>  -0.1500 
  4 C       -3.3420    -0.1420     0.8620 C.ar  1 <1>  -0.1500 
  5 C       -3.9730    -2.0910    -1.0110 C.ar  1 <1>  -0.1500 
  6 C       -4.6500    -0.5760     0.7260 C.ar  1 <1>  -0.1500 
  7 C       -4.9690    -1.5520    -0.2080 C.ar  1 <1>  -0.1440 
  8 C       -6.4070    -2.0300    -0.3470 C.3   1 <1>  -0.0160 
  9 C       -6.7350    -3.0510     0.7440 C.3   1 <1>   0.1400 
 10 N       -8.1150    -3.5290     0.5580 N.am  1 <1>  -0.7300 
 11 C       -9.2110    -2.9650     1.1220 C.2   1 <1>   0.5690 
 12 O       -9.1070    -2.2190     2.0710 O.2   1 <1>  -0.5700 
 13 C      -10.5950    -3.3250     0.5400 C.3   1 <1>  -0.0190 
 14 C      -10.8660    -2.8000    -0.9080 C.3   1 <1>  -0.1860 
 15 C      -11.7550    -2.9620     1.5100 C.3   1 <1>  -0.1600 
 16 C       -9.6260    -2.8040    -1.7960 C.2   1 <1>   0.9060 
 17 C      -11.6260    -1.4590    -0.8730 C.3   1 <1>  -0.1600 
 18 C      -13.0930    -2.7770     0.7850 C.3   1 <1>  -0.1600 
 19 O       -9.1700    -1.7540    -2.2560 O.co2 1 <1>  -0.9000 
 20 O       -9.0670    -3.8930    -1.9920 O.co2 1 <1>  -0.9000 
 21 C      -13.0130    -1.6090    -0.2150 C.3   1 <1>  -0.1600 
 22 H       -1.8860    -2.0720    -1.4980 H     1 <1>   0.1500 
 23 H       -3.0850     0.6130     1.5820 H     1 <1>   0.1500 
 24 H       -4.2230    -2.8450    -1.7390 H     1 <1>   0.1500 
 25 H       -5.4240    -0.1560     1.3460 H     1 <1>   0.1500 
 26 H       -6.5590    -2.4760    -1.3150 H     1 <1>   0.0800 
 27 H       -7.0790    -1.1930    -0.2690 H     1 <1>   0.0800 
 28 H       -6.6330    -2.5980     1.7150 H     1 <1>   0.0800 
 29 H       -6.0610    -3.8860     0.6800 H     1 <1>   0.0800 
 30 H       -8.2810    -3.9400    -0.3870 H     1 <1>   0.3700 
 31 H      -10.5880    -4.3970     0.4560 H     1 <1>   0.0800 
 32 H      -11.5210    -3.5060    -1.3840 H     1 <1>   0.0800 
 33 H      -11.5380    -2.0340     2.0120 H     1 <1>   0.0800 
 34 H      -11.8390    -3.7230     2.2650 H     1 <1>   0.0800 
 35 H      -11.7370    -1.0740    -1.8730 H     1 <1>   0.0800 
 36 H      -11.0310    -0.7490    -0.3220 H     1 <1>   0.0800 
 37 H      -13.8780    -2.5900     1.4970 H     1 <1>   0.0800 
 38 H      -13.3340    -3.6860     0.2600 H     1 <1>   0.0800 
 39 H      -13.7540    -1.7610    -0.9800 H     1 <1>   0.0800 
 40 H      -13.2490    -0.6870     0.2870 H     1 <1>   0.0800 
@<TRIPOS>BOND
  1   1   2  1   
  2   2   3  ar  
  3   2   4  ar  
  4   3   5  ar  
  5   3  22  1   
  6   4   6  ar  
  7   4  23  1   
  8   5   7  ar  
  9   5  24  1   
 10   6   7  ar  
 11   6  25  1   
 12   7   8  1   
 13   8   9  1   
 14   8  26  1   
 15   8  27  1   
 16   9  10  1   
 17   9  28  1   
 18   9  29  1   
 19  10  11  am  
 20  10  30  1   
 21  11  12  2   
 22  11  13  1   
 23  13  14  1   
 24  13  15  1   
 25  13  31  1   
 26  14  16  1   
 27  14  17  1   
 28  14  32  1   
 29  15  18  1   
 30  15  33  1   
 31  15  34  1   
 32  16  19  ar  
 33  16  20  ar  
 34  17  21  1   
 35  17  35  1   
 36  17  36  1   
 37  18  21  1   
 38  18  37  1   
 39  18  38  1   
 40  21  39  1   
 41  21  40  1   
@<TRIPOS>SUBSTRUCTURE
  1 ****   8 GROUP 4 **** **** 0

# MOE 2024.06 (io_trps.svl 2023.06)
