@<TRIPOS>MOLECULE
NONAME
41 42 1 0 0 
SMALL
USER_CHARGES


@<TRIPOS>ATOM
  1 CL      -0.0580    -0.0680    -0.4420 Cl    1 <1>  -0.1770 
  2 C        1.4880    -0.8770    -0.3140 C.ar  1 <1>   0.1770 
  3 C        1.5290    -2.2660    -0.0640 C.ar  1 <1>   0.0000 
  4 C        2.6180    -0.1250    -0.4630 C.ar  1 <1>  -0.1500 
  5 C        2.8010    -2.8810     0.0320 C.ar  1 <1>   0.0000 
  6 C        0.3740    -3.0650     0.0940 C.ar  1 <1>  -0.1500 
  7 C        3.8710    -0.7330    -0.3680 C.ar  1 <1>  -0.1500 
  8 C        3.9680    -2.0860    -0.1250 C.ar  1 <1>   0.0830 
  9 C        2.8480    -4.2710     0.2820 C.ar  1 <1>  -0.1500 
 10 C        0.4600    -4.4080     0.3350 C.ar  1 <1>  -0.1500 
 11 O        5.1630    -2.7240    -0.0240 O.3   1 <1>  -0.3620 
 12 C        1.7130    -5.0180     0.4300 C.ar  1 <1>  -0.1500 
 13 C        6.3930    -2.0470    -0.1600 C.3   1 <1>   0.1200 
 14 C        7.5170    -3.0650     0.0110 C.3   1 <1>   0.1200 
 15 O        8.7430    -2.4080    -0.1240 O.3   1 <1>  -0.5600 
 16 C        9.8520    -3.2330     0.0120 C.3   1 <1>   0.1200 
 17 C       11.0980    -2.3530    -0.1490 C.3   1 <1>   0.3430 
 18 N       12.3830    -3.1120     0.0310 N.4   1 <1>  -0.9590 
 19 C       13.5320    -2.1570     0.1030 C.3   1 <1>   0.2630 
 20 C       12.6110    -4.1100    -1.0630 C.3   1 <1>   0.2630 
 21 H        2.5480     0.9310    -0.6520 H     1 <1>   0.1500 
 22 H       -0.5940    -2.6040     0.0220 H     1 <1>   0.1500 
 23 H        4.7350    -0.1070    -0.4910 H     1 <1>   0.1500 
 24 H        3.8090    -4.7480     0.3570 H     1 <1>   0.1500 
 25 H       -0.4260    -5.0070     0.4530 H     1 <1>   0.1500 
 26 H        1.7680    -6.0760     0.6200 H     1 <1>   0.1500 
 27 H        6.4510    -1.2930     0.6050 H     1 <1>   0.0800 
 28 H        6.4310    -1.6070    -1.1400 H     1 <1>   0.0800 
 29 H        7.4420    -3.8240    -0.7490 H     1 <1>   0.0800 
 30 H        7.4650    -3.5070     0.9920 H     1 <1>   0.0800 
 31 H        9.8060    -3.9870    -0.7540 H     1 <1>   0.0800 
 32 H        9.8230    -3.6800     0.9910 H     1 <1>   0.0800 
 33 H       11.0440    -1.5670     0.5870 H     1 <1>   0.0800 
 34 H       11.0790    -1.9000    -1.1260 H     1 <1>   0.0800 
 35 H       12.3370    -3.6140     0.9320 H     1 <1>   0.4500 
 36 H       13.6170    -1.6020    -0.8180 H     1 <1>   0.0800 
 37 H       14.4540    -2.6900     0.2700 H     1 <1>   0.0800 
 38 H       13.3900    -1.4590     0.9120 H     1 <1>   0.0800 
 39 H       12.6490    -3.6140    -2.0200 H     1 <1>   0.0800 
 40 H       11.8160    -4.8380    -1.0840 H     1 <1>   0.0800 
 41 H       13.5430    -4.6290    -0.9080 H     1 <1>   0.0800 
@<TRIPOS>BOND
  1   1   2  1   
  2   2   3  ar  
  3   2   4  ar  
  4   3   5  ar  
  5   3   6  ar  
  6   4   7  ar  
  7   4  21  1   
  8   5   8  ar  
  9   5   9  ar  
 10   6  10  ar  
 11   6  22  1   
 12   7   8  ar  
 13   7  23  1   
 14   8  11  1   
 15   9  12  ar  
 16   9  24  1   
 17  10  12  ar  
 18  10  25  1   
 19  11  13  1   
 20  12  26  1   
 21  13  14  1   
 22  13  27  1   
 23  13  28  1   
 24  14  15  1   
 25  14  29  1   
 26  14  30  1   
 27  15  16  1   
 28  16  17  1   
 29  16  31  1   
 30  16  32  1   
 31  17  18  1   
 32  17  33  1   
 33  17  34  1   
 34  18  19  1   
 35  18  20  1   
 36  18  35  1   
 37  19  36  1   
 38  19  37  1   
 39  19  38  1   
 40  20  39  1   
 41  20  40  1   
 42  20  41  1   
@<TRIPOS>SUBSTRUCTURE
  1 ****  11 GROUP 4 **** **** 0

# MOE 2024.06 (io_trps.svl 2023.06)
