@<TRIPOS>MOLECULE
NONAME
52 55 1 0 0 
SMALL
USER_CHARGES


@<TRIPOS>ATOM
  1 O        1.4040    -2.0750    -0.1400 O.3   1 <1>  -0.3630 
  2 C        2.5610    -1.6980     0.4110 C.ar  1 <1>   0.0830 
  3 C        0.8910    -3.1300     0.6720 C.3   1 <1>   0.4000 
  4 C        2.8230    -2.4510     1.5170 C.ar  1 <1>   0.0830 
  5 C        3.4260    -0.7080    -0.0120 C.ar  1 <1>  -0.1500 
  6 O        1.8420    -3.3370     1.7140 O.3   1 <1>  -0.3630 
  7 C        3.9660    -2.2580     2.2660 C.ar  1 <1>  -0.1500 
  8 C        4.5910    -0.4980     0.7200 C.ar  1 <1>  -0.1440 
  9 C        4.8520    -1.2700     1.8530 C.ar  1 <1>  -0.1500 
 10 C        5.5900     0.5600     0.2810 C.3   1 <1>   0.2540 
 11 N        6.8260    -0.0860    -0.2000 N.3   1 <1>  -0.8100 
 12 C        6.5890    -0.9430    -1.3930 C.3   1 <1>   0.1100 
 13 C        7.9010     0.8990    -0.4700 C.3   1 <1>   0.1100 
 14 C        7.8810    -1.6390    -1.8850 C.3   1 <1>   0.3430 
 15 C        9.2130     0.2170    -0.9330 C.3   1 <1>   0.3430 
 16 N        9.0410    -1.2710    -1.0170 N.4   1 <1>  -0.9590 
 17 C       10.2910    -2.0240    -1.2850 C.3   1 <1>   0.4860 
 18 C       11.3030    -1.6710    -0.2130 C.ar  1 <1>  -0.1430 
 19 C       11.1810    -2.1280     1.0980 C.ar  1 <1>  -0.1430 
 20 C       12.3700    -0.8530    -0.5610 C.ar  1 <1>  -0.1500 
 21 C       12.1230    -1.7390     2.0360 C.ar  1 <1>  -0.1500 
 22 C       10.0520    -3.0450     1.5540 C.3   1 <1>  -0.0970 
 23 C       13.3090    -0.4720     0.3810 C.ar  1 <1>  -0.1430 
 24 C       13.1770    -0.9170     1.6830 C.ar  1 <1>  -0.1500 
 25 C       14.4750     0.4220    -0.0010 C.3   1 <1>  -0.0970 
 26 H        0.7970    -4.0260     0.0840 H     1 <1>   0.0800 
 27 H       -0.0510    -2.8310     1.0970 H     1 <1>   0.0800 
 28 H        3.1850    -0.1320    -0.8860 H     1 <1>   0.1500 
 29 H        4.1520    -2.8590     3.1370 H     1 <1>   0.1500 
 30 H        5.7530    -1.1010     2.4150 H     1 <1>   0.1500 
 31 H        5.8170     1.1890     1.1250 H     1 <1>   0.0800 
 32 H        5.1670     1.1770    -0.4940 H     1 <1>   0.0800 
 33 H        6.1750    -0.3540    -2.1930 H     1 <1>   0.0800 
 34 H        5.8700    -1.7090    -1.1530 H     1 <1>   0.0800 
 35 H        8.1030     1.4610     0.4260 H     1 <1>   0.0800 
 36 H        7.5790     1.5960    -1.2250 H     1 <1>   0.0800 
 37 H        8.0750    -1.3500    -2.9050 H     1 <1>   0.0800 
 38 H        7.7290    -2.7050    -1.8660 H     1 <1>   0.0800 
 39 H        9.9930     0.4570    -0.2270 H     1 <1>   0.0800 
 40 H        9.5060     0.6130    -1.8910 H     1 <1>   0.0800 
 41 H        8.7320    -1.5100    -0.0630 H     1 <1>   0.4500 
 42 H       10.6800    -1.7650    -2.2560 H     1 <1>   0.0800 
 43 H       10.1000    -3.0840    -1.2640 H     1 <1>   0.0800 
 44 H       12.4820    -0.5030    -1.5730 H     1 <1>   0.1500 
 45 H       12.0490    -2.0750     3.0560 H     1 <1>   0.1500 
 46 H        9.8470    -3.8040     0.8210 H     1 <1>   0.0800 
 47 H        9.1600    -2.4750     1.7420 H     1 <1>   0.0800 
 48 H       10.3230    -3.5460     2.4670 H     1 <1>   0.0800 
 49 H       13.8980    -0.6280     2.4290 H     1 <1>   0.1500 
 50 H       14.2430     1.4460     0.2310 H     1 <1>   0.0800 
 51 H       14.6900     0.3440    -1.0520 H     1 <1>   0.0800 
 52 H       15.3570     0.1370     0.5440 H     1 <1>   0.0800 
@<TRIPOS>BOND
  1   1   2  1   
  2   1   3  1   
  3   2   4  ar  
  4   2   5  ar  
  5   3   6  1   
  6   3  26  1   
  7   3  27  1   
  8   4   6  1   
  9   4   7  ar  
 10   5   8  ar  
 11   5  28  1   
 12   7   9  ar  
 13   7  29  1   
 14   8   9  ar  
 15   8  10  1   
 16   9  30  1   
 17  10  11  1   
 18  10  31  1   
 19  10  32  1   
 20  11  12  1   
 21  11  13  1   
 22  12  14  1   
 23  12  33  1   
 24  12  34  1   
 25  13  15  1   
 26  13  35  1   
 27  13  36  1   
 28  14  16  1   
 29  14  37  1   
 30  14  38  1   
 31  15  16  1   
 32  15  39  1   
 33  15  40  1   
 34  16  17  1   
 35  16  41  1   
 36  17  18  1   
 37  17  42  1   
 38  17  43  1   
 39  18  19  ar  
 40  18  20  ar  
 41  19  21  ar  
 42  19  22  1   
 43  20  23  ar  
 44  20  44  1   
 45  21  24  ar  
 46  21  45  1   
 47  22  46  1   
 48  22  47  1   
 49  22  48  1   
 50  23  24  ar  
 51  23  25  1   
 52  24  49  1   
 53  25  50  1   
 54  25  51  1   
 55  25  52  1   
@<TRIPOS>SUBSTRUCTURE
  1 ****  11 GROUP 4 **** **** 0

# MOE 2024.06 (io_trps.svl 2023.06)
