@<TRIPOS>MOLECULE
NONAME
57 59 1 0 0 
SMALL
USER_CHARGES


@<TRIPOS>ATOM
  1 S        0.0830     0.4990    -0.9640 S.o2  1 <1>   1.4470 
  2 O        0.4030     1.9060    -0.8420 O.2   1 <1>  -0.6500 
  3 O       -0.4830     0.0040    -2.1990 O.2   1 <1>  -0.6500 
  4 N       -1.0170     0.1340     0.2800 N.am  1 <1>  -0.8490 
  5 C        1.5420    -0.5020    -0.5450 C.ar  1 <1>  -0.0090 
  6 C       -0.6420     0.7220     1.5690 C.3   1 <1>   0.1160 
  7 C       -2.3860     0.5240    -0.0700 C.3   1 <1>   0.1160 
  8 C        2.8160     0.0520    -0.5120 C.ar  1 <1>  -0.1500 
  9 C        1.4240    -1.8540    -0.2510 C.ar  1 <1>  -0.1500 
 10 C        3.9260    -0.7130    -0.1980 C.ar  1 <1>  -0.1500 
 11 C        2.5320    -2.6210     0.0630 C.ar  1 <1>  -0.1500 
 12 C        3.8140    -2.0730     0.0910 C.ar  1 <1>   0.0860 
 13 C        4.9690    -2.8920     0.4100 C.2   1 <1>   0.5440 
 14 O        4.8690    -3.8110     1.1970 O.2   1 <1>  -0.5700 
 15 N        6.1710    -2.6400    -0.2120 N.am  1 <1>  -0.5470 
 16 C        7.4440    -3.1900     0.0020 C.ar  1 <1>   0.1170 
 17 C        7.8490    -3.6940     1.2340 C.ar  1 <1>  -0.1500 
 18 C        8.3530    -3.2180    -1.0490 C.ar  1 <1>  -0.1500 
 19 C        9.1180    -4.2150     1.4070 C.ar  1 <1>  -0.1500 
 20 C        9.6230    -3.7390    -0.8790 C.ar  1 <1>  -0.1500 
 21 C       10.0150    -4.2430     0.3510 C.ar  1 <1>  -0.1430 
 22 C       11.4050    -4.8290     0.5420 C.3   1 <1>  -0.0170 
 23 C       11.3700    -6.3520     0.3460 C.3   1 <1>  -0.0990 
 24 C       12.7230    -7.0290     0.5090 C.2   1 <1>   0.5690 
 25 O       13.6870    -6.3630     0.8070 O.2   1 <1>  -0.5700 
 26 N       12.8210    -8.3780     0.3160 N.am  1 <1>  -0.6600 
 27 C       14.1040    -9.1020     0.4310 C.3   1 <1>   0.1400 
 28 C       11.7190    -9.2970    -0.0450 C.3   1 <1>   0.1400 
 29 C       13.8210   -10.4860    -0.1400 C.3   1 <1>  -0.1600 
 30 C       12.3230   -10.6920     0.0740 C.3   1 <1>  -0.1600 
 31 H        0.3480     0.4030     1.8490 H     1 <1>   0.0800 
 32 H       -1.3280     0.4010     2.3350 H     1 <1>   0.0800 
 33 H       -0.6570     1.7990     1.5140 H     1 <1>   0.0800 
 34 H       -2.6980     0.0120    -0.9650 H     1 <1>   0.0800 
 35 H       -2.4410     1.5870    -0.2420 H     1 <1>   0.0800 
 36 H       -3.0640     0.2580     0.7230 H     1 <1>   0.0800 
 37 H        2.9370     1.1000    -0.7330 H     1 <1>   0.1500 
 38 H        0.4470    -2.3100    -0.2680 H     1 <1>   0.1500 
 39 H        4.8930    -0.2400    -0.1680 H     1 <1>   0.1500 
 40 H        2.4100    -3.6670     0.2920 H     1 <1>   0.1500 
 41 H        6.1090    -2.0140    -1.0120 H     1 <1>   0.3700 
 42 H        7.1700    -3.6810     2.0670 H     1 <1>   0.1500 
 43 H        8.0680    -2.8350    -2.0110 H     1 <1>   0.1500 
 44 H        9.4040    -4.6000     2.3700 H     1 <1>   0.1500 
 45 H       10.3090    -3.7530    -1.7090 H     1 <1>   0.1500 
 46 H       11.7630    -4.5990     1.5310 H     1 <1>   0.0800 
 47 H       12.0900    -4.3890    -0.1620 H     1 <1>   0.0800 
 48 H       11.0000    -6.5640    -0.6400 H     1 <1>   0.0800 
 49 H       10.6900    -6.7770     1.0600 H     1 <1>   0.0800 
 50 H       14.3770    -9.1660     1.4700 H     1 <1>   0.0800 
 51 H       14.8820    -8.5940    -0.1150 H     1 <1>   0.0800 
 52 H       11.4180    -9.1050    -1.0610 H     1 <1>   0.0800 
 53 H       10.8780    -9.1770     0.6170 H     1 <1>   0.0800 
 54 H       14.4140   -11.2450     0.3400 H     1 <1>   0.0800 
 55 H       14.0430   -10.4810    -1.1930 H     1 <1>   0.0800 
 56 H       11.8970   -11.3760    -0.6380 H     1 <1>   0.0800 
 57 H       12.1450   -11.0650     1.0680 H     1 <1>   0.0800 
@<TRIPOS>BOND
  1   1   2  2   
  2   1   3  2   
  3   1   4  am  
  4   1   5  1   
  5   4   6  1   
  6   4   7  1   
  7   5   8  ar  
  8   5   9  ar  
  9   6  31  1   
 10   6  32  1   
 11   6  33  1   
 12   7  34  1   
 13   7  35  1   
 14   7  36  1   
 15   8  10  ar  
 16   8  37  1   
 17   9  11  ar  
 18   9  38  1   
 19  10  12  ar  
 20  10  39  1   
 21  11  12  ar  
 22  11  40  1   
 23  12  13  1   
 24  13  14  2   
 25  13  15  am  
 26  15  16  1   
 27  15  41  1   
 28  16  17  ar  
 29  16  18  ar  
 30  17  19  ar  
 31  17  42  1   
 32  18  20  ar  
 33  18  43  1   
 34  19  21  ar  
 35  19  44  1   
 36  20  21  ar  
 37  20  45  1   
 38  21  22  1   
 39  22  23  1   
 40  22  46  1   
 41  22  47  1   
 42  23  24  1   
 43  23  48  1   
 44  23  49  1   
 45  24  25  2   
 46  24  26  am  
 47  26  27  1   
 48  26  28  1   
 49  27  29  1   
 50  27  50  1   
 51  27  51  1   
 52  28  30  1   
 53  28  52  1   
 54  28  53  1   
 55  29  30  1   
 56  29  54  1   
 57  29  55  1   
 58  30  56  1   
 59  30  57  1   
@<TRIPOS>SUBSTRUCTURE
  1 ****  15 GROUP 4 **** **** 0

# MOE 2024.06 (io_trps.svl 2023.06)
