@<TRIPOS>MOLECULE
NONAME
26 25 1 0 0 
SMALL
USER_CHARGES


@<TRIPOS>ATOM
  1 F       -0.1540     2.1220     0.5590 F     1 <1>  -0.3400 
  2 C       -1.4620     2.0410     0.8030 C.3   1 <1>   1.0200 
  3 F       -1.9370     3.2730     0.6180 F     1 <1>  -0.3400 
  4 F       -1.5690     1.8130     2.1110 F     1 <1>  -0.3400 
  5 C       -2.2030     0.9660    -0.0690 C.3   1 <1>   0.6800 
  6 F       -2.0100     1.2060    -1.3690 F     1 <1>  -0.3400 
  7 F       -1.6520    -0.2390     0.1080 F     1 <1>  -0.3400 
  8 C       -3.7230     0.8380     0.1710 C.3   1 <1>  -0.1600 
  9 C       -4.4340    -0.2320    -0.6840 C.3   1 <1>  -0.1600 
 10 C       -5.9270    -0.2370    -0.3660 C.3   1 <1>   0.1200 
 11 O       -6.5460    -1.2600    -1.1070 O.3   1 <1>  -0.4300 
 12 C       -7.8170    -1.2600    -1.5250 C.2   1 <1>   0.7060 
 13 O       -8.1130    -2.1530    -2.2880 O.2   1 <1>  -0.5700 
 14 C       -8.7800    -0.2220    -1.2320 C.2   1 <1>  -0.1360 
 15 C       -9.0200     0.6080    -0.1810 C.2   1 <1>  -0.4000 
 16 C       -8.3950     0.6990     1.0990 C.2   1 <1>   1.0500 
 17 O       -8.1850    -0.3170     1.7730 O.co2 1 <1>  -0.9000 
 18 O       -8.0050     1.8020     1.5030 O.co2 1 <1>  -0.9000 
 19 H       -3.8850     0.6180     1.2120 H     1 <1>   0.0800 
 20 H       -4.1760     1.7960    -0.0130 H     1 <1>   0.0800 
 21 H       -4.0290    -1.2050    -0.4670 H     1 <1>   0.0800 
 22 H       -4.3000    -0.0220    -1.7310 H     1 <1>   0.0800 
 23 H       -6.3650     0.7110    -0.6240 H     1 <1>   0.0800 
 24 H       -6.0740    -0.4490     0.6780 H     1 <1>   0.0800 
 25 H       -9.4480    -0.1220    -2.0660 H     1 <1>   0.1500 
 26 H       -9.7970     1.3390    -0.2570 H     1 <1>   0.1500 
@<TRIPOS>BOND
  1   1   2  1   
  2   2   3  1   
  3   2   4  1   
  4   2   5  1   
  5   5   6  1   
  6   5   7  1   
  7   5   8  1   
  8   8   9  1   
  9   8  19  1   
 10   8  20  1   
 11   9  10  1   
 12   9  21  1   
 13   9  22  1   
 14  10  11  1   
 15  10  23  1   
 16  10  24  1   
 17  11  12  1   
 18  12  13  2   
 19  12  14  1   
 20  14  15  2   
 21  14  25  1   
 22  15  16  1   
 23  15  26  1   
 24  16  17  ar  
 25  16  18  ar  
@<TRIPOS>SUBSTRUCTURE
  1 ****   9 GROUP 4 **** **** 0

# MOE 2024.06 (io_trps.svl 2023.06)
