@<TRIPOS>MOLECULE
NONAME
61 65 1 0 0 
SMALL
USER_CHARGES


@<TRIPOS>ATOM
  1 O       -0.4500     1.0790     0.2750 O.2   1 <1>  -0.5700 
  2 C       -1.1890     1.9800     0.6090 C.2   1 <1>   0.5690 
  3 N       -2.4800     1.6670     1.0000 N.am  1 <1>  -0.6600 
  4 C       -0.6020     3.4250     0.5600 C.3   1 <1>   0.0610 
  5 C       -3.6070     2.5880     1.3550 C.3   1 <1>   0.1400 
  6 C       -2.9360     0.2370     1.0240 C.3   1 <1>   0.1400 
  7 C        0.8980     3.3950     0.1350 C.3   1 <1>  -0.1600 
  8 C       -0.6360     4.1070     1.9560 C.3   1 <1>  -0.1600 
  9 C       -1.3280     4.3030    -0.4950 C.3   1 <1>  -0.1600 
 10 C       -4.7870     2.4040     0.3900 C.3   1 <1>   0.1400 
 11 C       -4.1140     0.0160     0.0630 C.3   1 <1>   0.1400 
 12 C        1.5240     4.8030     0.0720 C.3   1 <1>   0.0000 
 13 C       -0.0610     5.5370     1.9040 C.3   1 <1>   0.0000 
 14 C       -0.7440     5.7260    -0.5310 C.3   1 <1>  -0.0800 
 15 N       -5.2290     0.9760     0.3450 N.am  1 <1>  -0.6600 
 16 C        1.4120     5.4590     1.4610 C.3   1 <1>  -0.1600 
 17 C        0.7350     5.6510    -0.9430 C.3   1 <1>  -0.1600 
 18 C        2.9960     4.7100    -0.3510 C.3   1 <1>  -0.2400 
 19 C       -0.8540     6.3610     0.8680 C.3   1 <1>  -0.1600 
 20 C       -0.1580     6.1950     3.2860 C.3   1 <1>  -0.2400 
 21 C       -6.5550     0.6270     0.4840 C.2   1 <1>   0.5690 
 22 O       -7.3890     1.4810     0.7010 O.2   1 <1>  -0.5700 
 23 C       -7.0110    -0.8540     0.3900 C.3   1 <1>   0.2610 
 24 O       -6.6780    -1.4150    -0.8530 O.3   1 <1>  -0.5600 
 25 C       -8.5200    -1.0930     0.4740 C.3   1 <1>  -0.1600 
 26 C       -7.6820    -1.1420    -1.7790 C.3   1 <1>   0.1200 
 27 C       -8.9720    -0.9920    -0.9750 C.3   1 <1>  -0.1600 
 28 H       -3.3150     3.6150     1.3400 H     1 <1>   0.0800 
 29 H       -3.9380     2.3670     2.3550 H     1 <1>   0.0800 
 30 H       -3.2430    -0.0170     2.0240 H     1 <1>   0.0800 
 31 H       -2.1410    -0.4340     0.7550 H     1 <1>   0.0800 
 32 H        0.9860     2.9260    -0.8300 H     1 <1>   0.0800 
 33 H        1.4540     2.7900     0.8320 H     1 <1>   0.0800 
 34 H       -0.0610     3.5140     2.6460 H     1 <1>   0.0800 
 35 H       -1.6290     4.1550     2.3480 H     1 <1>   0.0800 
 36 H       -2.3770     4.3770    -0.3020 H     1 <1>   0.0800 
 37 H       -1.2230     3.8480    -1.4650 H     1 <1>   0.0800 
 38 H       -4.4910     2.7110    -0.5980 H     1 <1>   0.0800 
 39 H       -5.5960     3.0420     0.7020 H     1 <1>   0.0800 
 40 H       -4.4440    -1.0020     0.1550 H     1 <1>   0.0800 
 41 H       -3.7740     0.1590    -0.9480 H     1 <1>   0.0800 
 42 H       -1.2860     6.3230    -1.2450 H     1 <1>   0.0800 
 43 H        1.9760     4.8860     2.1770 H     1 <1>   0.0800 
 44 H        1.8350     6.4480     1.4290 H     1 <1>   0.0800 
 45 H        0.8150     5.2180    -1.9240 H     1 <1>   0.0800 
 46 H        1.1470     6.6440    -0.9900 H     1 <1>   0.0800 
 47 H        3.5520     4.1190     0.3540 H     1 <1>   0.0800 
 48 H        3.4370     5.6900    -0.3970 H     1 <1>   0.0800 
 49 H        3.0800     4.2520    -1.3200 H     1 <1>   0.0800 
 50 H       -0.4700     7.3660     0.8320 H     1 <1>   0.0800 
 51 H       -1.8890     6.4190     1.1570 H     1 <1>   0.0800 
 52 H        0.3890     5.6220     4.0140 H     1 <1>   0.0800 
 53 H       -1.1840     6.2580     3.6040 H     1 <1>   0.0800 
 54 H        0.2510     7.1890     3.2580 H     1 <1>   0.0800 
 55 H       -6.5060    -1.4140     1.1550 H     1 <1>   0.0800 
 56 H       -9.0220    -0.3930     1.1190 H     1 <1>   0.0800 
 57 H       -8.6920    -2.0880     0.8430 H     1 <1>   0.0800 
 58 H       -7.7310    -1.9540    -2.4830 H     1 <1>   0.0800 
 59 H       -7.4310    -0.2250    -2.2860 H     1 <1>   0.0800 
 60 H       -9.4100    -0.0290    -1.1740 H     1 <1>   0.0800 
 61 H       -9.6810    -1.7610    -1.2250 H     1 <1>   0.0800 
@<TRIPOS>BOND
  1   1   2  2   
  2   2   3  am  
  3   2   4  1   
  4   3   5  1   
  5   3   6  1   
  6   4   7  1   
  7   4   8  1   
  8   4   9  1   
  9   5  10  1   
 10   5  28  1   
 11   5  29  1   
 12   6  11  1   
 13   6  30  1   
 14   6  31  1   
 15   7  12  1   
 16   7  32  1   
 17   7  33  1   
 18   8  13  1   
 19   8  34  1   
 20   8  35  1   
 21   9  14  1   
 22   9  36  1   
 23   9  37  1   
 24  10  15  1   
 25  10  38  1   
 26  10  39  1   
 27  11  15  1   
 28  11  40  1   
 29  11  41  1   
 30  12  16  1   
 31  12  17  1   
 32  12  18  1   
 33  13  16  1   
 34  13  19  1   
 35  13  20  1   
 36  14  17  1   
 37  14  19  1   
 38  14  42  1   
 39  15  21  am  
 40  16  43  1   
 41  16  44  1   
 42  17  45  1   
 43  17  46  1   
 44  18  47  1   
 45  18  48  1   
 46  18  49  1   
 47  19  50  1   
 48  19  51  1   
 49  20  52  1   
 50  20  53  1   
 51  20  54  1   
 52  21  22  2   
 53  21  23  1   
 54  23  24  1   
 55  23  25  1   
 56  23  55  1   
 57  24  26  1   
 58  25  27  1   
 59  25  56  1   
 60  25  57  1   
 61  26  27  1   
 62  26  58  1   
 63  26  59  1   
 64  27  60  1   
 65  27  61  1   
@<TRIPOS>SUBSTRUCTURE
  1 ****   3 GROUP 4 **** **** 0

# MOE 2024.06 (io_trps.svl 2023.06)
