@<TRIPOS>MOLECULE
NONAME
47 49 1 0 0 
SMALL
USER_CHARGES


@<TRIPOS>ATOM
  1 CL       0.4690    -0.1200    -0.4280 Cl    1 <1>  -0.1770 
  2 C        1.9340    -0.9980    -0.0590 C.ar  1 <1>   0.1770 
  3 C        1.9320    -1.9220     0.9690 C.ar  1 <1>  -0.1500 
  4 C        3.0760    -0.7550    -0.8010 C.ar  1 <1>  -0.1500 
  5 C        3.0960    -2.6130     1.2560 C.ar  1 <1>  -0.1500 
  6 C        4.2350    -1.4530    -0.5070 C.ar  1 <1>  -0.1500 
  7 C        4.2590    -2.3900     0.5240 C.ar  1 <1>   0.1000 
  8 N        5.4120    -3.1090     0.8320 N.pl3 1 <1>  -0.8380 
  9 C        5.4210    -4.5880     0.6300 C.3   1 <1>   0.2090 
 10 C        6.7420    -2.4330     0.9320 C.3   1 <1>   0.2090 
 11 C        6.3970    -4.9930    -0.4960 C.3   1 <1>   0.3430 
 12 C        7.6980    -2.8930    -0.1890 C.3   1 <1>   0.3430 
 13 N        7.7700    -4.3980    -0.3170 N.4   1 <1>  -0.9590 
 14 C        8.7040    -4.8190    -1.3960 C.3   1 <1>   0.4860 
 15 C       10.0920    -4.3080    -1.0630 C.ar  1 <1>  -0.1430 
 16 C       10.8060    -4.8550    -0.0060 C.ar  1 <1>  -0.1500 
 17 C       10.6610    -3.2800    -1.8030 C.ar  1 <1>  -0.1500 
 18 C       12.0580    -4.3660     0.3160 C.ar  1 <1>  -0.1500 
 19 C       11.9160    -2.7970    -1.4760 C.ar  1 <1>  -0.1500 
 20 C       12.6280    -3.3240    -0.4070 C.ar  1 <1>   0.1170 
 21 N       13.8940    -2.8060    -0.0990 N.am  1 <1>  -0.5470 
 22 C       14.5170    -2.7070     1.1120 C.2   1 <1>   0.5690 
 23 O       14.0130    -3.0400     2.1540 O.2   1 <1>  -0.5700 
 24 C       15.9110    -2.1310     1.1330 C.3   1 <1>  -0.1790 
 25 H        1.0330    -2.0900     1.5340 H     1 <1>   0.1500 
 26 H        3.0480    -0.0300    -1.5940 H     1 <1>   0.1500 
 27 H        3.1100    -3.3260     2.0600 H     1 <1>   0.1500 
 28 H        5.1180    -1.2670    -1.0860 H     1 <1>   0.1500 
 29 H        4.4290    -4.9250     0.3760 H     1 <1>   0.0800 
 30 H        5.7040    -5.0680     1.5500 H     1 <1>   0.0800 
 31 H        7.1770    -2.6580     1.8910 H     1 <1>   0.0800 
 32 H        6.6140    -1.3650     0.8830 H     1 <1>   0.0800 
 33 H        5.9790    -4.6590    -1.4310 H     1 <1>   0.0800 
 34 H        6.4620    -6.0680    -0.5290 H     1 <1>   0.0800 
 35 H        8.6800    -2.4930     0.0080 H     1 <1>   0.0800 
 36 H        7.3530    -2.4710    -1.1180 H     1 <1>   0.0800 
 37 H        8.1620    -4.7430     0.5690 H     1 <1>   0.4500 
 38 H        8.3830    -4.4210    -2.3450 H     1 <1>   0.0800 
 39 H        8.7310    -5.8950    -1.4680 H     1 <1>   0.0800 
 40 H       10.4080    -5.6670     0.5790 H     1 <1>   0.1500 
 41 H       10.1400    -2.8450    -2.6390 H     1 <1>   0.1500 
 42 H       12.6020    -4.7990     1.1370 H     1 <1>   0.1500 
 43 H       12.3460    -1.9980    -2.0540 H     1 <1>   0.1500 
 44 H       14.4080    -2.4100    -0.8840 H     1 <1>   0.3700 
 45 H       15.8900    -1.1110     0.7970 H     1 <1>   0.0800 
 46 H       16.5560    -2.7090     0.4980 H     1 <1>   0.0800 
 47 H       16.2980    -2.1570     2.1350 H     1 <1>   0.0800 
@<TRIPOS>BOND
  1   1   2  1   
  2   2   3  ar  
  3   2   4  ar  
  4   3   5  ar  
  5   3  25  1   
  6   4   6  ar  
  7   4  26  1   
  8   5   7  ar  
  9   5  27  1   
 10   6   7  ar  
 11   6  28  1   
 12   7   8  1   
 13   8   9  1   
 14   8  10  1   
 15   9  11  1   
 16   9  29  1   
 17   9  30  1   
 18  10  12  1   
 19  10  31  1   
 20  10  32  1   
 21  11  13  1   
 22  11  33  1   
 23  11  34  1   
 24  12  13  1   
 25  12  35  1   
 26  12  36  1   
 27  13  14  1   
 28  13  37  1   
 29  14  15  1   
 30  14  38  1   
 31  14  39  1   
 32  15  16  ar  
 33  15  17  ar  
 34  16  18  ar  
 35  16  40  1   
 36  17  19  ar  
 37  17  41  1   
 38  18  20  ar  
 39  18  42  1   
 40  19  20  ar  
 41  19  43  1   
 42  20  21  1   
 43  21  22  am  
 44  21  44  1   
 45  22  23  2   
 46  22  24  1   
 47  24  45  1   
 48  24  46  1   
 49  24  47  1   
@<TRIPOS>SUBSTRUCTURE
  1 ****  12 GROUP 4 **** **** 0

# MOE 2024.06 (io_trps.svl 2023.06)
