@<TRIPOS>MOLECULE
NONAME
49 51 1 0 0 
SMALL
USER_CHARGES


@<TRIPOS>ATOM
  1 O        0.9530    -0.3770     2.2480 O.2   1 <1>  -0.5700 
  2 C        1.7820    -1.1170     1.7550 C.2   1 <1>   0.5440 
  3 N        3.1010    -0.7050     1.7470 N.am  1 <1>  -0.6600 
  4 C        1.3680    -2.3830     1.1950 C.ar  1 <1>   0.0860 
  5 C        4.0910    -1.2130     0.7570 C.3   1 <1>   0.1400 
  6 C        3.4850     0.6140     2.3290 C.3   1 <1>   0.1400 
  7 C        1.1680    -2.5540    -0.1810 C.ar  1 <1>   0.0820 
  8 C        1.1520    -3.4750     2.0340 C.ar  1 <1>  -0.1500 
  9 C        4.2370    -0.1890    -0.3880 C.3   1 <1>   0.3430 
 10 C        3.5960     1.6470     1.1970 C.3   1 <1>   0.3430 
 11 O        1.3740    -1.4900    -0.9990 O.3   1 <1>  -0.3630 
 12 C        0.7750    -3.7920    -0.6830 C.ar  1 <1>  -0.1500 
 13 C        0.7610    -4.7010     1.5320 C.ar  1 <1>  -0.1500 
 14 N        4.5510     1.1980     0.1140 N.4   1 <1>  -0.9590 
 15 C        0.6630    -1.3780    -2.2160 C.3   1 <1>   0.0400 
 16 C        0.5730    -4.8600     0.1710 C.ar  1 <1>  -0.1500 
 17 C        4.5990     2.1820    -0.9980 C.3   1 <1>   0.4860 
 18 C        5.2110     3.4650    -0.4670 C.ar  1 <1>  -0.1430 
 19 C        6.5850     3.6000    -0.2810 C.ar  1 <1>  -0.1430 
 20 C        4.3660     4.5220    -0.1540 C.ar  1 <1>  -0.1500 
 21 C        7.0830     4.7860     0.2370 C.ar  1 <1>  -0.1500 
 22 C        7.5770     2.4980    -0.6360 C.3   1 <1>  -0.0970 
 23 C        4.8750     5.6990     0.3600 C.ar  1 <1>  -0.1500 
 24 C        6.2360     5.8290     0.5590 C.ar  1 <1>  -0.1500 
 25 H        3.7830    -2.1620     0.3560 H     1 <1>   0.0800 
 26 H        5.0400    -1.3610     1.2430 H     1 <1>   0.0800 
 27 H        4.4240     0.5240     2.8460 H     1 <1>   0.0800 
 28 H        2.7530     0.9430     3.0470 H     1 <1>   0.0800 
 29 H        1.2880    -3.3510     3.0950 H     1 <1>   0.1500 
 30 H        3.3090    -0.1690    -0.9360 H     1 <1>   0.0800 
 31 H        5.0090    -0.5220    -1.0620 H     1 <1>   0.0800 
 32 H        3.9230     2.5880     1.6100 H     1 <1>   0.0800 
 33 H        2.6120     1.7920     0.7810 H     1 <1>   0.0800 
 34 H        0.6250    -3.9460    -1.7350 H     1 <1>   0.1500 
 35 H        0.5980    -5.5320     2.1980 H     1 <1>   0.1500 
 36 H        5.4880     1.2020     0.5330 H     1 <1>   0.4500 
 37 H        0.7830    -0.3760    -2.5880 H     1 <1>   0.0800 
 38 H       -0.3790    -1.5720    -2.0320 H     1 <1>   0.0800 
 39 H        1.0620    -2.0810    -2.9260 H     1 <1>   0.0800 
 40 H        0.2680    -5.8170    -0.2200 H     1 <1>   0.1500 
 41 H        3.6060     2.3710    -1.3730 H     1 <1>   0.0800 
 42 H        5.2040     1.8070    -1.8060 H     1 <1>   0.0800 
 43 H        3.3020     4.4460    -0.3050 H     1 <1>   0.1500 
 44 H        8.1420     4.9140     0.3930 H     1 <1>   0.1500 
 45 H        7.3740     2.1000    -1.6140 H     1 <1>   0.0800 
 46 H        7.5420     1.7080     0.0900 H     1 <1>   0.0800 
 47 H        8.5810     2.8870    -0.6520 H     1 <1>   0.0800 
 48 H        4.2180     6.5170     0.6030 H     1 <1>   0.1500 
 49 H        6.6370     6.7460     0.9590 H     1 <1>   0.1500 
@<TRIPOS>BOND
  1   1   2  2   
  2   2   3  am  
  3   2   4  1   
  4   3   5  1   
  5   3   6  1   
  6   4   7  ar  
  7   4   8  ar  
  8   5   9  1   
  9   5  25  1   
 10   5  26  1   
 11   6  10  1   
 12   6  27  1   
 13   6  28  1   
 14   7  11  1   
 15   7  12  ar  
 16   8  13  ar  
 17   8  29  1   
 18   9  14  1   
 19   9  30  1   
 20   9  31  1   
 21  10  14  1   
 22  10  32  1   
 23  10  33  1   
 24  11  15  1   
 25  12  16  ar  
 26  12  34  1   
 27  13  16  ar  
 28  13  35  1   
 29  14  17  1   
 30  14  36  1   
 31  15  37  1   
 32  15  38  1   
 33  15  39  1   
 34  16  40  1   
 35  17  18  1   
 36  17  41  1   
 37  17  42  1   
 38  18  19  ar  
 39  18  20  ar  
 40  19  21  ar  
 41  19  22  1   
 42  20  23  ar  
 43  20  43  1   
 44  21  24  ar  
 45  21  44  1   
 46  22  45  1   
 47  22  46  1   
 48  22  47  1   
 49  23  24  ar  
 50  23  48  1   
 51  24  49  1   
@<TRIPOS>SUBSTRUCTURE
  1 ****   9 GROUP 4 **** **** 0

# MOE 2024.06 (io_trps.svl 2023.06)
