@<TRIPOS>MOLECULE
NONAME
35 36 1 0 0 
SMALL
USER_CHARGES


@<TRIPOS>ATOM
  1 CL      -1.9280    -0.0880     2.8740 Cl    1 <1>  -0.1770 
  2 C       -2.4870    -0.7550     1.3550 C.ar  1 <1>   0.1770 
  3 C       -3.8070    -0.6090     0.9400 C.ar  1 <1>  -0.1440 
  4 C       -1.5520    -1.4300     0.5920 C.ar  1 <1>  -0.1500 
  5 C       -4.1860    -1.1630    -0.2860 C.ar  1 <1>   0.1170 
  6 C       -4.8380     0.1370     1.7920 C.3   1 <1>  -0.0960 
  7 C       -1.9310    -1.9750    -0.6190 C.ar  1 <1>  -0.1500 
  8 N       -5.5120    -1.0160    -0.7260 N.am  1 <1>  -0.5470 
  9 C       -3.2370    -1.8380    -1.0500 C.ar  1 <1>  -0.1500 
 10 C       -6.2670    -1.6200    -1.6890 C.2   1 <1>   0.5690 
 11 O       -5.8730    -2.4870    -2.4310 O.2   1 <1>  -0.5700 
 12 C       -7.7170    -1.1430    -1.7960 C.3   1 <1>   0.1710 
 13 N       -8.2410    -0.5420    -0.5310 N.3   1 <1>  -0.8100 
 14 C       -8.5390    -1.5920     0.4710 C.3   1 <1>   0.1100 
 15 C       -9.4690     0.2360    -0.7890 C.3   1 <1>   0.1100 
 16 C       -9.1540    -0.9850     1.7450 C.3   1 <1>   0.1200 
 17 C      -10.0570     0.7940     0.5200 C.3   1 <1>   0.1200 
 18 O      -10.2970    -0.2420     1.4290 O.3   1 <1>  -0.5600 
 19 H       -0.5410    -1.5240     0.9450 H     1 <1>   0.1500 
 20 H       -4.4470     0.4370     2.7450 H     1 <1>   0.0800 
 21 H       -5.6880    -0.4950     1.9760 H     1 <1>   0.0800 
 22 H       -5.1660     1.0210     1.2750 H     1 <1>   0.0800 
 23 H       -1.2150    -2.5030    -1.2250 H     1 <1>   0.1500 
 24 H       -6.0900    -0.3750    -0.1750 H     1 <1>   0.3700 
 25 H       -3.5130    -2.2640    -1.9970 H     1 <1>   0.1500 
 26 H       -8.3360    -1.9690    -2.0980 H     1 <1>   0.0800 
 27 H       -7.7460    -0.4060    -2.5780 H     1 <1>   0.0800 
 28 H       -7.6360    -2.1160     0.7340 H     1 <1>   0.0800 
 29 H       -9.2320    -2.3080     0.0620 H     1 <1>   0.0800 
 30 H      -10.2090    -0.3850    -1.2660 H     1 <1>   0.0800 
 31 H       -9.2430     1.0570    -1.4480 H     1 <1>   0.0800 
 32 H       -8.4490    -0.3400     2.2370 H     1 <1>   0.0800 
 33 H       -9.4480    -1.7640     2.4250 H     1 <1>   0.0800 
 34 H      -10.9940     1.2860     0.3290 H     1 <1>   0.0800 
 35 H       -9.3790     1.4990     0.9690 H     1 <1>   0.0800 
@<TRIPOS>BOND
  1   1   2  1   
  2   2   3  ar  
  3   2   4  ar  
  4   3   5  ar  
  5   3   6  1   
  6   4   7  ar  
  7   4  19  1   
  8   5   8  1   
  9   5   9  ar  
 10   6  20  1   
 11   6  21  1   
 12   6  22  1   
 13   7   9  ar  
 14   7  23  1   
 15   8  10  am  
 16   8  24  1   
 17   9  25  1   
 18  10  11  2   
 19  10  12  1   
 20  12  13  1   
 21  12  26  1   
 22  12  27  1   
 23  13  14  1   
 24  13  15  1   
 25  14  16  1   
 26  14  28  1   
 27  14  29  1   
 28  15  17  1   
 29  15  30  1   
 30  15  31  1   
 31  16  18  1   
 32  16  32  1   
 33  16  33  1   
 34  17  18  1   
 35  17  34  1   
 36  17  35  1   
@<TRIPOS>SUBSTRUCTURE
  1 ****   8 GROUP 4 **** **** 0

# MOE 2024.06 (io_trps.svl 2023.06)
