@<TRIPOS>MOLECULE
NONAME
38 39 1 0 0 
SMALL
USER_CHARGES


@<TRIPOS>ATOM
  1 O       -0.5810    -2.8460     2.2660 O.2   1 <1>  -0.5700 
  2 C        0.0650    -2.1610     1.5100 C.2   1 <1>   0.5690 
  3 N       -0.5110    -1.4250     0.5270 N.am  1 <1>  -0.7300 
  4 C        1.5770    -2.1300     1.6680 C.3   1 <1>   0.0440 
  5 C       -1.9440    -1.3630     0.2140 C.3   1 <1>   0.2200 
  6 C        2.2840    -1.3670     0.5430 C.ar  1 <1>  -0.1440 
  7 C       -2.1670    -1.9530    -1.1830 C.3   1 <1>  -0.1600 
  8 C       -2.4010     0.0980     0.2810 C.3   1 <1>  -0.1600 
  9 C        2.5230    -1.9410    -0.7040 C.ar  1 <1>  -0.1440 
 10 C        2.6750    -0.0560     0.7770 C.ar  1 <1>  -0.1500 
 11 C       -3.6330    -1.8120    -1.6180 C.3   1 <1>  -0.1600 
 12 C       -3.8680     0.2420    -0.1510 C.3   1 <1>  -0.1600 
 13 C        3.1500    -1.1940    -1.6890 C.ar  1 <1>  -0.1500 
 14 C        2.1120    -3.3730    -1.0230 C.3   1 <1>  -0.0970 
 15 C        3.2990     0.6820    -0.2110 C.ar  1 <1>  -0.1500 
 16 C       -4.0940    -0.3490    -1.5490 C.3   1 <1>  -0.1600 
 17 C        3.5370     0.1120    -1.4470 C.ar  1 <1>  -0.1500 
 18 H        0.1060    -0.8980    -0.0970 H     1 <1>   0.3700 
 19 H        1.9370    -3.1400     1.7130 H     1 <1>   0.0800 
 20 H        1.7990    -1.6760     2.6150 H     1 <1>   0.0800 
 21 H       -2.4990    -1.9410     0.9350 H     1 <1>   0.0800 
 22 H       -1.8970    -2.9940    -1.1740 H     1 <1>   0.0800 
 23 H       -1.5400    -1.4420    -1.8930 H     1 <1>   0.0800 
 24 H       -1.7850     0.6980    -0.3660 H     1 <1>   0.0800 
 25 H       -2.2900     0.4570     1.2890 H     1 <1>   0.0800 
 26 H        2.4940     0.4020     1.7340 H     1 <1>   0.1500 
 27 H       -4.2540    -2.4110    -0.9730 H     1 <1>   0.0800 
 28 H       -3.7490    -2.1810    -2.6220 H     1 <1>   0.0800 
 29 H       -4.1440     1.2820    -0.1490 H     1 <1>   0.0800 
 30 H       -4.4980    -0.2680     0.5580 H     1 <1>   0.0800 
 31 H        3.3440    -1.6240    -2.6560 H     1 <1>   0.1500 
 32 H        1.0610    -3.5110    -0.8460 H     1 <1>   0.0800 
 33 H        2.6650    -4.0600    -0.4090 H     1 <1>   0.0800 
 34 H        2.3100    -3.6100    -2.0530 H     1 <1>   0.0800 
 35 H        3.5990     1.6970    -0.0190 H     1 <1>   0.1500 
 36 H       -5.1390    -0.2890    -1.8000 H     1 <1>   0.0800 
 37 H       -3.5480     0.2300    -2.2730 H     1 <1>   0.0800 
 38 H        4.0230     0.6820    -2.2190 H     1 <1>   0.1500 
@<TRIPOS>BOND
  1   1   2  2   
  2   2   3  am  
  3   2   4  1   
  4   3   5  1   
  5   3  18  1   
  6   4   6  1   
  7   4  19  1   
  8   4  20  1   
  9   5   7  1   
 10   5   8  1   
 11   5  21  1   
 12   6   9  ar  
 13   6  10  ar  
 14   7  11  1   
 15   7  22  1   
 16   7  23  1   
 17   8  12  1   
 18   8  24  1   
 19   8  25  1   
 20   9  13  ar  
 21   9  14  1   
 22  10  15  ar  
 23  10  26  1   
 24  11  16  1   
 25  11  27  1   
 26  11  28  1   
 27  12  16  1   
 28  12  29  1   
 29  12  30  1   
 30  13  17  ar  
 31  13  31  1   
 32  14  32  1   
 33  14  33  1   
 34  14  34  1   
 35  15  17  ar  
 36  15  35  1   
 37  16  36  1   
 38  16  37  1   
 39  17  38  1   
@<TRIPOS>SUBSTRUCTURE
  1 ****   3 GROUP 4 **** **** 0

# MOE 2024.06 (io_trps.svl 2023.06)
