@<TRIPOS>MOLECULE
NONAME
31 32 1 0 0 
SMALL
USER_CHARGES


@<TRIPOS>ATOM
  1 O       -0.2160     0.8620    -1.6020 O.3   1 <1>  -0.0190 
  2 N       -1.4480     0.4640    -1.6090 N.2   1 <1>  -0.4100 
  3 C       -0.1650     1.7310    -0.6260 C.2   1 <1>   0.2980 
  4 C       -2.0680     1.0910    -0.6730 C.2   1 <1>   0.4620 
  5 N       -1.2610     1.9290    -0.0180 N.2   1 <1>  -0.5650 
  6 C        1.1530     2.4260    -0.3240 C.3   1 <1>   0.0200 
  7 C       -3.4710     0.9360    -0.3380 C.ar  1 <1>   0.0540 
  8 C        2.1580     1.5880     0.5040 C.3   1 <1>   0.0000 
  9 C       -4.3110     0.0680    -1.0220 C.ar  1 <1>  -0.1500 
 10 C       -4.0840     1.6400     0.6900 C.ar  1 <1>  -0.1500 
 11 C        3.4090     2.4390     0.7720 C.3   1 <1>  -0.2400 
 12 C        1.5470     1.1800     1.8540 C.3   1 <1>  -0.2400 
 13 C        2.5900     0.3200    -0.2500 C.3   1 <1>  -0.2400 
 14 C       -5.6410    -0.0480    -0.6680 C.ar  1 <1>   0.1600 
 15 C       -5.4250     1.4540     0.9670 C.ar  1 <1>   0.1600 
 16 N       -6.2210     0.6250     0.3120 N.ar  1 <1>  -0.6200 
 17 H        0.9290     3.3300     0.2140 H     1 <1>   0.0800 
 18 H        1.6030     2.7140    -1.2560 H     1 <1>   0.0800 
 19 H       -3.9260    -0.5210    -1.8350 H     1 <1>   0.1500 
 20 H       -3.5140     2.3370     1.2770 H     1 <1>   0.1500 
 21 H        3.1530     3.3300     1.3190 H     1 <1>   0.0800 
 22 H        3.8760     2.7300    -0.1520 H     1 <1>   0.0800 
 23 H        4.1270     1.8860     1.3520 H     1 <1>   0.0800 
 24 H        2.2670     0.6480     2.4510 H     1 <1>   0.0800 
 25 H        1.2280     2.0490     2.4030 H     1 <1>   0.0800 
 26 H        0.6950     0.5390     1.7130 H     1 <1>   0.0800 
 27 H        2.9840     0.5690    -1.2200 H     1 <1>   0.0800 
 28 H        1.7620    -0.3540    -0.3800 H     1 <1>   0.0800 
 29 H        3.3540    -0.2030     0.2990 H     1 <1>   0.0800 
 30 H       -6.2650    -0.7310    -1.2200 H     1 <1>   0.1500 
 31 H       -5.8690     2.0160     1.7710 H     1 <1>   0.1500 
@<TRIPOS>BOND
  1   1   2  1   
  2   1   3  1   
  3   2   4  2   
  4   3   5  2   
  5   3   6  1   
  6   4   5  1   
  7   4   7  1   
  8   6   8  1   
  9   6  17  1   
 10   6  18  1   
 11   7   9  ar  
 12   7  10  ar  
 13   8  11  1   
 14   8  12  1   
 15   8  13  1   
 16   9  14  ar  
 17   9  19  1   
 18  10  15  ar  
 19  10  20  1   
 20  11  21  1   
 21  11  22  1   
 22  11  23  1   
 23  12  24  1   
 24  12  25  1   
 25  12  26  1   
 26  13  27  1   
 27  13  28  1   
 28  13  29  1   
 29  14  16  ar  
 30  14  30  1   
 31  15  16  ar  
 32  15  31  1   
@<TRIPOS>SUBSTRUCTURE
  1 ****   5 GROUP 4 **** **** 0

# MOE 2024.06 (io_trps.svl 2023.06)
