@<TRIPOS>MOLECULE
NONAME
44 45 1 0 0 
SMALL
USER_CHARGES


@<TRIPOS>ATOM
  1 CL       0.1040     0.2410     0.2030 Cl    1 <1>  -0.1770 
  2 C       -1.3370     1.1280    -0.2430 C.ar  1 <1>   0.1770 
  3 C       -1.4910     2.4620     0.1010 C.ar  1 <1>  -0.0090 
  4 C       -2.3040     0.4400    -0.9520 C.ar  1 <1>  -0.1500 
  5 S       -0.2220     3.3430     1.0370 S.o2  1 <1>   1.4470 
  6 C       -2.6640     3.0960    -0.2940 C.ar  1 <1>  -0.1500 
  7 C       -3.4690     1.0800    -1.3370 C.ar  1 <1>  -0.1430 
  8 O        0.1450     2.6530     2.2470 O.2   1 <1>  -0.6500 
  9 O       -0.5230     4.7530     1.0870 O.2   1 <1>  -0.6500 
 10 N        1.1550     3.2590     0.1200 N.am  1 <1>  -0.9780 
 11 C       -3.6540     2.4180    -1.0020 C.ar  1 <1>   0.0830 
 12 C       -4.5260     0.3080    -2.1160 C.3   1 <1>  -0.0970 
 13 O       -4.8180     3.0030    -1.3880 O.3   1 <1>  -0.3620 
 14 C       -5.1450     4.3470    -1.0540 C.3   1 <1>   0.1810 
 15 C       -6.5790     4.6870    -1.4610 C.2   1 <1>   0.5690 
 16 O       -6.7630     5.6010    -2.2270 O.2   1 <1>  -0.5700 
 17 N       -7.6490     4.0170    -0.9640 N.am  1 <1>  -0.7300 
 18 C       -7.6600     2.8480    -0.0700 C.3   1 <1>   0.2200 
 19 C       -8.1250     1.6230    -0.8610 C.3   1 <1>  -0.1600 
 20 C       -8.5910     3.1280     1.1130 C.3   1 <1>  -0.1600 
 21 C       -8.2220     0.3890     0.0470 C.3   1 <1>  -0.1600 
 22 C       -8.6980     1.9000     2.0300 C.3   1 <1>  -0.1600 
 23 C       -9.1430     0.6580     1.2460 C.3   1 <1>  -0.1600 
 24 H       -2.1370    -0.5940    -1.1960 H     1 <1>   0.1500 
 25 H       -2.7850     4.1330    -0.0370 H     1 <1>   0.1500 
 26 H        1.6370     2.4360     0.4760 H     1 <1>   0.4200 
 27 H        1.7020     4.0560     0.4330 H     1 <1>   0.4200 
 28 H       -4.1310    -0.6190    -2.4910 H     1 <1>   0.0800 
 29 H       -4.8700     0.8900    -2.9520 H     1 <1>   0.0800 
 30 H       -5.3620     0.0930    -1.4760 H     1 <1>   0.0800 
 31 H       -4.4610     4.9970    -1.5670 H     1 <1>   0.0800 
 32 H       -5.0450     4.4720     0.0080 H     1 <1>   0.0800 
 33 H       -8.5600     4.3120    -1.3170 H     1 <1>   0.3700 
 34 H       -6.6700     2.6600     0.3100 H     1 <1>   0.0800 
 35 H       -7.4290     1.4300    -1.6580 H     1 <1>   0.0800 
 36 H       -9.0910     1.8180    -1.2940 H     1 <1>   0.0800 
 37 H       -9.5710     3.3800     0.7490 H     1 <1>   0.0800 
 38 H       -8.2120     3.9620     1.6780 H     1 <1>   0.0800 
 39 H       -7.2390     0.1300     0.4040 H     1 <1>   0.0800 
 40 H       -8.5990    -0.4460    -0.5180 H     1 <1>   0.0800 
 41 H       -9.4020     2.0990     2.8190 H     1 <1>   0.0800 
 42 H       -7.7400     1.7090     2.4850 H     1 <1>   0.0800 
 43 H       -9.1440    -0.1990     1.8980 H     1 <1>   0.0800 
 44 H      -10.1500     0.8020     0.8940 H     1 <1>   0.0800 
@<TRIPOS>BOND
  1   1   2  1   
  2   2   3  ar  
  3   2   4  ar  
  4   3   5  1   
  5   3   6  ar  
  6   4   7  ar  
  7   4  24  1   
  8   5   8  2   
  9   5   9  2   
 10   5  10  am  
 11   6  11  ar  
 12   6  25  1   
 13   7  11  ar  
 14   7  12  1   
 15  10  26  1   
 16  10  27  1   
 17  11  13  1   
 18  12  28  1   
 19  12  29  1   
 20  12  30  1   
 21  13  14  1   
 22  14  15  1   
 23  14  31  1   
 24  14  32  1   
 25  15  16  2   
 26  15  17  am  
 27  17  18  1   
 28  17  33  1   
 29  18  19  1   
 30  18  20  1   
 31  18  34  1   
 32  19  21  1   
 33  19  35  1   
 34  19  36  1   
 35  20  22  1   
 36  20  37  1   
 37  20  38  1   
 38  21  23  1   
 39  21  39  1   
 40  21  40  1   
 41  22  23  1   
 42  22  41  1   
 43  22  42  1   
 44  23  43  1   
 45  23  44  1   
@<TRIPOS>SUBSTRUCTURE
  1 ****  11 GROUP 4 **** **** 0

# MOE 2024.06 (io_trps.svl 2023.06)
