@<TRIPOS>MOLECULE
NONAME
30 30 1 0 0 
SMALL
USER_CHARGES


@<TRIPOS>ATOM
  1 O       -0.6710    -0.2800    -1.5160 O.co2 1 <1>  -0.9000 
  2 C       -1.8360    -0.7110    -1.4570 C.2   1 <1>   0.9790 
  3 O       -2.1000    -1.8020    -1.9960 O.co2 1 <1>  -0.9000 
  4 C       -2.8780     0.0430    -0.7710 C.ar  1 <1>  -0.1790 
  5 C       -4.1860    -0.4350    -0.6990 C.ar  1 <1>  -0.1500 
  6 C       -2.6180     1.2690    -0.1580 C.ar  1 <1>  -0.1500 
  7 C       -5.2050     0.2530    -0.0560 C.ar  1 <1>   0.1170 
  8 C       -3.6150     1.9760     0.4890 C.ar  1 <1>  -0.1500 
  9 N       -6.4810    -0.3310    -0.0530 N.am  1 <1>  -0.5470 
 10 C       -4.9020     1.4720     0.5410 C.ar  1 <1>  -0.1500 
 11 C       -7.6750     0.0390     0.5020 C.2   1 <1>   0.5690 
 12 O       -7.8330     1.0410     1.1580 O.2   1 <1>  -0.5700 
 13 C       -8.8700    -0.8920     0.2750 C.3   1 <1>  -0.0190 
 14 C      -10.0660    -0.1170    -0.3190 C.3   1 <1>  -0.1600 
 15 C       -9.2440    -1.6170     1.5810 C.3   1 <1>  -0.2400 
 16 C      -11.2260    -1.0180    -0.7680 C.3   1 <1>  -0.2400 
 17 H       -4.3950    -1.3800    -1.1690 H     1 <1>   0.1500 
 18 H       -1.6150     1.6600    -0.1990 H     1 <1>   0.1500 
 19 H       -3.3870     2.9180     0.9520 H     1 <1>   0.1500 
 20 H       -6.5040    -1.2120    -0.5620 H     1 <1>   0.3700 
 21 H       -5.6620     2.0350     1.0470 H     1 <1>   0.1500 
 22 H       -8.5760    -1.6380    -0.4430 H     1 <1>   0.0800 
 23 H       -9.7210     0.4440    -1.1720 H     1 <1>   0.0800 
 24 H      -10.4270     0.5950     0.4050 H     1 <1>   0.0800 
 25 H       -9.6130    -0.9110     2.3040 H     1 <1>   0.0800 
 26 H       -8.3760    -2.1010     1.9950 H     1 <1>   0.0800 
 27 H       -9.9950    -2.3660     1.4090 H     1 <1>   0.0800 
 28 H      -10.8800    -1.7620    -1.4650 H     1 <1>   0.0800 
 29 H      -11.9800    -0.4230    -1.2520 H     1 <1>   0.0800 
 30 H      -11.6800    -1.5100     0.0740 H     1 <1>   0.0800 
@<TRIPOS>BOND
  1   1   2  ar  
  2   2   3  ar  
  3   2   4  1   
  4   4   5  ar  
  5   4   6  ar  
  6   5   7  ar  
  7   5  17  1   
  8   6   8  ar  
  9   6  18  1   
 10   7   9  1   
 11   7  10  ar  
 12   8  10  ar  
 13   8  19  1   
 14   9  11  am  
 15   9  20  1   
 16  10  21  1   
 17  11  12  2   
 18  11  13  1   
 19  13  14  1   
 20  13  15  1   
 21  13  22  1   
 22  14  16  1   
 23  14  23  1   
 24  14  24  1   
 25  15  25  1   
 26  15  26  1   
 27  15  27  1   
 28  16  28  1   
 29  16  29  1   
 30  16  30  1   
@<TRIPOS>SUBSTRUCTURE
  1 ****   7 GROUP 4 **** **** 0

# MOE 2024.06 (io_trps.svl 2023.06)
