@<TRIPOS>MOLECULE
NONAME
48 50 1 0 0 
SMALL
USER_CHARGES


@<TRIPOS>ATOM
  1 N        2.0610     0.1710    -0.9920 N.ar  1 <1>  -0.6200 
  2 C        1.7480     0.9420     0.0440 C.ar  1 <1>   0.4100 
  3 C        1.1720     0.1560    -1.9750 C.ar  1 <1>   0.1600 
  4 N        2.6590     0.9720     1.0780 N.pl3 1 <1>  -0.8380 
  5 C        0.5820     1.6940     0.1280 C.ar  1 <1>  -0.1500 
  6 C       -0.0140     0.8690    -1.9820 C.ar  1 <1>  -0.1500 
  7 C        2.7980    -0.3040     1.8400 C.3   1 <1>   0.2090 
  8 C        3.9570     1.6360     0.7630 C.3   1 <1>   0.2090 
  9 C       -0.3280     1.6670    -0.9010 C.ar  1 <1>  -0.1500 
 10 C        3.8090    -1.2590     1.1660 C.3   1 <1>   0.3430 
 11 C        4.9520     0.6540     0.1040 C.3   1 <1>   0.3430 
 12 N        5.1480    -0.6110     0.9110 N.4   1 <1>  -0.9590 
 13 C        6.0630    -1.5670     0.2320 C.3   1 <1>   0.3430 
 14 C        7.4980    -1.0420     0.2650 C.3   1 <1>  -0.1600 
 15 C        8.5040    -2.0770    -0.2640 C.3   1 <1>   0.0630 
 16 C        9.9190    -1.5520    -0.0450 C.ar  1 <1>  -0.1430 
 17 C        8.2690    -2.4250    -1.7420 C.3   1 <1>  -0.2400 
 18 C       10.4090    -0.4670    -0.7600 C.ar  1 <1>  -0.1500 
 19 C       10.7390    -2.1590     0.8970 C.ar  1 <1>  -0.1500 
 20 C       11.6920     0.0040    -0.5350 C.ar  1 <1>  -0.1500 
 21 C       12.0210    -1.6890     1.1230 C.ar  1 <1>  -0.1500 
 22 C       12.4980    -0.6070     0.4080 C.ar  1 <1>  -0.1500 
 23 H        1.3980    -0.4610    -2.8290 H     1 <1>   0.1500 
 24 H        0.4100     2.2910     1.0040 H     1 <1>   0.1500 
 25 H       -0.6830     0.8020    -2.8210 H     1 <1>   0.1500 
 26 H        1.8380    -0.7910     1.8950 H     1 <1>   0.0800 
 27 H        3.1110    -0.0870     2.8470 H     1 <1>   0.0800 
 28 H        4.3810     2.0390     1.6660 H     1 <1>   0.0800 
 29 H        3.7800     2.4600     0.0910 H     1 <1>   0.0800 
 30 H       -1.2410     2.2380    -0.8670 H     1 <1>   0.1500 
 31 H        3.3830    -1.5790     0.2290 H     1 <1>   0.0800 
 32 H        3.9340    -2.1310     1.7860 H     1 <1>   0.0800 
 33 H        5.8940     1.1560    -0.0330 H     1 <1>   0.0800 
 34 H        4.5670     0.4000    -0.8700 H     1 <1>   0.0800 
 35 H        5.5510    -0.3490     1.8190 H     1 <1>   0.4500 
 36 H        5.7480    -1.7200    -0.7870 H     1 <1>   0.0800 
 37 H        6.0310    -2.5170     0.7410 H     1 <1>   0.0800 
 38 H        7.7690    -0.8080     1.2790 H     1 <1>   0.0800 
 39 H        7.5820    -0.1480    -0.3260 H     1 <1>   0.0800 
 40 H        8.3920    -2.9850     0.3040 H     1 <1>   0.0800 
 41 H        8.2680    -1.5420    -2.3550 H     1 <1>   0.0800 
 42 H        7.3360    -2.9420    -1.8770 H     1 <1>   0.0800 
 43 H        9.0580    -3.0710    -2.0870 H     1 <1>   0.0800 
 44 H        9.8030     0.0240    -1.4990 H     1 <1>   0.1500 
 45 H       10.3910    -3.0040     1.4640 H     1 <1>   0.1500 
 46 H       12.0650     0.8440    -1.0950 H     1 <1>   0.1500 
 47 H       12.6490    -2.1670     1.8550 H     1 <1>   0.1500 
 48 H       13.4950    -0.2410     0.5830 H     1 <1>   0.1500 
@<TRIPOS>BOND
  1   1   2  ar  
  2   1   3  ar  
  3   2   4  1   
  4   2   5  ar  
  5   3   6  ar  
  6   3  23  1   
  7   4   7  1   
  8   4   8  1   
  9   5   9  ar  
 10   5  24  1   
 11   6   9  ar  
 12   6  25  1   
 13   7  10  1   
 14   7  26  1   
 15   7  27  1   
 16   8  11  1   
 17   8  28  1   
 18   8  29  1   
 19   9  30  1   
 20  10  12  1   
 21  10  31  1   
 22  10  32  1   
 23  11  12  1   
 24  11  33  1   
 25  11  34  1   
 26  12  13  1   
 27  12  35  1   
 28  13  14  1   
 29  13  36  1   
 30  13  37  1   
 31  14  15  1   
 32  14  38  1   
 33  14  39  1   
 34  15  16  1   
 35  15  17  1   
 36  15  40  1   
 37  16  18  ar  
 38  16  19  ar  
 39  17  41  1   
 40  17  42  1   
 41  17  43  1   
 42  18  20  ar  
 43  18  44  1   
 44  19  21  ar  
 45  19  45  1   
 46  20  22  ar  
 47  20  46  1   
 48  21  22  ar  
 49  21  47  1   
 50  22  48  1   
@<TRIPOS>SUBSTRUCTURE
  1 ****  12 GROUP 4 **** **** 0

# MOE 2024.06 (io_trps.svl 2023.06)
