@<TRIPOS>MOLECULE
NONAME
57 59 1 0 0 
SMALL
USER_CHARGES


@<TRIPOS>ATOM
  1 S       -0.0910    -0.5630    -0.7770 S.3   1 <1>  -0.0800 
  2 C        1.0210     0.7900    -0.7260 C.2   1 <1>   0.1040 
  3 C       -1.4800     0.4970    -0.6990 C.2   1 <1>  -0.1400 
  4 N        2.3880     0.5430    -0.7100 N.am  1 <1>  -0.4940 
  5 C        0.3430     1.9810    -0.6790 C.2   1 <1>  -0.0860 
  6 C       -1.0970     1.7840    -0.6320 C.2   1 <1>  -0.1810 
  7 C       -2.8400    -0.1720    -0.7130 C.3   1 <1>   0.0200 
  8 C        3.1050    -0.6010    -0.9750 C.2   1 <1>   0.5690 
  9 C        1.0170     3.2570    -0.6990 C.2   1 <1>   0.8060 
 10 C       -2.1260     2.9080    -0.5090 C.3   1 <1>   0.0210 
 11 C       -3.6770     0.2150     0.5100 C.3   1 <1>  -0.1600 
 12 O        2.6470    -1.5850    -1.5030 O.2   1 <1>  -0.5700 
 13 C        4.5870    -0.6730    -0.5720 C.3   1 <1>   0.4040 
 14 O        0.5370     4.2870    -1.1270 O.2   1 <1>  -0.5700 
 15 O        2.2800     3.2970    -0.2330 O.3   1 <1>  -0.4300 
 16 C       -3.0670     2.7190     0.6900 C.3   1 <1>  -0.1600 
 17 C       -4.1710     1.6690     0.4870 C.3   1 <1>  -0.1600 
 18 N        5.0570    -2.0860    -0.3100 N.4   1 <1>  -0.9590 
 19 C        3.0120     4.5040    -0.1230 C.3   1 <1>   0.1200 
 20 C        4.3970    -2.6500     0.9040 C.3   1 <1>   0.3430 
 21 C        6.5420    -2.1950    -0.3380 C.3   1 <1>   0.3430 
 22 C        2.6640     5.1690     1.2080 C.3   1 <1>  -0.2400 
 23 C        4.6300    -4.1550     1.0500 C.3   1 <1>  -0.1600 
 24 C        6.9510    -3.5870    -0.8150 C.3   1 <1>  -0.1600 
 25 C        6.0660    -4.5100     1.4630 C.3   1 <1>  -0.1600 
 26 C        7.0460    -4.6530     0.2900 C.3   1 <1>  -0.1600 
 27 H        2.9250     1.3790    -0.4640 H     1 <1>   0.3700 
 28 H       -2.7070    -1.2400    -0.7160 H     1 <1>   0.0800 
 29 H       -3.3580     0.0930    -1.6170 H     1 <1>   0.0800 
 30 H       -2.6940     2.9740    -1.4200 H     1 <1>   0.0800 
 31 H       -1.6490     3.8560    -0.3690 H     1 <1>   0.0800 
 32 H       -3.1070     0.0350     1.4060 H     1 <1>   0.0800 
 33 H       -4.5370    -0.4310     0.5420 H     1 <1>   0.0800 
 34 H        4.7430    -0.0700     0.3060 H     1 <1>   0.0800 
 35 H        5.1610    -0.2510    -1.3790 H     1 <1>   0.0800 
 36 H       -3.5500     3.6640     0.8750 H     1 <1>   0.0800 
 37 H       -2.4900     2.4820     1.5670 H     1 <1>   0.0800 
 38 H       -4.8830     1.7840     1.2870 H     1 <1>   0.0800 
 39 H       -4.6960     1.8630    -0.4330 H     1 <1>   0.0800 
 40 H        4.6770    -2.6370    -1.1000 H     1 <1>   0.4500 
 41 H        2.7830     5.1480    -0.9570 H     1 <1>   0.0800 
 42 H        4.0590     4.2600    -0.1530 H     1 <1>   0.0800 
 43 H        3.3330    -2.4850     0.8350 H     1 <1>   0.0800 
 44 H        4.7550    -2.1450     1.7880 H     1 <1>   0.0800 
 45 H        6.9630    -1.9880     0.6330 H     1 <1>   0.0800 
 46 H        6.9360    -1.4750    -1.0380 H     1 <1>   0.0800 
 47 H        1.6230     5.4370     1.2320 H     1 <1>   0.0800 
 48 H        3.2430     6.0670     1.3240 H     1 <1>   0.0800 
 49 H        2.8870     4.5110     2.0290 H     1 <1>   0.0800 
 50 H        4.3380    -4.6780     0.1560 H     1 <1>   0.0800 
 51 H        3.9760    -4.4950     1.8340 H     1 <1>   0.0800 
 52 H        7.9230    -3.5120    -1.2720 H     1 <1>   0.0800 
 53 H        6.2780    -3.9190    -1.5870 H     1 <1>   0.0800 
 54 H        6.0490    -5.4520     1.9860 H     1 <1>   0.0800 
 55 H        6.4350    -3.7790     2.1620 H     1 <1>   0.0800 
 56 H        8.0450    -4.6480     0.6940 H     1 <1>   0.0800 
 57 H        6.9050    -5.6200    -0.1650 H     1 <1>   0.0800 
@<TRIPOS>BOND
  1   1   2  1   
  2   1   3  1   
  3   2   4  1   
  4   2   5  2   
  5   3   6  2   
  6   3   7  1   
  7   4   8  am  
  8   4  27  1   
  9   5   6  1   
 10   5   9  1   
 11   6  10  1   
 12   7  11  1   
 13   7  28  1   
 14   7  29  1   
 15   8  12  2   
 16   8  13  1   
 17   9  14  2   
 18   9  15  1   
 19  10  16  1   
 20  10  30  1   
 21  10  31  1   
 22  11  17  1   
 23  11  32  1   
 24  11  33  1   
 25  13  18  1   
 26  13  34  1   
 27  13  35  1   
 28  15  19  1   
 29  16  17  1   
 30  16  36  1   
 31  16  37  1   
 32  17  38  1   
 33  17  39  1   
 34  18  20  1   
 35  18  21  1   
 36  18  40  1   
 37  19  22  1   
 38  19  41  1   
 39  19  42  1   
 40  20  23  1   
 41  20  43  1   
 42  20  44  1   
 43  21  24  1   
 44  21  45  1   
 45  21  46  1   
 46  22  47  1   
 47  22  48  1   
 48  22  49  1   
 49  23  25  1   
 50  23  50  1   
 51  23  51  1   
 52  24  26  1   
 53  24  52  1   
 54  24  53  1   
 55  25  26  1   
 56  25  54  1   
 57  25  55  1   
 58  26  56  1   
 59  26  57  1   
@<TRIPOS>SUBSTRUCTURE
  1 ****   4 GROUP 4 **** **** 0

# MOE 2024.06 (io_trps.svl 2023.06)
