@<TRIPOS>MOLECULE
NONAME
43 46 1 0 0 
SMALL
USER_CHARGES


@<TRIPOS>ATOM
  1 O       -1.5660    -1.1070    -3.0630 O.3   1 <1>  -0.2800 
  2 C       -2.5610    -1.8300    -2.5950 C.2   1 <1>  -0.0100 
  3 C       -0.7640    -0.8280    -2.0560 C.2   1 <1>  -0.0100 
  4 C       -2.4240    -2.0230    -1.2650 C.2   1 <1>  -0.1810 
  5 C       -1.2350    -1.3650    -0.9110 C.2   1 <1>  -0.1500 
  6 C       -3.3350    -2.7800    -0.3240 C.3   1 <1>   0.5240 
  7 N       -4.4640    -1.8990     0.0600 N.4   1 <1>  -0.9590 
  8 C       -4.0630    -0.5980     0.6940 C.3   1 <1>   0.3430 
  9 C       -5.5280    -2.5820     0.8630 C.3   1 <1>   0.3430 
 10 C       -5.2960     0.3080     0.9400 C.3   1 <1>   0.1100 
 11 C       -6.7460    -1.6510     1.0730 C.3   1 <1>   0.1100 
 12 N       -6.5500    -0.3140     0.4550 N.3   1 <1>  -0.8100 
 13 C       -7.7150     0.5710     0.6530 C.3   1 <1>   0.2530 
 14 C       -8.9500    -0.0370     0.0070 C.ar  1 <1>  -0.1430 
 15 C       -9.9990    -0.4960     0.7990 C.ar  1 <1>  -0.1500 
 16 C       -9.0260    -0.1450    -1.3820 C.ar  1 <1>  -0.1500 
 17 C      -11.0900    -1.0610     0.1700 C.ar  1 <1>   0.0830 
 18 C      -10.1350    -0.7130    -1.9970 C.ar  1 <1>  -0.1500 
 19 O      -12.1920    -1.5720     0.7270 O.3   1 <1>  -0.3630 
 20 C      -11.1570    -1.1680    -1.1880 C.ar  1 <1>   0.0830 
 21 C      -13.0180    -2.0250    -0.3450 C.3   1 <1>   0.4000 
 22 O      -12.3050    -1.7500    -1.5490 O.3   1 <1>  -0.3620 
 23 H       -3.3180    -2.1590    -3.2890 H     1 <1>   0.1500 
 24 H        0.1210    -0.2450    -2.2480 H     1 <1>   0.1500 
 25 H       -0.7930    -1.3120     0.0690 H     1 <1>   0.1500 
 26 H       -2.7840    -3.0900     0.5490 H     1 <1>   0.0800 
 27 H       -3.7100    -3.6580    -0.8240 H     1 <1>   0.0800 
 28 H       -4.9520    -1.5960    -0.7970 H     1 <1>   0.4500 
 29 H       -3.3770    -0.0730     0.0490 H     1 <1>   0.0800 
 30 H       -3.5610    -0.7780     1.6300 H     1 <1>   0.0800 
 31 H       -5.1380    -2.8750     1.8230 H     1 <1>   0.0800 
 32 H       -5.8600    -3.4740     0.3560 H     1 <1>   0.0800 
 33 H       -5.1420     1.2450     0.4320 H     1 <1>   0.0800 
 34 H       -5.3750     0.5200     1.9930 H     1 <1>   0.0800 
 35 H       -6.9360    -1.5450     2.1280 H     1 <1>   0.0800 
 36 H       -7.6090    -2.1290     0.6390 H     1 <1>   0.0800 
 37 H       -7.5240     1.5270     0.1940 H     1 <1>   0.0800 
 38 H       -7.8850     0.7320     1.7040 H     1 <1>   0.0800 
 39 H       -9.9830    -0.4260     1.8710 H     1 <1>   0.1500 
 40 H       -8.2120     0.2130    -1.9880 H     1 <1>   0.1500 
 41 H      -10.2080    -0.8020    -3.0650 H     1 <1>   0.1500 
 42 H      -13.9450    -1.4800    -0.3420 H     1 <1>   0.0800 
 43 H      -13.1780    -3.0850    -0.2550 H     1 <1>   0.0800 
@<TRIPOS>BOND
  1   1   2  1   
  2   1   3  1   
  3   2   4  2   
  4   2  23  1   
  5   3   5  2   
  6   3  24  1   
  7   4   5  1   
  8   4   6  1   
  9   5  25  1   
 10   6   7  1   
 11   6  26  1   
 12   6  27  1   
 13   7   8  1   
 14   7   9  1   
 15   7  28  1   
 16   8  10  1   
 17   8  29  1   
 18   8  30  1   
 19   9  11  1   
 20   9  31  1   
 21   9  32  1   
 22  10  12  1   
 23  10  33  1   
 24  10  34  1   
 25  11  12  1   
 26  11  35  1   
 27  11  36  1   
 28  12  13  1   
 29  13  14  1   
 30  13  37  1   
 31  13  38  1   
 32  14  15  ar  
 33  14  16  ar  
 34  15  17  ar  
 35  15  39  1   
 36  16  18  ar  
 37  16  40  1   
 38  17  19  1   
 39  17  20  ar  
 40  18  20  ar  
 41  18  41  1   
 42  19  21  1   
 43  20  22  1   
 44  21  22  1   
 45  21  42  1   
 46  21  43  1   
@<TRIPOS>SUBSTRUCTURE
  1 ****  12 GROUP 4 **** **** 0

# MOE 2024.06 (io_trps.svl 2023.06)
