@<TRIPOS>MOLECULE
NONAME
44 46 1 0 0 
SMALL
USER_CHARGES


@<TRIPOS>ATOM
  1 S        0.0370     0.0140    -1.5540 S.o2  1 <1>   1.4470 
  2 O       -0.8920     1.0230    -2.0160 O.2   1 <1>  -0.6500 
  3 O        0.4890    -1.0100    -2.4700 O.2   1 <1>  -0.6500 
  4 N        1.4130     0.8390    -1.0010 N.am  1 <1>  -0.8490 
  5 C       -0.5950    -0.7810    -0.0480 C.ar  1 <1>  -0.0090 
  6 C        1.0600     2.0030    -0.1830 C.3   1 <1>   0.1960 
  7 C        2.2830     1.2240    -2.1160 C.3   1 <1>   0.1960 
  8 C        0.2220    -1.6250     0.7020 C.ar  1 <1>  -0.1500 
  9 C       -1.9000    -0.5630     0.3900 C.ar  1 <1>  -0.1500 
 10 C        2.3210     2.6000     0.4430 C.3   1 <1>  -0.1600 
 11 C        3.5940     1.8020    -1.5790 C.3   1 <1>  -0.1600 
 12 C       -0.2400    -2.2340     1.8580 C.ar  1 <1>  -0.1500 
 13 C       -2.3810    -1.1620     1.5430 C.ar  1 <1>  -0.1500 
 14 C        3.3410     2.9950    -0.6400 C.3   1 <1>  -0.0190 
 15 C       -1.5380    -1.9890     2.2580 C.ar  1 <1>   0.1900 
 16 C        4.6360     3.5290    -0.0380 C.2   1 <1>   0.5690 
 17 F       -1.9810    -2.5550     3.3460 F     1 <1>  -0.1900 
 18 O        4.9810     4.6560    -0.2930 O.2   1 <1>  -0.5700 
 19 N        5.3710     2.7270     0.7660 N.am  1 <1>  -0.7300 
 20 C        6.6800     3.0770     1.3400 C.3   1 <1>   0.3200 
 21 C        7.5310     1.8230     1.3870 C.2   1 <1>  -0.0400 
 22 O        7.1100     0.7880     2.0920 O.3   1 <1>  -0.2800 
 23 C        8.7150     1.5430     0.8000 C.2   1 <1>  -0.1500 
 24 C        8.0110    -0.1670     1.9740 C.2   1 <1>  -0.0100 
 25 C        9.0310     0.2340     1.1870 C.2   1 <1>  -0.1500 
 26 H        0.3870     1.7070     0.6050 H     1 <1>   0.0800 
 27 H        0.5630     2.7450    -0.7890 H     1 <1>   0.0800 
 28 H        1.7810     1.9460    -2.7410 H     1 <1>   0.0800 
 29 H        2.5120     0.3610    -2.7190 H     1 <1>   0.0800 
 30 H        1.2330    -1.8040     0.3720 H     1 <1>   0.1500 
 31 H       -2.5480     0.0840    -0.1800 H     1 <1>   0.1500 
 32 H        2.7460     1.8750     1.1140 H     1 <1>   0.0800 
 33 H        2.0560     3.4680     1.0190 H     1 <1>   0.0800 
 34 H        4.2070     2.1190    -2.4040 H     1 <1>   0.0800 
 35 H        4.1220     1.0220    -1.0600 H     1 <1>   0.0800 
 36 H        0.3900    -2.8860     2.4370 H     1 <1>   0.1500 
 37 H       -3.3880    -0.9950     1.8820 H     1 <1>   0.1500 
 38 H        2.9100     3.7890    -1.2250 H     1 <1>   0.0800 
 39 H        5.0910     1.7620     0.9500 H     1 <1>   0.3700 
 40 H        6.5440     3.4600     2.3360 H     1 <1>   0.0800 
 41 H        7.1590     3.8310     0.7390 H     1 <1>   0.0800 
 42 H        9.3170     2.1660     0.1620 H     1 <1>   0.1500 
 43 H        7.8480    -1.1010     2.4830 H     1 <1>   0.1500 
 44 H        9.9130    -0.3080     0.8970 H     1 <1>   0.1500 
@<TRIPOS>BOND
  1   1   2  2   
  2   1   3  2   
  3   1   4  am  
  4   1   5  1   
  5   4   6  1   
  6   4   7  1   
  7   5   8  ar  
  8   5   9  ar  
  9   6  10  1   
 10   6  26  1   
 11   6  27  1   
 12   7  11  1   
 13   7  28  1   
 14   7  29  1   
 15   8  12  ar  
 16   8  30  1   
 17   9  13  ar  
 18   9  31  1   
 19  10  14  1   
 20  10  32  1   
 21  10  33  1   
 22  11  14  1   
 23  11  34  1   
 24  11  35  1   
 25  12  15  ar  
 26  12  36  1   
 27  13  15  ar  
 28  13  37  1   
 29  14  16  1   
 30  14  38  1   
 31  15  17  1   
 32  16  18  2   
 33  16  19  am  
 34  19  20  1   
 35  19  39  1   
 36  20  21  1   
 37  20  40  1   
 38  20  41  1   
 39  21  22  1   
 40  21  23  2   
 41  22  24  1   
 42  23  25  1   
 43  23  42  1   
 44  24  25  2   
 45  24  43  1   
 46  25  44  1   
@<TRIPOS>SUBSTRUCTURE
  1 ****   4 GROUP 4 **** **** 0

# MOE 2024.06 (io_trps.svl 2023.06)
