@<TRIPOS>MOLECULE
NONAME
41 42 1 0 0 
SMALL
USER_CHARGES


@<TRIPOS>ATOM
  1 O       -6.3330    -4.6530    -0.1470 O.3   1 <1>  -0.5600 
  2 C       -5.2030    -5.4720    -0.1990 C.3   1 <1>   0.1200 
  3 C       -6.1870    -3.5610     0.7120 C.3   1 <1>   0.1200 
  4 C       -3.9830    -4.6630    -0.6800 C.3   1 <1>   0.1100 
  5 C       -4.9980    -2.6890     0.2660 C.3   1 <1>   0.1100 
  6 N       -3.7460    -3.4770     0.1800 N.3   1 <1>  -0.8100 
  7 C       -2.6310    -2.6480    -0.2850 C.3   1 <1>   0.1100 
  8 C       -1.2990    -3.2990     0.1140 C.3   1 <1>   0.3430 
  9 N       -0.1400    -2.4040    -0.1780 N.4   1 <1>  -0.9060 
 10 C        1.1520    -3.0380     0.2280 C.3   1 <1>   0.3430 
 11 C        2.3490    -2.1270    -0.0500 C.3   1 <1>   0.1200 
 12 O        3.4970    -2.8260     0.3540 O.3   1 <1>  -0.3630 
 13 C        4.7340    -2.2790     0.2380 C.ar  1 <1>   0.0820 
 14 C        5.7990    -3.0550     0.6660 C.ar  1 <1>  -0.1500 
 15 C        4.9750    -1.0080    -0.2770 C.ar  1 <1>  -0.1500 
 16 C        7.0940    -2.5750     0.5840 C.ar  1 <1>  -0.1500 
 17 C        6.2720    -0.5300    -0.3580 C.ar  1 <1>  -0.1500 
 18 C        7.3310    -1.3120     0.0710 C.ar  1 <1>  -0.1500 
 19 H       -5.4130    -6.2760    -0.8810 H     1 <1>   0.0800 
 20 H       -5.0280    -5.8820     0.7800 H     1 <1>   0.0800 
 21 H       -6.0380    -3.9250     1.7140 H     1 <1>   0.0800 
 22 H       -7.1000    -2.9940     0.6790 H     1 <1>   0.0800 
 23 H       -4.1620    -4.3550    -1.6970 H     1 <1>   0.0800 
 24 H       -3.1220    -5.3070    -0.6680 H     1 <1>   0.0800 
 25 H       -4.8750    -1.8890     0.9760 H     1 <1>   0.0800 
 26 H       -5.2320    -2.2560    -0.6920 H     1 <1>   0.0800 
 27 H       -2.6970    -1.6850     0.1930 H     1 <1>   0.0800 
 28 H       -2.6940    -2.5150    -1.3520 H     1 <1>   0.0800 
 29 H       -1.1890    -4.2280    -0.4210 H     1 <1>   0.0800 
 30 H       -1.3330    -3.5160     1.1700 H     1 <1>   0.0800 
 31 H       -0.2670    -1.5200     0.3340 H     1 <1>   0.4500 
 32 H       -0.1230    -2.1830    -1.1820 H     1 <1>   0.4500 
 33 H        1.2890    -3.9590    -0.3150 H     1 <1>   0.0800 
 34 H        1.1290    -3.2640     1.2820 H     1 <1>   0.0800 
 35 H        2.2910    -1.2200     0.5280 H     1 <1>   0.0800 
 36 H        2.4420    -1.9140    -1.1000 H     1 <1>   0.0800 
 37 H        5.6150    -4.0370     1.0650 H     1 <1>   0.1500 
 38 H        4.1810    -0.3730    -0.6200 H     1 <1>   0.1500 
 39 H        7.9170    -3.1830     0.9180 H     1 <1>   0.1500 
 40 H        6.4630     0.4520    -0.7560 H     1 <1>   0.1500 
 41 H        8.3380    -0.9380     0.0070 H     1 <1>   0.1500 
@<TRIPOS>BOND
  1   1   2  1   
  2   1   3  1   
  3   2   4  1   
  4   2  19  1   
  5   2  20  1   
  6   3   5  1   
  7   3  21  1   
  8   3  22  1   
  9   4   6  1   
 10   4  23  1   
 11   4  24  1   
 12   5   6  1   
 13   5  25  1   
 14   5  26  1   
 15   6   7  1   
 16   7   8  1   
 17   7  27  1   
 18   7  28  1   
 19   8   9  1   
 20   8  29  1   
 21   8  30  1   
 22   9  10  1   
 23   9  31  1   
 24   9  32  1   
 25  10  11  1   
 26  10  33  1   
 27  10  34  1   
 28  11  12  1   
 29  11  35  1   
 30  11  36  1   
 31  12  13  1   
 32  13  14  ar  
 33  13  15  ar  
 34  14  16  ar  
 35  14  37  1   
 36  15  17  ar  
 37  15  38  1   
 38  16  18  ar  
 39  16  39  1   
 40  17  18  ar  
 41  17  40  1   
 42  18  41  1   
@<TRIPOS>SUBSTRUCTURE
  1 ****  10 GROUP 4 **** **** 0

# MOE 2024.06 (io_trps.svl 2023.06)
