@<TRIPOS>MOLECULE
NONAME
34 34 1 0 0 
SMALL
USER_CHARGES


@<TRIPOS>ATOM
  1 S        0.1550    -0.1960    -0.0290 S.3   1 <1>  -0.0800 
  2 C       -1.1860     0.9480     0.1130 C.2   1 <1>  -0.0450 
  3 C        1.3570     1.0740     0.0530 C.2   1 <1>  -0.1400 
  4 C       -2.5460     0.4860     0.1100 C.2   1 <1>   0.5940 
  5 C       -0.6680     2.2000     0.2130 C.2   1 <1>  -0.1500 
  6 C        0.7540     2.2710     0.1790 C.2   1 <1>  -0.1500 
  7 C        2.8120     0.6420    -0.0280 C.3   1 <1>   0.0200 
  8 O       -3.4770     1.2480     0.2060 O.2   1 <1>  -0.5700 
  9 C       -2.8340    -1.0120    -0.0190 C.3   1 <1>  -0.0990 
 10 C        3.7770     1.8310     0.0530 C.3   1 <1>  -0.1600 
 11 C       -4.3260    -1.3940    -0.0110 C.3   1 <1>  -0.2400 
 12 C        5.2390     1.3750    -0.0300 C.3   1 <1>  -0.1600 
 13 C        6.1930     2.5720     0.0520 C.3   1 <1>  -0.1600 
 14 C        7.6610     2.1220    -0.0310 C.3   1 <1>  -0.2660 
 15 C        8.6210     3.2880     0.0480 C.2   1 <1>   0.9060 
 16 O        8.9640     3.8400    -1.0010 O.co2 1 <1>  -0.9000 
 17 O        9.0250     3.6430     1.1590 O.co2 1 <1>  -0.9000 
 18 H       -1.2660     3.0900     0.3120 H     1 <1>   0.1500 
 19 H        1.2580     3.2190     0.2520 H     1 <1>   0.1500 
 20 H        2.9670     0.1190    -0.9560 H     1 <1>   0.0800 
 21 H        3.0160    -0.0400     0.7780 H     1 <1>   0.0800 
 22 H       -2.3470    -1.5190     0.7940 H     1 <1>   0.0800 
 23 H       -2.3970    -1.3600    -0.9370 H     1 <1>   0.0800 
 24 H        3.6210     2.3530     0.9810 H     1 <1>   0.0800 
 25 H        3.5710     2.5120    -0.7550 H     1 <1>   0.0800 
 26 H       -4.7870    -1.0780     0.9080 H     1 <1>   0.0800 
 27 H       -4.4390    -2.4600    -0.1050 H     1 <1>   0.0800 
 28 H       -4.8370    -0.9190    -0.8300 H     1 <1>   0.0800 
 29 H        5.4060     0.8560    -0.9590 H     1 <1>   0.0800 
 30 H        5.4550     0.6970     0.7780 H     1 <1>   0.0800 
 31 H        6.0470     3.0990     0.9790 H     1 <1>   0.0800 
 32 H        5.9970     3.2580    -0.7550 H     1 <1>   0.0800 
 33 H        7.8420     1.6140    -0.9580 H     1 <1>   0.0800 
 34 H        7.8910     1.4550     0.7770 H     1 <1>   0.0800 
@<TRIPOS>BOND
  1   1   2  1   
  2   1   3  1   
  3   2   4  1   
  4   2   5  2   
  5   3   6  2   
  6   3   7  1   
  7   4   8  2   
  8   4   9  1   
  9   5   6  1   
 10   5  18  1   
 11   6  19  1   
 12   7  10  1   
 13   7  20  1   
 14   7  21  1   
 15   9  11  1   
 16   9  22  1   
 17   9  23  1   
 18  10  12  1   
 19  10  24  1   
 20  10  25  1   
 21  11  26  1   
 22  11  27  1   
 23  11  28  1   
 24  12  13  1   
 25  12  29  1   
 26  12  30  1   
 27  13  14  1   
 28  13  31  1   
 29  13  32  1   
 30  14  15  1   
 31  14  33  1   
 32  14  34  1   
 33  15  16  ar  
 34  15  17  ar  
@<TRIPOS>SUBSTRUCTURE
  1 ****   7 GROUP 4 **** **** 0

# MOE 2024.06 (io_trps.svl 2023.06)
