@<TRIPOS>MOLECULE
NONAME
31 32 1 0 0 
SMALL
USER_CHARGES


@<TRIPOS>ATOM
  1 O       -0.6700    -3.0630    -1.1810 O.2   1 <1>  -0.5700 
  2 C       -0.0800    -2.2780    -0.4800 C.2   1 <1>   0.5690 
  3 N       -0.7230    -1.2580     0.1450 N.am  1 <1>  -0.7300 
  4 C        1.4060    -2.4560    -0.2880 C.3   1 <1>   0.1010 
  5 C       -2.1610    -0.9090    -0.0200 C.3   1 <1>   0.1400 
  6 C        2.1300    -1.2850    -0.8360 C.1   1 <1>   0.3570 
  7 C       -2.3330     0.5800    -0.3700 C.3   1 <1>   0.3440 
  8 N        2.6970    -0.3810    -1.2300 N.1   1 <1>  -0.5570 
  9 O       -1.5080     1.3150     0.5050 O.3   1 <1>  -0.5600 
 10 C       -3.8000     1.0310    -0.2830 C.ar  1 <1>  -0.1430 
 11 C       -1.6890     2.6940     0.4580 C.3   1 <1>   0.1200 
 12 C       -4.1410     2.1940     0.3970 C.ar  1 <1>  -0.1430 
 13 C       -4.8030     0.2950    -0.9030 C.ar  1 <1>  -0.1500 
 14 C       -3.0560     3.0260     1.0570 C.3   1 <1>  -0.0170 
 15 C       -5.4650     2.5970     0.4730 C.ar  1 <1>  -0.1500 
 16 C       -6.1240     0.7000    -0.8280 C.ar  1 <1>  -0.1500 
 17 C       -6.4560     1.8500    -0.1370 C.ar  1 <1>  -0.1500 
 18 H       -0.2100    -0.5210     0.6450 H     1 <1>   0.3700 
 19 H        1.7330    -3.3430    -0.7970 H     1 <1>   0.0800 
 20 H        1.6220    -2.5560     0.7580 H     1 <1>   0.0800 
 21 H       -2.6800    -1.1110     0.9000 H     1 <1>   0.0800 
 22 H       -2.6000    -1.5180    -0.7910 H     1 <1>   0.0800 
 23 H       -1.9740     0.7490    -1.3710 H     1 <1>   0.0800 
 24 H       -1.6210     3.0200    -0.5660 H     1 <1>   0.0800 
 25 H       -0.9020     3.1540     1.0300 H     1 <1>   0.0800 
 26 H       -4.5700    -0.5990    -1.4540 H     1 <1>   0.1500 
 27 H       -3.2570     4.0730     0.9200 H     1 <1>   0.0800 
 28 H       -3.0400     2.8220     2.1130 H     1 <1>   0.0800 
 29 H       -5.7290     3.4930     1.0060 H     1 <1>   0.1500 
 30 H       -6.8930     0.1200    -1.3080 H     1 <1>   0.1500 
 31 H       -7.4830     2.1650    -0.0760 H     1 <1>   0.1500 
@<TRIPOS>BOND
  1   1   2  2   
  2   2   3  am  
  3   2   4  1   
  4   3   5  1   
  5   3  18  1   
  6   4   6  1   
  7   4  19  1   
  8   4  20  1   
  9   5   7  1   
 10   5  21  1   
 11   5  22  1   
 12   6   8  3   
 13   7   9  1   
 14   7  10  1   
 15   7  23  1   
 16   9  11  1   
 17  10  12  ar  
 18  10  13  ar  
 19  11  14  1   
 20  11  24  1   
 21  11  25  1   
 22  12  14  1   
 23  12  15  ar  
 24  13  16  ar  
 25  13  26  1   
 26  14  27  1   
 27  14  28  1   
 28  15  17  ar  
 29  15  29  1   
 30  16  17  ar  
 31  16  30  1   
 32  17  31  1   
@<TRIPOS>SUBSTRUCTURE
  1 ****   7 GROUP 4 **** **** 0

# MOE 2024.06 (io_trps.svl 2023.06)
