@<TRIPOS>MOLECULE
NONAME
33 33 1 0 0 
SMALL
USER_CHARGES


@<TRIPOS>ATOM
  1 CL      -0.3270     0.8830     2.1310 Cl    1 <1>  -0.1770 
  2 C       -1.6800     1.4190     1.1620 C.ar  1 <1>   0.1770 
  3 C       -1.5630     2.4760     0.2570 C.ar  1 <1>   0.0860 
  4 C       -2.8750     0.7520     1.3490 C.ar  1 <1>  -0.1500 
  5 C       -0.3390     3.2210     0.0250 C.2   1 <1>   0.5440 
  6 C       -2.7170     2.8240    -0.4490 C.ar  1 <1>  -0.1500 
  7 C       -3.9940     1.1310     0.6310 C.ar  1 <1>  -0.1500 
  8 O       -0.3770     4.4030    -0.2350 O.2   1 <1>  -0.5700 
  9 N        0.8900     2.6610     0.0490 N.am  1 <1>  -0.8000 
 10 C       -3.9340     2.1750    -0.2840 C.ar  1 <1>  -0.0090 
 11 S       -5.4170     2.6920    -1.1990 S.o2  1 <1>   1.4470 
 12 O       -6.2000     1.5130    -1.4970 O.2   1 <1>  -0.6500 
 13 O       -5.0540     3.5920    -2.2720 O.2   1 <1>  -0.6500 
 14 N       -6.2610     3.6110    -0.0490 N.am  1 <1>  -0.8490 
 15 C       -5.6720     4.9380     0.1450 C.3   1 <1>   0.1960 
 16 C       -7.6960     3.6810    -0.3390 C.3   1 <1>   0.1960 
 17 C       -6.0300     5.4670     1.5320 C.3   1 <1>  -0.2400 
 18 C       -8.4230     2.6870     0.5600 C.3   1 <1>  -0.2400 
 19 H       -2.9310    -0.0580     2.0550 H     1 <1>   0.1500 
 20 H       -2.6550     3.6380    -1.1550 H     1 <1>   0.1500 
 21 H       -4.9300     0.6140     0.7790 H     1 <1>   0.1500 
 22 H        1.7040     3.2600    -0.0970 H     1 <1>   0.3700 
 23 H        1.0710     1.7180     0.3960 H     1 <1>   0.3700 
 24 H       -6.0050     5.6140    -0.6270 H     1 <1>   0.0800 
 25 H       -4.5980     4.8760     0.0840 H     1 <1>   0.0800 
 26 H       -7.8900     3.4600    -1.3770 H     1 <1>   0.0800 
 27 H       -8.0830     4.6670    -0.1430 H     1 <1>   0.0800 
 28 H       -7.0880     5.6240     1.6310 H     1 <1>   0.0800 
 29 H       -5.5340     6.4070     1.6960 H     1 <1>   0.0800 
 30 H       -5.7010     4.7730     2.2850 H     1 <1>   0.0800 
 31 H       -8.0960     1.6840     0.3540 H     1 <1>   0.0800 
 32 H       -9.4810     2.7430     0.3800 H     1 <1>   0.0800 
 33 H       -8.2370     2.9180     1.5940 H     1 <1>   0.0800 
@<TRIPOS>BOND
  1   1   2  1   
  2   2   3  ar  
  3   2   4  ar  
  4   3   5  1   
  5   3   6  ar  
  6   4   7  ar  
  7   4  19  1   
  8   5   8  2   
  9   5   9  am  
 10   6  10  ar  
 11   6  20  1   
 12   7  10  ar  
 13   7  21  1   
 14   9  22  1   
 15   9  23  1   
 16  10  11  1   
 17  11  12  2   
 18  11  13  2   
 19  11  14  am  
 20  14  15  1   
 21  14  16  1   
 22  15  17  1   
 23  15  24  1   
 24  15  25  1   
 25  16  18  1   
 26  16  26  1   
 27  16  27  1   
 28  17  28  1   
 29  17  29  1   
 30  17  30  1   
 31  18  31  1   
 32  18  32  1   
 33  18  33  1   
@<TRIPOS>SUBSTRUCTURE
  1 ****  10 GROUP 4 **** **** 0

# MOE 2024.06 (io_trps.svl 2023.06)
