@<TRIPOS>MOLECULE
NONAME
51 54 1 0 0 
SMALL
USER_CHARGES


@<TRIPOS>ATOM
  1 S       -0.2930    -0.4430     1.5550 S.3   1 <1>  -0.0800 
  2 C        1.1150    -0.0340     0.5860 C.2   1 <1>   0.1040 
  3 C       -1.0440     1.0990     1.2130 C.2   1 <1>  -0.1400 
  4 N        2.0660    -1.0400     0.5220 N.am  1 <1>  -0.4940 
  5 C        1.0050     1.2390     0.0810 C.2   1 <1>  -0.0860 
  6 C       -0.2490     1.8550     0.4460 C.2   1 <1>  -0.1810 
  7 C       -2.4150     1.4300     1.7580 C.3   1 <1>   0.0200 
  8 C        3.0810    -1.2890    -0.3760 C.2   1 <1>   0.5440 
  9 C        1.9960     1.9500    -0.6850 C.2   1 <1>   0.7160 
 10 C       -0.6780     3.2500     0.0130 C.3   1 <1>   0.0210 
 11 C       -2.9650     2.6710     1.0250 C.3   1 <1>  -0.0800 
 12 O        3.0900    -0.7000    -1.4350 O.2   1 <1>  -0.5700 
 13 C        4.1350    -2.2410    -0.0730 C.ar  1 <1>   0.0860 
 14 O        1.6920     2.4840    -1.7400 O.2   1 <1>  -0.5700 
 15 N        3.2830     2.1190    -0.2140 N.am  1 <1>  -0.6600 
 16 C       -1.8740     3.7510     0.8490 C.3   1 <1>  -0.1600 
 17 C       -4.1830     3.2430     1.7610 C.3   1 <1>  -0.2400 
 18 C        4.0130    -3.2920     0.8420 C.ar  1 <1>   0.1900 
 19 C        5.3760    -2.1390    -0.7100 C.ar  1 <1>  -0.1500 
 20 C        4.4170     2.4300    -1.1290 C.3   1 <1>   0.1400 
 21 C        3.6900     1.8840     1.1990 C.3   1 <1>   0.1400 
 22 F        2.8880    -3.4770     1.4780 F     1 <1>  -0.1900 
 23 C        5.0350    -4.1800     1.1240 C.ar  1 <1>  -0.1500 
 24 C        6.4130    -3.0170    -0.4430 C.ar  1 <1>  -0.1500 
 25 C        5.3410     3.4900    -0.5100 C.3   1 <1>   0.1200 
 26 C        4.6540     2.9830     1.6740 C.3   1 <1>   0.1200 
 27 C        6.2470    -4.0400     0.4750 C.ar  1 <1>  -0.1500 
 28 O        5.7270     3.1210     0.7860 O.3   1 <1>  -0.5600 
 29 H        1.9270    -1.7910     1.2000 H     1 <1>   0.3700 
 30 H       -2.3270     1.6210     2.8130 H     1 <1>   0.0800 
 31 H       -3.0790     0.5960     1.6130 H     1 <1>   0.0800 
 32 H       -0.9500     3.2150    -1.0280 H     1 <1>   0.0800 
 33 H        0.1410     3.9400     0.1180 H     1 <1>   0.0800 
 34 H       -3.2800     2.3600     0.0430 H     1 <1>   0.0800 
 35 H       -2.2900     4.6210     0.3720 H     1 <1>   0.0800 
 36 H       -1.5160     4.0470     1.8200 H     1 <1>   0.0800 
 37 H       -3.9090     3.5830     2.7440 H     1 <1>   0.0800 
 38 H       -4.9470     2.4920     1.8570 H     1 <1>   0.0800 
 39 H       -4.5930     4.0730     1.2130 H     1 <1>   0.0800 
 40 H        5.5280    -1.3530    -1.4310 H     1 <1>   0.1500 
 41 H        4.0540     2.7830    -2.0790 H     1 <1>   0.0800 
 42 H        4.9770     1.5290    -1.3090 H     1 <1>   0.0800 
 43 H        4.1800     0.9300     1.2710 H     1 <1>   0.0800 
 44 H        2.8270     1.8710     1.8410 H     1 <1>   0.0800 
 45 H        4.8820    -4.9690     1.8390 H     1 <1>   0.1500 
 46 H        7.3550    -2.9050    -0.9540 H     1 <1>   0.1500 
 47 H        4.8420     4.4430    -0.4650 H     1 <1>   0.0800 
 48 H        6.2330     3.5950    -1.1020 H     1 <1>   0.0800 
 49 H        5.0570     2.7320     2.6390 H     1 <1>   0.0800 
 50 H        4.1430     3.9280     1.7470 H     1 <1>   0.0800 
 51 H        7.0570    -4.7210     0.6800 H     1 <1>   0.1500 
@<TRIPOS>BOND
  1   1   2  1   
  2   1   3  1   
  3   2   4  1   
  4   2   5  2   
  5   3   6  2   
  6   3   7  1   
  7   4   8  am  
  8   4  29  1   
  9   5   6  1   
 10   5   9  1   
 11   6  10  1   
 12   7  11  1   
 13   7  30  1   
 14   7  31  1   
 15   8  12  2   
 16   8  13  1   
 17   9  14  2   
 18   9  15  am  
 19  10  16  1   
 20  10  32  1   
 21  10  33  1   
 22  11  16  1   
 23  11  17  1   
 24  11  34  1   
 25  13  18  ar  
 26  13  19  ar  
 27  15  20  1   
 28  15  21  1   
 29  16  35  1   
 30  16  36  1   
 31  17  37  1   
 32  17  38  1   
 33  17  39  1   
 34  18  22  1   
 35  18  23  ar  
 36  19  24  ar  
 37  19  40  1   
 38  20  25  1   
 39  20  41  1   
 40  20  42  1   
 41  21  26  1   
 42  21  43  1   
 43  21  44  1   
 44  23  27  ar  
 45  23  45  1   
 46  24  27  ar  
 47  24  46  1   
 48  25  28  1   
 49  25  47  1   
 50  25  48  1   
 51  26  28  1   
 52  26  49  1   
 53  26  50  1   
 54  27  51  1   
@<TRIPOS>SUBSTRUCTURE
  1 ****   2 GROUP 4 **** **** 0

# MOE 2024.06 (io_trps.svl 2023.06)
