@<TRIPOS>MOLECULE
NONAME
53 53 1 0 0 
SMALL
USER_CHARGES


@<TRIPOS>ATOM
  1 O        0.0830    -0.8420     1.5770 O.2   1 <1>  -0.5700 
  2 C        0.1050     0.0700     0.7890 C.2   1 <1>   0.5690 
  3 N       -1.0340     0.7260     0.3820 N.am  1 <1>  -0.6600 
  4 C        1.4620     0.4730     0.2570 C.3   1 <1>  -0.1790 
  5 C       -2.3800     0.2430     0.8480 C.3   1 <1>   0.1400 
  6 C       -1.0210     1.9750    -0.4230 C.3   1 <1>   0.1400 
  7 C       -3.3300    -0.2510    -0.2770 C.3   1 <1>  -0.0800 
  8 C       -1.0100     3.1820     0.5210 C.3   1 <1>  -0.1600 
  9 C       -4.7380    -0.4550     0.3450 C.3   1 <1>   0.0580 
 10 C       -2.8850    -1.5630    -0.9810 C.3   1 <1>  -0.0800 
 11 C       -0.9110     4.4860    -0.2690 C.3   1 <1>   0.3430 
 12 C       -4.8130    -1.7710     1.1050 C.2   1 <1>  -0.2880 
 13 C       -5.8660    -0.4140    -0.6940 C.3   1 <1>  -0.2400 
 14 C       -2.7490    -2.7240     0.0210 C.3   1 <1>  -0.0220 
 15 C       -1.6290    -1.4340    -1.8560 C.3   1 <1>  -0.2400 
 16 N       -1.0040     5.6630     0.6460 N.4   1 <1>  -0.9590 
 17 C       -3.9350    -2.7710     0.9800 C.2   1 <1>  -0.2760 
 18 C       -1.2320     6.9190    -0.1350 C.3   1 <1>   0.2630 
 19 C        0.2090     5.8130     1.5150 C.3   1 <1>   0.2630 
 20 C       -4.0210    -4.0560     1.7850 C.3   1 <1>  -0.1020 
 21 H        1.6860     1.4850     0.5310 H     1 <1>   0.0800 
 22 H        1.4820     0.3630    -0.8100 H     1 <1>   0.0800 
 23 H        2.2160    -0.1680     0.6770 H     1 <1>   0.0800 
 24 H       -2.8520     1.0530     1.3730 H     1 <1>   0.0800 
 25 H       -2.2610    -0.5460     1.5700 H     1 <1>   0.0800 
 26 H       -1.8850     2.0100    -1.0610 H     1 <1>   0.0800 
 27 H       -0.1550     1.9910    -1.0610 H     1 <1>   0.0800 
 28 H       -3.4220     0.5220    -1.0140 H     1 <1>   0.0800 
 29 H       -0.1690     3.0860     1.1830 H     1 <1>   0.0800 
 30 H       -1.9170     3.1790     1.0970 H     1 <1>   0.0800 
 31 H       -4.9260     0.3430     1.0430 H     1 <1>   0.0800 
 32 H       -3.6740    -1.8380    -1.6580 H     1 <1>   0.0800 
 33 H       -1.7210     4.5220    -0.9800 H     1 <1>   0.0800 
 34 H        0.0180     4.5160    -0.8160 H     1 <1>   0.0800 
 35 H       -5.6580    -1.8190     1.7700 H     1 <1>   0.1500 
 36 H       -5.8040    -1.2520    -1.3640 H     1 <1>   0.0800 
 37 H       -5.8250     0.4950    -1.2650 H     1 <1>   0.0800 
 38 H       -6.8180    -0.4590    -0.1960 H     1 <1>   0.0800 
 39 H       -1.8410    -2.6220     0.5910 H     1 <1>   0.0800 
 40 H       -2.6910    -3.6480    -0.5270 H     1 <1>   0.0800 
 41 H       -0.7410    -1.3800    -1.2570 H     1 <1>   0.0800 
 42 H       -1.6910    -0.5610    -2.4800 H     1 <1>   0.0800 
 43 H       -1.5400    -2.2980    -2.4910 H     1 <1>   0.0800 
 44 H       -1.8210     5.5190     1.2610 H     1 <1>   0.4500 
 45 H       -0.4000     7.1080    -0.7950 H     1 <1>   0.0800 
 46 H       -1.3410     7.7600     0.5310 H     1 <1>   0.0800 
 47 H       -2.1290     6.8350    -0.7280 H     1 <1>   0.0800 
 48 H        1.0920     5.9370     0.9100 H     1 <1>   0.0800 
 49 H        0.3370     4.9430     2.1390 H     1 <1>   0.0800 
 50 H        0.1060     6.6750     2.1540 H     1 <1>   0.0800 
 51 H       -3.1270    -4.1840     2.3680 H     1 <1>   0.0800 
 52 H       -4.1340    -4.8990     1.1270 H     1 <1>   0.0800 
 53 H       -4.8630    -4.0280     2.4520 H     1 <1>   0.0800 
@<TRIPOS>BOND
  1   1   2  2   
  2   2   3  am  
  3   2   4  1   
  4   3   5  1   
  5   3   6  1   
  6   4  21  1   
  7   4  22  1   
  8   4  23  1   
  9   5   7  1   
 10   5  24  1   
 11   5  25  1   
 12   6   8  1   
 13   6  26  1   
 14   6  27  1   
 15   7   9  1   
 16   7  10  1   
 17   7  28  1   
 18   8  11  1   
 19   8  29  1   
 20   8  30  1   
 21   9  12  1   
 22   9  13  1   
 23   9  31  1   
 24  10  14  1   
 25  10  15  1   
 26  10  32  1   
 27  11  16  1   
 28  11  33  1   
 29  11  34  1   
 30  12  17  2   
 31  12  35  1   
 32  13  36  1   
 33  13  37  1   
 34  13  38  1   
 35  14  17  1   
 36  14  39  1   
 37  14  40  1   
 38  15  41  1   
 39  15  42  1   
 40  15  43  1   
 41  16  18  1   
 42  16  19  1   
 43  16  44  1   
 44  17  20  1   
 45  18  45  1   
 46  18  46  1   
 47  18  47  1   
 48  19  48  1   
 49  19  49  1   
 50  19  50  1   
 51  20  51  1   
 52  20  52  1   
 53  20  53  1   
@<TRIPOS>SUBSTRUCTURE
  1 ****   5 GROUP 4 **** **** 0

# MOE 2024.06 (io_trps.svl 2023.06)
