@<TRIPOS>MOLECULE
NONAME
43 45 1 0 0 
SMALL
USER_CHARGES


@<TRIPOS>ATOM
  1 O        0.5900    -0.5150     1.5330 O.2   1 <1>  -0.5700 
  2 C       -0.3400    -0.7940     0.8140 C.2   1 <1>   0.5690 
  3 N       -0.2970    -1.8770    -0.0620 N.am  1 <1>  -0.2370 
  4 C       -1.6330     0.0650     0.8800 C.3   1 <1>   0.0610 
  5 C        0.8180    -2.7390    -0.0750 C.ar  1 <1>   0.1170 
  6 C       -1.3390    -2.0850    -0.9570 C.2   1 <1>   0.5690 
  7 C       -2.1900     0.2430    -0.5590 C.3   1 <1>   0.0000 
  8 C       -2.7100    -0.8000     1.5730 C.3   1 <1>  -0.1600 
  9 C       -1.4230     1.3950     1.6410 C.3   1 <1>  -0.2400 
 10 C        2.0830    -2.2750    -0.4170 C.ar  1 <1>  -0.1500 
 11 C        0.6840    -4.0820     0.2540 C.ar  1 <1>  -0.1500 
 12 O       -1.3130    -2.9230    -1.8240 O.2   1 <1>  -0.5700 
 13 C       -2.5920    -1.2190    -0.8280 C.3   1 <1>  -0.0190 
 14 C       -1.1730     0.8090    -1.5810 C.3   1 <1>  -0.2400 
 15 C       -3.4330     1.1650    -0.6450 C.3   1 <1>  -0.2400 
 16 C       -3.3360    -1.6470     0.4530 C.3   1 <1>  -0.1600 
 17 C        3.1750    -3.1220    -0.4260 C.ar  1 <1>  -0.1500 
 18 C        1.7780    -4.9260     0.2430 C.ar  1 <1>  -0.1500 
 19 C        3.0570    -4.4770    -0.0950 C.ar  1 <1>   0.0860 
 20 C        4.1780    -5.3940    -0.0900 C.2   1 <1>   0.4230 
 21 O        4.0800    -6.5550     0.2140 O.2   1 <1>  -0.5700 
 22 C        5.5650    -4.9160    -0.4790 C.3   1 <1>  -0.1790 
 23 H       -3.4690    -0.1820     2.0230 H     1 <1>   0.0800 
 24 H       -2.2810    -1.4170     2.3460 H     1 <1>   0.0800 
 25 H       -1.0630     1.1990     2.6360 H     1 <1>   0.0800 
 26 H       -2.3380     1.9530     1.7270 H     1 <1>   0.0800 
 27 H       -0.6930     2.0030     1.1370 H     1 <1>   0.0800 
 28 H        2.2090    -1.2370    -0.6690 H     1 <1>   0.1500 
 29 H       -0.2850    -4.4690     0.5130 H     1 <1>   0.1500 
 30 H       -3.2040    -1.3260    -1.7060 H     1 <1>   0.0800 
 31 H       -0.2500     0.2630    -1.6260 H     1 <1>   0.0800 
 32 H       -0.9300     1.8280    -1.3360 H     1 <1>   0.0800 
 33 H       -1.6010     0.8000    -2.5680 H     1 <1>   0.0800 
 34 H       -3.8730     1.1020    -1.6250 H     1 <1>   0.0800 
 35 H       -3.1570     2.1910    -0.4780 H     1 <1>   0.0800 
 36 H       -4.1940     0.9120     0.0700 H     1 <1>   0.0800 
 37 H       -4.3860    -1.4250     0.3640 H     1 <1>   0.0800 
 38 H       -3.2300    -2.7030     0.6410 H     1 <1>   0.0800 
 39 H        4.1300    -2.7110    -0.6940 H     1 <1>   0.1500 
 40 H        1.6430    -5.9640     0.5010 H     1 <1>   0.1500 
 41 H        5.8940    -4.1510     0.1990 H     1 <1>   0.0800 
 42 H        5.5540    -4.5360    -1.4830 H     1 <1>   0.0800 
 43 H        6.2590    -5.7360    -0.4320 H     1 <1>   0.0800 
@<TRIPOS>BOND
  1   1   2  2   
  2   2   3  am  
  3   2   4  1   
  4   3   5  1   
  5   3   6  am  
  6   4   7  1   
  7   4   8  1   
  8   4   9  1   
  9   5  10  ar  
 10   5  11  ar  
 11   6  12  2   
 12   6  13  1   
 13   7  13  1   
 14   7  14  1   
 15   7  15  1   
 16   8  16  1   
 17   8  23  1   
 18   8  24  1   
 19   9  25  1   
 20   9  26  1   
 21   9  27  1   
 22  10  17  ar  
 23  10  28  1   
 24  11  18  ar  
 25  11  29  1   
 26  13  16  1   
 27  13  30  1   
 28  14  31  1   
 29  14  32  1   
 30  14  33  1   
 31  15  34  1   
 32  15  35  1   
 33  15  36  1   
 34  16  37  1   
 35  16  38  1   
 36  17  19  ar  
 37  17  39  1   
 38  18  19  ar  
 39  18  40  1   
 40  19  20  1   
 41  20  21  2   
 42  20  22  1   
 43  22  41  1   
 44  22  42  1   
 45  22  43  1   
@<TRIPOS>SUBSTRUCTURE
  1 ****   3 GROUP 4 **** **** 0

# MOE 2024.06 (io_trps.svl 2023.06)
