@<TRIPOS>MOLECULE
NONAME
23 24 1 0 0 
SMALL
USER_CHARGES


@<TRIPOS>ATOM
  1 F       -0.1640    -0.6290     0.2270 F     1 <1>  -0.3400 
  2 C       -1.2170    -1.1990     0.8070 C.3   1 <1>   1.0200 
  3 F       -1.2000    -0.7860     2.0720 F     1 <1>  -0.3400 
  4 F       -0.9520    -2.5040     0.8420 F     1 <1>  -0.3400 
  5 C       -2.5800    -0.8730     0.0720 C.3   1 <1>   0.5600 
  6 O       -3.6670    -1.4960     0.7480 O.3   1 <1>  -0.3630 
  7 O       -2.6420    -1.4080    -1.2190 O.3   1 <1>  -0.6800 
  8 C       -2.8260     0.6380    -0.0350 C.3   1 <1>  -0.0990 
  9 C       -4.9480    -1.1820     0.4520 C.ar  1 <1>   0.0830 
 10 C       -4.2170     0.9330    -0.5430 C.2   1 <1>   0.4230 
 11 C       -5.2630     0.0030    -0.2180 C.ar  1 <1>   0.0860 
 12 C       -5.9400    -2.0740     0.8280 C.ar  1 <1>  -0.1500 
 13 O       -4.3830     1.9570    -1.1550 O.2   1 <1>  -0.5700 
 14 C       -6.6040     0.2420    -0.5250 C.ar  1 <1>  -0.1500 
 15 C       -7.2620    -1.8120     0.5220 C.ar  1 <1>  -0.1500 
 16 C       -7.5920    -0.6530    -0.1610 C.ar  1 <1>  -0.1500 
 17 H       -2.6440    -2.3830    -1.1550 H     1 <1>   0.4000 
 18 H       -2.1010     1.0780    -0.6950 H     1 <1>   0.0800 
 19 H       -2.7140     1.0980     0.9290 H     1 <1>   0.0800 
 20 H       -5.6730    -2.9740     1.3550 H     1 <1>   0.1500 
 21 H       -6.8640     1.1450    -1.0520 H     1 <1>   0.1500 
 22 H       -8.0330    -2.5060     0.8100 H     1 <1>   0.1500 
 23 H       -8.6210    -0.4490    -0.4050 H     1 <1>   0.1500 
@<TRIPOS>BOND
  1   1   2  1   
  2   2   3  1   
  3   2   4  1   
  4   2   5  1   
  5   5   6  1   
  6   5   7  1   
  7   5   8  1   
  8   6   9  1   
  9   7  17  1   
 10   8  10  1   
 11   8  18  1   
 12   8  19  1   
 13   9  11  ar  
 14   9  12  ar  
 15  10  11  1   
 16  10  13  2   
 17  11  14  ar  
 18  12  15  ar  
 19  12  20  1   
 20  14  16  ar  
 21  14  21  1   
 22  15  16  ar  
 23  15  22  1   
 24  16  23  1   
@<TRIPOS>SUBSTRUCTURE
  1 ****   6 GROUP 4 **** **** 0

# MOE 2024.06 (io_trps.svl 2023.06)
