@<TRIPOS>MOLECULE
NONAME
39 41 1 0 0 
SMALL
USER_CHARGES


@<TRIPOS>ATOM
  1 O        2.4540    -4.2680    -0.8220 O.2   1 <1>  -0.5700 
  2 C        2.5010    -3.0800    -0.5330 C.2   1 <1>   0.7160 
  3 N        1.3230    -2.4060    -0.4570 N.am  1 <1>  -0.4900 
  4 C        3.6750    -2.3090    -0.2710 C.2   1 <1>   0.1410 
  5 C        1.2380    -1.0760    -0.1600 C.2   1 <1>   0.5600 
  6 N        5.0090    -2.6120    -0.2460 N.2   1 <1>  -0.5650 
  7 C        3.4970    -0.9840     0.0200 C.2   1 <1>  -0.0260 
  8 N        2.2870    -0.3420     0.0750 N.2   1 <1>  -0.5760 
  9 N       -0.0170    -0.5270    -0.1310 N.pl3 1 <1>  -0.7880 
 10 C        5.5800    -1.4930     0.0550 C.2   1 <1>   0.0360 
 11 N        4.7180    -0.4570     0.2290 N.pl3 1 <1>   0.0480 
 12 C       -0.2240     0.9400    -0.3050 C.3   1 <1>   0.1290 
 13 C       -1.2250    -1.2740     0.3240 C.3   1 <1>   0.1290 
 14 C        5.0010     0.9450     0.5970 C.3   1 <1>   0.4560 
 15 O        6.3740     1.2040     0.5800 O.3   1 <1>  -0.5600 
 16 C        4.3860     1.9440    -0.3910 C.3   1 <1>   0.2000 
 17 C        6.5350     2.5870     0.5000 C.3   1 <1>   0.2000 
 18 O        3.1210     2.3760     0.0400 O.3   1 <1>  -0.6800 
 19 C        5.4210     3.0680    -0.4380 C.3   1 <1>   0.2000 
 20 C        7.9390     2.9410     0.0020 C.3   1 <1>   0.1200 
 21 O        4.8970     4.2690     0.0200 O.3   1 <1>  -0.6800 
 22 O        8.0800     4.3230    -0.0360 O.3   1 <1>  -0.6800 
 23 H        0.4890    -2.9160    -0.7080 H     1 <1>   0.3700 
 24 H        6.6440    -1.3620     0.1670 H     1 <1>   0.1500 
 25 H       -1.1700     1.1260    -0.7830 H     1 <1>   0.0800 
 26 H        0.5540     1.3570    -0.9220 H     1 <1>   0.0800 
 27 H       -0.2090     1.4260     0.6550 H     1 <1>   0.0800 
 28 H       -1.7760    -0.6810     1.0340 H     1 <1>   0.0800 
 29 H       -0.9470    -2.1960     0.8050 H     1 <1>   0.0800 
 30 H       -1.8580    -1.4890    -0.5190 H     1 <1>   0.0800 
 31 H        4.6440     1.1370     1.5940 H     1 <1>   0.0800 
 32 H        4.2830     1.4910    -1.3620 H     1 <1>   0.0800 
 33 H        6.3900     2.9780     1.4940 H     1 <1>   0.0800 
 34 H        2.5370     1.5750     0.1100 H     1 <1>   0.4000 
 35 H        5.7870     3.2120    -1.4400 H     1 <1>   0.0800 
 36 H        8.0970     2.5630    -0.9930 H     1 <1>   0.0800 
 37 H        8.6910     2.5510     0.6650 H     1 <1>   0.0800 
 38 H        3.9310     4.1150     0.1610 H     1 <1>   0.4000 
 39 H        7.2150     4.7610    -0.2010 H     1 <1>   0.4000 
@<TRIPOS>BOND
  1   1   2  2   
  2   2   3  am  
  3   2   4  1   
  4   3   5  1   
  5   3  23  1   
  6   4   6  1   
  7   4   7  2   
  8   5   8  2   
  9   5   9  1   
 10   6  10  2   
 11   7   8  1   
 12   7  11  1   
 13   9  12  1   
 14   9  13  1   
 15  10  11  1   
 16  10  24  1   
 17  11  14  1   
 18  12  25  1   
 19  12  26  1   
 20  12  27  1   
 21  13  28  1   
 22  13  29  1   
 23  13  30  1   
 24  14  15  1   
 25  14  16  1   
 26  14  31  1   
 27  15  17  1   
 28  16  18  1   
 29  16  19  1   
 30  16  32  1   
 31  17  19  1   
 32  17  20  1   
 33  17  33  1   
 34  18  34  1   
 35  19  21  1   
 36  19  35  1   
 37  20  22  1   
 38  20  36  1   
 39  20  37  1   
 40  21  38  1   
 41  22  39  1   
@<TRIPOS>SUBSTRUCTURE
  1 ****   7 GROUP 4 **** **** 0

# MOE 2024.06 (io_trps.svl 2023.06)
