@<TRIPOS>MOLECULE
NONAME
42 42 1 0 0 
SMALL
USER_CHARGES


@<TRIPOS>ATOM
  1 CL      -1.9370     0.6380     3.2870 Cl    1 <1>  -0.1770 
  2 C       -2.4900     1.1190     1.7060 C.ar  1 <1>   0.1770 
  3 C       -3.6370     0.5420     1.1930 C.ar  1 <1>  -0.1500 
  4 C       -1.7790     2.0650     0.9930 C.ar  1 <1>  -0.1500 
  5 C       -4.0950     0.9240    -0.0620 C.ar  1 <1>  -0.1440 
  6 C       -2.2280     2.4380    -0.2620 C.ar  1 <1>  -0.1500 
  7 C       -3.3780     1.8690    -0.7860 C.ar  1 <1>  -0.1500 
  8 C       -5.3600     0.3150    -0.6370 C.3   1 <1>   0.4870 
  9 N       -6.5440     0.9110     0.0660 N.4   1 <1>  -0.9590 
 10 C       -7.8010     0.1340    -0.2450 C.3   1 <1>   0.3430 
 11 C       -6.6420     2.3780    -0.2610 C.3   1 <1>   0.2630 
 12 C       -9.0500     0.5590     0.5850 C.3   1 <1>   0.3430 
 13 N      -10.3180    -0.1960     0.2500 N.4   1 <1>  -0.9590 
 14 C      -11.5090     0.4470     0.8890 C.3   1 <1>   0.3430 
 15 C      -10.2590    -1.6360     0.6460 C.3   1 <1>   0.3430 
 16 C      -11.8650     1.7280     0.1440 C.3   1 <1>  -0.2400 
 17 C      -11.2460    -2.4310    -0.2010 C.3   1 <1>  -0.2400 
 18 H       -4.1400    -0.1990     1.7890 H     1 <1>   0.1500 
 19 H       -0.8880     2.4960     1.4150 H     1 <1>   0.1500 
 20 H       -1.6760     3.1700    -0.8290 H     1 <1>   0.1500 
 21 H       -3.6960     2.1750    -1.7700 H     1 <1>   0.1500 
 22 H       -5.3310    -0.7520    -0.4860 H     1 <1>   0.0800 
 23 H       -5.4110     0.5080    -1.6970 H     1 <1>   0.0800 
 24 H       -6.3020     0.8390     1.0680 H     1 <1>   0.4500 
 25 H       -7.6140    -0.9120    -0.0620 H     1 <1>   0.0800 
 26 H       -8.0300     0.2510    -1.2920 H     1 <1>   0.0800 
 27 H       -6.8170     2.5210    -1.3160 H     1 <1>   0.0800 
 28 H       -5.7230     2.8810     0.0000 H     1 <1>   0.0800 
 29 H       -7.4420     2.8430     0.2910 H     1 <1>   0.0800 
 30 H       -9.2190     1.6080     0.4130 H     1 <1>   0.0800 
 31 H       -8.8350     0.4270     1.6330 H     1 <1>   0.0800 
 32 H      -10.5030    -0.1670    -0.7650 H     1 <1>   0.4500 
 33 H      -11.3140     0.6610     1.9290 H     1 <1>   0.0800 
 34 H      -12.3570    -0.2190     0.8430 H     1 <1>   0.0800 
 35 H      -10.4940    -1.7500     1.6940 H     1 <1>   0.0800 
 36 H       -9.2720    -2.0330     0.4790 H     1 <1>   0.0800 
 37 H      -11.1030     2.4780     0.2420 H     1 <1>   0.0800 
 38 H      -12.7690     2.1330     0.5650 H     1 <1>   0.0800 
 39 H      -12.0540     1.5290    -0.8970 H     1 <1>   0.0800 
 40 H      -12.2620    -2.1270    -0.0210 H     1 <1>   0.0800 
 41 H      -11.1720    -3.4730     0.0600 H     1 <1>   0.0800 
 42 H      -11.0220    -2.3400    -1.2480 H     1 <1>   0.0800 
@<TRIPOS>BOND
  1   1   2  1   
  2   2   3  ar  
  3   2   4  ar  
  4   3   5  ar  
  5   3  18  1   
  6   4   6  ar  
  7   4  19  1   
  8   5   7  ar  
  9   5   8  1   
 10   6   7  ar  
 11   6  20  1   
 12   7  21  1   
 13   8   9  1   
 14   8  22  1   
 15   8  23  1   
 16   9  10  1   
 17   9  11  1   
 18   9  24  1   
 19  10  12  1   
 20  10  25  1   
 21  10  26  1   
 22  11  27  1   
 23  11  28  1   
 24  11  29  1   
 25  12  13  1   
 26  12  30  1   
 27  12  31  1   
 28  13  14  1   
 29  13  15  1   
 30  13  32  1   
 31  14  16  1   
 32  14  33  1   
 33  14  34  1   
 34  15  17  1   
 35  15  35  1   
 36  15  36  1   
 37  16  37  1   
 38  16  38  1   
 39  16  39  1   
 40  17  40  1   
 41  17  41  1   
 42  17  42  1   
@<TRIPOS>SUBSTRUCTURE
  1 ****   9 GROUP 4 **** **** 0

# MOE 2024.06 (io_trps.svl 2023.06)
