@<TRIPOS>MOLECULE
NONAME
37 38 1 0 0 
SMALL
USER_CHARGES


@<TRIPOS>ATOM
  1 N       -0.3200    -0.1060    -0.4670 N.4   1 <1>  -0.9060 
  2 C       -1.6610    -0.7290    -0.3020 C.3   1 <1>   0.3430 
  3 C       -0.3900     1.2620    -1.0500 C.3   1 <1>   0.3430 
  4 C       -2.5190     0.1370     0.6230 C.3   1 <1>  -0.1600 
  5 C       -1.2240     2.1610    -0.1400 C.3   1 <1>  -0.1600 
  6 C       -2.6300     1.5820     0.1080 C.3   1 <1>  -0.0800 
  7 C       -3.4470     2.4510     1.0840 C.3   1 <1>  -0.0170 
  8 C       -3.5890     3.8750     0.5710 C.ar  1 <1>  -0.1430 
  9 C       -2.8380     4.9010     1.1210 C.ar  1 <1>  -0.1500 
 10 C       -4.4660     4.1610    -0.4610 C.ar  1 <1>  -0.1500 
 11 C       -2.9440     6.1990     0.6450 C.ar  1 <1>  -0.1430 
 12 C       -4.5780     5.4520    -0.9410 C.ar  1 <1>  -0.1500 
 13 C       -3.8210     6.4770    -0.3970 C.ar  1 <1>  -0.1430 
 14 C       -2.0980     7.2930     1.2830 C.3   1 <1>  -0.0970 
 15 C       -3.9750     7.8850    -0.9550 C.3   1 <1>  -0.0970 
 16 H        0.2730    -0.7040    -1.0570 H     1 <1>   0.4500 
 17 H        0.1320    -0.0460     0.4530 H     1 <1>   0.4500 
 18 H       -1.5620    -1.7190     0.1170 H     1 <1>   0.0800 
 19 H       -2.1440    -0.8140    -1.2630 H     1 <1>   0.0800 
 20 H       -0.8450     1.2210    -2.0270 H     1 <1>   0.0800 
 21 H        0.6020     1.6740    -1.1550 H     1 <1>   0.0800 
 22 H       -2.0990     0.1250     1.6140 H     1 <1>   0.0800 
 23 H       -3.5030    -0.2960     0.6860 H     1 <1>   0.0800 
 24 H       -1.3090     3.1250    -0.6130 H     1 <1>   0.0800 
 25 H       -0.7100     2.3090     0.7940 H     1 <1>   0.0800 
 26 H       -3.1570     1.5660    -0.8330 H     1 <1>   0.0800 
 27 H       -2.9790     2.4620     2.0530 H     1 <1>   0.0800 
 28 H       -4.4310     2.0320     1.2090 H     1 <1>   0.0800 
 29 H       -2.1620     4.6900     1.9300 H     1 <1>   0.1500 
 30 H       -5.0670     3.3830    -0.8970 H     1 <1>   0.1500 
 31 H       -5.2650     5.6550    -1.7440 H     1 <1>   0.1500 
 32 H       -1.4830     6.8990     2.0710 H     1 <1>   0.0800 
 33 H       -2.7350     8.0510     1.7010 H     1 <1>   0.0800 
 34 H       -1.4570     7.7410     0.5450 H     1 <1>   0.0800 
 35 H       -3.0330     8.2360    -1.3350 H     1 <1>   0.0800 
 36 H       -4.3130     8.5520    -0.1820 H     1 <1>   0.0800 
 37 H       -4.6910     7.9070    -1.7560 H     1 <1>   0.0800 
@<TRIPOS>BOND
  1   1   2  1   
  2   1   3  1   
  3   1  16  1   
  4   1  17  1   
  5   2   4  1   
  6   2  18  1   
  7   2  19  1   
  8   3   5  1   
  9   3  20  1   
 10   3  21  1   
 11   4   6  1   
 12   4  22  1   
 13   4  23  1   
 14   5   6  1   
 15   5  24  1   
 16   5  25  1   
 17   6   7  1   
 18   6  26  1   
 19   7   8  1   
 20   7  27  1   
 21   7  28  1   
 22   8   9  ar  
 23   8  10  ar  
 24   9  11  ar  
 25   9  29  1   
 26  10  12  ar  
 27  10  30  1   
 28  11  13  ar  
 29  11  14  1   
 30  12  13  ar  
 31  12  31  1   
 32  13  15  1   
 33  14  32  1   
 34  14  33  1   
 35  14  34  1   
 36  15  35  1   
 37  15  36  1   
 38  15  37  1   
@<TRIPOS>SUBSTRUCTURE
  1 ****   8 GROUP 4 **** **** 0

# MOE 2024.06 (io_trps.svl 2023.06)
