@<TRIPOS>MOLECULE
NONAME
37 36 1 0 0 
SMALL
USER_CHARGES


@<TRIPOS>ATOM
  1 P        0.0240     0.0400    -0.3160 P.3   1 <1>   1.2420 
  2 O        0.2620     0.5000     1.0500 O.2   1 <1>  -0.7000 
  3 O       -0.3110    -1.5240    -0.4410 O.3   1 <1>  -0.5510 
  4 O       -1.2240     0.7490    -1.0410 O.3   1 <1>  -0.5510 
  5 C        1.3270     0.3480    -1.4500 C.3   1 <1>  -0.0990 
  6 C        0.2880    -2.4600     0.3790 C.3   1 <1>   0.2000 
  7 C       -2.4750     1.0010    -0.4930 C.3   1 <1>   0.2000 
  8 C        2.5890    -0.1500    -0.8400 C.2   1 <1>   0.6590 
  9 C        0.4550    -3.7310    -0.4450 C.3   1 <1>  -0.2400 
 10 C       -0.6150    -2.6930     1.5870 C.3   1 <1>  -0.2400 
 11 C       -2.3850     2.1550     0.5040 C.3   1 <1>  -0.2400 
 12 C       -3.0880    -0.2600     0.1160 C.3   1 <1>  -0.2400 
 13 O        2.9590    -1.2850    -0.9910 O.2   1 <1>  -0.5700 
 14 O        3.2820     0.7320    -0.1370 O.3   1 <1>  -0.4300 
 15 C        4.4750     0.3800     0.5220 C.3   1 <1>   0.1200 
 16 C        4.9930     1.6150     1.2500 C.3   1 <1>  -0.2400 
 17 H        1.4330     1.3950    -1.6460 H     1 <1>   0.0800 
 18 H        1.1640    -0.1580    -2.3800 H     1 <1>   0.0800 
 19 H        1.2530    -2.1000     0.6970 H     1 <1>   0.0800 
 20 H       -3.0950     1.3160    -1.3150 H     1 <1>   0.0800 
 21 H       -0.5000    -4.0830    -0.7930 H     1 <1>   0.0800 
 22 H        0.9100    -4.4990     0.1530 H     1 <1>   0.0800 
 23 H        1.0950    -3.5380    -1.2880 H     1 <1>   0.0800 
 24 H       -1.5920    -3.0100     1.2710 H     1 <1>   0.0800 
 25 H       -0.7000    -1.7930     2.1690 H     1 <1>   0.0800 
 26 H       -0.1930    -3.4560     2.2160 H     1 <1>   0.0800 
 27 H       -1.8490     1.8660     1.3900 H     1 <1>   0.0800 
 28 H       -3.3750     2.4520     0.8010 H     1 <1>   0.0800 
 29 H       -1.9000     3.0000     0.0510 H     1 <1>   0.0800 
 30 H       -2.5630    -0.5500     1.0080 H     1 <1>   0.0800 
 31 H       -3.0690    -1.0650    -0.5960 H     1 <1>   0.0800 
 32 H       -4.1110    -0.0690     0.3830 H     1 <1>   0.0800 
 33 H        5.1830     0.0350    -0.2130 H     1 <1>   0.0800 
 34 H        4.2580    -0.4150     1.2160 H     1 <1>   0.0800 
 35 H        5.1960     2.4030     0.5480 H     1 <1>   0.0800 
 36 H        5.9040     1.3750     1.7690 H     1 <1>   0.0800 
 37 H        4.2680     1.9510     1.9690 H     1 <1>   0.0800 
@<TRIPOS>BOND
  1   1   2  2   
  2   1   3  1   
  3   1   4  1   
  4   1   5  1   
  5   3   6  1   
  6   4   7  1   
  7   5   8  1   
  8   5  17  1   
  9   5  18  1   
 10   6   9  1   
 11   6  10  1   
 12   6  19  1   
 13   7  11  1   
 14   7  12  1   
 15   7  20  1   
 16   8  13  2   
 17   8  14  1   
 18   9  21  1   
 19   9  22  1   
 20   9  23  1   
 21  10  24  1   
 22  10  25  1   
 23  10  26  1   
 24  11  27  1   
 25  11  28  1   
 26  11  29  1   
 27  12  30  1   
 28  12  31  1   
 29  12  32  1   
 30  14  15  1   
 31  15  16  1   
 32  15  33  1   
 33  15  34  1   
 34  16  35  1   
 35  16  36  1   
 36  16  37  1   
@<TRIPOS>SUBSTRUCTURE
  1 ****   1 GROUP 4 **** **** 0

# MOE 2024.06 (io_trps.svl 2023.06)
