@<TRIPOS>MOLECULE
NONAME
43 45 1 0 0 
SMALL
USER_CHARGES


@<TRIPOS>ATOM
  1 CL       0.9480     3.2430    -2.1520 Cl    1 <1>  -0.1770 
  2 C        1.9760     2.7060    -0.8400 C.ar  1 <1>   0.1770 
  3 C        1.5120     2.7060     0.4810 C.ar  1 <1>   0.1000 
  4 C        3.2530     2.2860    -1.1620 C.ar  1 <1>  -0.1500 
  5 N        0.2350     3.1170     0.8750 N.pl3 1 <1>  -0.8380 
  6 C        2.3870     2.2640     1.4660 C.ar  1 <1>  -0.1500 
  7 C        4.1040     1.8500    -0.1600 C.ar  1 <1>  -0.1500 
  8 C       -0.9280     2.1950     0.7050 C.3   1 <1>   0.2090 
  9 C       -0.0930     4.5750     0.9490 C.3   1 <1>   0.2090 
 10 C        3.6670     1.8400     1.1540 C.ar  1 <1>  -0.1500 
 11 C       -1.9820     2.7400    -0.2800 C.3   1 <1>   0.1960 
 12 C       -1.2050     4.9960    -0.0340 C.3   1 <1>   0.1960 
 13 N       -2.3900     4.1220     0.0390 N.am  1 <1>  -0.8490 
 14 S       -3.6230     4.6790    -0.9810 S.o2  1 <1>   1.4470 
 15 O       -3.2590     4.2980    -2.3290 O.2   1 <1>  -0.6500 
 16 O       -3.8250     6.0770    -0.6690 O.2   1 <1>  -0.6500 
 17 C       -5.0680     3.7280    -0.4350 C.ar  1 <1>  -0.0090 
 18 C       -5.4310     3.6880     0.9060 C.ar  1 <1>  -0.1500 
 19 C       -5.8470     3.0140    -1.3400 C.ar  1 <1>  -0.1500 
 20 C       -6.5280     2.9590     1.3310 C.ar  1 <1>  -0.1500 
 21 C       -6.9470     2.2810    -0.9260 C.ar  1 <1>  -0.1500 
 22 C       -7.2930     2.2500     0.4210 C.ar  1 <1>   0.0830 
 23 O       -8.3500     1.5610     0.9140 O.3   1 <1>  -0.3630 
 24 C       -9.2270     0.8520     0.0670 C.3   1 <1>   0.0400 
 25 H        3.5750     2.3000    -2.1870 H     1 <1>   0.1500 
 26 H        2.0480     2.2570     2.4860 H     1 <1>   0.1500 
 27 H        5.1000     1.5200    -0.4020 H     1 <1>   0.1500 
 28 H       -1.3930     2.0490     1.6640 H     1 <1>   0.0800 
 29 H       -0.5800     1.2380     0.3590 H     1 <1>   0.0800 
 30 H        0.7930     5.1530     0.7500 H     1 <1>   0.0800 
 31 H       -0.4140     4.8020     1.9500 H     1 <1>   0.0800 
 32 H        4.3250     1.5020     1.9360 H     1 <1>   0.1500 
 33 H       -2.8410     2.0920    -0.2460 H     1 <1>   0.0800 
 34 H       -1.5800     2.6940    -1.2780 H     1 <1>   0.0800 
 35 H       -0.8130     4.9960    -1.0360 H     1 <1>   0.0800 
 36 H       -1.4890     6.0080     0.2010 H     1 <1>   0.0800 
 37 H       -4.8450     4.2370     1.6250 H     1 <1>   0.1500 
 38 H       -5.5880     3.0330    -2.3860 H     1 <1>   0.1500 
 39 H       -6.7990     2.9360     2.3710 H     1 <1>   0.1500 
 40 H       -7.5170     1.7460    -1.6610 H     1 <1>   0.1500 
 41 H       -9.9930     0.4080     0.6780 H     1 <1>   0.0800 
 42 H       -8.6750     0.0830    -0.4430 H     1 <1>   0.0800 
 43 H       -9.6700     1.5390    -0.6310 H     1 <1>   0.0800 
@<TRIPOS>BOND
  1   1   2  1   
  2   2   3  ar  
  3   2   4  ar  
  4   3   5  1   
  5   3   6  ar  
  6   4   7  ar  
  7   4  25  1   
  8   5   8  1   
  9   5   9  1   
 10   6  10  ar  
 11   6  26  1   
 12   7  10  ar  
 13   7  27  1   
 14   8  11  1   
 15   8  28  1   
 16   8  29  1   
 17   9  12  1   
 18   9  30  1   
 19   9  31  1   
 20  10  32  1   
 21  11  13  1   
 22  11  33  1   
 23  11  34  1   
 24  12  13  1   
 25  12  35  1   
 26  12  36  1   
 27  13  14  am  
 28  14  15  2   
 29  14  16  2   
 30  14  17  1   
 31  17  18  ar  
 32  17  19  ar  
 33  18  20  ar  
 34  18  37  1   
 35  19  21  ar  
 36  19  38  1   
 37  20  22  ar  
 38  20  39  1   
 39  21  22  ar  
 40  21  40  1   
 41  22  23  1   
 42  23  24  1   
 43  24  41  1   
 44  24  42  1   
 45  24  43  1   
@<TRIPOS>SUBSTRUCTURE
  1 ****  11 GROUP 4 **** **** 0

# MOE 2024.06 (io_trps.svl 2023.06)
