@<TRIPOS>MOLECULE
NONAME
46 48 1 0 0 
SMALL
USER_CHARGES


@<TRIPOS>ATOM
  1 BR      -0.7100    -1.6310    -4.6480 Br    1 <1>  -0.1110 
  2 C       -0.5550    -2.8860    -3.1990 C.ar  1 <1>   0.1110 
  3 C       -0.4800    -2.4060    -1.9070 C.ar  1 <1>  -0.1500 
  4 C       -0.5210    -4.2360    -3.4870 C.ar  1 <1>  -0.1500 
  5 C       -0.3700    -3.3130    -0.8660 C.ar  1 <1>  -0.1500 
  6 C       -0.4110    -5.1360    -2.4400 C.ar  1 <1>  -0.1500 
  7 C       -0.3410    -4.6790    -1.1280 C.ar  1 <1>  -0.1430 
  8 C       -0.2330    -5.6670     0.0200 C.3   1 <1>   0.4870 
  9 N       -1.5460    -6.3420     0.2000 N.4   1 <1>  -0.9590 
 10 C       -2.6870    -5.3960     0.4680 C.3   1 <1>   0.3430 
 11 C       -1.5160    -7.4580     1.2090 C.3   1 <1>   0.3430 
 12 C       -4.0460    -6.1370     0.5160 C.3   1 <1>   0.1960 
 13 C       -2.9180    -8.0800     1.4400 C.3   1 <1>   0.1960 
 14 N       -3.9070    -7.6100     0.4470 N.am  1 <1>  -0.8490 
 15 S       -5.4210    -8.3600     0.6330 S.o2  1 <1>   1.4470 
 16 O       -6.2980    -7.6830    -0.2950 O.2   1 <1>  -0.6500 
 17 O       -5.6840    -8.3000     2.0540 O.2   1 <1>  -0.6500 
 18 C       -5.1000   -10.0590     0.0900 C.ar  1 <1>  -0.0090 
 19 C       -4.8490   -10.3440    -1.2470 C.ar  1 <1>  -0.1500 
 20 C       -5.0640   -11.1120     0.9960 C.ar  1 <1>  -0.1500 
 21 C       -4.5610   -11.6310    -1.6650 C.ar  1 <1>  -0.1500 
 22 C       -4.7760   -12.4020     0.5850 C.ar  1 <1>  -0.1500 
 23 C       -4.5190   -12.6680    -0.7490 C.ar  1 <1>  -0.1430 
 24 C       -4.2060   -14.0830    -1.2000 C.3   1 <1>  -0.0970 
 25 H       -0.5030    -1.3440    -1.7260 H     1 <1>   0.1500 
 26 H       -0.5760    -4.5680    -4.5090 H     1 <1>   0.1500 
 27 H       -0.3040    -2.9370     0.1410 H     1 <1>   0.1500 
 28 H       -0.3770    -6.1880    -2.6670 H     1 <1>   0.1500 
 29 H        0.0470    -5.1490     0.9230 H     1 <1>   0.0800 
 30 H        0.5300    -6.3930    -0.2080 H     1 <1>   0.0800 
 31 H       -1.8000    -6.7840    -0.6960 H     1 <1>   0.4500 
 32 H       -2.7330    -4.6420    -0.3020 H     1 <1>   0.0800 
 33 H       -2.5300    -4.8910     1.4070 H     1 <1>   0.0800 
 34 H       -1.1400    -7.0960     2.1510 H     1 <1>   0.0800 
 35 H       -0.8490    -8.2330     0.8690 H     1 <1>   0.0800 
 36 H       -4.6470    -5.7990    -0.3130 H     1 <1>   0.0800 
 37 H       -4.5670    -5.8570     1.4180 H     1 <1>   0.0800 
 38 H       -3.2490    -7.8300     2.4360 H     1 <1>   0.0800 
 39 H       -2.8300    -9.1530     1.3930 H     1 <1>   0.0800 
 40 H       -4.8830    -9.5480    -1.9720 H     1 <1>   0.1500 
 41 H       -5.2680   -10.9270     2.0380 H     1 <1>   0.1500 
 42 H       -4.3740   -11.8240    -2.7070 H     1 <1>   0.1500 
 43 H       -4.7580   -13.2010     1.3060 H     1 <1>   0.1500 
 44 H       -5.1220   -14.6200    -1.3730 H     1 <1>   0.0800 
 45 H       -3.6370   -14.5990    -0.4470 H     1 <1>   0.0800 
 46 H       -3.6330   -14.0740    -2.1100 H     1 <1>   0.0800 
@<TRIPOS>BOND
  1   1   2  1   
  2   2   3  ar  
  3   2   4  ar  
  4   3   5  ar  
  5   3  25  1   
  6   4   6  ar  
  7   4  26  1   
  8   5   7  ar  
  9   5  27  1   
 10   6   7  ar  
 11   6  28  1   
 12   7   8  1   
 13   8   9  1   
 14   8  29  1   
 15   8  30  1   
 16   9  10  1   
 17   9  11  1   
 18   9  31  1   
 19  10  12  1   
 20  10  32  1   
 21  10  33  1   
 22  11  13  1   
 23  11  34  1   
 24  11  35  1   
 25  12  14  1   
 26  12  36  1   
 27  12  37  1   
 28  13  14  1   
 29  13  38  1   
 30  13  39  1   
 31  14  15  am  
 32  15  16  2   
 33  15  17  2   
 34  15  18  1   
 35  18  19  ar  
 36  18  20  ar  
 37  19  21  ar  
 38  19  40  1   
 39  20  22  ar  
 40  20  41  1   
 41  21  23  ar  
 42  21  42  1   
 43  22  23  ar  
 44  22  43  1   
 45  23  24  1   
 46  24  44  1   
 47  24  45  1   
 48  24  46  1   
@<TRIPOS>SUBSTRUCTURE
  1 ****  14 GROUP 4 **** **** 0

# MOE 2024.06 (io_trps.svl 2023.06)
