@<TRIPOS>MOLECULE
NONAME
52 55 1 0 0 
SMALL
USER_CHARGES


@<TRIPOS>ATOM
  1 F       -1.0160     0.9060    -1.6510 F     1 <1>  -0.1900 
  2 C       -0.7840     1.8610    -0.7810 C.ar  1 <1>   0.1900 
  3 C       -1.7710     2.2100     0.1500 C.ar  1 <1>   0.1000 
  4 C        0.4480     2.4820    -0.8340 C.ar  1 <1>  -0.1500 
  5 N       -3.0350     1.6130     0.2470 N.pl3 1 <1>  -0.8380 
  6 C       -1.4580     3.2290     1.0400 C.ar  1 <1>  -0.1500 
  7 C        0.7280     3.4950     0.0690 C.ar  1 <1>  -0.1500 
  8 C       -3.0540     0.1750     0.6620 C.3   1 <1>   0.2090 
  9 C       -3.9660     1.8560    -0.9020 C.3   1 <1>   0.2090 
 10 C       -0.2270     3.8650     1.0040 C.ar  1 <1>  -0.1500 
 11 C       -4.4820    -0.3050     0.9890 C.3   1 <1>   0.2090 
 12 C       -5.3980     1.3790    -0.5890 C.3   1 <1>   0.2090 
 13 N       -5.4230    -0.0520    -0.1450 N.pl3 1 <1>  -0.8380 
 14 C       -6.6190    -0.7380    -0.1660 C.ar  1 <1>   0.4100 
 15 N       -7.7230    -0.0580    -0.0620 N.ar  1 <1>  -0.6200 
 16 C       -6.6020    -2.1350    -0.2930 C.ar  1 <1>  -0.1500 
 17 C       -8.8870    -0.7490    -0.0590 C.ar  1 <1>   0.3100 
 18 C       -7.7510    -2.8650    -0.2960 C.ar  1 <1>  -0.1430 
 19 C       -8.9820    -2.1620    -0.1670 C.ar  1 <1>   0.0000 
 20 C      -10.0480     0.0230     0.0640 C.ar  1 <1>  -0.1500 
 21 C       -7.6380    -4.3780    -0.4420 C.3   1 <1>  -0.0970 
 22 C      -10.2900    -2.7310    -0.1390 C.ar  1 <1>   0.0830 
 23 C      -11.2940    -0.5490     0.0860 C.ar  1 <1>   0.0830 
 24 O      -10.4130    -4.0800    -0.2340 O.3   1 <1>  -0.3630 
 25 C      -11.4060    -1.9320    -0.0160 C.ar  1 <1>  -0.1500 
 26 O      -12.4530     0.1420     0.2030 O.3   1 <1>  -0.3620 
 27 C      -11.6590    -4.7450    -0.2240 C.3   1 <1>   0.0400 
 28 C      -12.4550     1.5480     0.3220 C.3   1 <1>   0.0400 
 29 H        1.1730     2.1790    -1.5670 H     1 <1>   0.1500 
 30 H       -2.1970     3.5190     1.7650 H     1 <1>   0.1500 
 31 H        1.6830     3.9920     0.0460 H     1 <1>   0.1500 
 32 H       -2.4290     0.0500     1.5290 H     1 <1>   0.0800 
 33 H       -2.6550    -0.4340    -0.1300 H     1 <1>   0.0800 
 34 H       -3.6100     1.3320    -1.7720 H     1 <1>   0.0800 
 35 H       -3.9840     2.9070    -1.1280 H     1 <1>   0.0800 
 36 H       -0.0120     4.6520     1.7060 H     1 <1>   0.1500 
 37 H       -4.8340     0.2190     1.8590 H     1 <1>   0.0800 
 38 H       -4.4580    -1.3540     1.2200 H     1 <1>   0.0800 
 39 H       -6.0100     1.4910    -1.4670 H     1 <1>   0.0800 
 40 H       -5.8140     1.9970     0.1880 H     1 <1>   0.0800 
 41 H       -5.6410    -2.5980    -0.3980 H     1 <1>   0.1500 
 42 H       -9.9100     1.0830     0.1410 H     1 <1>   0.1500 
 43 H       -6.6130    -4.6860    -0.5360 H     1 <1>   0.0800 
 44 H       -8.1660    -4.7020    -1.3200 H     1 <1>   0.0800 
 45 H       -8.0560    -4.8630     0.4220 H     1 <1>   0.0800 
 46 H      -12.4010    -2.3290     0.0080 H     1 <1>   0.1500 
 47 H      -11.4740    -5.8000    -0.3160 H     1 <1>   0.0800 
 48 H      -12.2440    -4.4020    -1.0590 H     1 <1>   0.0800 
 49 H      -12.1560    -4.5410     0.7070 H     1 <1>   0.0800 
 50 H      -13.4750     1.8760     0.4050 H     1 <1>   0.0800 
 51 H      -12.0040     1.9730    -0.5570 H     1 <1>   0.0800 
 52 H      -11.9080     1.8240     1.2070 H     1 <1>   0.0800 
@<TRIPOS>BOND
  1   1   2  1   
  2   2   3  ar  
  3   2   4  ar  
  4   3   5  1   
  5   3   6  ar  
  6   4   7  ar  
  7   4  29  1   
  8   5   8  1   
  9   5   9  1   
 10   6  10  ar  
 11   6  30  1   
 12   7  10  ar  
 13   7  31  1   
 14   8  11  1   
 15   8  32  1   
 16   8  33  1   
 17   9  12  1   
 18   9  34  1   
 19   9  35  1   
 20  10  36  1   
 21  11  13  1   
 22  11  37  1   
 23  11  38  1   
 24  12  13  1   
 25  12  39  1   
 26  12  40  1   
 27  13  14  1   
 28  14  15  ar  
 29  14  16  ar  
 30  15  17  ar  
 31  16  18  ar  
 32  16  41  1   
 33  17  19  ar  
 34  17  20  ar  
 35  18  19  ar  
 36  18  21  1   
 37  19  22  ar  
 38  20  23  ar  
 39  20  42  1   
 40  21  43  1   
 41  21  44  1   
 42  21  45  1   
 43  22  24  1   
 44  22  25  ar  
 45  23  25  ar  
 46  23  26  1   
 47  24  27  1   
 48  25  46  1   
 49  26  28  1   
 50  27  47  1   
 51  27  48  1   
 52  27  49  1   
 53  28  50  1   
 54  28  51  1   
 55  28  52  1   
@<TRIPOS>SUBSTRUCTURE
  1 ****  14 GROUP 4 **** **** 0

# MOE 2024.06 (io_trps.svl 2023.06)
