@<TRIPOS>MOLECULE
NONAME
37 38 1 0 0 
SMALL
USER_CHARGES


@<TRIPOS>ATOM
  1 CL       1.3540    -2.7120     2.5810 Cl    1 <1>  -0.1770 
  2 C        1.9210    -1.9980     1.0840 C.ar  1 <1>   0.1770 
  3 C        1.0530    -1.9220    -0.0070 C.ar  1 <1>   0.1170 
  4 C        3.2240    -1.5350     1.0310 C.ar  1 <1>  -0.1500 
  5 N       -0.2580    -2.4160     0.1190 N.am  1 <1>  -0.5470 
  6 C        1.5470    -1.3640    -1.1840 C.ar  1 <1>  -0.1500 
  7 C        3.6950    -0.9760    -0.1460 C.ar  1 <1>  -0.1500 
  8 C       -1.3950    -2.2090    -0.6070 C.2   1 <1>   0.6900 
  9 C        2.8480    -0.9010    -1.2380 C.ar  1 <1>   0.1770 
 10 O       -1.4150    -1.4060    -1.5200 O.2   1 <1>  -0.5700 
 11 N       -2.5280    -2.9050    -0.2700 N.am  1 <1>  -0.6600 
 12 CL       3.4470    -0.2050    -2.7220 Cl    1 <1>  -0.1770 
 13 C       -2.5170    -4.1270     0.5930 C.3   1 <1>   0.1400 
 14 C       -3.8370    -2.5190    -0.8810 C.3   1 <1>   0.1400 
 15 C       -3.6230    -5.1060     0.1730 C.3   1 <1>  -0.0800 
 16 C       -5.0060    -2.9400     0.0220 C.3   1 <1>  -0.0800 
 17 C       -5.0220    -4.4640     0.2660 C.3   1 <1>  -0.1600 
 18 C       -3.5650    -6.3980     0.9990 C.3   1 <1>  -0.2400 
 19 C       -6.3480    -2.4680    -0.5510 C.3   1 <1>  -0.2400 
 20 H        3.8570    -1.6110     1.8970 H     1 <1>   0.1500 
 21 H       -0.4420    -2.9120     0.9870 H     1 <1>   0.3700 
 22 H        0.9320    -1.2870    -2.0610 H     1 <1>   0.1500 
 23 H        4.7020    -0.6060    -0.2220 H     1 <1>   0.1500 
 24 H       -2.6650    -3.8340     1.6190 H     1 <1>   0.0800 
 25 H       -1.5650    -4.6230     0.5100 H     1 <1>   0.0800 
 26 H       -3.9260    -2.9910    -1.8450 H     1 <1>   0.0800 
 27 H       -3.8630    -1.4520    -1.0280 H     1 <1>   0.0800 
 28 H       -3.4380    -5.3680    -0.8560 H     1 <1>   0.0800 
 29 H       -4.8640    -2.4450     0.9690 H     1 <1>   0.0800 
 30 H       -5.4500    -4.6400     1.2380 H     1 <1>   0.0800 
 31 H       -5.6580    -4.9490    -0.4560 H     1 <1>   0.0800 
 32 H       -3.7160    -6.1900     2.0440 H     1 <1>   0.0800 
 33 H       -2.6090    -6.8770     0.8780 H     1 <1>   0.0800 
 34 H       -4.3280    -7.0820     0.6710 H     1 <1>   0.0800 
 35 H       -6.5250    -2.9090    -1.5170 H     1 <1>   0.0800 
 36 H       -6.3510    -1.3970    -0.6580 H     1 <1>   0.0800 
 37 H       -7.1530    -2.7440     0.1070 H     1 <1>   0.0800 
@<TRIPOS>BOND
  1   1   2  1   
  2   2   3  ar  
  3   2   4  ar  
  4   3   5  1   
  5   3   6  ar  
  6   4   7  ar  
  7   4  20  1   
  8   5   8  am  
  9   5  21  1   
 10   6   9  ar  
 11   6  22  1   
 12   7   9  ar  
 13   7  23  1   
 14   8  10  2   
 15   8  11  am  
 16   9  12  1   
 17  11  13  1   
 18  11  14  1   
 19  13  15  1   
 20  13  24  1   
 21  13  25  1   
 22  14  16  1   
 23  14  26  1   
 24  14  27  1   
 25  15  17  1   
 26  15  18  1   
 27  15  28  1   
 28  16  17  1   
 29  16  19  1   
 30  16  29  1   
 31  17  30  1   
 32  17  31  1   
 33  18  32  1   
 34  18  33  1   
 35  18  34  1   
 36  19  35  1   
 37  19  36  1   
 38  19  37  1   
@<TRIPOS>SUBSTRUCTURE
  1 ****   5 GROUP 4 **** **** 0

# MOE 2024.06 (io_trps.svl 2023.06)
