@<TRIPOS>MOLECULE
NONAME
37 39 1 0 0 
SMALL
USER_CHARGES


@<TRIPOS>ATOM
  1 S        1.5890    -1.3000     2.3620 S.3   1 <1>  -0.3320 
  2 C        2.3720    -0.3770     1.0180 C.ar  1 <1>   0.1020 
  3 C        0.4190    -2.4690     1.5410 C.3   1 <1>  -0.0100 
  4 C        2.9060    -0.9840    -0.1250 C.ar  1 <1>   0.1170 
  5 C        2.4320     0.9940     1.1980 C.ar  1 <1>  -0.1500 
  6 N        2.9070    -2.3740    -0.3320 N.am  1 <1>  -0.5470 
  7 C        3.4730    -0.1560    -1.0880 C.ar  1 <1>  -0.1500 
  8 C        3.0070     1.7960     0.2270 C.ar  1 <1>  -0.1500 
  9 C        3.9630    -3.1730    -0.6650 C.2   1 <1>   0.5690 
 10 C        3.5240     1.2170    -0.9190 C.ar  1 <1>  -0.1500 
 11 O        5.0760    -2.7250    -0.8200 O.2   1 <1>  -0.5700 
 12 C        3.8090    -4.6960    -0.7760 C.3   1 <1>  -0.0190 
 13 C        2.4390    -5.3790    -1.5210 C.3   1 <1>  -0.1860 
 14 C        3.9640    -5.4270     0.6960 C.3   1 <1>   0.0580 
 15 C        1.3930    -4.3890    -1.9950 C.2   1 <1>   0.9060 
 16 C        1.8340    -6.5040    -0.4740 C.3   1 <1>   0.0580 
 17 C        3.3440    -6.6690     1.5390 C.2   1 <1>  -0.2880 
 18 C        2.8920    -5.9290     0.0890 C.3   1 <1>  -0.1600 
 19 O        0.7230    -3.7870    -1.1470 O.co2 1 <1>  -0.9000 
 20 O        1.2630    -4.1870    -3.2000 O.co2 1 <1>  -0.9000 
 21 C        2.2240    -7.2350     0.9250 C.2   1 <1>  -0.2880 
 22 H       -0.4130    -2.6240     2.2020 H     1 <1>   0.0800 
 23 H        0.9380    -3.3920     1.3640 H     1 <1>   0.0800 
 24 H        0.0940    -2.0280     0.6150 H     1 <1>   0.0800 
 25 H        2.0250     1.4280     2.0930 H     1 <1>   0.1500 
 26 H        1.9700    -2.8140    -0.4220 H     1 <1>   0.3700 
 27 H        3.8810    -0.6030    -1.9770 H     1 <1>   0.1500 
 28 H        3.0500     2.8620     0.3630 H     1 <1>   0.1500 
 29 H        3.9710     1.8310    -1.6800 H     1 <1>   0.1500 
 30 H        4.6550    -5.0010    -1.3740 H     1 <1>   0.0800 
 31 H        2.7640    -5.8890    -2.4130 H     1 <1>   0.0800 
 32 H        3.8630    -4.6090     1.3970 H     1 <1>   0.0800 
 33 H        0.8320    -6.1530    -0.2650 H     1 <1>   0.0800 
 34 H        3.8180    -6.9460     2.4660 H     1 <1>   0.1500 
 35 H        2.2100    -5.1260     0.5890 H     1 <1>   0.0800 
 36 H        3.6080    -6.7270    -0.4900 H     1 <1>   0.0800 
 37 H        1.6160    -8.0590     1.2570 H     1 <1>   0.1500 
@<TRIPOS>BOND
  1   1   2  1   
  2   1   3  1   
  3   2   4  ar  
  4   2   5  ar  
  5   3  22  1   
  6   3  23  1   
  7   3  24  1   
  8   4   6  1   
  9   4   7  ar  
 10   5   8  ar  
 11   5  25  1   
 12   6   9  am  
 13   6  26  1   
 14   7  10  ar  
 15   7  27  1   
 16   8  10  ar  
 17   8  28  1   
 18   9  11  2   
 19   9  12  1   
 20  10  29  1   
 21  12  13  1   
 22  12  14  1   
 23  12  30  1   
 24  13  15  1   
 25  13  16  1   
 26  13  31  1   
 27  14  17  1   
 28  14  18  1   
 29  14  32  1   
 30  15  19  ar  
 31  15  20  ar  
 32  16  18  1   
 33  16  21  1   
 34  16  33  1   
 35  17  21  2   
 36  17  34  1   
 37  18  35  1   
 38  18  36  1   
 39  21  37  1   
@<TRIPOS>SUBSTRUCTURE
  1 ****   6 GROUP 4 **** **** 0

# MOE 2024.06 (io_trps.svl 2023.06)
