@<TRIPOS>MOLECULE
NONAME
33 34 1 0 0 
SMALL
USER_CHARGES


@<TRIPOS>ATOM
  1 CL       0.8150    -1.6570     1.4270 Cl    1 <1>  -0.1240 
  2 C        1.8010    -0.6010     0.4540 C.2   1 <1>   0.1640 
  3 S        2.8490     0.5060     1.3120 S.3   1 <1>  -0.0800 
  4 C        1.9170    -0.4730    -0.8770 C.2   1 <1>  -0.1500 
  5 C        3.4600     1.1660    -0.2100 C.2   1 <1>  -0.0220 
  6 C        2.8660     0.5340    -1.2490 C.2   1 <1>  -0.1500 
  7 S        4.7190     2.4630    -0.1320 S.o2  1 <1>   1.5000 
  8 O        4.7380     3.1260     1.1520 O.2   1 <1>  -0.6500 
  9 O        4.6730     3.2490    -1.3440 O.2   1 <1>  -0.6500 
 10 N        6.1880     1.6090    -0.2050 N.am  1 <1>  -0.8490 
 11 C        7.2920     2.5140    -0.6050 C.3   1 <1>   0.1960 
 12 C        6.5220     0.9390     1.0730 C.3   1 <1>   0.1960 
 13 C        8.6870     1.8390    -0.5640 C.3   1 <1>   0.3430 
 14 C        7.8300     0.1110     0.9840 C.3   1 <1>   0.3430 
 15 N        8.5870     0.3630    -0.2960 N.4   1 <1>  -0.9590 
 16 C        9.9060    -0.3160    -0.3650 C.3   1 <1>   0.3430 
 17 C        9.7030    -1.8240    -0.4510 C.3   1 <1>  -0.2400 
 18 H        1.3730    -1.0430    -1.6100 H     1 <1>   0.1500 
 19 H        3.0600     0.7460    -2.2880 H     1 <1>   0.1500 
 20 H        7.3060     3.3830     0.0340 H     1 <1>   0.0800 
 21 H        7.1160     2.8650    -1.6090 H     1 <1>   0.0800 
 22 H        5.7210     0.2810     1.3640 H     1 <1>   0.0800 
 23 H        6.6320     1.6720     1.8560 H     1 <1>   0.0800 
 24 H        9.2770     2.3090     0.2050 H     1 <1>   0.0800 
 25 H        9.1830     2.0120    -1.5050 H     1 <1>   0.0800 
 26 H        7.5780    -0.9340     1.0520 H     1 <1>   0.0800 
 27 H        8.4490     0.3490     1.8330 H     1 <1>   0.0800 
 28 H        7.9810    -0.0030    -1.0460 H     1 <1>   0.4500 
 29 H       10.5010    -0.0700     0.5000 H     1 <1>   0.0800 
 30 H       10.4380     0.0130    -1.2450 H     1 <1>   0.0800 
 31 H        9.2670    -2.2160     0.4500 H     1 <1>   0.0800 
 32 H       10.6590    -2.3000    -0.5810 H     1 <1>   0.0800 
 33 H        9.0890    -2.0820    -1.2960 H     1 <1>   0.0800 
@<TRIPOS>BOND
  1   1   2  1   
  2   2   3  1   
  3   2   4  2   
  4   3   5  1   
  5   4   6  1   
  6   4  18  1   
  7   5   6  2   
  8   5   7  1   
  9   6  19  1   
 10   7   8  2   
 11   7   9  2   
 12   7  10  am  
 13  10  11  1   
 14  10  12  1   
 15  11  13  1   
 16  11  20  1   
 17  11  21  1   
 18  12  14  1   
 19  12  22  1   
 20  12  23  1   
 21  13  15  1   
 22  13  24  1   
 23  13  25  1   
 24  14  15  1   
 25  14  26  1   
 26  14  27  1   
 27  15  16  1   
 28  15  28  1   
 29  16  17  1   
 30  16  29  1   
 31  16  30  1   
 32  17  31  1   
 33  17  32  1   
 34  17  33  1   
@<TRIPOS>SUBSTRUCTURE
  1 ****  10 GROUP 4 **** **** 0

# MOE 2024.06 (io_trps.svl 2023.06)
