@<TRIPOS>MOLECULE
NONAME
47 49 1 0 0 
SMALL
USER_CHARGES


@<TRIPOS>ATOM
  1 S        0.2070    -1.0880     1.6830 S.3   1 <1>  -0.3320 
  2 C       -0.1080    -2.5320     0.6560 C.ar  1 <1>   0.1020 
  3 C        0.9280    -1.7010     3.2690 C.3   1 <1>  -0.0100 
  4 C       -0.6040    -2.3010    -0.6130 C.ar  1 <1>  -0.1500 
  5 C        0.1300    -3.8230     1.0990 C.ar  1 <1>  -0.1500 
  6 C       -0.8700    -3.3700    -1.4510 C.ar  1 <1>  -0.1500 
  7 C       -0.1380    -4.8900     0.2590 C.ar  1 <1>  -0.1500 
  8 C       -0.6440    -4.6700    -1.0170 C.ar  1 <1>  -0.1430 
  9 C       -0.9550    -5.8390    -1.9320 C.3   1 <1>   0.4860 
 10 N       -2.1720    -6.5280    -1.4330 N.4   1 <1>  -0.9590 
 11 C       -2.5040    -7.7940    -2.1620 C.3   1 <1>   0.3430 
 12 C       -3.3790    -5.6420    -1.3120 C.3   1 <1>   0.3430 
 13 C       -3.6980    -8.5230    -1.4980 C.3   1 <1>   0.1100 
 14 C       -4.5640    -6.4000    -0.6610 C.3   1 <1>   0.1100 
 15 N       -4.2150    -7.7960    -0.3090 N.3   1 <1>  -0.8100 
 16 C       -5.3490    -8.4980     0.3250 C.3   1 <1>   0.2530 
 17 C       -4.9160    -9.8690     0.8260 C.ar  1 <1>  -0.1430 
 18 C       -3.9580    -9.9660     1.8280 C.ar  1 <1>  -0.1500 
 19 C       -5.4730   -11.0230     0.2860 C.ar  1 <1>  -0.1500 
 20 C       -3.5500   -11.2060     2.2900 C.ar  1 <1>  -0.1500 
 21 C       -5.0720   -12.2690     0.7390 C.ar  1 <1>  -0.1500 
 22 C       -4.1160   -12.3360     1.7340 C.ar  1 <1>   0.1900 
 23 F       -3.7340   -13.5090     2.1620 F     1 <1>  -0.1900 
 24 H        1.1440    -0.8420     3.8790 H     1 <1>   0.0800 
 25 H        1.8290    -2.2400     3.0390 H     1 <1>   0.0800 
 26 H        0.2000    -2.3320     3.7450 H     1 <1>   0.0800 
 27 H       -0.7740    -1.2890    -0.9360 H     1 <1>   0.1500 
 28 H        0.5190    -4.0070     2.0820 H     1 <1>   0.1500 
 29 H       -1.2510    -3.1700    -2.4390 H     1 <1>   0.1500 
 30 H        0.0560    -5.8880     0.6130 H     1 <1>   0.1500 
 31 H       -0.1190    -6.5200    -1.9360 H     1 <1>   0.0800 
 32 H       -1.1140    -5.4850    -2.9370 H     1 <1>   0.0800 
 33 H       -2.0090    -6.8290    -0.4610 H     1 <1>   0.4500 
 34 H       -1.6520    -8.4540    -2.1600 H     1 <1>   0.0800 
 35 H       -2.7500    -7.5770    -3.1880 H     1 <1>   0.0800 
 36 H       -3.6760    -5.2840    -2.2830 H     1 <1>   0.0800 
 37 H       -3.1440    -4.7830    -0.7040 H     1 <1>   0.0800 
 38 H       -3.3700    -9.5070    -1.2070 H     1 <1>   0.0800 
 39 H       -4.4850    -8.6490    -2.2220 H     1 <1>   0.0800 
 40 H       -5.4020    -6.3890    -1.3380 H     1 <1>   0.0800 
 41 H       -4.8620    -5.8710     0.2290 H     1 <1>   0.0800 
 42 H       -6.1620    -8.5960    -0.3740 H     1 <1>   0.0800 
 43 H       -5.7010    -7.9240     1.1670 H     1 <1>   0.0800 
 44 H       -3.5280    -9.0730     2.2480 H     1 <1>   0.1500 
 45 H       -6.2200   -10.9610    -0.4870 H     1 <1>   0.1500 
 46 H       -2.8110   -11.3000     3.0660 H     1 <1>   0.1500 
 47 H       -5.4910   -13.1730     0.3350 H     1 <1>   0.1500 
@<TRIPOS>BOND
  1   1   2  1   
  2   1   3  1   
  3   2   4  ar  
  4   2   5  ar  
  5   3  24  1   
  6   3  25  1   
  7   3  26  1   
  8   4   6  ar  
  9   4  27  1   
 10   5   7  ar  
 11   5  28  1   
 12   6   8  ar  
 13   6  29  1   
 14   7   8  ar  
 15   7  30  1   
 16   8   9  1   
 17   9  10  1   
 18   9  31  1   
 19   9  32  1   
 20  10  11  1   
 21  10  12  1   
 22  10  33  1   
 23  11  13  1   
 24  11  34  1   
 25  11  35  1   
 26  12  14  1   
 27  12  36  1   
 28  12  37  1   
 29  13  15  1   
 30  13  38  1   
 31  13  39  1   
 32  14  15  1   
 33  14  40  1   
 34  14  41  1   
 35  15  16  1   
 36  16  17  1   
 37  16  42  1   
 38  16  43  1   
 39  17  18  ar  
 40  17  19  ar  
 41  18  20  ar  
 42  18  44  1   
 43  19  21  ar  
 44  19  45  1   
 45  20  22  ar  
 46  20  46  1   
 47  21  22  ar  
 48  21  47  1   
 49  22  23  1   
@<TRIPOS>SUBSTRUCTURE
  1 ****  10 GROUP 4 **** **** 0

# MOE 2024.06 (io_trps.svl 2023.06)
