@<TRIPOS>MOLECULE
NONAME
33 33 1 0 0 
SMALL
USER_CHARGES


@<TRIPOS>ATOM
  1 S        0.2790     0.2070     0.0730 S.3   1 <1>  -0.3320 
  2 C       -1.3560     0.9010    -0.0900 C.ar  1 <1>   0.4120 
  3 C        1.2590     1.0360    -1.2910 C.3   1 <1>   0.2720 
  4 N       -1.5200     1.7990    -1.0220 N.ar  1 <1>  -0.6200 
  5 C       -2.3480     0.4780     0.7590 C.ar  1 <1>  -0.1500 
  6 C        2.5980     0.3480    -1.4450 C.2   1 <1>   0.6590 
  7 C        1.4700     2.5200    -1.0320 C.2   1 <1>   0.4480 
  8 C       -2.7460     2.2750    -1.0850 C.ar  1 <1>   0.7200 
  9 C       -3.5800     1.0620     0.5940 C.ar  1 <1>   0.1670 
 10 O        2.8590    -0.3230    -2.4120 O.2   1 <1>  -0.5700 
 11 O        3.4710     0.5120    -0.4550 O.3   1 <1>  -0.4300 
 12 O        1.5540     3.2940    -1.9380 O.2   1 <1>  -0.5700 
 13 C        1.5870     3.0240     0.3960 C.3   1 <1>  -0.1790 
 14 N       -3.7880     1.9720    -0.3280 N.ar  1 <1>  -0.6200 
 15 N       -2.9540     3.2040    -2.0180 N.pl3 1 <1>  -0.9000 
 16 C       -4.7570     0.6840     1.4690 C.3   1 <1>  -0.0970 
 17 C        4.7450    -0.0870    -0.4880 C.3   1 <1>   0.1200 
 18 C        5.4840     0.3140     0.7850 C.3   1 <1>  -0.2400 
 19 H        0.6960     0.9060    -2.1960 H     1 <1>   0.0800 
 20 H       -2.1550    -0.2670     1.5060 H     1 <1>   0.1500 
 21 H        2.2640     2.4110     0.9620 H     1 <1>   0.0800 
 22 H        0.6210     3.0190     0.8670 H     1 <1>   0.0800 
 23 H        1.9570     4.0320     0.3920 H     1 <1>   0.0800 
 24 H       -3.7770     3.7830    -1.8820 H     1 <1>   0.4000 
 25 H       -2.1210     3.6640    -2.3780 H     1 <1>   0.4000 
 26 H       -4.4810    -0.0680     2.1850 H     1 <1>   0.0800 
 27 H       -5.5540     0.3050     0.8550 H     1 <1>   0.0800 
 28 H       -5.1100     1.5530     1.9940 H     1 <1>   0.0800 
 29 H        5.2650     0.2620    -1.3640 H     1 <1>   0.0800 
 30 H        4.6190    -1.1550    -0.5430 H     1 <1>   0.0800 
 31 H        5.5950     1.3820     0.8300 H     1 <1>   0.0800 
 32 H        6.4620    -0.1320     0.7890 H     1 <1>   0.0800 
 33 H        4.9480    -0.0320     1.6510 H     1 <1>   0.0800 
@<TRIPOS>BOND
  1   1   2  1   
  2   1   3  1   
  3   2   4  ar  
  4   2   5  ar  
  5   3   6  1   
  6   3   7  1   
  7   3  19  1   
  8   4   8  ar  
  9   5   9  ar  
 10   5  20  1   
 11   6  10  2   
 12   6  11  1   
 13   7  12  2   
 14   7  13  1   
 15   8  14  ar  
 16   8  15  1   
 17   9  14  ar  
 18   9  16  1   
 19  11  17  1   
 20  13  21  1   
 21  13  22  1   
 22  13  23  1   
 23  15  24  1   
 24  15  25  1   
 25  16  26  1   
 26  16  27  1   
 27  16  28  1   
 28  17  18  1   
 29  17  29  1   
 30  17  30  1   
 31  18  31  1   
 32  18  32  1   
 33  18  33  1   
@<TRIPOS>SUBSTRUCTURE
  1 ****   1 GROUP 4 **** **** 0

# MOE 2024.06 (io_trps.svl 2023.06)
