@<TRIPOS>MOLECULE
NONAME
54 57 1 0 0 
SMALL
USER_CHARGES


@<TRIPOS>ATOM
  1 O        2.6410    -4.6710     1.5020 O.co2 1 <1>  -0.9000 
  2 C        1.7080    -3.8670     1.4780 C.2   1 <1>   0.9060 
  3 O        0.5840    -4.2140     1.8610 O.co2 1 <1>  -0.9000 
  4 C        1.8440    -2.4910     0.8380 C.3   1 <1>  -0.1860 
  5 C        2.8230    -2.3300    -0.5360 C.3   1 <1>  -0.0190 
  6 C        2.3190    -1.3670     1.9330 C.3   1 <1>  -0.0800 
  7 C        3.3570    -3.6310    -1.1820 C.2   1 <1>   0.5690 
  8 C        3.9650    -1.1960    -0.1700 C.3   1 <1>  -0.0800 
  9 C        3.1230    -1.2700     0.8700 C.3   1 <1>  -0.1600 
 10 C        3.4350    -0.2190     2.2540 C.3   1 <1>  -0.1600 
 11 O        4.5530    -3.8060    -1.2440 O.2   1 <1>  -0.5700 
 12 N        2.5170    -4.5700    -1.7450 N.am  1 <1>  -0.6600 
 13 C        4.3820    -0.0310     0.8930 C.3   1 <1>  -0.1600 
 14 C        3.0000    -5.9650    -1.8800 C.3   1 <1>   0.1400 
 15 C        1.0380    -4.4980    -1.8630 C.3   1 <1>   0.1400 
 16 C        2.4830    -6.7560    -0.6760 C.3   1 <1>   0.3430 
 17 C        0.3120    -5.4660    -0.8990 C.3   1 <1>   0.3430 
 18 N        0.9710    -6.7960    -0.5640 N.4   1 <1>  -0.9590 
 19 C        0.6080    -7.1630     0.8510 C.3   1 <1>   0.4230 
 20 C        1.2320    -8.5240     1.2310 C.3   1 <1>  -0.1600 
 21 C       -0.9260    -7.2300     1.0150 C.3   1 <1>  -0.1600 
 22 C        0.8080    -8.9870     2.6320 C.3   1 <1>  -0.1600 
 23 C       -1.3380    -7.6970     2.4180 C.3   1 <1>  -0.1600 
 24 C       -0.7150    -9.0520     2.7610 C.3   1 <1>  -0.1600 
 25 H        0.8400    -2.2460     0.5310 H     1 <1>   0.0800 
 26 H        2.2140    -1.8920    -1.3100 H     1 <1>   0.0800 
 27 H        1.4110    -0.7890     2.0260 H     1 <1>   0.0800 
 28 H        4.8870    -1.7580    -0.1810 H     1 <1>   0.0800 
 29 H        3.8290    -2.0750     1.3570 H     1 <1>   0.0800 
 30 H        2.4020    -0.4790     0.3830 H     1 <1>   0.0800 
 31 H        4.0450    -0.5300     3.0890 H     1 <1>   0.0800 
 32 H        2.9670     0.7140     2.5220 H     1 <1>   0.0800 
 33 H        4.2210     0.9440     0.4580 H     1 <1>   0.0800 
 34 H        5.4270    -0.1030     1.1510 H     1 <1>   0.0800 
 35 H        4.0750    -6.0030    -1.8880 H     1 <1>   0.0800 
 36 H        2.6470    -6.3950    -2.8000 H     1 <1>   0.0800 
 37 H        0.7660    -4.7450    -2.8740 H     1 <1>   0.0800 
 38 H        0.6900    -3.4990    -1.6770 H     1 <1>   0.0800 
 39 H        2.9030    -6.3140     0.2100 H     1 <1>   0.0800 
 40 H        2.8640    -7.7600    -0.7350 H     1 <1>   0.0800 
 41 H       -0.6720    -5.6550    -1.2920 H     1 <1>   0.0800 
 42 H        0.1470    -4.9290     0.0070 H     1 <1>   0.0800 
 43 H        0.6090    -7.5170    -1.1870 H     1 <1>   0.4500 
 44 H        0.9940    -6.4120     1.5250 H     1 <1>   0.0800 
 45 H        2.3040    -8.4540     1.2440 H     1 <1>   0.0800 
 46 H        0.9380    -9.2720     0.5160 H     1 <1>   0.0800 
 47 H       -1.3440    -7.9030     0.2880 H     1 <1>   0.0800 
 48 H       -1.3580    -6.2550     0.8830 H     1 <1>   0.0800 
 49 H        1.1960    -8.2960     3.3640 H     1 <1>   0.0800 
 50 H        1.2300    -9.9550     2.8400 H     1 <1>   0.0800 
 51 H       -2.4110    -7.7660     2.4780 H     1 <1>   0.0800 
 52 H       -1.0160    -6.9630     3.1390 H     1 <1>   0.0800 
 53 H       -0.9790    -9.3230     3.7700 H     1 <1>   0.0800 
 54 H       -1.1060    -9.8100     2.1030 H     1 <1>   0.0800 
@<TRIPOS>BOND
  1   1   2  ar  
  2   2   3  ar  
  3   2   4  1   
  4   4   5  1   
  5   4   6  1   
  6   4  25  1   
  7   5   7  1   
  8   5   8  1   
  9   5  26  1   
 10   6   9  1   
 11   6  10  1   
 12   6  27  1   
 13   7  11  2   
 14   7  12  am  
 15   8   9  1   
 16   8  13  1   
 17   8  28  1   
 18   9  29  1   
 19   9  30  1   
 20  10  13  1   
 21  10  31  1   
 22  10  32  1   
 23  12  14  1   
 24  12  15  1   
 25  13  33  1   
 26  13  34  1   
 27  14  16  1   
 28  14  35  1   
 29  14  36  1   
 30  15  17  1   
 31  15  37  1   
 32  15  38  1   
 33  16  18  1   
 34  16  39  1   
 35  16  40  1   
 36  17  18  1   
 37  17  41  1   
 38  17  42  1   
 39  18  19  1   
 40  18  43  1   
 41  19  20  1   
 42  19  21  1   
 43  19  44  1   
 44  20  22  1   
 45  20  45  1   
 46  20  46  1   
 47  21  23  1   
 48  21  47  1   
 49  21  48  1   
 50  22  24  1   
 51  22  49  1   
 52  22  50  1   
 53  23  24  1   
 54  23  51  1   
 55  23  52  1   
 56  24  53  1   
 57  24  54  1   
@<TRIPOS>SUBSTRUCTURE
  1 ****   2 GROUP 4 **** **** 0

# MOE 2024.06 (io_trps.svl 2023.06)
