@<TRIPOS>MOLECULE
NONAME
49 50 1 0 0 
SMALL
USER_CHARGES


@<TRIPOS>ATOM
  1 N      -10.4610    -0.0680    -0.5210 N.4   1 <1>  -0.9590 
  2 C       -9.3310    -0.7060    -1.2670 C.3   1 <1>   0.4860 
  3 C      -11.6950    -0.9370    -0.5690 C.3   1 <1>   0.3430 
  4 C      -10.6580     1.3320    -1.0070 C.3   1 <1>   0.3430 
  5 C       -8.0430    -0.0430    -0.8210 C.ar  1 <1>  -0.1440 
  6 C      -12.8590    -0.4800     0.3600 C.3   1 <1>   0.3430 
  7 C      -10.8210     2.2520     0.1940 C.3   1 <1>  -0.2400 
  8 C       -7.5210    -0.3010     0.4390 C.ar  1 <1>  -0.1500 
  9 C       -7.3720     0.8310    -1.6640 C.ar  1 <1>  -0.1500 
 10 N      -14.0390    -1.4240     0.4070 N.4   1 <1>  -0.9590 
 11 C       -6.3570     0.3220     0.8500 C.ar  1 <1>  -0.1500 
 12 C       -6.2080     1.4470    -1.2440 C.ar  1 <1>  -0.1500 
 13 C      -14.7720    -1.5430    -0.9000 C.3   1 <1>   0.2630 
 14 C      -15.0120    -0.9820     1.4650 C.3   1 <1>   0.2630 
 15 C       -5.6810     1.2090     0.0200 C.ar  1 <1>   0.0000 
 16 C       -4.4630     1.8560     0.4540 C.ar  1 <1>   0.0000 
 17 C       -3.3540     1.1080     0.8400 C.ar  1 <1>  -0.1500 
 18 C       -4.3620     3.2430     0.4980 C.ar  1 <1>  -0.1500 
 19 C       -2.1860     1.7220     1.2570 C.ar  1 <1>  -0.1500 
 20 C       -3.1980     3.8640     0.9130 C.ar  1 <1>  -0.1500 
 21 C       -2.1070     3.1030     1.2940 C.ar  1 <1>  -0.1500 
 22 H      -10.0910     0.0150     0.4390 H     1 <1>   0.4500 
 23 H       -9.4600    -0.5900    -2.3320 H     1 <1>   0.0800 
 24 H       -9.2730    -1.7580    -1.0410 H     1 <1>   0.0800 
 25 H      -11.4170    -1.9380    -0.2830 H     1 <1>   0.0800 
 26 H      -12.0560    -0.9700    -1.5840 H     1 <1>   0.0800 
 27 H      -11.5170     1.3970    -1.6570 H     1 <1>   0.0800 
 28 H       -9.7950     1.6590    -1.5660 H     1 <1>   0.0800 
 29 H      -13.2030     0.4880     0.0360 H     1 <1>   0.0800 
 30 H      -12.4670    -0.3750     1.3590 H     1 <1>   0.0800 
 31 H      -11.6870     2.0140     0.7810 H     1 <1>   0.0800 
 32 H      -10.9320     3.2640    -0.1550 H     1 <1>   0.0800 
 33 H       -9.9400     2.2230     0.8140 H     1 <1>   0.0800 
 34 H       -7.9970    -0.9890     1.1160 H     1 <1>   0.1500 
 35 H       -7.7350     1.0410    -2.6560 H     1 <1>   0.1500 
 36 H      -13.7280    -2.3710     0.6860 H     1 <1>   0.4500 
 37 H       -5.9560     0.1240     1.8300 H     1 <1>   0.1500 
 38 H       -5.6870     2.1210    -1.9040 H     1 <1>   0.1500 
 39 H      -15.1460    -0.5820    -1.2140 H     1 <1>   0.0800 
 40 H      -15.6110    -2.2140    -0.7970 H     1 <1>   0.0800 
 41 H      -14.1250    -1.9320    -1.6700 H     1 <1>   0.0800 
 42 H      -15.4050    -0.0040     1.2350 H     1 <1>   0.0800 
 43 H      -14.5310    -0.9420     2.4300 H     1 <1>   0.0800 
 44 H      -15.8380    -1.6740     1.5280 H     1 <1>   0.0800 
 45 H       -3.4050     0.0340     0.8090 H     1 <1>   0.1500 
 46 H       -5.2060     3.8430     0.2070 H     1 <1>   0.1500 
 47 H       -1.3390     1.1270     1.5510 H     1 <1>   0.1500 
 48 H       -3.1380     4.9380     0.9420 H     1 <1>   0.1500 
 49 H       -1.2000     3.5830     1.6180 H     1 <1>   0.1500 
@<TRIPOS>BOND
  1   1   2  1   
  2   1   3  1   
  3   1   4  1   
  4   1  22  1   
  5   2   5  1   
  6   2  23  1   
  7   2  24  1   
  8   3   6  1   
  9   3  25  1   
 10   3  26  1   
 11   4   7  1   
 12   4  27  1   
 13   4  28  1   
 14   5   8  ar  
 15   5   9  ar  
 16   6  10  1   
 17   6  29  1   
 18   6  30  1   
 19   7  31  1   
 20   7  32  1   
 21   7  33  1   
 22   8  11  ar  
 23   8  34  1   
 24   9  12  ar  
 25   9  35  1   
 26  10  13  1   
 27  10  14  1   
 28  10  36  1   
 29  11  15  ar  
 30  11  37  1   
 31  12  15  ar  
 32  12  38  1   
 33  13  39  1   
 34  13  40  1   
 35  13  41  1   
 36  14  42  1   
 37  14  43  1   
 38  14  44  1   
 39  15  16  1   
 40  16  17  ar  
 41  16  18  ar  
 42  17  19  ar  
 43  17  45  1   
 44  18  20  ar  
 45  18  46  1   
 46  19  21  ar  
 47  19  47  1   
 48  20  21  ar  
 49  20  48  1   
 50  21  49  1   
@<TRIPOS>SUBSTRUCTURE
  1 ****   5 GROUP 4 **** **** 0

# MOE 2024.06 (io_trps.svl 2023.06)
