@<TRIPOS>MOLECULE
NONAME
41 42 1 0 0 
SMALL
USER_CHARGES


@<TRIPOS>ATOM
  1 O       -1.5170    -0.1430     0.9440 O.co2 1 <1>  -0.9000 
  2 C       -2.5160     0.5080     1.2770 C.2   1 <1>   0.9060 
  3 O       -2.7300     0.8160     2.4520 O.co2 1 <1>  -0.9000 
  4 C       -3.4640     0.9360     0.1730 C.3   1 <1>  -0.1860 
  5 C       -3.0460     2.1900    -0.6850 C.3   1 <1>  -0.0190 
  6 C       -4.8640     1.3170     0.6970 C.3   1 <1>   0.0580 
  7 C       -1.7480     2.9420    -0.3430 C.2   1 <1>   0.5690 
  8 C       -4.2970     3.0970    -0.5620 C.3   1 <1>   0.0580 
  9 C       -5.7750     1.3310    -0.5170 C.2   1 <1>  -0.2880 
 10 C       -4.7060     2.8230     0.8810 C.3   1 <1>  -0.1600 
 11 O       -1.7300     4.1530    -0.4050 O.2   1 <1>  -0.5700 
 12 N       -0.6180     2.2520    -0.0550 N.am  1 <1>  -0.7300 
 13 C       -5.4390     2.3800    -1.2630 C.2   1 <1>  -0.2880 
 14 C        0.6530     2.8360     0.3950 C.3   1 <1>   0.1400 
 15 C        1.8040     1.9810    -0.1320 C.3   1 <1>  -0.1600 
 16 C        3.1630     2.5440     0.3040 C.3   1 <1>  -0.1600 
 17 C        4.3150     1.6850    -0.2290 C.3   1 <1>  -0.1600 
 18 C        5.6730     2.2500     0.2040 C.3   1 <1>  -0.1600 
 19 C        6.8230     1.3910    -0.3300 C.3   1 <1>  -0.2400 
 20 H       -3.5600     0.0840    -0.4730 H     1 <1>   0.0800 
 21 H       -2.9470     1.8870    -1.7110 H     1 <1>   0.0800 
 22 H       -5.2280     0.7820     1.5580 H     1 <1>   0.0800 
 23 H       -4.1920     4.1370    -0.8160 H     1 <1>   0.0800 
 24 H       -6.5130     0.5600    -0.6560 H     1 <1>   0.1500 
 25 H       -3.9420     3.0790     1.5960 H     1 <1>   0.0800 
 26 H       -5.6350     3.2990     1.1420 H     1 <1>   0.0800 
 27 H       -0.7370     1.2500     0.2090 H     1 <1>   0.3700 
 28 H       -5.8170     2.7350    -2.2050 H     1 <1>   0.1500 
 29 H        0.6630     2.8510     1.4720 H     1 <1>   0.0800 
 30 H        0.7380     3.8470     0.0320 H     1 <1>   0.0800 
 31 H        1.7530     1.9520    -1.2070 H     1 <1>   0.0800 
 32 H        1.6910     0.9780     0.2450 H     1 <1>   0.0800 
 33 H        3.2050     2.5730     1.3800 H     1 <1>   0.0800 
 34 H        3.2650     3.5510    -0.0630 H     1 <1>   0.0800 
 35 H        4.2670     1.6510    -1.3050 H     1 <1>   0.0800 
 36 H        4.2100     0.6790     0.1410 H     1 <1>   0.0800 
 37 H        5.7240     2.2810     1.2790 H     1 <1>   0.0800 
 38 H        5.7810     3.2550    -0.1660 H     1 <1>   0.0800 
 39 H        6.7470     0.3860     0.0460 H     1 <1>   0.0800 
 40 H        7.7660     1.8030    -0.0170 H     1 <1>   0.0800 
 41 H        6.8020     1.3620    -1.4060 H     1 <1>   0.0800 
@<TRIPOS>BOND
  1   1   2  ar  
  2   2   3  ar  
  3   2   4  1   
  4   4   5  1   
  5   4   6  1   
  6   4  20  1   
  7   5   7  1   
  8   5   8  1   
  9   5  21  1   
 10   6   9  1   
 11   6  10  1   
 12   6  22  1   
 13   7  11  2   
 14   7  12  am  
 15   8  10  1   
 16   8  13  1   
 17   8  23  1   
 18   9  13  2   
 19   9  24  1   
 20  10  25  1   
 21  10  26  1   
 22  12  14  1   
 23  12  27  1   
 24  13  28  1   
 25  14  15  1   
 26  14  29  1   
 27  14  30  1   
 28  15  16  1   
 29  15  31  1   
 30  15  32  1   
 31  16  17  1   
 32  16  33  1   
 33  16  34  1   
 34  17  18  1   
 35  17  35  1   
 36  17  36  1   
 37  18  19  1   
 38  18  37  1   
 39  18  38  1   
 40  19  39  1   
 41  19  40  1   
 42  19  41  1   
@<TRIPOS>SUBSTRUCTURE
  1 ****  12 GROUP 4 **** **** 0

# MOE 2024.06 (io_trps.svl 2023.06)
