@<TRIPOS>MOLECULE
NONAME
47 49 1 0 0 
SMALL
USER_CHARGES


@<TRIPOS>ATOM
  1 O       -0.7690     1.9690     3.4600 O.2   1 <1>  -0.5700 
  2 C       -0.1800     1.9490     2.4070 C.2   1 <1>   0.5690 
  3 N       -0.7480     1.6440     1.2030 N.am  1 <1>  -0.5470 
  4 C        1.3140     2.2800     2.3810 C.3   1 <1>   0.1710 
  5 C       -2.0490     1.2980     0.8070 C.ar  1 <1>   0.1170 
  6 N        2.0360     1.7020     1.2080 N.3   1 <1>  -0.8100 
  7 C       -2.2500     0.8700    -0.4980 C.ar  1 <1>  -0.1500 
  8 C       -3.1490     1.3690     1.6560 C.ar  1 <1>  -0.1500 
  9 C        3.3540     2.3550     1.0320 C.3   1 <1>   0.1100 
 10 C        2.2390     0.2400     1.3840 C.3   1 <1>   0.1100 
 11 C       -3.5080     0.5170    -0.9550 C.ar  1 <1>   0.0820 
 12 C       -4.4120     1.0180     1.2110 C.ar  1 <1>  -0.1500 
 13 C        4.1370     1.7740    -0.1610 C.3   1 <1>   0.2090 
 14 C        3.0010    -0.3910     0.2020 C.3   1 <1>   0.2090 
 15 O       -3.5950     0.1120    -2.2470 O.3   1 <1>  -0.3630 
 16 C       -4.5970     0.5910    -0.0920 C.ar  1 <1>  -0.1500 
 17 N        4.3040     0.2980    -0.0240 N.pl3 1 <1>  -0.8380 
 18 C       -4.8350    -0.2440    -2.8190 C.3   1 <1>   0.0400 
 19 C        5.1600    -0.3050    -0.9370 C.ar  1 <1>   0.1000 
 20 C        6.3560    -0.8520    -0.4950 C.ar  1 <1>  -0.1500 
 21 C        4.8520    -0.3780    -2.2920 C.ar  1 <1>  -0.1500 
 22 C        7.2280    -1.4600    -1.3810 C.ar  1 <1>  -0.1500 
 23 C        5.7190    -0.9840    -3.1820 C.ar  1 <1>  -0.1500 
 24 C        6.9100    -1.5270    -2.7270 C.ar  1 <1>  -0.1500 
 25 H       -0.0370     1.6240     0.4650 H     1 <1>   0.3700 
 26 H        1.7630     1.9400     3.2980 H     1 <1>   0.0800 
 27 H        1.3940     3.3520     2.3540 H     1 <1>   0.0800 
 28 H       -1.4220     0.8070    -1.1770 H     1 <1>   0.1500 
 29 H       -3.0290     1.7000     2.6710 H     1 <1>   0.1500 
 30 H        3.9470     2.2320     1.9220 H     1 <1>   0.0800 
 31 H        3.2120     3.4090     0.8670 H     1 <1>   0.0800 
 32 H        1.2870    -0.2530     1.4790 H     1 <1>   0.0800 
 33 H        2.8000     0.0530     2.2840 H     1 <1>   0.0800 
 34 H       -5.2500     1.0790     1.8840 H     1 <1>   0.1500 
 35 H        5.1080     2.2340    -0.2130 H     1 <1>   0.0800 
 36 H        3.6110     1.9960    -1.0730 H     1 <1>   0.0800 
 37 H        2.3970    -0.3240    -0.6860 H     1 <1>   0.0800 
 38 H        3.1830    -1.4310     0.4060 H     1 <1>   0.0800 
 39 H       -5.5860     0.3250    -0.4120 H     1 <1>   0.1500 
 40 H       -4.6630    -0.5180    -3.8440 H     1 <1>   0.0800 
 41 H       -5.4960     0.6030    -2.7720 H     1 <1>   0.0800 
 42 H       -5.2400    -1.0820    -2.2790 H     1 <1>   0.0800 
 43 H        6.5920    -0.7940     0.5510 H     1 <1>   0.1500 
 44 H        3.9290     0.0430    -2.6430 H     1 <1>   0.1500 
 45 H        8.1510    -1.8800    -1.0240 H     1 <1>   0.1500 
 46 H        5.4700    -1.0350    -4.2270 H     1 <1>   0.1500 
 47 H        7.5860    -1.9990    -3.4180 H     1 <1>   0.1500 
@<TRIPOS>BOND
  1   1   2  2   
  2   2   3  am  
  3   2   4  1   
  4   3   5  1   
  5   3  25  1   
  6   4   6  1   
  7   4  26  1   
  8   4  27  1   
  9   5   7  ar  
 10   5   8  ar  
 11   6   9  1   
 12   6  10  1   
 13   7  11  ar  
 14   7  28  1   
 15   8  12  ar  
 16   8  29  1   
 17   9  13  1   
 18   9  30  1   
 19   9  31  1   
 20  10  14  1   
 21  10  32  1   
 22  10  33  1   
 23  11  15  1   
 24  11  16  ar  
 25  12  16  ar  
 26  12  34  1   
 27  13  17  1   
 28  13  35  1   
 29  13  36  1   
 30  14  17  1   
 31  14  37  1   
 32  14  38  1   
 33  15  18  1   
 34  16  39  1   
 35  17  19  1   
 36  18  40  1   
 37  18  41  1   
 38  18  42  1   
 39  19  20  ar  
 40  19  21  ar  
 41  20  22  ar  
 42  20  43  1   
 43  21  23  ar  
 44  21  44  1   
 45  22  24  ar  
 46  22  45  1   
 47  23  24  ar  
 48  23  46  1   
 49  24  47  1   
@<TRIPOS>SUBSTRUCTURE
  1 ****  10 GROUP 4 **** **** 0

# MOE 2024.06 (io_trps.svl 2023.06)
