@<TRIPOS>MOLECULE
NONAME
47 48 1 0 0 
SMALL
USER_CHARGES


@<TRIPOS>ATOM
  1 O        0.8110     2.4660    -1.5710 O.2   1 <1>  -0.5700 
  2 C        1.3540     2.2810    -0.5000 C.2   1 <1>   0.5440 
  3 N        0.5720     2.2800     0.6200 N.am  1 <1>  -0.7300 
  4 C        2.7890     2.0730    -0.4150 C.ar  1 <1>   0.0860 
  5 C       -0.9160     2.4820     0.6350 C.3   1 <1>   0.2010 
  6 C        3.5240     2.4020     0.7270 C.ar  1 <1>  -0.1500 
  7 C        3.4980     1.5330    -1.4890 C.ar  1 <1>  -0.1500 
  8 C       -1.3600     3.7910     1.2990 C.2   1 <1>   0.6590 
  9 C        4.8890     2.1910     0.7920 C.ar  1 <1>  -0.1500 
 10 C        4.8630     1.3230    -1.4240 C.ar  1 <1>  -0.1500 
 11 O       -1.7730     3.7770     2.4290 O.2   1 <1>  -0.5700 
 12 O       -1.2980     4.9410     0.6310 O.3   1 <1>  -0.4300 
 13 C        5.5790     1.6460    -0.2810 C.ar  1 <1>   0.0730 
 14 C       -0.6690     5.1190    -0.6180 C.3   1 <1>   0.1200 
 15 C        6.9910     1.4260    -0.2190 C.1   1 <1>  -0.0730 
 16 C       -0.8730     6.5700    -1.0410 C.3   1 <1>  -0.2400 
 17 C        8.1660     1.2330    -0.1950 C.1   1 <1>  -0.2000 
 18 C        9.6350     0.9850    -0.1880 C.3   1 <1>   0.4800 
 19 O        9.9550     0.4080    -1.3940 O.3   1 <1>  -0.6800 
 20 C       10.4260     2.2960    -0.0750 C.3   1 <1>  -0.1600 
 21 C       10.0340    -0.0010     0.9200 C.3   1 <1>  -0.1600 
 22 C       11.9490     2.0810     0.0160 C.3   1 <1>  -0.1600 
 23 C       11.5550    -0.2250     1.0140 C.3   1 <1>  -0.1600 
 24 C       12.3050     1.1080     1.1480 C.3   1 <1>  -0.1600 
 25 H        0.9950     2.1010     1.5330 H     1 <1>   0.3700 
 26 H       -1.3610     1.6700     1.1800 H     1 <1>   0.0800 
 27 H       -1.3090     2.4440    -0.3640 H     1 <1>   0.0800 
 28 H        3.0270     2.8380     1.5740 H     1 <1>   0.1500 
 29 H        2.9650     1.2760    -2.3890 H     1 <1>   0.1500 
 30 H        5.4330     2.4520     1.6830 H     1 <1>   0.1500 
 31 H        5.3840     0.9030    -2.2670 H     1 <1>   0.1500 
 32 H       -1.1110     4.4510    -1.3370 H     1 <1>   0.0800 
 33 H        0.3800     4.9030    -0.5090 H     1 <1>   0.0800 
 34 H       -1.9230     6.7840    -1.1370 H     1 <1>   0.0800 
 35 H       -0.3990     6.7410    -1.9900 H     1 <1>   0.0800 
 36 H       -0.4360     7.2320    -0.3150 H     1 <1>   0.0800 
 37 H       10.9130     0.2440    -1.3940 H     1 <1>   0.4000 
 38 H       10.1010     2.8090     0.8130 H     1 <1>   0.0800 
 39 H       10.1890     2.9290    -0.9130 H     1 <1>   0.0800 
 40 H        9.5300    -0.9380     0.7620 H     1 <1>   0.0800 
 41 H        9.6890     0.3920     1.8600 H     1 <1>   0.0800 
 42 H       12.4320     3.0270     0.1910 H     1 <1>   0.0800 
 43 H       12.3190     1.6980    -0.9200 H     1 <1>   0.0800 
 44 H       11.9020    -0.7480     0.1390 H     1 <1>   0.0800 
 45 H       11.7720    -0.8450     1.8670 H     1 <1>   0.0800 
 46 H       12.0550     1.5600     2.0940 H     1 <1>   0.0800 
 47 H       13.3670     0.9260     1.1460 H     1 <1>   0.0800 
@<TRIPOS>BOND
  1   1   2  2   
  2   2   3  am  
  3   2   4  1   
  4   3   5  1   
  5   3  25  1   
  6   4   6  ar  
  7   4   7  ar  
  8   5   8  1   
  9   5  26  1   
 10   5  27  1   
 11   6   9  ar  
 12   6  28  1   
 13   7  10  ar  
 14   7  29  1   
 15   8  11  2   
 16   8  12  1   
 17   9  13  ar  
 18   9  30  1   
 19  10  13  ar  
 20  10  31  1   
 21  12  14  1   
 22  13  15  1   
 23  14  16  1   
 24  14  32  1   
 25  14  33  1   
 26  15  17  3   
 27  16  34  1   
 28  16  35  1   
 29  16  36  1   
 30  17  18  1   
 31  18  19  1   
 32  18  20  1   
 33  18  21  1   
 34  19  37  1   
 35  20  22  1   
 36  20  38  1   
 37  20  39  1   
 38  21  23  1   
 39  21  40  1   
 40  21  41  1   
 41  22  24  1   
 42  22  42  1   
 43  22  43  1   
 44  23  24  1   
 45  23  44  1   
 46  23  45  1   
 47  24  46  1   
 48  24  47  1   
@<TRIPOS>SUBSTRUCTURE
  1 ****   9 GROUP 4 **** **** 0

# MOE 2024.06 (io_trps.svl 2023.06)
