@<TRIPOS>MOLECULE
NONAME
47 48 1 0 0 
SMALL
USER_CHARGES


@<TRIPOS>ATOM
  1 O       -1.7830     1.2940    -0.5480 O.3   1 <1>  -0.3630 
  2 C       -0.9890     2.0120     0.2920 C.ar  1 <1>   0.0830 
  3 C       -1.3530     0.9560    -1.8520 C.3   1 <1>   0.0400 
  4 C       -1.3910     2.1260     1.6210 C.ar  1 <1>  -0.1440 
  5 C        0.1850     2.6340    -0.1260 C.ar  1 <1>  -0.1500 
  6 C       -0.6200     2.8530     2.5160 C.ar  1 <1>  -0.1500 
  7 C       -2.6700     1.4620     2.0940 C.3   1 <1>   0.4870 
  8 C        0.9440     3.3600     0.7730 C.ar  1 <1>  -0.1500 
  9 C        0.5440     3.4690     2.0920 C.ar  1 <1>  -0.1500 
 10 N       -3.8000     1.9940     1.2930 N.4   1 <1>  -0.9590 
 11 C       -3.9810     3.4580     1.4670 C.3   1 <1>   0.4860 
 12 C       -5.0700     1.2370     1.4320 C.3   1 <1>   0.3430 
 13 C       -4.8070     3.9650     0.3030 C.ar  1 <1>  -0.1430 
 14 C       -4.9420    -0.1390     0.7750 C.3   1 <1>  -0.1600 
 15 C       -6.1330     4.3310     0.4840 C.ar  1 <1>  -0.1500 
 16 C       -4.2380     4.0570    -0.9600 C.ar  1 <1>  -0.1500 
 17 C       -6.2820    -0.8880     0.7490 C.3   1 <1>  -0.1600 
 18 C       -6.8850     4.7720    -0.5910 C.ar  1 <1>  -0.1500 
 19 C       -4.9920     4.4980    -2.0330 C.ar  1 <1>  -0.1500 
 20 C       -7.3390    -0.1800    -0.1080 C.3   1 <1>  -0.2400 
 21 C       -6.3160     4.8530    -1.8490 C.ar  1 <1>  -0.1500 
 22 H       -1.2470     1.8550    -2.4340 H     1 <1>   0.0800 
 23 H       -2.0950     0.3200    -2.3000 H     1 <1>   0.0800 
 24 H       -0.4160     0.4300    -1.7880 H     1 <1>   0.0800 
 25 H        0.5260     2.5690    -1.1420 H     1 <1>   0.1500 
 26 H       -0.9080     2.9490     3.5500 H     1 <1>   0.1500 
 27 H       -2.8280     1.6520     3.1420 H     1 <1>   0.0800 
 28 H       -2.5780     0.3990     1.9450 H     1 <1>   0.0800 
 29 H        1.8520     3.8400     0.4470 H     1 <1>   0.1500 
 30 H        1.1430     4.0340     2.7870 H     1 <1>   0.1500 
 31 H       -3.4810     1.8810     0.3160 H     1 <1>   0.4500 
 32 H       -3.0260     3.9600     1.4580 H     1 <1>   0.0800 
 33 H       -4.4740     3.6710     2.4000 H     1 <1>   0.0800 
 34 H       -5.8600     1.7760     0.9350 H     1 <1>   0.0800 
 35 H       -5.3370     1.1310     2.4710 H     1 <1>   0.0800 
 36 H       -4.2350    -0.7420     1.3160 H     1 <1>   0.0800 
 37 H       -4.5920    -0.0270    -0.2370 H     1 <1>   0.0800 
 38 H       -6.5970     4.2810     1.4550 H     1 <1>   0.1500 
 39 H       -3.2060     3.7910    -1.1220 H     1 <1>   0.1500 
 40 H       -6.6580    -1.0150     1.7510 H     1 <1>   0.0800 
 41 H       -6.1190    -1.8730     0.3420 H     1 <1>   0.0800 
 42 H       -7.9150     5.0560    -0.4520 H     1 <1>   0.1500 
 43 H       -4.5510     4.5690    -3.0130 H     1 <1>   0.1500 
 44 H       -7.6200     0.7690     0.3110 H     1 <1>   0.0800 
 45 H       -8.2250    -0.7900    -0.1670 H     1 <1>   0.0800 
 46 H       -6.9750    -0.0250    -1.1090 H     1 <1>   0.0800 
 47 H       -6.9020     5.1970    -2.6840 H     1 <1>   0.1500 
@<TRIPOS>BOND
  1   1   2  1   
  2   1   3  1   
  3   2   4  ar  
  4   2   5  ar  
  5   3  22  1   
  6   3  23  1   
  7   3  24  1   
  8   4   6  ar  
  9   4   7  1   
 10   5   8  ar  
 11   5  25  1   
 12   6   9  ar  
 13   6  26  1   
 14   7  10  1   
 15   7  27  1   
 16   7  28  1   
 17   8   9  ar  
 18   8  29  1   
 19   9  30  1   
 20  10  11  1   
 21  10  12  1   
 22  10  31  1   
 23  11  13  1   
 24  11  32  1   
 25  11  33  1   
 26  12  14  1   
 27  12  34  1   
 28  12  35  1   
 29  13  15  ar  
 30  13  16  ar  
 31  14  17  1   
 32  14  36  1   
 33  14  37  1   
 34  15  18  ar  
 35  15  38  1   
 36  16  19  ar  
 37  16  39  1   
 38  17  20  1   
 39  17  40  1   
 40  17  41  1   
 41  18  21  ar  
 42  18  42  1   
 43  19  21  ar  
 44  19  43  1   
 45  20  44  1   
 46  20  45  1   
 47  20  46  1   
 48  21  47  1   
@<TRIPOS>SUBSTRUCTURE
  1 ****  10 GROUP 4 **** **** 0

# MOE 2024.06 (io_trps.svl 2023.06)
