@<TRIPOS>MOLECULE
NONAME
35 36 1 0 0 
SMALL
USER_CHARGES


@<TRIPOS>ATOM
  1 O       -0.4100     0.2900     1.1460 O.2   1 <1>  -0.5700 
  2 C       -0.3200     1.3770     0.6080 C.2   1 <1>   0.5440 
  3 N        0.9090     1.8230     0.2040 N.am  1 <1>  -0.5790 
  4 C       -1.5010     2.1890     0.3760 C.ar  1 <1>   0.0860 
  5 C        2.1860     1.1170     0.3820 C.3   1 <1>   0.0490 
  6 C       -1.4540     3.5830     0.3690 C.ar  1 <1>  -0.1500 
  7 C       -2.7420     1.6020     0.1460 C.ar  1 <1>  -0.1500 
  8 C        3.4180     1.9370     0.5740 C.3   1 <1>  -0.2000 
  9 C        3.1940     1.2050    -0.7150 C.3   1 <1>  -0.2000 
 10 C       -2.5850     4.3420     0.1270 C.ar  1 <1>  -0.1500 
 11 C       -3.8740     2.3590    -0.0950 C.ar  1 <1>  -0.1500 
 12 C       -3.8190     3.7500    -0.1130 C.ar  1 <1>  -0.1430 
 13 C       -5.0530     4.6400    -0.3800 C.3   1 <1>   0.1430 
 14 C       -6.3380     3.8340    -0.6320 C.3   1 <1>  -0.2400 
 15 C       -4.8010     5.5090    -1.6210 C.3   1 <1>  -0.2400 
 16 C       -5.3050     5.5450     0.8350 C.3   1 <1>  -0.2400 
 17 H        0.9660     2.6810    -0.3410 H     1 <1>   0.3700 
 18 H        2.0920     0.1890     0.9260 H     1 <1>   0.1000 
 19 H       -0.5250     4.0850     0.5650 H     1 <1>   0.1500 
 20 H       -2.8150     0.5280     0.1580 H     1 <1>   0.1500 
 21 H        4.1790     1.5710     1.2410 H     1 <1>   0.1000 
 22 H        3.3320     3.0090     0.5910 H     1 <1>   0.1000 
 23 H        2.9500     1.7620    -1.6020 H     1 <1>   0.1000 
 24 H        3.8020     0.3420    -0.9230 H     1 <1>   0.1000 
 25 H       -2.4920     5.4130     0.1320 H     1 <1>   0.1500 
 26 H       -4.7940     1.8320    -0.2660 H     1 <1>   0.1500 
 27 H       -6.2230     3.1980    -1.4920 H     1 <1>   0.0800 
 28 H       -7.1690     4.4920    -0.8150 H     1 <1>   0.0800 
 29 H       -6.5780     3.2270     0.2230 H     1 <1>   0.0800 
 30 H       -4.5890     4.8840    -2.4700 H     1 <1>   0.0800 
 31 H       -3.9660     6.1680    -1.4710 H     1 <1>   0.0800 
 32 H       -5.6630     6.1110    -1.8450 H     1 <1>   0.0800 
 33 H       -5.4490     4.9460     1.7160 H     1 <1>   0.0800 
 34 H       -6.1830     6.1480     0.6850 H     1 <1>   0.0800 
 35 H       -4.4740     6.2040     1.0090 H     1 <1>   0.0800 
@<TRIPOS>BOND
  1   1   2  2   
  2   2   3  am  
  3   2   4  1   
  4   3   5  1   
  5   3  17  1   
  6   4   6  ar  
  7   4   7  ar  
  8   5   8  1   
  9   5   9  1   
 10   5  18  1   
 11   6  10  ar  
 12   6  19  1   
 13   7  11  ar  
 14   7  20  1   
 15   8   9  1   
 16   8  21  1   
 17   8  22  1   
 18   9  23  1   
 19   9  24  1   
 20  10  12  ar  
 21  10  25  1   
 22  11  12  ar  
 23  11  26  1   
 24  12  13  1   
 25  13  14  1   
 26  13  15  1   
 27  13  16  1   
 28  14  27  1   
 29  14  28  1   
 30  14  29  1   
 31  15  30  1   
 32  15  31  1   
 33  15  32  1   
 34  16  33  1   
 35  16  34  1   
 36  16  35  1   
@<TRIPOS>SUBSTRUCTURE
  1 ****   4 GROUP 4 **** **** 0

# MOE 2024.06 (io_trps.svl 2023.06)
