@<TRIPOS>MOLECULE
NONAME
46 48 1 0 0 
SMALL
USER_CHARGES


@<TRIPOS>ATOM
  1 F       -1.3240     1.6600     1.3520 F     1 <1>  -0.1900 
  2 C       -2.2340     1.3220     0.4800 C.ar  1 <1>   0.1900 
  3 C       -3.4720     0.9170     0.9410 C.ar  1 <1>  -0.1500 
  4 C       -1.9290     1.3840    -0.8650 C.ar  1 <1>  -0.1500 
  5 C       -4.4500     0.5660     0.0190 C.ar  1 <1>  -0.1440 
  6 C       -2.9030     1.0240    -1.7800 C.ar  1 <1>  -0.1500 
  7 C       -4.1540     0.6170    -1.3400 C.ar  1 <1>  -0.1500 
  8 C       -5.8270     0.1360     0.4890 C.3   1 <1>   0.4870 
  9 N       -6.5580     1.3350     0.9770 N.4   1 <1>  -0.9590 
 10 C       -7.8690     0.9700     1.6280 C.3   1 <1>   0.3430 
 11 C       -6.7680     2.3540    -0.1200 C.3   1 <1>   0.3430 
 12 C       -8.6300     2.2000     2.1650 C.3   1 <1>   0.2090 
 13 C       -7.5070     3.6160     0.3720 C.3   1 <1>   0.2090 
 14 N       -8.7410     3.2720     1.1350 N.pl3 1 <1>  -0.8380 
 15 C       -9.9650     3.4120     0.4830 C.ar  1 <1>   0.1000 
 16 C      -10.8310     4.4570     0.8080 C.ar  1 <1>  -0.1430 
 17 C      -10.3420     2.5070    -0.5050 C.ar  1 <1>  -0.1500 
 18 C      -12.0420     4.5740     0.1490 C.ar  1 <1>  -0.1500 
 19 C      -10.4600     5.4710     1.8810 C.3   1 <1>  -0.0970 
 20 C      -11.5530     2.6260    -1.1630 C.ar  1 <1>  -0.1430 
 21 C      -12.4030     3.6660    -0.8300 C.ar  1 <1>  -0.1500 
 22 C      -11.9660     1.6390    -2.2410 C.3   1 <1>  -0.0970 
 23 H       -3.6410     0.8810     2.0030 H     1 <1>   0.1500 
 24 H       -0.9510     1.7030    -1.1830 H     1 <1>   0.1500 
 25 H       -2.6820     1.0590    -2.8350 H     1 <1>   0.1500 
 26 H       -4.8900     0.3380    -2.0760 H     1 <1>   0.1500 
 27 H       -5.7210    -0.5850     1.2830 H     1 <1>   0.0800 
 28 H       -6.3650    -0.3260    -0.3230 H     1 <1>   0.0800 
 29 H       -5.9660     1.7880     1.6830 H     1 <1>   0.4500 
 30 H       -7.6990     0.2850     2.4430 H     1 <1>   0.0800 
 31 H       -8.5030     0.4770     0.9100 H     1 <1>   0.0800 
 32 H       -7.3510     1.9160    -0.9130 H     1 <1>   0.0800 
 33 H       -5.8190     2.6510    -0.5360 H     1 <1>   0.0800 
 34 H       -8.1240     2.5960     3.0290 H     1 <1>   0.0800 
 35 H       -9.6170     1.9020     2.4760 H     1 <1>   0.0800 
 36 H       -7.7700     4.2290    -0.4740 H     1 <1>   0.0800 
 37 H       -6.8560     4.1980     1.0010 H     1 <1>   0.0800 
 38 H       -9.6830     1.7040    -0.7600 H     1 <1>   0.1500 
 39 H      -12.7170     5.3760     0.3930 H     1 <1>   0.1500 
 40 H      -10.3190     4.9710     2.8220 H     1 <1>   0.0800 
 41 H      -11.2290     6.2130     1.9980 H     1 <1>   0.0800 
 42 H       -9.5450     5.9660     1.6120 H     1 <1>   0.0800 
 43 H      -13.3490     3.7740    -1.3320 H     1 <1>   0.1500 
 44 H      -11.2190     0.8790    -2.3800 H     1 <1>   0.0800 
 45 H      -12.1070     2.1560    -3.1730 H     1 <1>   0.0800 
 46 H      -12.8910     1.1650    -1.9660 H     1 <1>   0.0800 
@<TRIPOS>BOND
  1   1   2  1   
  2   2   3  ar  
  3   2   4  ar  
  4   3   5  ar  
  5   3  23  1   
  6   4   6  ar  
  7   4  24  1   
  8   5   7  ar  
  9   5   8  1   
 10   6   7  ar  
 11   6  25  1   
 12   7  26  1   
 13   8   9  1   
 14   8  27  1   
 15   8  28  1   
 16   9  10  1   
 17   9  11  1   
 18   9  29  1   
 19  10  12  1   
 20  10  30  1   
 21  10  31  1   
 22  11  13  1   
 23  11  32  1   
 24  11  33  1   
 25  12  14  1   
 26  12  34  1   
 27  12  35  1   
 28  13  14  1   
 29  13  36  1   
 30  13  37  1   
 31  14  15  1   
 32  15  16  ar  
 33  15  17  ar  
 34  16  18  ar  
 35  16  19  1   
 36  17  20  ar  
 37  17  38  1   
 38  18  21  ar  
 39  18  39  1   
 40  19  40  1   
 41  19  41  1   
 42  19  42  1   
 43  20  21  ar  
 44  20  22  1   
 45  21  43  1   
 46  22  44  1   
 47  22  45  1   
 48  22  46  1   
@<TRIPOS>SUBSTRUCTURE
  1 ****  11 GROUP 4 **** **** 0

# MOE 2024.06 (io_trps.svl 2023.06)
