@<TRIPOS>MOLECULE
NONAME
53 55 1 0 0 
SMALL
USER_CHARGES


@<TRIPOS>ATOM
  1 O       -0.0840     0.6480    -0.4580 O.2   1 <1>  -0.5700 
  2 C        0.6910     1.4730    -0.0430 C.2   1 <1>   0.5690 
  3 N        0.4380     2.7760     0.2290 N.am  1 <1>  -0.6600 
  4 C        2.1290     1.1430     0.2350 C.3   1 <1>  -0.0990 
  5 C       -0.8300     3.5200     0.0330 C.3   1 <1>   0.2200 
  6 C        1.6280     3.4830     0.7310 C.3   1 <1>   0.1400 
  7 C        2.6210     2.3540     1.0520 C.3   1 <1>  -0.0190 
  8 C       -1.9420     2.9380     0.9150 C.3   1 <1>  -0.1600 
  9 C       -1.2320     3.5270    -1.4470 C.3   1 <1>  -0.1600 
 10 C        4.0750     2.7420     0.8150 C.2   1 <1>   0.5690 
 11 C       -3.2610     3.6980     0.7090 C.3   1 <1>  -0.1600 
 12 C       -2.5500     4.2890    -1.6550 C.3   1 <1>  -0.1600 
 13 O        4.3930     3.9060     0.7960 O.2   1 <1>  -0.5700 
 14 N        5.0130     1.7700     0.6510 N.am  1 <1>  -0.7300 
 15 C       -3.6660     3.7130    -0.7720 C.3   1 <1>  -0.1600 
 16 C        6.4830     1.9930     0.5560 C.3   1 <1>   0.1400 
 17 C        6.8590     2.9310    -0.6140 C.3   1 <1>   0.3430 
 18 N        7.7600     4.0610    -0.2010 N.4   1 <1>  -0.9590 
 19 C        7.0100     5.0850     0.6150 C.3   1 <1>   0.3430 
 20 C        8.3670     4.7340    -1.4020 C.3   1 <1>   0.3430 
 21 C        7.8860     6.3110     0.9350 C.3   1 <1>   0.1200 
 22 C        9.2010     5.9640    -0.9960 C.3   1 <1>   0.1200 
 23 O        8.4270     6.8480    -0.2380 O.3   1 <1>  -0.5600 
 24 H        2.6380     1.0600    -0.7070 H     1 <1>   0.0800 
 25 H        2.2040     0.2230     0.7850 H     1 <1>   0.0800 
 26 H       -0.6720     4.5420     0.3350 H     1 <1>   0.0800 
 27 H        1.3940     4.0600     1.6090 H     1 <1>   0.0800 
 28 H        2.0010     4.1320    -0.0440 H     1 <1>   0.0800 
 29 H        2.5110     2.1250     2.0970 H     1 <1>   0.0800 
 30 H       -1.6510     2.9960     1.9480 H     1 <1>   0.0800 
 31 H       -2.0960     1.9030     0.6620 H     1 <1>   0.0800 
 32 H       -1.3610     2.5150    -1.7900 H     1 <1>   0.0800 
 33 H       -0.4550     3.9880    -2.0290 H     1 <1>   0.0800 
 34 H       -3.1500     4.7090     1.0600 H     1 <1>   0.0800 
 35 H       -4.0380     3.2300     1.2900 H     1 <1>   0.0800 
 36 H       -2.8410     4.2250    -2.6890 H     1 <1>   0.0800 
 37 H       -2.4050     5.3280    -1.4160 H     1 <1>   0.0800 
 38 H        4.7170     0.7910     0.7340 H     1 <1>   0.3700 
 39 H       -4.5620     4.2960    -0.8950 H     1 <1>   0.0800 
 40 H       -3.8830     2.7060    -1.0880 H     1 <1>   0.0800 
 41 H        6.9670     1.0420     0.4110 H     1 <1>   0.0800 
 42 H        6.8240     2.4010     1.4920 H     1 <1>   0.0800 
 43 H        5.9560     3.3370    -1.0400 H     1 <1>   0.0800 
 44 H        7.3480     2.3430    -1.3730 H     1 <1>   0.0800 
 45 H        8.5290     3.7000     0.3760 H     1 <1>   0.4500 
 46 H        6.6580     4.6450     1.5340 H     1 <1>   0.0800 
 47 H        6.1420     5.4200     0.0690 H     1 <1>   0.0800 
 48 H        7.5860     5.0610    -2.0700 H     1 <1>   0.0800 
 49 H        8.9940     4.0410    -1.9380 H     1 <1>   0.0800 
 50 H        8.6900     6.0520     1.6020 H     1 <1>   0.0800 
 51 H        7.2900     7.0780     1.4000 H     1 <1>   0.0800 
 52 H        9.5330     6.4930    -1.8730 H     1 <1>   0.0800 
 53 H       10.0650     5.6790    -0.4210 H     1 <1>   0.0800 
@<TRIPOS>BOND
  1   1   2  2   
  2   2   3  am  
  3   2   4  1   
  4   3   5  1   
  5   3   6  1   
  6   4   7  1   
  7   4  24  1   
  8   4  25  1   
  9   5   8  1   
 10   5   9  1   
 11   5  26  1   
 12   6   7  1   
 13   6  27  1   
 14   6  28  1   
 15   7  10  1   
 16   7  29  1   
 17   8  11  1   
 18   8  30  1   
 19   8  31  1   
 20   9  12  1   
 21   9  32  1   
 22   9  33  1   
 23  10  13  2   
 24  10  14  am  
 25  11  15  1   
 26  11  34  1   
 27  11  35  1   
 28  12  15  1   
 29  12  36  1   
 30  12  37  1   
 31  14  16  1   
 32  14  38  1   
 33  15  39  1   
 34  15  40  1   
 35  16  17  1   
 36  16  41  1   
 37  16  42  1   
 38  17  18  1   
 39  17  43  1   
 40  17  44  1   
 41  18  19  1   
 42  18  20  1   
 43  18  45  1   
 44  19  21  1   
 45  19  46  1   
 46  19  47  1   
 47  20  22  1   
 48  20  48  1   
 49  20  49  1   
 50  21  23  1   
 51  21  50  1   
 52  21  51  1   
 53  22  23  1   
 54  22  52  1   
 55  22  53  1   
@<TRIPOS>SUBSTRUCTURE
  1 ****  10 GROUP 4 **** **** 0

# MOE 2024.06 (io_trps.svl 2023.06)
