@<TRIPOS>MOLECULE
NONAME
44 45 1 0 0 
SMALL
USER_CHARGES


@<TRIPOS>ATOM
  1 O       -1.9370    -2.5850     0.8700 O.3   1 <1>  -0.3630 
  2 C       -2.6850    -3.5550     0.2740 C.ar  1 <1>   0.0830 
  3 C       -2.5110    -1.7470     1.8590 C.3   1 <1>   0.0400 
  4 C       -2.1940    -4.1210    -0.9000 C.ar  1 <1>  -0.1440 
  5 C       -3.8980    -3.9980     0.7950 C.ar  1 <1>  -0.1500 
  6 C       -2.9140    -5.1180    -1.5420 C.ar  1 <1>  -0.1500 
  7 C       -0.8810    -3.6480    -1.4770 C.3   1 <1>   0.4870 
  8 C       -4.6080    -4.9930     0.1490 C.ar  1 <1>  -0.1500 
  9 C       -4.1180    -5.5520    -1.0170 C.ar  1 <1>  -0.1500 
 10 N        0.1450    -3.9220    -0.4450 N.4   1 <1>  -0.9060 
 11 C        1.5010    -3.3510    -0.7500 C.3   1 <1>   0.3430 
 12 C        2.5520    -3.5460     0.3900 C.3   1 <1>   0.4230 
 13 N        3.9370    -3.0750     0.0730 N.4   1 <1>  -0.9590 
 14 C        2.7620    -5.0110     0.7690 C.3   1 <1>  -0.1600 
 15 C        4.8260    -3.7370     1.0740 C.3   1 <1>   0.3430 
 16 C        4.1120    -1.5930     0.0730 C.3   1 <1>   0.3430 
 17 C        4.1730    -5.0840     1.3570 C.3   1 <1>  -0.1600 
 18 C        5.4560    -1.2430    -0.5550 C.3   1 <1>  -0.2400 
 19 H       -1.8100    -0.9660     2.0970 H     1 <1>   0.0800 
 20 H       -2.7190    -2.3280     2.7400 H     1 <1>   0.0800 
 21 H       -3.4160    -1.3120     1.4700 H     1 <1>   0.0800 
 22 H       -4.3080    -3.5900     1.7000 H     1 <1>   0.1500 
 23 H       -2.5600    -5.5680    -2.4550 H     1 <1>   0.1500 
 24 H       -0.9440    -2.5910    -1.6810 H     1 <1>   0.0800 
 25 H       -0.6600    -4.1740    -2.3920 H     1 <1>   0.0800 
 26 H       -5.5470    -5.3350     0.5530 H     1 <1>   0.1500 
 27 H       -4.6800    -6.3260    -1.5160 H     1 <1>   0.1500 
 28 H        0.1420    -4.9390    -0.2860 H     1 <1>   0.4500 
 29 H       -0.2840    -3.5060     0.4040 H     1 <1>   0.4500 
 30 H        1.3970    -2.2950    -0.9400 H     1 <1>   0.0800 
 31 H        1.8780    -3.8170    -1.6460 H     1 <1>   0.0800 
 32 H        2.2140    -3.0150     1.2660 H     1 <1>   0.0800 
 33 H        4.2310    -3.4390    -0.8440 H     1 <1>   0.4500 
 34 H        2.7050    -5.6400    -0.1030 H     1 <1>   0.0800 
 35 H        2.0250    -5.3410     1.4820 H     1 <1>   0.0800 
 36 H        4.8580    -3.1560     1.9830 H     1 <1>   0.0800 
 37 H        5.8300    -3.8550     0.6970 H     1 <1>   0.0800 
 38 H        4.0660    -1.2080     1.0800 H     1 <1>   0.0800 
 39 H        3.3310    -1.1250    -0.5040 H     1 <1>   0.0800 
 40 H        4.7400    -5.8780     0.9000 H     1 <1>   0.0800 
 41 H        4.1500    -5.2580     2.4200 H     1 <1>   0.0800 
 42 H        6.2760    -1.6180     0.0320 H     1 <1>   0.0800 
 43 H        5.5550    -0.1730    -0.5990 H     1 <1>   0.0800 
 44 H        5.5260    -1.6210    -1.5590 H     1 <1>   0.0800 
@<TRIPOS>BOND
  1   1   2  1   
  2   1   3  1   
  3   2   4  ar  
  4   2   5  ar  
  5   3  19  1   
  6   3  20  1   
  7   3  21  1   
  8   4   6  ar  
  9   4   7  1   
 10   5   8  ar  
 11   5  22  1   
 12   6   9  ar  
 13   6  23  1   
 14   7  10  1   
 15   7  24  1   
 16   7  25  1   
 17   8   9  ar  
 18   8  26  1   
 19   9  27  1   
 20  10  11  1   
 21  10  28  1   
 22  10  29  1   
 23  11  12  1   
 24  11  30  1   
 25  11  31  1   
 26  12  13  1   
 27  12  14  1   
 28  12  32  1   
 29  13  15  1   
 30  13  16  1   
 31  13  33  1   
 32  14  17  1   
 33  14  34  1   
 34  14  35  1   
 35  15  17  1   
 36  15  36  1   
 37  15  37  1   
 38  16  18  1   
 39  16  38  1   
 40  16  39  1   
 41  17  40  1   
 42  17  41  1   
 43  18  42  1   
 44  18  43  1   
 45  18  44  1   
@<TRIPOS>SUBSTRUCTURE
  1 ****  10 GROUP 4 **** **** 0

# MOE 2024.06 (io_trps.svl 2023.06)
