@<TRIPOS>MOLECULE
NONAME
45 47 1 0 0 
SMALL
USER_CHARGES


@<TRIPOS>ATOM
  1 P        0.9300     0.5930     0.1970 P.3   1 <1>   0.9780 
  2 O        1.7960     0.1520     1.2890 O.2   1 <1>  -0.7000 
  3 C        0.3590     2.2790     0.3230 C.ar  1 <1>  -0.1390 
  4 C       -0.4860    -0.4610    -0.0560 C.ar  1 <1>  -0.1390 
  5 C        1.8280     0.4560    -1.3230 C.3   1 <1>  -0.1600 
  6 C        0.0080     3.0580    -0.7780 C.ar  1 <1>  -0.1500 
  7 C        0.2310     2.8720     1.5740 C.ar  1 <1>  -0.1500 
  8 C       -1.4570    -0.1960    -1.0170 C.ar  1 <1>  -0.1500 
  9 C       -0.6520    -1.6160     0.7030 C.ar  1 <1>  -0.1500 
 10 C        2.4420    -0.9340    -1.4840 C.3   1 <1>   0.3430 
 11 C       -0.4390     4.3600    -0.6380 C.ar  1 <1>  -0.1500 
 12 C       -0.2150     4.1730     1.7290 C.ar  1 <1>  -0.1500 
 13 C       -2.5290    -1.0460    -1.2250 C.ar  1 <1>  -0.1500 
 14 C       -1.7190    -2.4740     0.5050 C.ar  1 <1>  -0.1500 
 15 N        3.4330    -1.2210    -0.4070 N.4   1 <1>  -0.9590 
 16 C       -0.5510     4.9210     0.6190 C.ar  1 <1>  -0.1500 
 17 C       -2.6600    -2.1910    -0.4650 C.ar  1 <1>  -0.1500 
 18 C        4.7320    -0.4770    -0.5570 C.3   1 <1>   0.3430 
 19 C        3.6810    -2.6940    -0.2460 C.3   1 <1>   0.3430 
 20 C        5.7250    -0.8590     0.5570 C.3   1 <1>   0.1200 
 21 C        4.7280    -2.9700     0.8500 C.3   1 <1>   0.1200 
 22 O        5.8970    -2.2460     0.5960 O.3   1 <1>  -0.5600 
 23 H        2.6040     1.1940    -1.3870 H     1 <1>   0.0800 
 24 H        1.1810     0.6170    -2.1630 H     1 <1>   0.0800 
 25 H        0.0740     2.6630    -1.7750 H     1 <1>   0.1500 
 26 H        0.4850     2.3070     2.4570 H     1 <1>   0.1500 
 27 H       -1.3960     0.6930    -1.6210 H     1 <1>   0.1500 
 28 H        0.0600    -1.8520     1.4760 H     1 <1>   0.1500 
 29 H        2.9200    -1.0160    -2.4480 H     1 <1>   0.0800 
 30 H        1.6490    -1.6660    -1.4440 H     1 <1>   0.0800 
 31 H       -0.7030     4.9400    -1.5050 H     1 <1>   0.1500 
 32 H       -0.3020     4.6010     2.7130 H     1 <1>   0.1500 
 33 H       -3.2670    -0.8150    -1.9750 H     1 <1>   0.1500 
 34 H       -1.8240    -3.3590     1.1100 H     1 <1>   0.1500 
 35 H        3.0140    -0.8900     0.4930 H     1 <1>   0.4500 
 36 H       -0.8980     5.9340     0.7330 H     1 <1>   0.1500 
 37 H       -3.4950    -2.8530    -0.6220 H     1 <1>   0.1500 
 38 H        4.5560     0.5850    -0.5190 H     1 <1>   0.0800 
 39 H        5.1810    -0.7100    -1.5080 H     1 <1>   0.0800 
 40 H        4.0420    -3.1080    -1.1730 H     1 <1>   0.0800 
 41 H        2.7620    -3.1960     0.0090 H     1 <1>   0.0800 
 42 H        5.3760    -0.5240     1.5190 H     1 <1>   0.0800 
 43 H        6.6870    -0.4140     0.3670 H     1 <1>   0.0800 
 44 H        4.9860    -4.0140     0.8640 H     1 <1>   0.0800 
 45 H        4.3540    -2.6960     1.8220 H     1 <1>   0.0800 
@<TRIPOS>BOND
  1   1   2  2   
  2   1   3  1   
  3   1   4  1   
  4   1   5  1   
  5   3   6  ar  
  6   3   7  ar  
  7   4   8  ar  
  8   4   9  ar  
  9   5  10  1   
 10   5  23  1   
 11   5  24  1   
 12   6  11  ar  
 13   6  25  1   
 14   7  12  ar  
 15   7  26  1   
 16   8  13  ar  
 17   8  27  1   
 18   9  14  ar  
 19   9  28  1   
 20  10  15  1   
 21  10  29  1   
 22  10  30  1   
 23  11  16  ar  
 24  11  31  1   
 25  12  16  ar  
 26  12  32  1   
 27  13  17  ar  
 28  13  33  1   
 29  14  17  ar  
 30  14  34  1   
 31  15  18  1   
 32  15  19  1   
 33  15  35  1   
 34  16  36  1   
 35  17  37  1   
 36  18  20  1   
 37  18  38  1   
 38  18  39  1   
 39  19  21  1   
 40  19  40  1   
 41  19  41  1   
 42  20  22  1   
 43  20  42  1   
 44  20  43  1   
 45  21  22  1   
 46  21  44  1   
 47  21  45  1   
@<TRIPOS>SUBSTRUCTURE
  1 ****   1 GROUP 4 **** **** 0

# MOE 2024.06 (io_trps.svl 2023.06)
