@<TRIPOS>MOLECULE
NONAME
50 51 1 0 0 
SMALL
USER_CHARGES


@<TRIPOS>ATOM
  1 O       -0.4430     0.3480     1.1000 O.2   1 <1>  -0.5700 
  2 C       -1.2470     0.7460     0.2930 C.2   1 <1>   0.6590 
  3 O       -2.0860    -0.0950    -0.3020 O.3   1 <1>  -0.4300 
  4 C       -1.2990     2.1840    -0.1960 C.3   1 <1>   0.0420 
  5 C       -2.1760    -1.4600     0.0570 C.3   1 <1>   0.0400 
  6 C        0.0890     2.7840     0.0250 C.2   1 <1>   0.5690 
  7 C       -2.4540     3.0400     0.4180 C.3   1 <1>  -0.0800 
  8 O        0.2750     3.4900     0.9890 O.2   1 <1>  -0.5700 
  9 N        1.1400     2.5250    -0.8300 N.am  1 <1>  -0.6600 
 10 C       -3.8100     2.2940     0.3820 C.3   1 <1>  -0.1600 
 11 C       -2.5190     4.4190    -0.2880 C.3   1 <1>  -0.1600 
 12 C        2.4340     3.2340    -0.6020 C.3   1 <1>   0.1400 
 13 C        1.3520     1.2070    -1.4980 C.3   1 <1>   0.1400 
 14 C       -5.0300     3.0660     0.9110 C.3   1 <1>  -0.1600 
 15 C       -3.3210     5.4660     0.4980 C.3   1 <1>  -0.1600 
 16 C        3.3030     2.3850     0.3440 C.3   1 <1>   0.3430 
 17 C        2.2410     0.3180    -0.5960 C.3   1 <1>   0.3430 
 18 C       -5.5050     4.1620    -0.0500 C.3   1 <1>  -0.1600 
 19 C       -4.8150     5.5190     0.1500 C.3   1 <1>  -0.1600 
 20 N        3.5360     0.9930    -0.2010 N.4   1 <1>  -0.9590 
 21 C        4.2640     0.1630     0.8050 C.3   1 <1>   0.2630 
 22 H       -1.4630     2.1470    -1.2550 H     1 <1>   0.0800 
 23 H       -2.9420    -1.9200    -0.5420 H     1 <1>   0.0800 
 24 H       -2.4340    -1.5280     1.1000 H     1 <1>   0.0800 
 25 H       -1.2280    -1.9350    -0.1230 H     1 <1>   0.0800 
 26 H       -2.2150     3.2050     1.4560 H     1 <1>   0.0800 
 27 H       -3.7300     1.4140     0.9950 H     1 <1>   0.0800 
 28 H       -4.0150     1.9650    -0.6220 H     1 <1>   0.0800 
 29 H       -2.9090     4.3190    -1.2860 H     1 <1>   0.0800 
 30 H       -1.5240     4.8150    -0.3810 H     1 <1>   0.0800 
 31 H        2.2600     4.2020    -0.1610 H     1 <1>   0.0800 
 32 H        2.9380     3.3910    -1.5390 H     1 <1>   0.0800 
 33 H        1.8330     1.3610    -2.4490 H     1 <1>   0.0800 
 34 H        0.4180     0.7130    -1.6920 H     1 <1>   0.0800 
 35 H       -4.8330     3.4710     1.8890 H     1 <1>   0.0800 
 36 H       -5.8350     2.3590     1.0200 H     1 <1>   0.0800 
 37 H       -2.9070     6.4390     0.2970 H     1 <1>   0.0800 
 38 H       -3.2010     5.2960     1.5540 H     1 <1>   0.0800 
 39 H        2.7940     2.3240     1.2930 H     1 <1>   0.0800 
 40 H        4.2450     2.8820     0.5030 H     1 <1>   0.0800 
 41 H        2.4520    -0.6070    -1.1080 H     1 <1>   0.0800 
 42 H        1.6830     0.0770     0.2930 H     1 <1>   0.0800 
 43 H       -6.5630     4.3090     0.0860 H     1 <1>   0.0800 
 44 H       -5.3670     3.8350    -1.0670 H     1 <1>   0.0800 
 45 H       -4.9450     6.0960    -0.7490 H     1 <1>   0.0800 
 46 H       -5.3190     6.0500     0.9390 H     1 <1>   0.0800 
 47 H        4.1180     1.0810    -1.0450 H     1 <1>   0.4500 
 48 H        3.6700     0.0570     1.6990 H     1 <1>   0.0800 
 49 H        5.2010     0.6260     1.0670 H     1 <1>   0.0800 
 50 H        4.4650    -0.8190     0.4080 H     1 <1>   0.0800 
@<TRIPOS>BOND
  1   1   2  2   
  2   2   3  1   
  3   2   4  1   
  4   3   5  1   
  5   4   6  1   
  6   4   7  1   
  7   4  22  1   
  8   5  23  1   
  9   5  24  1   
 10   5  25  1   
 11   6   8  2   
 12   6   9  am  
 13   7  10  1   
 14   7  11  1   
 15   7  26  1   
 16   9  12  1   
 17   9  13  1   
 18  10  14  1   
 19  10  27  1   
 20  10  28  1   
 21  11  15  1   
 22  11  29  1   
 23  11  30  1   
 24  12  16  1   
 25  12  31  1   
 26  12  32  1   
 27  13  17  1   
 28  13  33  1   
 29  13  34  1   
 30  14  18  1   
 31  14  35  1   
 32  14  36  1   
 33  15  19  1   
 34  15  37  1   
 35  15  38  1   
 36  16  20  1   
 37  16  39  1   
 38  16  40  1   
 39  17  20  1   
 40  17  41  1   
 41  17  42  1   
 42  18  19  1   
 43  18  43  1   
 44  18  44  1   
 45  19  45  1   
 46  19  46  1   
 47  20  21  1   
 48  20  47  1   
 49  21  48  1   
 50  21  49  1   
 51  21  50  1   
@<TRIPOS>SUBSTRUCTURE
  1 ****   4 GROUP 4 **** **** 0

# MOE 2024.06 (io_trps.svl 2023.06)
