@<TRIPOS>MOLECULE
NONAME
49 49 1 0 0 
SMALL
USER_CHARGES


@<TRIPOS>ATOM
  1 O        0.9550    -0.6090     0.9960 O.2   1 <1>  -0.5700 
  2 C        1.3920    -0.3540    -0.1090 C.2   1 <1>   0.6160 
  3 N        1.5330    -1.3470    -1.0430 N.am  1 <1>  -0.7300 
  4 C        1.7880     1.0020    -0.4570 C.2   1 <1>   0.1230 
  5 C        1.1410    -2.7710    -0.9590 C.3   1 <1>   0.2200 
  6 N        3.1300     1.2130    -0.8290 N.am  1 <1>  -0.5390 
  7 C        0.9490     2.0730    -0.4600 C.2   1 <1>  -0.1780 
  8 C        2.0780    -3.5330    -0.0130 C.3   1 <1>  -0.1600 
  9 C       -0.3280    -2.9070    -0.5560 C.3   1 <1>  -0.2400 
 10 C        4.2760     0.7390    -0.2730 C.2   1 <1>   0.5690 
 11 C       -0.4600     2.1350    -0.1820 C.ar  1 <1>   0.0280 
 12 C        3.5150    -3.6290    -0.5490 C.3   1 <1>  -0.2400 
 13 O        5.3240     0.9220    -0.8340 O.2   1 <1>  -0.5700 
 14 C        4.2700     0.0240     1.0590 C.3   1 <1>  -0.1790 
 15 C       -1.3400     1.0980    -0.4950 C.ar  1 <1>  -0.1500 
 16 C       -0.9960     3.2720     0.4230 C.ar  1 <1>  -0.1500 
 17 C       -2.6860     1.1770    -0.1920 C.ar  1 <1>   0.0820 
 18 C       -2.3450     3.3710     0.7150 C.ar  1 <1>  -0.1500 
 19 O       -3.4690     0.1150    -0.4890 O.3   1 <1>  -0.3630 
 20 C       -3.2010     2.3290     0.4040 C.ar  1 <1>   0.0820 
 21 C       -3.8090    -0.7150     0.6000 C.3   1 <1>   0.0400 
 22 O       -4.5160     2.4660     0.7090 O.3   1 <1>  -0.2320 
 23 C       -5.5190     2.2610    -0.1400 C.2   1 <1>   0.6590 
 24 O       -6.5990     1.9190     0.2610 O.2   1 <1>  -0.5700 
 25 C       -5.3010     2.5420    -1.6140 C.3   1 <1>  -0.1790 
 26 H        2.0450    -1.1090    -1.8920 H     1 <1>   0.3700 
 27 H        1.2420    -3.1960    -1.9440 H     1 <1>   0.0800 
 28 H        3.3100     1.8500    -1.6060 H     1 <1>   0.3700 
 29 H        1.3720     3.0360    -0.6820 H     1 <1>   0.1500 
 30 H        2.0740    -3.0620     0.9550 H     1 <1>   0.0800 
 31 H        1.7000    -4.5320     0.1170 H     1 <1>   0.0800 
 32 H       -0.4820    -2.5950     0.4610 H     1 <1>   0.0800 
 33 H       -0.6330    -3.9340    -0.6370 H     1 <1>   0.0800 
 34 H       -0.9500    -2.3190    -1.2070 H     1 <1>   0.0800 
 35 H        3.9350    -2.6520    -0.7060 H     1 <1>   0.0800 
 36 H        3.5320    -4.1630    -1.4820 H     1 <1>   0.0800 
 37 H        4.1340    -4.1550     0.1560 H     1 <1>   0.0800 
 38 H        3.6230     0.5330     1.7490 H     1 <1>   0.0800 
 39 H        5.2640     0.0080     1.4650 H     1 <1>   0.0800 
 40 H        3.9310    -0.9850     0.9370 H     1 <1>   0.0800 
 41 H       -0.9860     0.2080    -0.9780 H     1 <1>   0.1500 
 42 H       -0.3440     4.0890     0.6770 H     1 <1>   0.1500 
 43 H       -2.7360     4.2550     1.1880 H     1 <1>   0.1500 
 44 H       -2.9040    -1.0740     1.0590 H     1 <1>   0.0800 
 45 H       -4.3880    -1.5410     0.2270 H     1 <1>   0.0800 
 46 H       -4.3900    -0.1510     1.3080 H     1 <1>   0.0800 
 47 H       -4.7330     3.4440    -1.7360 H     1 <1>   0.0800 
 48 H       -6.2520     2.6600    -2.0980 H     1 <1>   0.0800 
 49 H       -4.7810     1.7240    -2.0730 H     1 <1>   0.0800 
@<TRIPOS>BOND
  1   1   2  2   
  2   2   3  am  
  3   2   4  1   
  4   3   5  1   
  5   3  26  1   
  6   4   6  1   
  7   4   7  2   
  8   5   8  1   
  9   5   9  1   
 10   5  27  1   
 11   6  10  am  
 12   6  28  1   
 13   7  11  1   
 14   7  29  1   
 15   8  12  1   
 16   8  30  1   
 17   8  31  1   
 18   9  32  1   
 19   9  33  1   
 20   9  34  1   
 21  10  13  2   
 22  10  14  1   
 23  11  15  ar  
 24  11  16  ar  
 25  12  35  1   
 26  12  36  1   
 27  12  37  1   
 28  14  38  1   
 29  14  39  1   
 30  14  40  1   
 31  15  17  ar  
 32  15  41  1   
 33  16  18  ar  
 34  16  42  1   
 35  17  19  1   
 36  17  20  ar  
 37  18  20  ar  
 38  18  43  1   
 39  19  21  1   
 40  20  22  1   
 41  21  44  1   
 42  21  45  1   
 43  21  46  1   
 44  22  23  1   
 45  23  24  2   
 46  23  25  1   
 47  25  47  1   
 48  25  48  1   
 49  25  49  1   
@<TRIPOS>SUBSTRUCTURE
  1 ****  15 GROUP 4 **** **** 0

# MOE 2024.06 (io_trps.svl 2023.06)
