@<TRIPOS>MOLECULE
NONAME
41 42 1 0 0 
SMALL
USER_CHARGES


@<TRIPOS>ATOM
  1 O        0.3200     1.5400     2.0900 O.2   1 <1>  -0.5700 
  2 C        0.5990     2.1060     1.0480 C.2   1 <1>   0.5440 
  3 N        1.5720     1.5510     0.2300 N.am  1 <1>  -0.6600 
  4 C       -0.1590     3.3000     0.7440 C.ar  1 <1>   0.0860 
  5 C        1.9100     0.0980     0.4160 C.3   1 <1>   0.2200 
  6 C        2.4900     2.2560    -0.7290 C.3   1 <1>   0.2200 
  7 C       -1.0600     3.3620    -0.3250 C.ar  1 <1>   0.0820 
  8 C       -0.0350     4.4340     1.5470 C.ar  1 <1>  -0.1500 
  9 C        3.3620    -0.2340     0.0240 C.3   1 <1>  -0.1600 
 10 C        0.9240    -0.7510    -0.3840 C.3   1 <1>  -0.2400 
 11 C        3.9220     2.2260    -0.1610 C.3   1 <1>  -0.1600 
 12 C        2.1300     3.6910    -1.1160 C.3   1 <1>  -0.2400 
 13 O       -1.2460     2.3000    -1.1400 O.3   1 <1>  -0.2330 
 14 C       -1.7690     4.5220    -0.6000 C.ar  1 <1>  -0.1500 
 15 C       -0.7480     5.5880     1.2830 C.ar  1 <1>  -0.1500 
 16 C        4.3150     0.8790     0.4730 C.3   1 <1>  -0.1600 
 17 C       -2.0390     1.2650    -0.8680 C.2   1 <1>   0.6590 
 18 C       -1.6140     5.6360     0.2040 C.ar  1 <1>  -0.1500 
 19 O       -2.1460     0.3620    -1.6520 O.2   1 <1>  -0.5700 
 20 C       -2.8300     1.2480     0.4250 C.3   1 <1>  -0.1790 
 21 H        1.8070    -0.1540     1.4590 H     1 <1>   0.0800 
 22 H        2.4830     1.6860    -1.6430 H     1 <1>   0.0800 
 23 H        0.6330     4.3970     2.3910 H     1 <1>   0.1500 
 24 H        3.4390    -0.3680    -1.0410 H     1 <1>   0.0800 
 25 H        3.6450    -1.1630     0.4840 H     1 <1>   0.0800 
 26 H        0.9340    -0.4700    -1.4220 H     1 <1>   0.0800 
 27 H       -0.0670    -0.6220     0.0080 H     1 <1>   0.0800 
 28 H        1.1810    -1.7910    -0.3020 H     1 <1>   0.0800 
 29 H        4.0340     3.0010     0.5770 H     1 <1>   0.0800 
 30 H        4.6050     2.4470    -0.9620 H     1 <1>   0.0800 
 31 H        2.1090     4.3350    -0.2570 H     1 <1>   0.0800 
 32 H        1.1920     3.7180    -1.6360 H     1 <1>   0.0800 
 33 H        2.8740     4.0740    -1.7910 H     1 <1>   0.0800 
 34 H       -2.4390     4.5510    -1.4410 H     1 <1>   0.1500 
 35 H       -0.6310     6.4520     1.9160 H     1 <1>   0.1500 
 36 H        5.3300     0.6300     0.2180 H     1 <1>   0.0800 
 37 H        4.2540     0.9670     1.5450 H     1 <1>   0.0800 
 38 H       -2.1660     6.5370    -0.0060 H     1 <1>   0.1500 
 39 H       -2.1670     1.1570     1.2640 H     1 <1>   0.0800 
 40 H       -3.4970     0.4060     0.4250 H     1 <1>   0.0800 
 41 H       -3.4090     2.1470     0.5200 H     1 <1>   0.0800 
@<TRIPOS>BOND
  1   1   2  2   
  2   2   3  am  
  3   2   4  1   
  4   3   5  1   
  5   3   6  1   
  6   4   7  ar  
  7   4   8  ar  
  8   5   9  1   
  9   5  10  1   
 10   5  21  1   
 11   6  11  1   
 12   6  12  1   
 13   6  22  1   
 14   7  13  1   
 15   7  14  ar  
 16   8  15  ar  
 17   8  23  1   
 18   9  16  1   
 19   9  24  1   
 20   9  25  1   
 21  10  26  1   
 22  10  27  1   
 23  10  28  1   
 24  11  16  1   
 25  11  29  1   
 26  11  30  1   
 27  12  31  1   
 28  12  32  1   
 29  12  33  1   
 30  13  17  1   
 31  14  18  ar  
 32  14  34  1   
 33  15  18  ar  
 34  15  35  1   
 35  16  36  1   
 36  16  37  1   
 37  17  19  2   
 38  17  20  1   
 39  18  38  1   
 40  20  39  1   
 41  20  40  1   
 42  20  41  1   
@<TRIPOS>SUBSTRUCTURE
  1 ****   2 GROUP 4 **** **** 0

# MOE 2024.06 (io_trps.svl 2023.06)
