@<TRIPOS>MOLECULE
NONAME
32 32 1 0 0 
SMALL
USER_CHARGES


@<TRIPOS>ATOM
  1 BR       2.0290     2.1780     2.8520 Br    1 <1>  -0.1110 
  2 C        1.0500     2.8820     1.3440 C.ar  1 <1>   0.1110 
  3 C        1.6790     2.9890     0.1110 C.ar  1 <1>   0.0830 
  4 C       -0.2630     3.2600     1.5440 C.ar  1 <1>  -0.1500 
  5 O        2.9740     2.5890     0.0120 O.3   1 <1>  -0.3630 
  6 C        0.9430     3.5000    -0.9550 C.ar  1 <1>  -0.1500 
  7 C       -0.9870     3.7680     0.4760 C.ar  1 <1>  -0.1430 
  8 C        3.6850     2.6660    -1.2170 C.3   1 <1>   0.1810 
  9 C       -0.3770     3.8830    -0.7660 C.ar  1 <1>  -0.1500 
 10 C       -2.4350     4.1900     0.6640 C.3   1 <1>  -0.0160 
 11 C        5.1120     2.1520    -1.0620 C.2   1 <1>   0.5690 
 12 C       -3.3750     3.0130     0.3940 C.3   1 <1>  -0.2400 
 13 O        5.8380     2.1670    -2.0280 O.2   1 <1>  -0.5700 
 14 N        5.5280     1.6910     0.1480 N.am  1 <1>  -0.7300 
 15 C        6.8720     1.1800     0.4690 C.3   1 <1>   0.1400 
 16 C        7.3640     1.8720     1.7340 C.3   1 <1>  -0.2400 
 17 H       -0.7070     3.1560     2.5170 H     1 <1>   0.1500 
 18 H        1.3710     3.6080    -1.9330 H     1 <1>   0.1500 
 19 H        3.7120     3.6920    -1.5330 H     1 <1>   0.0800 
 20 H        3.1720     2.0670    -1.9460 H     1 <1>   0.0800 
 21 H       -0.9360     4.2740    -1.5990 H     1 <1>   0.1500 
 22 H       -2.6690     5.0000    -0.0050 H     1 <1>   0.0800 
 23 H       -2.5830     4.5460     1.6690 H     1 <1>   0.0800 
 24 H       -3.2490     2.6610    -0.6140 H     1 <1>   0.0800 
 25 H       -4.3970     3.3170     0.5290 H     1 <1>   0.0800 
 26 H       -3.1620     2.2050     1.0710 H     1 <1>   0.0800 
 27 H        4.8500     1.7070     0.9160 H     1 <1>   0.3700 
 28 H        7.5460     1.3780    -0.3490 H     1 <1>   0.0800 
 29 H        6.8210     0.1150     0.6210 H     1 <1>   0.0800 
 30 H        7.4150     2.9350     1.5770 H     1 <1>   0.0800 
 31 H        8.3480     1.5170     1.9800 H     1 <1>   0.0800 
 32 H        6.7080     1.6610     2.5590 H     1 <1>   0.0800 
@<TRIPOS>BOND
  1   1   2  1   
  2   2   3  ar  
  3   2   4  ar  
  4   3   5  1   
  5   3   6  ar  
  6   4   7  ar  
  7   4  17  1   
  8   5   8  1   
  9   6   9  ar  
 10   6  18  1   
 11   7   9  ar  
 12   7  10  1   
 13   8  11  1   
 14   8  19  1   
 15   8  20  1   
 16   9  21  1   
 17  10  12  1   
 18  10  22  1   
 19  10  23  1   
 20  11  13  2   
 21  11  14  am  
 22  12  24  1   
 23  12  25  1   
 24  12  26  1   
 25  14  15  1   
 26  14  27  1   
 27  15  16  1   
 28  15  28  1   
 29  15  29  1   
 30  16  30  1   
 31  16  31  1   
 32  16  32  1   
@<TRIPOS>SUBSTRUCTURE
  1 ****   3 GROUP 4 **** **** 0

# MOE 2024.06 (io_trps.svl 2023.06)
