@<TRIPOS>MOLECULE
NONAME
35 35 1 0 0 
SMALL
USER_CHARGES


@<TRIPOS>ATOM
  1 BR       0.2580    -0.4670     1.4130 Br    1 <1>  -0.1110 
  2 C        1.6740     0.6300     0.7090 C.ar  1 <1>   0.1110 
  3 C        1.7660     0.8000    -0.6580 C.ar  1 <1>  -0.1500 
  4 C        2.5620     1.2190     1.5920 C.ar  1 <1>  -0.1500 
  5 C        2.7910     1.5910    -1.1400 C.ar  1 <1>   0.1770 
  6 C        3.5850     2.0100     1.0930 C.ar  1 <1>  -0.1500 
  7 CL       2.9240     1.8180    -2.8700 Cl    1 <1>  -0.1770 
  8 C        3.7080     2.2030    -0.2850 C.ar  1 <1>   0.0830 
  9 O        4.6850     2.9660    -0.8460 O.3   1 <1>  -0.3630 
 10 C        5.6450     3.6440    -0.0740 C.3   1 <1>   0.1200 
 11 C        6.5610     4.3830    -1.0520 C.3   1 <1>   0.3430 
 12 N        7.6130     5.1600    -0.3390 N.4   1 <1>  -0.9060 
 13 C        8.6080     5.7750    -1.2420 C.3   1 <1>   0.3430 
 14 C        9.8320     6.1890    -0.4200 C.3   1 <1>  -0.1600 
 15 C       10.6390     5.0110     0.1460 C.3   1 <1>   0.1200 
 16 O        9.7960     4.1840     0.8890 O.3   1 <1>  -0.5600 
 17 C       10.4730     3.1650     1.5610 C.3   1 <1>   0.0400 
 18 H        1.0660     0.3330    -1.3260 H     1 <1>   0.1500 
 19 H        2.4500     1.0570     2.6500 H     1 <1>   0.1500 
 20 H        4.2660     2.4590     1.7910 H     1 <1>   0.1500 
 21 H        6.1960     2.9160     0.4940 H     1 <1>   0.0800 
 22 H        5.1290     4.3330     0.5710 H     1 <1>   0.0800 
 23 H        5.9640     5.0490    -1.6540 H     1 <1>   0.0800 
 24 H        7.0250     3.6580    -1.7000 H     1 <1>   0.0800 
 25 H        8.1760     4.5360     0.2780 H     1 <1>   0.4500 
 26 H        7.2110     5.8740     0.2780 H     1 <1>   0.4500 
 27 H        8.1800     6.6350    -1.7320 H     1 <1>   0.0800 
 28 H        8.9120     5.0660    -1.9960 H     1 <1>   0.0800 
 29 H        9.5410     6.8470     0.3800 H     1 <1>   0.0800 
 30 H       10.4870     6.7530    -1.0600 H     1 <1>   0.0800 
 31 H       11.4240     5.3770     0.7890 H     1 <1>   0.0800 
 32 H       11.0750     4.4270    -0.6480 H     1 <1>   0.0800 
 33 H        9.7530     2.5700     2.0960 H     1 <1>   0.0800 
 34 H       11.1690     3.5970     2.2610 H     1 <1>   0.0800 
 35 H       10.9930     2.5470     0.8490 H     1 <1>   0.0800 
@<TRIPOS>BOND
  1   1   2  1   
  2   2   3  ar  
  3   2   4  ar  
  4   3   5  ar  
  5   3  18  1   
  6   4   6  ar  
  7   4  19  1   
  8   5   7  1   
  9   5   8  ar  
 10   6   8  ar  
 11   6  20  1   
 12   8   9  1   
 13   9  10  1   
 14  10  11  1   
 15  10  21  1   
 16  10  22  1   
 17  11  12  1   
 18  11  23  1   
 19  11  24  1   
 20  12  13  1   
 21  12  25  1   
 22  12  26  1   
 23  13  14  1   
 24  13  27  1   
 25  13  28  1   
 26  14  15  1   
 27  14  29  1   
 28  14  30  1   
 29  15  16  1   
 30  15  31  1   
 31  15  32  1   
 32  16  17  1   
 33  17  33  1   
 34  17  34  1   
 35  17  35  1   
@<TRIPOS>SUBSTRUCTURE
  1 ****  10 GROUP 4 **** **** 0

# MOE 2024.06 (io_trps.svl 2023.06)
