@<TRIPOS>MOLECULE
NONAME
37 38 1 0 0 
SMALL
USER_CHARGES


@<TRIPOS>ATOM
  1 F        1.4040    -0.8090    -1.1500 F     1 <1>  -0.1900 
  2 C        0.8060    -1.8200    -0.5730 C.ar  1 <1>   0.1900 
  3 C        1.3660    -2.3530     0.5770 C.ar  1 <1>  -0.1440 
  4 C       -0.3440    -2.3240    -1.1470 C.ar  1 <1>  -0.1500 
  5 C        0.7360    -3.4400     1.1680 C.ar  1 <1>  -0.1500 
  6 C        2.6230    -1.7520     1.1580 C.3   1 <1>   0.4870 
  7 C       -0.9590    -3.4090    -0.5460 C.ar  1 <1>  -0.1500 
  8 C       -0.4190    -3.9620     0.6050 C.ar  1 <1>  -0.1500 
  9 N        3.7180    -2.0130     0.1880 N.4   1 <1>  -0.9060 
 10 C        5.0030    -1.3290     0.4600 C.3   1 <1>   0.4230 
 11 C        4.8660     0.1780     0.2160 C.3   1 <1>  -0.1600 
 12 C        6.0710    -1.9210    -0.4620 C.3   1 <1>  -0.1600 
 13 C        6.2130     0.8910     0.3570 C.3   1 <1>   0.3430 
 14 C        7.4070    -1.1910    -0.3060 C.3   1 <1>   0.3430 
 15 N        7.2200     0.2680    -0.5500 N.4   1 <1>  -0.9590 
 16 C        8.5340     0.9840    -0.4310 C.3   1 <1>   0.2630 
 17 H       -0.7510    -1.8830    -2.0410 H     1 <1>   0.1500 
 18 H        1.1220    -3.8930     2.0670 H     1 <1>   0.1500 
 19 H        2.8440    -2.1980     2.1140 H     1 <1>   0.0800 
 20 H        2.4750    -0.6920     1.2910 H     1 <1>   0.0800 
 21 H       -1.8590    -3.8230    -0.9720 H     1 <1>   0.1500 
 22 H       -0.9080    -4.8050     1.0660 H     1 <1>   0.1500 
 23 H        3.3470    -1.7370    -0.7330 H     1 <1>   0.4500 
 24 H        3.8390    -3.0330     0.1400 H     1 <1>   0.4500 
 25 H        5.2930    -1.5020     1.4860 H     1 <1>   0.0800 
 26 H        4.1910     0.6110     0.9330 H     1 <1>   0.0800 
 27 H        4.4750     0.3710    -0.7680 H     1 <1>   0.0800 
 28 H        5.7640    -1.8600    -1.4910 H     1 <1>   0.0800 
 29 H        6.2270    -2.9570    -0.2180 H     1 <1>   0.0800 
 30 H        6.5560     0.8270     1.3780 H     1 <1>   0.0800 
 31 H        6.0960     1.9370     0.1120 H     1 <1>   0.0800 
 32 H        8.1220    -1.5920    -1.0090 H     1 <1>   0.0800 
 33 H        7.7960    -1.3470     0.6880 H     1 <1>   0.0800 
 34 H        6.9060     0.3990    -1.5260 H     1 <1>   0.4500 
 35 H        8.9290     0.8910     0.5680 H     1 <1>   0.0800 
 36 H        8.4140     2.0320    -0.6560 H     1 <1>   0.0800 
 37 H        9.2520     0.5700    -1.1220 H     1 <1>   0.0800 
@<TRIPOS>BOND
  1   1   2  1   
  2   2   3  ar  
  3   2   4  ar  
  4   3   5  ar  
  5   3   6  1   
  6   4   7  ar  
  7   4  17  1   
  8   5   8  ar  
  9   5  18  1   
 10   6   9  1   
 11   6  19  1   
 12   6  20  1   
 13   7   8  ar  
 14   7  21  1   
 15   8  22  1   
 16   9  10  1   
 17   9  23  1   
 18   9  24  1   
 19  10  11  1   
 20  10  12  1   
 21  10  25  1   
 22  11  13  1   
 23  11  26  1   
 24  11  27  1   
 25  12  14  1   
 26  12  28  1   
 27  12  29  1   
 28  13  15  1   
 29  13  30  1   
 30  13  31  1   
 31  14  15  1   
 32  14  32  1   
 33  14  33  1   
 34  15  16  1   
 35  15  34  1   
 36  16  35  1   
 37  16  36  1   
 38  16  37  1   
@<TRIPOS>SUBSTRUCTURE
  1 ****   9 GROUP 4 **** **** 0

# MOE 2024.06 (io_trps.svl 2023.06)
