@<TRIPOS>MOLECULE
NONAME
42 44 1 0 0 
SMALL
USER_CHARGES


@<TRIPOS>ATOM
  1 O       -0.0390    -0.1470    -0.9730 O.2   1 <1>  -0.5700 
  2 C        0.7690     0.3920    -0.2750 C.2   1 <1>   0.4480 
  3 C        0.7110     1.8730     0.1030 C.3   1 <1>  -0.0190 
  4 C        1.9940    -0.3430     0.2260 C.3   1 <1>  -0.0990 
  5 C       -0.6330     2.5340    -0.3210 C.3   1 <1>   0.1000 
  6 C        1.9770     2.5450    -0.4800 C.3   1 <1>  -0.1600 
  7 C        3.2620     0.3410    -0.3070 C.3   1 <1>  -0.1600 
  8 C       -0.5090     4.0400    -0.5180 C.2   1 <1>  -0.0400 
  9 C       -1.7720     2.2880     0.6960 C.3   1 <1>  -0.0990 
 10 C        3.2610     1.8450     0.0060 C.3   1 <1>  -0.1600 
 11 O       -0.2340     4.8140     0.5150 O.3   1 <1>  -0.2800 
 12 C       -0.6400     4.7820    -1.6400 C.2   1 <1>  -0.1500 
 13 C       -2.0030     0.8340     1.0810 C.2   1 <1>   0.4230 
 14 C       -0.1830     6.0570     0.0810 C.2   1 <1>  -0.0100 
 15 C       -0.4250     6.1090    -1.2450 C.2   1 <1>  -0.1500 
 16 O       -1.3810     0.4360     2.0350 O.2   1 <1>  -0.5700 
 17 C       -2.9500     0.0070     0.3550 C.ar  1 <1>   0.0860 
 18 C       -3.4730     0.3500    -0.8970 C.ar  1 <1>  -0.1500 
 19 C       -3.3860    -1.2000     0.9070 C.ar  1 <1>  -0.1500 
 20 C       -4.3870    -0.4580    -1.5490 C.ar  1 <1>  -0.1500 
 21 C       -4.2990    -2.0140     0.2610 C.ar  1 <1>  -0.1500 
 22 C       -4.8040    -1.6420    -0.9700 C.ar  1 <1>  -0.1500 
 23 H        0.7820     1.9430     1.1740 H     1 <1>   0.0800 
 24 H        1.9580    -1.3650    -0.1070 H     1 <1>   0.0800 
 25 H        1.9880    -0.3380     1.3010 H     1 <1>   0.0800 
 26 H       -0.9250     2.1310    -1.2740 H     1 <1>   0.0800 
 27 H        2.0290     3.5770    -0.1790 H     1 <1>   0.0800 
 28 H        1.9360     2.5150    -1.5560 H     1 <1>   0.0800 
 29 H        3.3100     0.2030    -1.3740 H     1 <1>   0.0800 
 30 H        4.1330    -0.1220     0.1250 H     1 <1>   0.0800 
 31 H       -2.6850     2.7130     0.3220 H     1 <1>   0.0800 
 32 H       -1.5410     2.8210     1.6010 H     1 <1>   0.0800 
 33 H        3.3560     1.9850     1.0700 H     1 <1>   0.0800 
 34 H        4.1160     2.3070    -0.4580 H     1 <1>   0.0800 
 35 H       -0.8610     4.4590    -2.6420 H     1 <1>   0.1500 
 36 H        0.0320     6.8430     0.7840 H     1 <1>   0.1500 
 37 H       -0.4540     6.9670    -1.8930 H     1 <1>   0.1500 
 38 H       -3.1630     1.2550    -1.3840 H     1 <1>   0.1500 
 39 H       -2.9960    -1.5040     1.8640 H     1 <1>   0.1500 
 40 H       -4.7720    -0.1690    -2.5110 H     1 <1>   0.1500 
 41 H       -4.6130    -2.9370     0.7160 H     1 <1>   0.1500 
 42 H       -5.5150    -2.2730    -1.4770 H     1 <1>   0.1500 
@<TRIPOS>BOND
  1   1   2  2   
  2   2   3  1   
  3   2   4  1   
  4   3   5  1   
  5   3   6  1   
  6   3  23  1   
  7   4   7  1   
  8   4  24  1   
  9   4  25  1   
 10   5   8  1   
 11   5   9  1   
 12   5  26  1   
 13   6  10  1   
 14   6  27  1   
 15   6  28  1   
 16   7  10  1   
 17   7  29  1   
 18   7  30  1   
 19   8  11  1   
 20   8  12  2   
 21   9  13  1   
 22   9  31  1   
 23   9  32  1   
 24  10  33  1   
 25  10  34  1   
 26  11  14  1   
 27  12  15  1   
 28  12  35  1   
 29  13  16  2   
 30  13  17  1   
 31  14  15  2   
 32  14  36  1   
 33  15  37  1   
 34  17  18  ar  
 35  17  19  ar  
 36  18  20  ar  
 37  18  38  1   
 38  19  21  ar  
 39  19  39  1   
 40  20  22  ar  
 41  20  40  1   
 42  21  22  ar  
 43  21  41  1   
 44  22  42  1   
@<TRIPOS>SUBSTRUCTURE
  1 ****   5 GROUP 4 **** **** 0

# MOE 2024.06 (io_trps.svl 2023.06)
