@<TRIPOS>MOLECULE
NONAME
25 26 1 0 0 
SMALL
USER_CHARGES


@<TRIPOS>ATOM
  1 F        1.1060     0.6770     0.6830 F     1 <1>  -0.3400 
  2 C        0.0970     1.1320    -0.0590 C.3   1 <1>   1.0200 
  3 F        0.5910     1.2900    -1.2870 F     1 <1>  -0.3400 
  4 F       -0.7650     0.1210    -0.1550 F     1 <1>  -0.3400 
  5 C       -0.5630     2.4490     0.5000 C.3   1 <1>   0.5600 
  6 O       -1.1320     2.2550     1.7770 O.3   1 <1>  -0.2170 
  7 O        0.3240     3.5100     0.7030 O.3   1 <1>  -0.6800 
  8 C       -1.7460     2.9730    -0.3080 C.3   1 <1>  -0.0990 
  9 N       -2.3000     2.8530     1.9100 N.2   1 <1>  -0.5130 
 10 C       -2.7250     3.2910     0.7940 C.2   1 <1>   0.3030 
 11 C       -3.9680     4.0150     0.5840 C.ar  1 <1>   0.0860 
 12 C       -4.5610     4.2750    -0.6670 C.ar  1 <1>   0.0820 
 13 C       -4.6530     4.5040     1.7020 C.ar  1 <1>  -0.1500 
 14 O       -4.0150     3.8400    -1.8160 O.3   1 <1>  -0.5330 
 15 C       -5.7470     4.9860    -0.7750 C.ar  1 <1>  -0.1500 
 16 C       -5.8360     5.2110     1.5980 C.ar  1 <1>  -0.1500 
 17 C       -6.3870     5.4560     0.3550 C.ar  1 <1>  -0.1500 
 18 H       -0.0760     4.0660     1.4000 H     1 <1>   0.4000 
 19 H       -2.1510     2.2060    -0.9400 H     1 <1>   0.0800 
 20 H       -1.4820     3.8330    -0.8960 H     1 <1>   0.0800 
 21 H       -4.2480     4.3270     2.6840 H     1 <1>   0.1500 
 22 H       -4.5410     4.0650    -2.6060 H     1 <1>   0.4500 
 23 H       -6.1840     5.1780    -1.7390 H     1 <1>   0.1500 
 24 H       -6.3290     5.5700     2.4850 H     1 <1>   0.1500 
 25 H       -7.3080     6.0070     0.2710 H     1 <1>   0.1500 
@<TRIPOS>BOND
  1   1   2  1   
  2   2   3  1   
  3   2   4  1   
  4   2   5  1   
  5   5   6  1   
  6   5   7  1   
  7   5   8  1   
  8   6   9  1   
  9   7  18  1   
 10   8  10  1   
 11   8  19  1   
 12   8  20  1   
 13   9  10  2   
 14  10  11  1   
 15  11  12  ar  
 16  11  13  ar  
 17  12  14  1   
 18  12  15  ar  
 19  13  16  ar  
 20  13  21  1   
 21  14  22  1   
 22  15  17  ar  
 23  15  23  1   
 24  16  17  ar  
 25  16  24  1   
 26  17  25  1   
@<TRIPOS>SUBSTRUCTURE
  1 ****  10 GROUP 4 **** **** 0

# MOE 2024.06 (io_trps.svl 2023.06)
