@<TRIPOS>MOLECULE
NONAME
40 42 1 0 0 
SMALL
USER_CHARGES


@<TRIPOS>ATOM
  1 BR      -2.3860     0.6120     1.7120 Br    1 <1>  -0.1110 
  2 C       -1.2410     1.9980     1.0150 C.ar  1 <1>   0.1110 
  3 C       -1.5180     2.5580    -0.2240 C.ar  1 <1>  -0.1440 
  4 C       -0.1690     2.3980     1.7890 C.ar  1 <1>  -0.1500 
  5 C       -0.6720     3.5540    -0.6930 C.ar  1 <1>  -0.1500 
  6 C       -2.7080     2.1010    -1.0430 C.3   1 <1>   0.4870 
  7 C        0.6600     3.3960     1.3080 C.ar  1 <1>  -0.1500 
  8 C        0.4080     3.9690     0.0710 C.ar  1 <1>  -0.1500 
  9 N       -3.9570     2.5830    -0.3930 N.4   1 <1>  -0.9590 
 10 C       -5.1890     2.0150    -1.0530 C.3   1 <1>   0.3430 
 11 C       -4.0170     4.0930    -0.3250 C.3   1 <1>   0.3430 
 12 C       -6.4950     2.5140    -0.3980 C.3   1 <1>   0.2090 
 13 C       -5.3160     4.6050     0.3320 C.3   1 <1>   0.2090 
 14 N       -6.5130     4.0030    -0.3260 N.pl3 1 <1>  -0.8380 
 15 C       -7.7380     4.5880    -0.0250 C.ar  1 <1>   0.1000 
 16 C       -8.4160     5.2940    -1.0150 C.ar  1 <1>  -0.1500 
 17 C       -8.3010     4.4800     1.2450 C.ar  1 <1>  -0.1500 
 18 C       -9.6380     5.8880    -0.7490 C.ar  1 <1>  -0.1500 
 19 C       -9.5230     5.0680     1.5260 C.ar  1 <1>  -0.1500 
 20 C      -10.1690     5.7620     0.5210 C.ar  1 <1>   0.1900 
 21 F      -11.3240     6.3200     0.7810 F     1 <1>  -0.1900 
 22 H        0.0170     1.9400     2.7450 H     1 <1>   0.1500 
 23 H       -0.8340     4.0160    -1.6530 H     1 <1>   0.1500 
 24 H       -2.7090     1.0240    -1.0940 H     1 <1>   0.0800 
 25 H       -2.6360     2.4900    -2.0450 H     1 <1>   0.0800 
 26 H        1.5030     3.7240     1.8930 H     1 <1>   0.1500 
 27 H        1.0640     4.7410    -0.2970 H     1 <1>   0.1500 
 28 H       -3.9300     2.2390     0.5770 H     1 <1>   0.4500 
 29 H       -5.1660     0.9380    -1.0110 H     1 <1>   0.0800 
 30 H       -5.2080     2.3050    -2.0910 H     1 <1>   0.0800 
 31 H       -3.9660     4.5000    -1.3210 H     1 <1>   0.0800 
 32 H       -3.1740     4.4710     0.2300 H     1 <1>   0.0800 
 33 H       -6.5910     2.1000     0.5910 H     1 <1>   0.0800 
 34 H       -7.3370     2.1780    -0.9790 H     1 <1>   0.0800 
 35 H       -5.3640     5.6770     0.2410 H     1 <1>   0.0800 
 36 H       -5.3160     4.3620     1.3810 H     1 <1>   0.0800 
 37 H       -7.9780     5.3750    -1.9920 H     1 <1>   0.1500 
 38 H       -7.7840     3.9370     2.0140 H     1 <1>   0.1500 
 39 H      -10.1710     6.4360    -1.5040 H     1 <1>   0.1500 
 40 H       -9.9710     4.9950     2.5010 H     1 <1>   0.1500 
@<TRIPOS>BOND
  1   1   2  1   
  2   2   3  ar  
  3   2   4  ar  
  4   3   5  ar  
  5   3   6  1   
  6   4   7  ar  
  7   4  22  1   
  8   5   8  ar  
  9   5  23  1   
 10   6   9  1   
 11   6  24  1   
 12   6  25  1   
 13   7   8  ar  
 14   7  26  1   
 15   8  27  1   
 16   9  10  1   
 17   9  11  1   
 18   9  28  1   
 19  10  12  1   
 20  10  29  1   
 21  10  30  1   
 22  11  13  1   
 23  11  31  1   
 24  11  32  1   
 25  12  14  1   
 26  12  33  1   
 27  12  34  1   
 28  13  14  1   
 29  13  35  1   
 30  13  36  1   
 31  14  15  1   
 32  15  16  ar  
 33  15  17  ar  
 34  16  18  ar  
 35  16  37  1   
 36  17  19  ar  
 37  17  38  1   
 38  18  20  ar  
 39  18  39  1   
 40  19  20  ar  
 41  19  40  1   
 42  20  21  1   
@<TRIPOS>SUBSTRUCTURE
  1 ****  13 GROUP 4 **** **** 0

# MOE 2024.06 (io_trps.svl 2023.06)
