@<TRIPOS>MOLECULE
NONAME
49 50 1 0 0 
SMALL
USER_CHARGES


@<TRIPOS>ATOM
  1 O       -0.1840     0.8510    -0.7020 O.2   1 <1>  -0.5700 
  2 C        0.0540    -0.3310    -0.6500 C.2   1 <1>   0.5690 
  3 N       -0.9050    -1.3030    -0.5850 N.am  1 <1>  -0.5470 
  4 C        1.5070    -0.7830    -0.6340 C.3   1 <1>   0.1810 
  5 C       -2.3040    -1.2780    -0.4320 C.ar  1 <1>   0.1170 
  6 O        1.5920    -2.1490    -0.2500 O.3   1 <1>  -0.3630 
  7 C       -2.9580    -2.4470    -0.0120 C.ar  1 <1>   0.1170 
  8 C       -3.0620    -0.1430    -0.6960 C.ar  1 <1>  -0.1500 
  9 C        2.7850    -2.7580    -0.0540 C.ar  1 <1>   0.0830 
 10 N       -2.2490    -3.6300     0.2730 N.am  1 <1>  -0.5470 
 11 C       -4.3390    -2.4520     0.1200 C.ar  1 <1>  -0.1500 
 12 C       -4.4390    -0.1580    -0.5540 C.ar  1 <1>  -0.1500 
 13 C        2.7540    -4.0500     0.4380 C.ar  1 <1>  -0.1500 
 14 C        4.0120    -2.1600    -0.3150 C.ar  1 <1>  -0.1500 
 15 C       -1.3670    -3.8990     1.2710 C.2   1 <1>   0.5690 
 16 C       -5.0790    -1.3140    -0.1470 C.ar  1 <1>  -0.1500 
 17 C        3.9290    -4.7420     0.6700 C.ar  1 <1>  -0.1500 
 18 C        5.1830    -2.8590    -0.0790 C.ar  1 <1>  -0.1500 
 19 O       -0.8190    -4.9690     1.3110 O.2   1 <1>  -0.5700 
 20 C       -1.0560    -2.8750     2.3370 C.3   1 <1>  -0.1790 
 21 C        5.1690    -4.1600     0.4170 C.ar  1 <1>  -0.1430 
 22 C        6.5070    -4.8920     0.6630 C.3   1 <1>   0.1440 
 23 C        7.3390    -4.1080     1.6890 C.3   1 <1>  -0.2400 
 24 C        6.3250    -6.3190     1.2080 C.3   1 <1>  -0.2400 
 25 C        7.2870    -4.9960    -0.6560 C.3   1 <1>  -0.2400 
 26 H       -0.5050    -2.2440    -0.5220 H     1 <1>   0.3700 
 27 H        2.0550    -0.1920     0.0770 H     1 <1>   0.0800 
 28 H        1.9310    -0.6750    -1.6150 H     1 <1>   0.0800 
 29 H       -2.5840     0.7630    -1.0210 H     1 <1>   0.1500 
 30 H       -2.4540    -4.4430    -0.3100 H     1 <1>   0.3700 
 31 H       -4.8390    -3.3490     0.4390 H     1 <1>   0.1500 
 32 H       -5.0090     0.7310    -0.7630 H     1 <1>   0.1500 
 33 H        1.8060    -4.5170     0.6410 H     1 <1>   0.1500 
 34 H        4.0810    -1.1620    -0.7000 H     1 <1>   0.1500 
 35 H       -6.1500    -1.3270    -0.0380 H     1 <1>   0.1500 
 36 H        3.8430    -5.7410     1.0530 H     1 <1>   0.1500 
 37 H        6.1170    -2.3720    -0.2890 H     1 <1>   0.1500 
 38 H       -0.2180    -2.2780     2.0320 H     1 <1>   0.0800 
 39 H       -0.8040    -3.3790     3.2520 H     1 <1>   0.0800 
 40 H       -1.9030    -2.2400     2.5150 H     1 <1>   0.0800 
 41 H        6.7870    -4.0010     2.6050 H     1 <1>   0.0800 
 42 H        7.5800    -3.1260     1.3250 H     1 <1>   0.0800 
 43 H        8.2600    -4.6200     1.9020 H     1 <1>   0.0800 
 44 H        5.7670    -6.9200     0.5120 H     1 <1>   0.0800 
 45 H        5.8070    -6.3010     2.1500 H     1 <1>   0.0800 
 46 H        7.2800    -6.7900     1.3630 H     1 <1>   0.0800 
 47 H        6.6970    -5.5140    -1.3910 H     1 <1>   0.0800 
 48 H        8.2060    -5.5350    -0.5130 H     1 <1>   0.0800 
 49 H        7.5290    -4.0230    -1.0430 H     1 <1>   0.0800 
@<TRIPOS>BOND
  1   1   2  2   
  2   2   3  am  
  3   2   4  1   
  4   3   5  1   
  5   3  26  1   
  6   4   6  1   
  7   4  27  1   
  8   4  28  1   
  9   5   7  ar  
 10   5   8  ar  
 11   6   9  1   
 12   7  10  1   
 13   7  11  ar  
 14   8  12  ar  
 15   8  29  1   
 16   9  13  ar  
 17   9  14  ar  
 18  10  15  am  
 19  10  30  1   
 20  11  16  ar  
 21  11  31  1   
 22  12  16  ar  
 23  12  32  1   
 24  13  17  ar  
 25  13  33  1   
 26  14  18  ar  
 27  14  34  1   
 28  15  19  2   
 29  15  20  1   
 30  16  35  1   
 31  17  21  ar  
 32  17  36  1   
 33  18  21  ar  
 34  18  37  1   
 35  20  38  1   
 36  20  39  1   
 37  20  40  1   
 38  21  22  1   
 39  22  23  1   
 40  22  24  1   
 41  22  25  1   
 42  23  41  1   
 43  23  42  1   
 44  23  43  1   
 45  24  44  1   
 46  24  45  1   
 47  24  46  1   
 48  25  47  1   
 49  25  48  1   
 50  25  49  1   
@<TRIPOS>SUBSTRUCTURE
  1 ****   6 GROUP 4 **** **** 0

# MOE 2024.06 (io_trps.svl 2023.06)
