@<TRIPOS>MOLECULE
22191
46 47 1 0 0 
SMALL
USER_CHARGES


@<TRIPOS>ATOM
  1 S       -0.9700    -0.1000    -1.2390 S.3   1 <1>  -0.0800 
  2 C        0.3470     0.7200    -0.4570 C.2   1 <1>   0.4420 
  3 C       -0.5460    -1.5020    -0.3230 C.2   1 <1>   0.1980 
  4 N        0.9930    -0.0510     0.3360 N.2   1 <1>  -0.3380 
  5 N        0.6420     2.0370    -0.7390 N.am  1 <1>  -0.4940 
  6 N        0.4710    -1.3130     0.4180 N.2   1 <1>  -0.3380 
  7 C       -1.4150    -2.7350    -0.5070 C.3   1 <1>   0.0200 
  8 C       -0.1100     3.1010    -1.1430 C.2   1 <1>   0.5690 
  9 C       -1.0040    -3.8950     0.4120 C.3   1 <1>  -0.1600 
 10 O        0.4490     4.1240    -1.4450 O.2   1 <1>  -0.5700 
 11 C       -1.6340     3.0620    -1.2090 C.3   1 <1>   0.1810 
 12 C       -1.9030    -5.1210     0.2120 C.3   1 <1>  -0.2400 
 13 O       -2.1710     2.5810     0.0130 O.3   1 <1>  -0.3620 
 14 C       -3.3980     2.0110     0.0420 C.ar  1 <1>   0.0820 
 15 C       -3.6470     1.0960     1.0480 C.ar  1 <1>  -0.1500 
 16 C       -4.3930     2.2900    -0.8850 C.ar  1 <1>  -0.1500 
 17 C       -4.8680     0.4500     1.1230 C.ar  1 <1>  -0.1500 
 18 C       -5.6120     1.6400    -0.8040 C.ar  1 <1>  -0.1500 
 19 C       -5.8760     0.7070     0.1960 C.ar  1 <1>  -0.1440 
 20 C       -7.2540     0.0100     0.2370 C.3   1 <1>   0.1430 
 21 C       -7.3910    -0.9950     1.3940 C.3   1 <1>  -0.2400 
 22 C       -8.3580     1.0640     0.4070 C.3   1 <1>  -0.2400 
 23 C       -7.4810    -0.7600    -1.0730 C.3   1 <1>  -0.2400 
 24 H        1.6010     2.2990    -0.5220 H     1 <1>   0.3700 
 25 H       -1.3490    -3.0500    -1.5330 H     1 <1>   0.0800 
 26 H       -2.4360    -2.4640    -0.3050 H     1 <1>   0.0800 
 27 H       -1.0630    -3.5740     1.4390 H     1 <1>   0.0800 
 28 H        0.0190    -4.1650     0.2110 H     1 <1>   0.0800 
 29 H       -1.9430     2.4190    -2.0110 H     1 <1>   0.0800 
 30 H       -2.0180     4.0520    -1.3720 H     1 <1>   0.0800 
 31 H       -2.9280    -4.8800     0.4340 H     1 <1>   0.0800 
 32 H       -1.5900    -5.9140     0.8700 H     1 <1>   0.0800 
 33 H       -1.8390    -5.4760    -0.8020 H     1 <1>   0.0800 
 34 H       -2.8770     0.8880     1.7690 H     1 <1>   0.1500 
 35 H       -4.2390     3.0110    -1.6660 H     1 <1>   0.1500 
 36 H       -5.0060    -0.2520     1.9230 H     1 <1>   0.1500 
 37 H       -6.3630     1.8740    -1.5350 H     1 <1>   0.1500 
 38 H       -7.2700    -0.4990     2.3410 H     1 <1>   0.0800 
 39 H       -6.6530    -1.7720     1.3080 H     1 <1>   0.0800 
 40 H       -8.3620    -1.4560     1.3820 H     1 <1>   0.0800 
 41 H       -8.1880     1.6320     1.3050 H     1 <1>   0.0800 
 42 H       -9.3230     0.5960     0.4760 H     1 <1>   0.0800 
 43 H       -8.3770     1.7460    -0.4230 H     1 <1>   0.0800 
 44 H       -6.6940    -1.4790    -1.2170 H     1 <1>   0.0800 
 45 H       -7.4890    -0.0960    -1.9170 H     1 <1>   0.0800 
 46 H       -8.4210    -1.2800    -1.0500 H     1 <1>   0.0800 
@<TRIPOS>BOND
  1   1   2  1   
  2   1   3  1   
  3   2   4  2   
  4   2   5  1   
  5   3   6  2   
  6   3   7  1   
  7   4   6  1   
  8   5   8  am  
  9   5  24  1   
 10   7   9  1   
 11   7  25  1   
 12   7  26  1   
 13   8  10  2   
 14   8  11  1   
 15   9  12  1   
 16   9  27  1   
 17   9  28  1   
 18  11  13  1   
 19  11  29  1   
 20  11  30  1   
 21  12  31  1   
 22  12  32  1   
 23  12  33  1   
 24  13  14  1   
 25  14  15  ar  
 26  14  16  ar  
 27  15  17  ar  
 28  15  34  1   
 29  16  18  ar  
 30  16  35  1   
 31  17  19  ar  
 32  17  36  1   
 33  18  19  ar  
 34  18  37  1   
 35  19  20  1   
 36  20  21  1   
 37  20  22  1   
 38  20  23  1   
 39  21  38  1   
 40  21  39  1   
 41  21  40  1   
 42  22  41  1   
 43  22  42  1   
 44  22  43  1   
 45  23  44  1   
 46  23  45  1   
 47  23  46  1   
@<TRIPOS>SUBSTRUCTURE
  1 ****  15 GROUP 4 **** **** 0

# MOE 2024.06 (io_trps.svl 2023.06)
