@<TRIPOS>MOLECULE
NONAME
44 46 1 0 0 
SMALL
USER_CHARGES


@<TRIPOS>ATOM
  1 S        0.0450    -0.0670     1.2030 S.3   1 <1>  -0.0800 
  2 C        0.1890    -1.7970     0.9200 C.2   1 <1>   0.1040 
  3 C       -1.6790    -0.1350     0.8660 C.2   1 <1>  -0.1400 
  4 N        1.3620    -2.5120     1.0220 N.am  1 <1>  -0.4240 
  5 C       -1.0040    -2.3520     0.5860 C.2   1 <1>  -0.0860 
  6 C       -2.0640    -1.3790     0.5570 C.2   1 <1>  -0.1810 
  7 C       -2.5610     1.0930     0.9290 C.3   1 <1>   0.3000 
  8 C        1.3340    -3.8700     0.7550 C.2   1 <1>   0.6900 
  9 C        2.6830    -1.8500     1.2710 C.3   1 <1>   0.2010 
 10 C       -1.0400    -3.7600     0.3180 C.2   1 <1>   0.7160 
 11 C       -3.5250    -1.6300     0.2290 C.3   1 <1>   0.0210 
 12 O       -3.9120     0.7000     0.8490 O.3   1 <1>  -0.5600 
 13 O        2.3560    -4.5250     0.8600 O.2   1 <1>  -0.5700 
 14 N        0.1440    -4.4810     0.3850 N.am  1 <1>  -0.4200 
 15 C        3.5210    -1.6980     0.0070 C.2   1 <1>   0.6590 
 16 O       -2.0820    -4.3320     0.0430 O.2   1 <1>  -0.5700 
 17 C       -4.2700    -0.3000    -0.0750 C.3   1 <1>   0.2800 
 18 C        0.1370    -5.9430     0.0780 C.3   1 <1>   0.0600 
 19 O        3.0350    -1.4890    -1.0780 O.2   1 <1>  -0.5700 
 20 O        4.8340    -1.7900     0.1780 O.3   1 <1>  -0.4300 
 21 C       -3.9840     0.2100    -1.4970 C.3   1 <1>  -0.2400 
 22 C       -5.7780    -0.4880     0.0920 C.3   1 <1>  -0.2400 
 23 C        5.7250    -1.6970    -0.9090 C.3   1 <1>   0.1200 
 24 C        7.1430    -1.8580    -0.3730 C.3   1 <1>  -0.2400 
 25 H       -2.3460     1.7640     0.1160 H     1 <1>   0.0800 
 26 H       -2.4260     1.6100     1.8620 H     1 <1>   0.0800 
 27 H        3.2380    -2.4430     1.9760 H     1 <1>   0.0800 
 28 H        2.5430    -0.8810     1.7070 H     1 <1>   0.0800 
 29 H       -3.9830    -2.1250     1.0670 H     1 <1>   0.0800 
 30 H       -3.6080    -2.2840    -0.6200 H     1 <1>   0.0800 
 31 H        1.0860    -6.2470    -0.3290 H     1 <1>   0.0800 
 32 H       -0.6270    -6.1740    -0.6440 H     1 <1>   0.0800 
 33 H       -0.0520    -6.4970     0.9800 H     1 <1>   0.0800 
 34 H       -2.9280     0.2830    -1.6810 H     1 <1>   0.0800 
 35 H       -4.4410     1.1720    -1.6460 H     1 <1>   0.0800 
 36 H       -4.3920    -0.4740    -2.2190 H     1 <1>   0.0800 
 37 H       -6.0050    -0.7880     1.1000 H     1 <1>   0.0800 
 38 H       -6.1380    -1.2460    -0.5790 H     1 <1>   0.0800 
 39 H       -6.2930     0.4310    -0.1200 H     1 <1>   0.0800 
 40 H        5.5930    -0.7360    -1.3780 H     1 <1>   0.0800 
 41 H        5.4860    -2.4770    -1.6120 H     1 <1>   0.0800 
 42 H        7.3650    -1.0790     0.3330 H     1 <1>   0.0800 
 43 H        7.8460    -1.7950    -1.1850 H     1 <1>   0.0800 
 44 H        7.2540    -2.8170     0.1000 H     1 <1>   0.0800 
@<TRIPOS>BOND
  1   1   2  1   
  2   1   3  1   
  3   2   4  1   
  4   2   5  2   
  5   3   6  2   
  6   3   7  1   
  7   4   8  am  
  8   4   9  1   
  9   5   6  1   
 10   5  10  1   
 11   6  11  1   
 12   7  12  1   
 13   7  25  1   
 14   7  26  1   
 15   8  13  2   
 16   8  14  am  
 17   9  15  1   
 18   9  27  1   
 19   9  28  1   
 20  10  14  am  
 21  10  16  2   
 22  11  17  1   
 23  11  29  1   
 24  11  30  1   
 25  12  17  1   
 26  14  18  1   
 27  15  19  2   
 28  15  20  1   
 29  17  21  1   
 30  17  22  1   
 31  18  31  1   
 32  18  32  1   
 33  18  33  1   
 34  20  23  1   
 35  21  34  1   
 36  21  35  1   
 37  21  36  1   
 38  22  37  1   
 39  22  38  1   
 40  22  39  1   
 41  23  24  1   
 42  23  40  1   
 43  23  41  1   
 44  24  42  1   
 45  24  43  1   
 46  24  44  1   
@<TRIPOS>SUBSTRUCTURE
  1 ****   2 GROUP 4 **** **** 0

# MOE 2024.06 (io_trps.svl 2023.06)
