@<TRIPOS>MOLECULE
NONAME
43 45 1 0 0 
SMALL
USER_CHARGES


@<TRIPOS>ATOM
  1 O       -0.1650    -0.9240    -3.6280 O.2   1 <1>  -0.5700 
  2 C       -0.2060    -1.9590    -3.0030 C.2   1 <1>   0.5690 
  3 N       -1.3700    -2.3970    -2.4280 N.am  1 <1>  -0.6600 
  4 C        1.0800    -2.7670    -2.8810 C.3   1 <1>   0.0440 
  5 C       -1.5210    -3.5880    -1.5540 C.3   1 <1>   0.1400 
  6 C       -2.6040    -1.5820    -2.4150 C.3   1 <1>   0.1400 
  7 C        1.5900    -2.8630    -1.4450 C.ar  1 <1>  -0.1440 
  8 C       -2.9760    -3.5620    -1.0830 C.3   1 <1>   0.0640 
  9 C       -3.3990    -2.1010    -1.2220 C.3   1 <1>  -0.1600 
 10 C        1.7320    -1.7150    -0.6800 C.ar  1 <1>  -0.1500 
 11 C        1.9010    -4.0940    -0.8870 C.ar  1 <1>  -0.1500 
 12 C       -3.1740    -4.1160     0.3270 C.ar  1 <1>  -0.1440 
 13 C        2.1670    -1.7920     0.6320 C.ar  1 <1>  -0.1500 
 14 C        2.3350    -4.1740     0.4240 C.ar  1 <1>  -0.1500 
 15 C       -2.4530    -3.6190     1.4050 C.ar  1 <1>  -0.1500 
 16 C       -4.0890    -5.1360     0.5450 C.ar  1 <1>  -0.1500 
 17 C        2.4680    -3.0300     1.1930 C.ar  1 <1>   0.0820 
 18 C       -2.6390    -4.1350     2.6750 C.ar  1 <1>  -0.1500 
 19 C       -4.2770    -5.6530     1.8160 C.ar  1 <1>  -0.1500 
 20 O        2.8930    -3.1970     2.4710 O.3   1 <1>  -0.3630 
 21 C       -3.5520    -5.1540     2.8820 C.ar  1 <1>  -0.1500 
 22 C        3.0750    -2.0950     3.3310 C.3   1 <1>   0.0400 
 23 H        1.8370    -2.3000    -3.4840 H     1 <1>   0.0800 
 24 H        0.9030    -3.7450    -3.2840 H     1 <1>   0.0800 
 25 H       -0.8530    -3.5000    -0.7160 H     1 <1>   0.0800 
 26 H       -1.3050    -4.4930    -2.0920 H     1 <1>   0.0800 
 27 H       -3.1410    -1.7470    -3.3330 H     1 <1>   0.0800 
 28 H       -2.3750    -0.5340    -2.3150 H     1 <1>   0.0800 
 29 H       -3.5480    -4.1460    -1.7830 H     1 <1>   0.0800 
 30 H       -4.4590    -1.9980    -1.3710 H     1 <1>   0.0800 
 31 H       -3.1150    -1.5410    -0.3490 H     1 <1>   0.0800 
 32 H        1.4990    -0.7520    -1.1040 H     1 <1>   0.1500 
 33 H        1.8060    -4.9970    -1.4640 H     1 <1>   0.1500 
 34 H        2.2630    -0.8850     1.1950 H     1 <1>   0.1500 
 35 H        2.5730    -5.1260     0.8620 H     1 <1>   0.1500 
 36 H       -1.7390    -2.8250     1.2650 H     1 <1>   0.1500 
 37 H       -4.6620    -5.5370    -0.2710 H     1 <1>   0.1500 
 38 H       -2.0720    -3.7440     3.5020 H     1 <1>   0.1500 
 39 H       -4.9890    -6.4450     1.9750 H     1 <1>   0.1500 
 40 H       -3.6970    -5.5560     3.8700 H     1 <1>   0.1500 
 41 H        3.4160    -2.4660     4.2800 H     1 <1>   0.0800 
 42 H        2.1350    -1.5880     3.4530 H     1 <1>   0.0800 
 43 H        3.8160    -1.4400     2.9070 H     1 <1>   0.0800 
@<TRIPOS>BOND
  1   1   2  2   
  2   2   3  am  
  3   2   4  1   
  4   3   5  1   
  5   3   6  1   
  6   4   7  1   
  7   4  23  1   
  8   4  24  1   
  9   5   8  1   
 10   5  25  1   
 11   5  26  1   
 12   6   9  1   
 13   6  27  1   
 14   6  28  1   
 15   7  10  ar  
 16   7  11  ar  
 17   8   9  1   
 18   8  12  1   
 19   8  29  1   
 20   9  30  1   
 21   9  31  1   
 22  10  13  ar  
 23  10  32  1   
 24  11  14  ar  
 25  11  33  1   
 26  12  15  ar  
 27  12  16  ar  
 28  13  17  ar  
 29  13  34  1   
 30  14  17  ar  
 31  14  35  1   
 32  15  18  ar  
 33  15  36  1   
 34  16  19  ar  
 35  16  37  1   
 36  17  20  1   
 37  18  21  ar  
 38  18  38  1   
 39  19  21  ar  
 40  19  39  1   
 41  20  22  1   
 42  21  40  1   
 43  22  41  1   
 44  22  42  1   
 45  22  43  1   
@<TRIPOS>SUBSTRUCTURE
  1 ****   5 GROUP 4 **** **** 0

# MOE 2024.06 (io_trps.svl 2023.06)
