@<TRIPOS>MOLECULE
NONAME
49 51 1 0 0 
SMALL
USER_CHARGES


@<TRIPOS>ATOM
  1 O       -0.6460     2.1820    -3.3170 O.2   1 <1>  -0.5700 
  2 C       -0.0340     2.0660    -2.2820 C.2   1 <1>   0.5690 
  3 N       -0.5760     1.6600    -1.0950 N.am  1 <1>  -0.5470 
  4 C        1.4620     2.3850    -2.2630 C.3   1 <1>   0.1710 
  5 C       -1.8660     1.2760    -0.6990 C.ar  1 <1>   0.1170 
  6 N        2.2080     1.7010    -1.1640 N.3   1 <1>  -0.8100 
  7 C       -2.0460     0.8010     0.5940 C.ar  1 <1>  -0.1500 
  8 C       -2.9750     1.3480    -1.5320 C.ar  1 <1>  -0.1500 
  9 C        3.5420     2.3180    -0.9740 C.3   1 <1>   0.1100 
 10 C        2.3820     0.2560    -1.4670 C.3   1 <1>   0.1100 
 11 C       -3.2910     0.4030     1.0560 C.ar  1 <1>  -0.1430 
 12 C       -4.2210     0.9530    -1.0830 C.ar  1 <1>  -0.1500 
 13 C        4.3480     1.6290     0.1440 C.3   1 <1>   0.2090 
 14 C        3.1630    -0.4820    -0.3630 C.3   1 <1>   0.2090 
 15 C       -4.3910     0.4780     0.2080 C.ar  1 <1>  -0.1430 
 16 C       -3.4240    -0.1090     2.4830 C.3   1 <1>  -0.0970 
 17 N        4.4830     0.1660    -0.1160 N.pl3 1 <1>  -0.8380 
 18 C       -5.7800     0.0530     0.6630 C.3   1 <1>  -0.0970 
 19 C        5.3530    -0.5250     0.7180 C.ar  1 <1>   0.1000 
 20 C        6.5130    -1.0750     0.1910 C.ar  1 <1>  -0.1500 
 21 C        5.0940    -0.6860     2.0750 C.ar  1 <1>  -0.1500 
 22 C        7.3980    -1.7690     0.9960 C.ar  1 <1>  -0.1500 
 23 C        5.9740    -1.3800     2.8840 C.ar  1 <1>  -0.1500 
 24 C        7.1290    -1.9230     2.3460 C.ar  1 <1>  -0.1500 
 25 H        0.1520     1.5820    -0.3790 H     1 <1>   0.3700 
 26 H        1.5510     3.4500    -2.1440 H     1 <1>   0.0800 
 27 H        1.8860     2.1240    -3.2170 H     1 <1>   0.0800 
 28 H       -1.1950     0.7440     1.2460 H     1 <1>   0.1500 
 29 H       -2.8760     1.7140    -2.5360 H     1 <1>   0.1500 
 30 H        3.4220     3.3570    -0.7200 H     1 <1>   0.0800 
 31 H        4.1070     2.2590    -1.8890 H     1 <1>   0.0800 
 32 H        2.9160     0.1380    -2.3950 H     1 <1>   0.0800 
 33 H        1.4200    -0.2140    -1.5780 H     1 <1>   0.0800 
 34 H       -5.0600     1.0200    -1.7520 H     1 <1>   0.1500 
 35 H        3.8520     1.7850     1.0860 H     1 <1>   0.0800 
 36 H        5.3290     2.0670     0.2030 H     1 <1>   0.0800 
 37 H        3.3230    -1.5050    -0.6590 H     1 <1>   0.0800 
 38 H        2.5840    -0.4820     0.5430 H     1 <1>   0.0800 
 39 H       -2.4790    -0.0820     2.9940 H     1 <1>   0.0800 
 40 H       -3.7760    -1.1250     2.4780 H     1 <1>   0.0800 
 41 H       -4.1200     0.5010     3.0290 H     1 <1>   0.0800 
 42 H       -5.7700    -0.9800     0.9580 H     1 <1>   0.0800 
 43 H       -6.4970     0.1710    -0.1290 H     1 <1>   0.0800 
 44 H       -6.0940     0.6550     1.4960 H     1 <1>   0.0800 
 45 H        6.7110    -0.9490    -0.8580 H     1 <1>   0.1500 
 46 H        4.1990    -0.2650     2.4910 H     1 <1>   0.1500 
 47 H        8.2930    -2.1900     0.5730 H     1 <1>   0.1500 
 48 H        5.7640    -1.4980     3.9330 H     1 <1>   0.1500 
 49 H        7.8150    -2.4630     2.9740 H     1 <1>   0.1500 
@<TRIPOS>BOND
  1   1   2  2   
  2   2   3  am  
  3   2   4  1   
  4   3   5  1   
  5   3  25  1   
  6   4   6  1   
  7   4  26  1   
  8   4  27  1   
  9   5   7  ar  
 10   5   8  ar  
 11   6   9  1   
 12   6  10  1   
 13   7  11  ar  
 14   7  28  1   
 15   8  12  ar  
 16   8  29  1   
 17   9  13  1   
 18   9  30  1   
 19   9  31  1   
 20  10  14  1   
 21  10  32  1   
 22  10  33  1   
 23  11  15  ar  
 24  11  16  1   
 25  12  15  ar  
 26  12  34  1   
 27  13  17  1   
 28  13  35  1   
 29  13  36  1   
 30  14  17  1   
 31  14  37  1   
 32  14  38  1   
 33  15  18  1   
 34  16  39  1   
 35  16  40  1   
 36  16  41  1   
 37  17  19  1   
 38  18  42  1   
 39  18  43  1   
 40  18  44  1   
 41  19  20  ar  
 42  19  21  ar  
 43  20  22  ar  
 44  20  45  1   
 45  21  23  ar  
 46  21  46  1   
 47  22  24  ar  
 48  22  47  1   
 49  23  24  ar  
 50  23  48  1   
 51  24  49  1   
@<TRIPOS>SUBSTRUCTURE
  1 ****  10 GROUP 4 **** **** 0

# MOE 2024.06 (io_trps.svl 2023.06)
