@<TRIPOS>MOLECULE
NONAME
47 48 1 0 0 
SMALL
USER_CHARGES


@<TRIPOS>ATOM
  1 S       -0.0850     0.1980     0.1780 S.o2  1 <1>   1.3330 
  2 O        1.2980     0.5240    -0.0700 O.2   1 <1>  -0.6500 
  3 O       -0.7540     0.6940     1.3550 O.2   1 <1>  -0.6500 
  4 N       -0.2090    -1.5270     0.1840 N.am  1 <1>  -0.6930 
  5 C       -1.0230     0.6290    -1.2720 C.3   1 <1>  -0.1350 
  6 C       -1.4330    -2.1480     0.3700 C.ar  1 <1>   0.1990 
  7 C        1.0370    -2.2160     0.5890 C.3   1 <1>   0.3340 
  8 C       -1.9890    -2.9090    -0.6510 C.ar  1 <1>  -0.1500 
  9 C       -2.1340    -2.0440     1.5670 C.ar  1 <1>  -0.1500 
 10 C        0.9270    -3.7240     0.4220 C.2   1 <1>  -0.2880 
 11 C       -3.2090    -3.5360    -0.4860 C.ar  1 <1>  -0.1500 
 12 C       -3.3530    -2.6710     1.7300 C.ar  1 <1>  -0.1500 
 13 C        1.6260    -4.4620    -0.4460 C.2   1 <1>  -0.3000 
 14 C       -3.9270    -3.4260     0.7060 C.ar  1 <1>   0.0860 
 15 C       -5.2080    -4.0750     0.8870 C.2   1 <1>   0.5440 
 16 O       -5.3620    -4.8160     1.8400 O.2   1 <1>  -0.5700 
 17 N       -6.2610    -3.8740     0.0150 N.am  1 <1>  -0.6600 
 18 C       -7.5050    -4.6920     0.0910 C.3   1 <1>   0.1400 
 19 C       -6.3470    -2.7260    -0.9300 C.3   1 <1>   0.1400 
 20 C       -8.6850    -3.8020     0.4920 C.3   1 <1>  -0.1600 
 21 C       -7.5230    -1.8240    -0.5410 C.3   1 <1>  -0.1600 
 22 C       -8.8420    -2.6080    -0.4630 C.3   1 <1>  -0.0800 
 23 C       -9.9850    -1.6970    -0.0040 C.3   1 <1>  -0.2400 
 24 H       -1.0120     1.6920    -1.4130 H     1 <1>   0.0800 
 25 H       -2.0400     0.3060    -1.1650 H     1 <1>   0.0800 
 26 H       -0.5980     0.1610    -2.1380 H     1 <1>   0.0800 
 27 H        1.2590    -1.9760     1.6150 H     1 <1>   0.0800 
 28 H        1.8510    -1.8630    -0.0200 H     1 <1>   0.0800 
 29 H       -1.4460    -3.0110    -1.5730 H     1 <1>   0.1500 
 30 H       -1.7160    -1.4670     2.3740 H     1 <1>   0.1500 
 31 H        0.2070    -4.1590     1.0960 H     1 <1>   0.1500 
 32 H       -3.6200    -4.1300    -1.2840 H     1 <1>   0.1500 
 33 H       -3.8820    -2.5870     2.6650 H     1 <1>   0.1500 
 34 H        1.5270    -5.5300    -0.5400 H     1 <1>   0.1500 
 35 H        2.3530    -4.0660    -1.1350 H     1 <1>   0.1500 
 36 H       -7.3940    -5.4910     0.8050 H     1 <1>   0.0800 
 37 H       -7.6900    -5.1350    -0.8720 H     1 <1>   0.0800 
 38 H       -6.4900    -3.1040    -1.9280 H     1 <1>   0.0800 
 39 H       -5.4430    -2.1440    -0.9160 H     1 <1>   0.0800 
 40 H       -8.5220    -3.4550     1.4970 H     1 <1>   0.0800 
 41 H       -9.5840    -4.3920     0.4900 H     1 <1>   0.0800 
 42 H       -7.6140    -1.0340    -1.2660 H     1 <1>   0.0800 
 43 H       -7.3080    -1.3720     0.4120 H     1 <1>   0.0800 
 44 H       -9.0780    -2.9830    -1.4450 H     1 <1>   0.0800 
 45 H       -9.7860    -1.3030     0.9770 H     1 <1>   0.0800 
 46 H      -10.9090    -2.2470     0.0290 H     1 <1>   0.0800 
 47 H      -10.1050    -0.8750    -0.6870 H     1 <1>   0.0800 
@<TRIPOS>BOND
  1   1   2  2   
  2   1   3  2   
  3   1   4  am  
  4   1   5  1   
  5   4   6  1   
  6   4   7  1   
  7   5  24  1   
  8   5  25  1   
  9   5  26  1   
 10   6   8  ar  
 11   6   9  ar  
 12   7  10  1   
 13   7  27  1   
 14   7  28  1   
 15   8  11  ar  
 16   8  29  1   
 17   9  12  ar  
 18   9  30  1   
 19  10  13  2   
 20  10  31  1   
 21  11  14  ar  
 22  11  32  1   
 23  12  14  ar  
 24  12  33  1   
 25  13  34  1   
 26  13  35  1   
 27  14  15  1   
 28  15  16  2   
 29  15  17  am  
 30  17  18  1   
 31  17  19  1   
 32  18  20  1   
 33  18  36  1   
 34  18  37  1   
 35  19  21  1   
 36  19  38  1   
 37  19  39  1   
 38  20  22  1   
 39  20  40  1   
 40  20  41  1   
 41  21  22  1   
 42  21  42  1   
 43  21  43  1   
 44  22  23  1   
 45  22  44  1   
 46  23  45  1   
 47  23  46  1   
 48  23  47  1   
@<TRIPOS>SUBSTRUCTURE
  1 ****  14 GROUP 4 **** **** 0

# MOE 2024.06 (io_trps.svl 2023.06)
