@<TRIPOS>MOLECULE
NONAME
40 41 1 0 0 
SMALL
USER_CHARGES


@<TRIPOS>ATOM
  1 CL      -2.2190     1.2940     2.1370 Cl    1 <1>  -0.1770 
  2 C       -1.1690     2.2800     1.1470 C.ar  1 <1>   0.1770 
  3 C       -1.4910     2.5070    -0.1830 C.ar  1 <1>  -0.1440 
  4 C       -0.0360     2.8260     1.7210 C.ar  1 <1>  -0.1500 
  5 C       -0.6470     3.3020    -0.9470 C.ar  1 <1>  -0.1500 
  6 C       -2.7400     1.8980    -0.7870 C.3   1 <1>   0.4870 
  7 C        0.7960     3.6200     0.9510 C.ar  1 <1>  -0.1500 
  8 C        0.4890     3.8550    -0.3790 C.ar  1 <1>  -0.1500 
  9 N       -3.9440     2.5270    -0.1760 N.4   1 <1>  -0.9590 
 10 C       -5.1910     1.8160    -0.5980 C.3   1 <1>   0.3430 
 11 C       -4.0050     3.9950    -0.4430 C.3   1 <1>   0.3430 
 12 C       -6.4270     2.3890     0.1050 C.3   1 <1>  -0.0190 
 13 C       -5.2030     4.6010     0.2920 C.3   1 <1>  -0.1600 
 14 C       -7.6580     1.6780    -0.4280 C.2   1 <1>   0.6590 
 15 C       -6.5210     3.9140    -0.0950 C.3   1 <1>  -0.1600 
 16 O       -7.6020     0.9880    -1.4130 O.2   1 <1>  -0.5700 
 17 O       -8.7760     1.8640     0.2550 O.3   1 <1>  -0.4300 
 18 C       -9.9900     1.2650    -0.1370 C.3   1 <1>   0.1200 
 19 C      -11.0680     1.6890     0.8540 C.3   1 <1>  -0.2400 
 20 H        0.1930     2.6340     2.7540 H     1 <1>   0.1500 
 21 H       -0.8550     3.4970    -1.9870 H     1 <1>   0.1500 
 22 H       -2.7420     0.8370    -0.5930 H     1 <1>   0.0800 
 23 H       -2.7440     2.0480    -1.8550 H     1 <1>   0.0800 
 24 H        1.6830     4.0520     1.3840 H     1 <1>   0.1500 
 25 H        1.1450     4.4710    -0.9740 H     1 <1>   0.1500 
 26 H       -3.8330     2.4070     0.8420 H     1 <1>   0.4500 
 27 H       -5.1150     0.7640    -0.3710 H     1 <1>   0.0800 
 28 H       -5.3220     1.9140    -1.6640 H     1 <1>   0.0800 
 29 H       -4.1080     4.1710    -1.5020 H     1 <1>   0.0800 
 30 H       -3.0990     4.4740    -0.1050 H     1 <1>   0.0800 
 31 H       -6.3600     2.1680     1.1550 H     1 <1>   0.0800 
 32 H       -5.2660     5.6490     0.0530 H     1 <1>   0.0800 
 33 H       -5.0450     4.5260     1.3550 H     1 <1>   0.0800 
 34 H       -7.3270     4.3110     0.5010 H     1 <1>   0.0800 
 35 H       -6.7450     4.1280    -1.1280 H     1 <1>   0.0800 
 36 H       -9.8620     0.1950    -0.1340 H     1 <1>   0.0800 
 37 H      -10.2310     1.5960    -1.1340 H     1 <1>   0.0800 
 38 H      -10.8130     1.3600     1.8460 H     1 <1>   0.0800 
 39 H      -12.0070     1.2450     0.5790 H     1 <1>   0.0800 
 40 H      -11.1810     2.7580     0.8470 H     1 <1>   0.0800 
@<TRIPOS>BOND
  1   1   2  1   
  2   2   3  ar  
  3   2   4  ar  
  4   3   5  ar  
  5   3   6  1   
  6   4   7  ar  
  7   4  20  1   
  8   5   8  ar  
  9   5  21  1   
 10   6   9  1   
 11   6  22  1   
 12   6  23  1   
 13   7   8  ar  
 14   7  24  1   
 15   8  25  1   
 16   9  10  1   
 17   9  11  1   
 18   9  26  1   
 19  10  12  1   
 20  10  27  1   
 21  10  28  1   
 22  11  13  1   
 23  11  29  1   
 24  11  30  1   
 25  12  14  1   
 26  12  15  1   
 27  12  31  1   
 28  13  15  1   
 29  13  32  1   
 30  13  33  1   
 31  14  16  2   
 32  14  17  1   
 33  15  34  1   
 34  15  35  1   
 35  17  18  1   
 36  18  19  1   
 37  18  36  1   
 38  18  37  1   
 39  19  38  1   
 40  19  39  1   
 41  19  40  1   
@<TRIPOS>SUBSTRUCTURE
  1 ****   9 GROUP 4 **** **** 0

# MOE 2024.06 (io_trps.svl 2023.06)
