@<TRIPOS>MOLECULE
NONAME
40 42 1 0 0 
SMALL
USER_CHARGES


@<TRIPOS>ATOM
  1 BR      -2.0360     0.5760    -3.3100 Br    1 <1>  -0.1110 
  2 C       -2.5610     1.1970    -1.5690 C.ar  1 <1>   0.1110 
  3 C       -3.6830     0.6450    -0.9800 C.ar  1 <1>  -0.1500 
  4 C       -1.8080     2.1780    -0.9540 C.ar  1 <1>  -0.1500 
  5 C       -4.0730     1.0970     0.2740 C.ar  1 <1>  -0.1440 
  6 C       -2.1950     2.6170     0.3000 C.ar  1 <1>  -0.1500 
  7 C       -3.3190     2.0780     0.9090 C.ar  1 <1>  -0.1500 
  8 C       -5.3110     0.5300     0.9410 C.3   1 <1>   0.4870 
  9 N       -6.5110     1.0780     0.2520 N.4   1 <1>  -0.9590 
 10 C       -6.5920     2.5830     0.3870 C.3   1 <1>   0.3430 
 11 C       -7.7820     0.4200     0.7320 C.3   1 <1>   0.3430 
 12 C       -7.8430     3.1750    -0.2940 C.3   1 <1>   0.2090 
 13 C       -9.0430     0.9970     0.0530 C.3   1 <1>   0.2090 
 14 N       -9.0780     2.4820     0.1800 N.pl3 1 <1>  -0.8380 
 15 C      -10.2870     3.0950    -0.1220 C.ar  1 <1>   0.1000 
 16 C      -10.7320     3.2160    -1.4340 C.ar  1 <1>  -0.1500 
 17 C      -11.0780     3.5990     0.9040 C.ar  1 <1>  -0.1500 
 18 C      -11.9410     3.8310    -1.6910 C.ar  1 <1>   0.1770 
 19 C      -12.2900     4.2140     0.6380 C.ar  1 <1>  -0.1500 
 20 CL     -12.4870     3.9770    -3.3420 Cl    1 <1>  -0.1770 
 21 C      -12.7280     4.3330    -0.6710 C.ar  1 <1>  -0.1500 
 22 H       -4.2190    -0.1240    -1.5080 H     1 <1>   0.1500 
 23 H       -0.9390     2.5830    -1.4430 H     1 <1>   0.1500 
 24 H       -1.6170     3.3760     0.8010 H     1 <1>   0.1500 
 25 H       -3.5920     2.4360     1.8890 H     1 <1>   0.1500 
 26 H       -5.3240     0.7990     1.9850 H     1 <1>   0.0800 
 27 H       -5.2960    -0.5450     0.8650 H     1 <1>   0.0800 
 28 H       -6.4000     0.8780    -0.7490 H     1 <1>   0.4500 
 29 H       -5.7140     3.0400    -0.0410 H     1 <1>   0.0800 
 30 H       -6.6250     2.8500     1.4310 H     1 <1>   0.0800 
 31 H       -7.8830     0.5680     1.7950 H     1 <1>   0.0800 
 32 H       -7.7410    -0.6410     0.5490 H     1 <1>   0.0800 
 33 H       -7.7590     3.0800    -1.3620 H     1 <1>   0.0800 
 34 H       -7.9150     4.2240    -0.0600 H     1 <1>   0.0800 
 35 H       -9.9210     0.5820     0.5200 H     1 <1>   0.0800 
 36 H       -9.0600     0.7200    -0.9870 H     1 <1>   0.0800 
 37 H      -10.1480     2.8370    -2.2490 H     1 <1>   0.1500 
 38 H      -10.7350     3.5070     1.9180 H     1 <1>   0.1500 
 39 H      -12.8900     4.6000     1.4440 H     1 <1>   0.1500 
 40 H      -13.6660     4.8070    -0.9000 H     1 <1>   0.1500 
@<TRIPOS>BOND
  1   1   2  1   
  2   2   3  ar  
  3   2   4  ar  
  4   3   5  ar  
  5   3  22  1   
  6   4   6  ar  
  7   4  23  1   
  8   5   7  ar  
  9   5   8  1   
 10   6   7  ar  
 11   6  24  1   
 12   7  25  1   
 13   8   9  1   
 14   8  26  1   
 15   8  27  1   
 16   9  10  1   
 17   9  11  1   
 18   9  28  1   
 19  10  12  1   
 20  10  29  1   
 21  10  30  1   
 22  11  13  1   
 23  11  31  1   
 24  11  32  1   
 25  12  14  1   
 26  12  33  1   
 27  12  34  1   
 28  13  14  1   
 29  13  35  1   
 30  13  36  1   
 31  14  15  1   
 32  15  16  ar  
 33  15  17  ar  
 34  16  18  ar  
 35  16  37  1   
 36  17  19  ar  
 37  17  38  1   
 38  18  20  1   
 39  18  21  ar  
 40  19  21  ar  
 41  19  39  1   
 42  21  40  1   
@<TRIPOS>SUBSTRUCTURE
  1 ****  12 GROUP 4 **** **** 0

# MOE 2024.06 (io_trps.svl 2023.06)
