@<TRIPOS>MOLECULE
NONAME
37 38 1 0 0 
SMALL
USER_CHARGES


@<TRIPOS>ATOM
  1 O        0.1760    -0.4940    -0.4840 O.3   1 <1>  -0.3630 
  2 C        1.4070    -0.9610    -0.2250 C.ar  1 <1>   0.7020 
  3 C       -0.1060     0.8910    -0.5580 C.3   1 <1>   0.0400 
  4 N        1.5100    -2.2610    -0.2200 N.ar  1 <1>  -0.6200 
  5 N        2.3660    -0.1020    -0.0090 N.ar  1 <1>  -0.6200 
  6 C        2.7270    -2.6780     0.0280 C.ar  1 <1>   0.7030 
  7 C        3.5290    -0.6540     0.2280 C.ar  1 <1>   0.7200 
  8 O        2.9550    -3.9990     0.0560 O.3   1 <1>  -0.3630 
  9 N        3.7730    -1.9350     0.2550 N.ar  1 <1>  -0.6200 
 10 N        4.6170     0.1300     0.4520 N.pl3 1 <1>  -0.6000 
 11 C        1.9320    -4.9490    -0.1730 C.3   1 <1>   0.0400 
 12 C        4.8360     1.5200     0.4240 C.ar  1 <1>   0.1000 
 13 C        6.0800     1.9970    -0.0030 C.ar  1 <1>   0.0830 
 14 C        3.8690     2.4330     0.8260 C.ar  1 <1>  -0.1500 
 15 O        7.0110     1.0630    -0.3650 O.3   1 <1>  -0.3630 
 16 C        6.3300     3.3660    -0.0450 C.ar  1 <1>  -0.1500 
 17 C        4.1200     3.7920     0.7840 C.ar  1 <1>  -0.1500 
 18 C        8.2550     1.4350    -0.9170 C.3   1 <1>   0.0400 
 19 C        5.3440     4.2670     0.3480 C.ar  1 <1>   0.0830 
 20 O        5.5020     5.6180     0.3370 O.3   1 <1>  -0.3630 
 21 C        6.7110     6.2100    -0.0810 C.3   1 <1>   0.0400 
 22 H       -1.1480     1.0120    -0.7900 H     1 <1>   0.0800 
 23 H        0.4990     1.3300    -1.3320 H     1 <1>   0.0800 
 24 H        0.1160     1.3430     0.3930 H     1 <1>   0.0800 
 25 H        5.4800    -0.4110     0.3960 H     1 <1>   0.4000 
 26 H        2.3610    -5.9320    -0.0980 H     1 <1>   0.0800 
 27 H        1.5280    -4.7960    -1.1590 H     1 <1>   0.0800 
 28 H        1.1660    -4.8230     0.5720 H     1 <1>   0.0800 
 29 H        2.9180     2.0860     1.1810 H     1 <1>   0.1500 
 30 H        7.2790     3.7290    -0.3750 H     1 <1>   0.1500 
 31 H        3.3660     4.4930     1.0930 H     1 <1>   0.1500 
 32 H        8.0830     2.0140    -1.8060 H     1 <1>   0.0800 
 33 H        8.7920     0.5370    -1.1640 H     1 <1>   0.0800 
 34 H        8.8070     1.9990    -0.1860 H     1 <1>   0.0800 
 35 H        6.6030     7.2770    -0.0040 H     1 <1>   0.0800 
 36 H        6.8990     5.9350    -1.1040 H     1 <1>   0.0800 
 37 H        7.5050     5.8760     0.5630 H     1 <1>   0.0800 
@<TRIPOS>BOND
  1   1   2  1   
  2   1   3  1   
  3   2   4  ar  
  4   2   5  ar  
  5   3  22  1   
  6   3  23  1   
  7   3  24  1   
  8   4   6  ar  
  9   5   7  ar  
 10   6   8  1   
 11   6   9  ar  
 12   7   9  ar  
 13   7  10  1   
 14   8  11  1   
 15  10  12  1   
 16  10  25  1   
 17  11  26  1   
 18  11  27  1   
 19  11  28  1   
 20  12  13  ar  
 21  12  14  ar  
 22  13  15  1   
 23  13  16  ar  
 24  14  17  ar  
 25  14  29  1   
 26  15  18  1   
 27  16  19  ar  
 28  16  30  1   
 29  17  19  ar  
 30  17  31  1   
 31  18  32  1   
 32  18  33  1   
 33  18  34  1   
 34  19  20  1   
 35  20  21  1   
 36  21  35  1   
 37  21  36  1   
 38  21  37  1   
@<TRIPOS>SUBSTRUCTURE
  1 ****  10 GROUP 4 **** **** 0

# MOE 2024.06 (io_trps.svl 2023.06)
