@<TRIPOS>MOLECULE
NONAME
40 41 1 0 0 
SMALL
USER_CHARGES


@<TRIPOS>ATOM
  1 S        0.4450     0.1860    -1.3400 S.3   1 <1>  -0.0800 
  2 C       -0.3780    -1.1260    -0.5210 C.2   1 <1>   0.1040 
  3 C        2.0020    -0.3050    -0.7080 C.2   1 <1>  -0.1400 
  4 N       -1.7520    -1.2740    -0.6580 N.am  1 <1>  -0.4940 
  5 C        0.5090    -1.8870     0.1980 C.2   1 <1>  -0.0860 
  6 C        1.8730    -1.3980     0.0700 C.2   1 <1>  -0.1810 
  7 C        3.1640     0.5670    -1.1460 C.3   1 <1>  -0.0600 
  8 C       -2.7230    -0.5530    -1.3090 C.2   1 <1>   0.5690 
  9 C        0.0730    -3.0280     0.9690 C.2   1 <1>   0.8060 
 10 C        3.0550    -2.0780     0.7520 C.3   1 <1>  -0.0590 
 11 O       -2.5160     0.4670    -1.9180 O.2   1 <1>  -0.5700 
 12 C       -4.1490    -1.0760    -1.2790 C.3   1 <1>   0.1310 
 13 O       -1.0390    -3.5130     0.8550 O.2   1 <1>  -0.5700 
 14 O        0.9000    -3.5840     1.8650 O.3   1 <1>  -0.4300 
 15 S       -4.4670    -2.0950     0.2440 S.3   1 <1>  -0.3310 
 16 C        0.5110    -4.6860     2.6630 C.3   1 <1>   0.0400 
 17 C       -6.1410    -2.6710     0.0410 C.ar  1 <1>   0.7220 
 18 N       -6.5880    -3.4290     1.0270 N.ar  1 <1>  -0.6200 
 19 N       -6.7530    -2.2840    -1.0680 N.ar  1 <1>  -0.6200 
 20 C       -7.8190    -3.8580     0.8780 C.ar  1 <1>   0.1670 
 21 C       -7.9840    -2.7300    -1.1850 C.ar  1 <1>   0.1600 
 22 C       -8.5690    -3.5290    -0.2290 C.ar  1 <1>  -0.1500 
 23 C       -8.3780    -4.7320     1.9800 C.3   1 <1>  -0.0970 
 24 H       -2.1260    -2.0890    -0.1510 H     1 <1>   0.3700 
 25 H        2.9860     1.5830    -0.8430 H     1 <1>   0.0800 
 26 H        3.2540     0.5380    -2.2170 H     1 <1>   0.0800 
 27 H        4.0900     0.2400    -0.7140 H     1 <1>   0.0800 
 28 H        3.9870    -1.6270     0.4710 H     1 <1>   0.0800 
 29 H        3.0950    -3.1160     0.4750 H     1 <1>   0.0800 
 30 H        2.9580    -2.0010     1.8200 H     1 <1>   0.0800 
 31 H       -4.3320    -1.7040    -2.1310 H     1 <1>   0.0800 
 32 H       -4.8470    -0.2600    -1.2680 H     1 <1>   0.0800 
 33 H        1.3340    -4.9530     3.3010 H     1 <1>   0.0800 
 34 H        0.2570    -5.5110     2.0200 H     1 <1>   0.0800 
 35 H       -0.3420    -4.4030     3.2570 H     1 <1>   0.0800 
 36 H       -8.5410    -2.4520    -2.0640 H     1 <1>   0.1500 
 37 H       -9.5760    -3.8810    -0.3480 H     1 <1>   0.1500 
 38 H       -8.3730    -4.1880     2.9070 H     1 <1>   0.0800 
 39 H       -7.7640    -5.6070     2.0910 H     1 <1>   0.0800 
 40 H       -9.3840    -5.0380     1.7610 H     1 <1>   0.0800 
@<TRIPOS>BOND
  1   1   2  1   
  2   1   3  1   
  3   2   4  1   
  4   2   5  2   
  5   3   6  2   
  6   3   7  1   
  7   4   8  am  
  8   4  24  1   
  9   5   6  1   
 10   5   9  1   
 11   6  10  1   
 12   7  25  1   
 13   7  26  1   
 14   7  27  1   
 15   8  11  2   
 16   8  12  1   
 17   9  13  2   
 18   9  14  1   
 19  10  28  1   
 20  10  29  1   
 21  10  30  1   
 22  12  15  1   
 23  12  31  1   
 24  12  32  1   
 25  14  16  1   
 26  15  17  1   
 27  16  33  1   
 28  16  34  1   
 29  16  35  1   
 30  17  18  ar  
 31  17  19  ar  
 32  18  20  ar  
 33  19  21  ar  
 34  20  22  ar  
 35  20  23  1   
 36  21  22  ar  
 37  21  36  1   
 38  22  37  1   
 39  23  38  1   
 40  23  39  1   
 41  23  40  1   
@<TRIPOS>SUBSTRUCTURE
  1 ****   4 GROUP 4 **** **** 0

# MOE 2024.06 (io_trps.svl 2023.06)
