@<TRIPOS>MOLECULE
NONAME
37 38 1 0 0 
SMALL
USER_CHARGES


@<TRIPOS>ATOM
  1 S       -0.0920     0.1220     0.6820 S.o2  1 <1>   1.4470 
  2 O       -0.3180    -1.1300     0.0000 O.2   1 <1>  -0.6500 
  3 O        0.1410     0.1410     2.1090 O.2   1 <1>  -0.6500 
  4 N        1.3290     0.7600     0.0020 N.am  1 <1>  -0.8490 
  5 C       -1.3580     1.3350     0.2130 C.ar  1 <1>  -0.0090 
  6 C        1.8170     1.9570     0.7220 C.3   1 <1>   0.1960 
  7 C        2.3890    -0.2730    -0.0470 C.3   1 <1>   0.1960 
  8 C       -1.9910     2.1280     1.1620 C.ar  1 <1>  -0.1500 
  9 C       -1.7180     1.5170    -1.1160 C.ar  1 <1>  -0.1500 
 10 C        3.0780     2.5720     0.0590 C.3   1 <1>   0.3430 
 11 C        3.7480     0.2680    -0.5610 C.3   1 <1>   0.3430 
 12 C       -2.9360     3.0720     0.7970 C.ar  1 <1>  -0.1500 
 13 C       -2.6600     2.4610    -1.4810 C.ar  1 <1>  -0.1500 
 14 N        3.6380     1.6940    -1.0290 N.4   1 <1>  -0.9590 
 15 C       -3.2920     3.2710    -0.5380 C.ar  1 <1>   0.0860 
 16 C        4.9140     2.2190    -1.6020 C.3   1 <1>   0.2630 
 17 C       -4.2710     4.2670    -0.9480 C.2   1 <1>   0.5440 
 18 O       -4.7590     4.2600    -2.0560 O.2   1 <1>  -0.5700 
 19 N       -4.6830     5.2630    -0.1300 N.am  1 <1>  -0.8000 
 20 H        2.0550     1.7000     1.7420 H     1 <1>   0.0800 
 21 H        1.0440     2.7060     0.7540 H     1 <1>   0.0800 
 22 H        2.0760    -1.0740    -0.6980 H     1 <1>   0.0800 
 23 H        2.5310    -0.7020     0.9330 H     1 <1>   0.0800 
 24 H       -1.7480     2.0020     2.2050 H     1 <1>   0.1500 
 25 H       -1.2580     0.9070    -1.8760 H     1 <1>   0.1500 
 26 H        3.8230     2.7360     0.8200 H     1 <1>   0.0800 
 27 H        2.8190     3.5340    -0.3520 H     1 <1>   0.0800 
 28 H        4.0910    -0.3610    -1.3660 H     1 <1>   0.0800 
 29 H        4.4720     0.2010     0.2350 H     1 <1>   0.0800 
 30 H       -3.4090     3.6550     1.5660 H     1 <1>   0.1500 
 31 H       -2.9210     2.5750    -2.5210 H     1 <1>   0.1500 
 32 H        2.9060     1.6750    -1.7590 H     1 <1>   0.4500 
 33 H        5.6840     2.2400    -0.8480 H     1 <1>   0.0800 
 34 H        4.7720     3.2200    -1.9780 H     1 <1>   0.0800 
 35 H        5.2450     1.5940    -2.4150 H     1 <1>   0.0800 
 36 H       -5.3630     5.9330    -0.4920 H     1 <1>   0.3700 
 37 H       -4.3140     5.4440     0.8010 H     1 <1>   0.3700 
@<TRIPOS>BOND
  1   1   2  2   
  2   1   3  2   
  3   1   4  am  
  4   1   5  1   
  5   4   6  1   
  6   4   7  1   
  7   5   8  ar  
  8   5   9  ar  
  9   6  10  1   
 10   6  20  1   
 11   6  21  1   
 12   7  11  1   
 13   7  22  1   
 14   7  23  1   
 15   8  12  ar  
 16   8  24  1   
 17   9  13  ar  
 18   9  25  1   
 19  10  14  1   
 20  10  26  1   
 21  10  27  1   
 22  11  14  1   
 23  11  28  1   
 24  11  29  1   
 25  12  15  ar  
 26  12  30  1   
 27  13  15  ar  
 28  13  31  1   
 29  14  16  1   
 30  14  32  1   
 31  15  17  1   
 32  16  33  1   
 33  16  34  1   
 34  16  35  1   
 35  17  18  2   
 36  17  19  am  
 37  19  36  1   
 38  19  37  1   
@<TRIPOS>SUBSTRUCTURE
  1 ****   5 GROUP 4 **** **** 0

# MOE 2024.06 (io_trps.svl 2023.06)
