@<TRIPOS>MOLECULE
NONAME
46 48 1 0 0 
SMALL
USER_CHARGES


@<TRIPOS>ATOM
  1 O       -1.5760     0.2870    -2.1630 O.2   1 <1>  -0.5700 
  2 C       -2.2160     0.5330    -1.1620 C.2   1 <1>   0.5690 
  3 N       -2.5560     1.7800    -0.7140 N.am  1 <1>  -0.4770 
  4 C       -2.7290    -0.5410    -0.1860 C.3   1 <1>   0.4810 
  5 C       -3.2790     1.6750     0.4750 C.ar  1 <1>   0.1170 
  6 C       -2.2620     3.0360    -1.4300 C.3   1 <1>   0.1400 
  7 C       -3.7430    -1.5120    -0.8180 C.2   1 <1>  -0.1240 
  8 C       -1.5380    -1.2730     0.4530 C.2   1 <1>  -0.1240 
  9 C       -3.4210     0.3490     0.8430 C.ar  1 <1>  -0.1440 
 10 C       -3.8290     2.6770     1.2610 C.ar  1 <1>  -0.1500 
 11 C       -3.4780     3.4440    -2.2590 C.3   1 <1>  -0.2400 
 12 C       -3.6290    -2.8450    -0.5310 C.2   1 <1>   0.1770 
 13 C       -4.7500    -0.9370    -1.6500 C.2   1 <1>   0.7060 
 14 C       -1.6080    -2.6110     0.6420 C.2   1 <1>  -0.0610 
 15 C       -0.4150    -0.4450     0.7840 C.2   1 <1>   0.4950 
 16 C       -4.1080    -0.0050     1.9910 C.ar  1 <1>  -0.1500 
 17 C       -4.5190     2.3300     2.4120 C.ar  1 <1>  -0.1500 
 18 O       -2.6510    -3.3370     0.2360 O.3   1 <1>  -0.1530 
 19 N       -4.4640    -3.8310    -0.9630 N.pl3 1 <1>  -0.9000 
 20 O       -4.9810     0.2570    -1.7310 O.2   1 <1>  -0.5700 
 21 O       -5.5150    -1.7430    -2.4100 O.3   1 <1>  -0.4300 
 22 C       -0.5670    -3.4850     1.3250 C.3   1 <1>  -0.1020 
 23 O       -0.4850     0.5430     1.4640 O.2   1 <1>  -0.5700 
 24 C        0.9510    -0.7900     0.2300 C.3   1 <1>  -0.1790 
 25 C       -4.6580     0.9970     2.7750 C.ar  1 <1>  -0.1500 
 26 C       -6.5140    -1.2280    -3.2710 C.3   1 <1>   0.0400 
 27 H       -1.4130     2.8850    -2.0750 H     1 <1>   0.0800 
 28 H       -2.0140     3.8030    -0.7170 H     1 <1>   0.0800 
 29 H       -3.7210     3.7060     0.9780 H     1 <1>   0.1500 
 30 H       -3.7070     2.6750    -2.9760 H     1 <1>   0.0800 
 31 H       -3.2700     4.3560    -2.7880 H     1 <1>   0.0800 
 32 H       -4.3310     3.5980    -1.6240 H     1 <1>   0.0800 
 33 H       -4.2120    -1.0390     2.2720 H     1 <1>   0.1500 
 34 H       -4.9490     3.0990     3.0290 H     1 <1>   0.1500 
 35 H       -5.2220    -3.6360    -1.6320 H     1 <1>   0.4000 
 36 H       -4.3050    -4.8180    -0.7460 H     1 <1>   0.4000 
 37 H       -1.0450    -4.0980     2.0680 H     1 <1>   0.0800 
 38 H        0.1880    -2.9030     1.8180 H     1 <1>   0.0800 
 39 H       -0.1000    -4.1280     0.6010 H     1 <1>   0.0800 
 40 H        1.3430     0.0660    -0.2890 H     1 <1>   0.0800 
 41 H        0.8890    -1.6090    -0.4610 H     1 <1>   0.0800 
 42 H        1.6160    -1.0420     1.0340 H     1 <1>   0.0800 
 43 H       -5.1940     0.7400     3.6720 H     1 <1>   0.1500 
 44 H       -6.9870    -2.0510    -3.7770 H     1 <1>   0.0800 
 45 H       -6.0510    -0.5700    -3.9860 H     1 <1>   0.0800 
 46 H       -7.2370    -0.6890    -2.6830 H     1 <1>   0.0800 
@<TRIPOS>BOND
  1   1   2  2   
  2   2   3  am  
  3   2   4  1   
  4   3   5  1   
  5   3   6  1   
  6   4   7  1   
  7   4   8  1   
  8   4   9  1   
  9   5   9  ar  
 10   5  10  ar  
 11   6  11  1   
 12   6  27  1   
 13   6  28  1   
 14   7  12  2   
 15   7  13  1   
 16   8  14  2   
 17   8  15  1   
 18   9  16  ar  
 19  10  17  ar  
 20  10  29  1   
 21  11  30  1   
 22  11  31  1   
 23  11  32  1   
 24  12  18  1   
 25  12  19  1   
 26  13  20  2   
 27  13  21  1   
 28  14  18  1   
 29  14  22  1   
 30  15  23  2   
 31  15  24  1   
 32  16  25  ar  
 33  16  33  1   
 34  17  25  ar  
 35  17  34  1   
 36  19  35  1   
 37  19  36  1   
 38  21  26  1   
 39  22  37  1   
 40  22  38  1   
 41  22  39  1   
 42  24  40  1   
 43  24  41  1   
 44  24  42  1   
 45  25  43  1   
 46  26  44  1   
 47  26  45  1   
 48  26  46  1   
@<TRIPOS>SUBSTRUCTURE
  1 ****   4 GROUP 4 **** **** 0

# MOE 2024.06 (io_trps.svl 2023.06)
