@<TRIPOS>MOLECULE
NONAME
39 41 1 0 0 
SMALL
USER_CHARGES


@<TRIPOS>ATOM
  1 CL      -1.9900    -1.6520     0.9790 Cl    1 <1>  -0.1770 
  2 C       -0.8610    -2.3500    -0.1740 C.ar  1 <1>   0.1770 
  3 C       -1.2500    -2.5440    -1.4820 C.ar  1 <1>   0.0830 
  4 C        0.4330    -2.6920     0.2810 C.ar  1 <1>   0.0000 
  5 O       -2.4820    -2.2340    -1.9550 O.3   1 <1>  -0.3630 
  6 C       -0.3380    -3.0720    -2.4020 C.ar  1 <1>  -0.1500 
  7 C        1.3370    -3.2420    -0.6580 C.ar  1 <1>   0.0000 
  8 C        0.8800    -2.5210     1.6120 C.ar  1 <1>  -0.1500 
  9 C       -3.5950    -2.9260    -1.4350 C.3   1 <1>   0.1200 
 10 C        0.9210    -3.4130    -1.9950 C.ar  1 <1>  -0.1500 
 11 C        2.6310    -3.6010    -0.2330 C.ar  1 <1>  -0.1500 
 12 C        2.1420    -2.8790     1.9950 C.ar  1 <1>  -0.1500 
 13 C       -4.6380    -1.8780    -1.0290 C.3   1 <1>   0.3430 
 14 C        3.0290    -3.4260     1.0630 C.ar  1 <1>  -0.1500 
 15 N       -5.6930    -2.4310    -0.1200 N.4   1 <1>  -0.9590 
 16 C       -6.8740    -1.5110     0.0030 C.3   1 <1>   0.3430 
 17 C       -5.1780    -2.7800     1.2530 C.3   1 <1>   0.3430 
 18 C       -7.9490    -2.0980     0.9490 C.3   1 <1>   0.1200 
 19 C       -6.3160    -3.2640     2.1810 C.3   1 <1>   0.1200 
 20 O       -7.5370    -3.3230     1.4930 O.3   1 <1>  -0.5600 
 21 H       -0.6470    -3.2010    -3.4250 H     1 <1>   0.1500 
 22 H        0.2130    -2.0980     2.3410 H     1 <1>   0.1500 
 23 H       -3.2770    -3.5220    -0.5990 H     1 <1>   0.0800 
 24 H       -3.9740    -3.5660    -2.2120 H     1 <1>   0.0800 
 25 H        1.6250    -3.8220    -2.7000 H     1 <1>   0.1500 
 26 H        3.3120    -4.0200    -0.9530 H     1 <1>   0.1500 
 27 H        2.4710    -2.7440     3.0110 H     1 <1>   0.1500 
 28 H       -5.0950    -1.4910    -1.9250 H     1 <1>   0.0800 
 29 H       -4.1340    -1.0650    -0.5310 H     1 <1>   0.0800 
 30 H        4.0190    -3.7020     1.3820 H     1 <1>   0.1500 
 31 H       -6.0790    -3.3080    -0.5020 H     1 <1>   0.4500 
 32 H       -7.3150    -1.3410    -0.9660 H     1 <1>   0.0800 
 33 H       -6.5580    -0.5550     0.3870 H     1 <1>   0.0800 
 34 H       -4.7060    -1.9200     1.6990 H     1 <1>   0.0800 
 35 H       -4.4320    -3.5550     1.1840 H     1 <1>   0.0800 
 36 H       -8.8640    -2.2720     0.4080 H     1 <1>   0.0800 
 37 H       -8.1620    -1.4160     1.7550 H     1 <1>   0.0800 
 38 H       -6.4270    -2.6050     3.0250 H     1 <1>   0.0800 
 39 H       -6.0990    -4.2510     2.5510 H     1 <1>   0.0800 
@<TRIPOS>BOND
  1   1   2  1   
  2   2   3  ar  
  3   2   4  ar  
  4   3   5  1   
  5   3   6  ar  
  6   4   7  ar  
  7   4   8  ar  
  8   5   9  1   
  9   6  10  ar  
 10   6  21  1   
 11   7  10  ar  
 12   7  11  ar  
 13   8  12  ar  
 14   8  22  1   
 15   9  13  1   
 16   9  23  1   
 17   9  24  1   
 18  10  25  1   
 19  11  14  ar  
 20  11  26  1   
 21  12  14  ar  
 22  12  27  1   
 23  13  15  1   
 24  13  28  1   
 25  13  29  1   
 26  14  30  1   
 27  15  16  1   
 28  15  17  1   
 29  15  31  1   
 30  16  18  1   
 31  16  32  1   
 32  16  33  1   
 33  17  19  1   
 34  17  34  1   
 35  17  35  1   
 36  18  20  1   
 37  18  36  1   
 38  18  37  1   
 39  19  20  1   
 40  19  38  1   
 41  19  39  1   
@<TRIPOS>SUBSTRUCTURE
  1 ****   2 GROUP 4 **** **** 0

# MOE 2024.06 (io_trps.svl 2023.06)
