@<TRIPOS>MOLECULE
NONAME
43 45 1 0 0 
SMALL
USER_CHARGES


@<TRIPOS>ATOM
  1 O        0.5140    -0.4880     1.7460 O.2   1 <1>  -0.5700 
  2 C        1.5100    -0.8320     1.1520 C.2   1 <1>   0.5690 
  3 N        1.6730    -2.0140     0.4800 N.am  1 <1>  -0.2370 
  4 C        2.8060    -0.0040     1.1470 C.3   1 <1>   0.2510 
  5 C        0.6490    -2.9440     0.1860 C.ar  1 <1>   0.1170 
  6 C        2.9930    -2.1700     0.1560 C.2   1 <1>   0.5690 
  7 N        2.8530     1.1910     0.2480 N.3   1 <1>  -0.8100 
  8 C        3.8380    -1.0260     0.6520 C.3   1 <1>  -0.0990 
  9 C       -0.2470    -3.3630     1.1640 C.ar  1 <1>  -0.1500 
 10 C        0.5130    -3.4660    -1.0960 C.ar  1 <1>  -0.1500 
 11 O        3.4830    -3.1000    -0.4310 O.2   1 <1>  -0.5700 
 12 C        4.0170     2.0400     0.5800 C.3   1 <1>   0.1100 
 13 C        1.5830     1.9500     0.2390 C.3   1 <1>   0.1100 
 14 C       -1.2460    -4.2730     0.8710 C.ar  1 <1>  -0.1500 
 15 C       -0.4860    -4.3770    -1.3920 C.ar  1 <1>  -0.1500 
 16 C        4.4940     2.7980    -0.6600 C.3   1 <1>  -0.1600 
 17 C        1.5380     3.0650    -0.8140 C.3   1 <1>  -0.1600 
 18 C       -1.3710    -4.7870    -0.4090 C.ar  1 <1>  -0.1430 
 19 C        3.8560     4.1830    -0.8500 C.3   1 <1>  -0.1600 
 20 C        2.3800     4.2950    -0.4470 C.3   1 <1>  -0.1600 
 21 C       -2.4680    -5.7850    -0.7320 C.3   1 <1>  -0.0970 
 22 H        3.0160     0.2960     2.1600 H     1 <1>   0.0800 
 23 H        4.4530    -1.3720     1.4610 H     1 <1>   0.0800 
 24 H        4.4510    -0.6530    -0.1480 H     1 <1>   0.0800 
 25 H       -0.1670    -2.9730     2.1630 H     1 <1>   0.1500 
 26 H        1.1960    -3.1610    -1.8700 H     1 <1>   0.1500 
 27 H        4.8340     1.4200     0.9060 H     1 <1>   0.0800 
 28 H        3.7840     2.7150     1.3860 H     1 <1>   0.0800 
 29 H        1.3860     2.3530     1.2190 H     1 <1>   0.0800 
 30 H        0.7760     1.2820    -0.0060 H     1 <1>   0.0800 
 31 H       -1.9290    -4.5780     1.6450 H     1 <1>   0.1500 
 32 H       -0.5690    -4.7660    -2.3910 H     1 <1>   0.1500 
 33 H        4.3140     2.1890    -1.5300 H     1 <1>   0.0800 
 34 H        5.5580     2.9350    -0.5900 H     1 <1>   0.0800 
 35 H        0.5140     3.3850    -0.8850 H     1 <1>   0.0800 
 36 H        1.8150     2.6770    -1.7780 H     1 <1>   0.0800 
 37 H        3.9560     4.4540    -1.8870 H     1 <1>   0.0800 
 38 H        4.4130     4.9070    -0.2800 H     1 <1>   0.0800 
 39 H        2.3050     4.4730     0.6120 H     1 <1>   0.0800 
 40 H        1.9670     5.1590    -0.9390 H     1 <1>   0.0800 
 41 H       -3.3490    -5.2630    -1.0610 H     1 <1>   0.0800 
 42 H       -2.7140    -6.3690     0.1360 H     1 <1>   0.0800 
 43 H       -2.1500    -6.4540    -1.5110 H     1 <1>   0.0800 
@<TRIPOS>BOND
  1   1   2  2   
  2   2   3  am  
  3   2   4  1   
  4   3   5  1   
  5   3   6  am  
  6   4   7  1   
  7   4   8  1   
  8   4  22  1   
  9   5   9  ar  
 10   5  10  ar  
 11   6   8  1   
 12   6  11  2   
 13   7  12  1   
 14   7  13  1   
 15   8  23  1   
 16   8  24  1   
 17   9  14  ar  
 18   9  25  1   
 19  10  15  ar  
 20  10  26  1   
 21  12  16  1   
 22  12  27  1   
 23  12  28  1   
 24  13  17  1   
 25  13  29  1   
 26  13  30  1   
 27  14  18  ar  
 28  14  31  1   
 29  15  18  ar  
 30  15  32  1   
 31  16  19  1   
 32  16  33  1   
 33  16  34  1   
 34  17  20  1   
 35  17  35  1   
 36  17  36  1   
 37  18  21  1   
 38  19  20  1   
 39  19  37  1   
 40  19  38  1   
 41  20  39  1   
 42  20  40  1   
 43  21  41  1   
 44  21  42  1   
 45  21  43  1   
@<TRIPOS>SUBSTRUCTURE
  1 ****   2 GROUP 4 **** **** 0

# MOE 2024.06 (io_trps.svl 2023.06)
