@<TRIPOS>MOLECULE
NONAME
46 48 1 0 0 
SMALL
USER_CHARGES


@<TRIPOS>ATOM
  1 O      -16.4640     1.9900     0.7480 O.3   1 <1>  -0.5600 
  2 C      -16.5970     0.5990     0.6240 C.3   1 <1>   0.1200 
  3 C      -15.9620     2.6220    -0.3980 C.3   1 <1>   0.1200 
  4 C      -15.2550    -0.0640     0.2320 C.3   1 <1>   0.3430 
  5 C      -14.5590     2.0810    -0.7630 C.3   1 <1>   0.3430 
  6 N      -14.1490     0.9490     0.1410 N.4   1 <1>  -0.9590 
  7 C      -12.8400     0.3310    -0.2030 C.3   1 <1>   0.3430 
  8 C      -11.6940     1.3070     0.0720 C.3   1 <1>  -0.1600 
  9 C      -10.3410     0.6270    -0.1880 C.3   1 <1>  -0.1600 
 10 C       -9.1660     1.5660     0.0900 C.3   1 <1>   0.1200 
 11 O       -7.9860     0.8550    -0.1880 O.3   1 <1>  -0.3630 
 12 C       -6.7640     1.4250    -0.0350 C.ar  1 <1>   0.0820 
 13 C       -5.6670     0.6320    -0.3430 C.ar  1 <1>  -0.1500 
 14 C       -6.5680     2.7360     0.4040 C.ar  1 <1>  -0.1500 
 15 C       -4.3940     1.1520    -0.2090 C.ar  1 <1>  -0.1440 
 16 C       -5.2850     3.2460     0.5340 C.ar  1 <1>  -0.1500 
 17 C       -4.2050     2.4400     0.2230 C.ar  1 <1>  -0.1440 
 18 C       -3.0790     0.4680    -0.4880 C.3   1 <1>  -0.0170 
 19 C       -2.7390     2.7860     0.2900 C.3   1 <1>  -0.0170 
 20 C       -2.0430     1.4230     0.1290 C.3   1 <1>  -0.1600 
 21 H      -17.3560     0.3880    -0.1100 H     1 <1>   0.0800 
 22 H      -16.9340     0.2180     1.5730 H     1 <1>   0.0800 
 23 H      -15.9110     3.6780    -0.1960 H     1 <1>   0.0800 
 24 H      -16.6540     2.4680    -1.2080 H     1 <1>   0.0800 
 25 H      -15.3760    -0.5610    -0.7160 H     1 <1>   0.0800 
 26 H      -15.0090    -0.8160     0.9630 H     1 <1>   0.0800 
 27 H      -13.8480     2.8870    -0.6890 H     1 <1>   0.0800 
 28 H      -14.5680     1.7510    -1.7880 H     1 <1>   0.0800 
 29 H      -14.0960     1.3640     1.0840 H     1 <1>   0.4500 
 30 H      -12.8300     0.0370    -1.2410 H     1 <1>   0.0800 
 31 H      -12.6910    -0.5520     0.3970 H     1 <1>   0.0800 
 32 H      -11.7300     1.6280     1.0990 H     1 <1>   0.0800 
 33 H      -11.7740     2.1680    -0.5680 H     1 <1>   0.0800 
 34 H      -10.2860     0.3070    -1.2150 H     1 <1>   0.0800 
 35 H      -10.2410    -0.2380     0.4470 H     1 <1>   0.0800 
 36 H       -9.1440     1.8670     1.1230 H     1 <1>   0.0800 
 37 H       -9.1970     2.4300    -0.5530 H     1 <1>   0.0800 
 38 H       -5.8180    -0.3760    -0.6810 H     1 <1>   0.1500 
 39 H       -7.3940     3.3730     0.6500 H     1 <1>   0.1500 
 40 H       -5.1280     4.2550     0.8720 H     1 <1>   0.1500 
 41 H       -2.9380     0.3860    -1.5510 H     1 <1>   0.0800 
 42 H       -3.0380    -0.5070    -0.0350 H     1 <1>   0.0800 
 43 H       -2.4850     3.2520     1.2260 H     1 <1>   0.0800 
 44 H       -2.4890     3.4400    -0.5260 H     1 <1>   0.0800 
 45 H       -1.1560     1.4960    -0.4760 H     1 <1>   0.0800 
 46 H       -1.7730     1.0560     1.1040 H     1 <1>   0.0800 
@<TRIPOS>BOND
  1   1   2  1   
  2   1   3  1   
  3   2   4  1   
  4   2  21  1   
  5   2  22  1   
  6   3   5  1   
  7   3  23  1   
  8   3  24  1   
  9   4   6  1   
 10   4  25  1   
 11   4  26  1   
 12   5   6  1   
 13   5  27  1   
 14   5  28  1   
 15   6   7  1   
 16   6  29  1   
 17   7   8  1   
 18   7  30  1   
 19   7  31  1   
 20   8   9  1   
 21   8  32  1   
 22   8  33  1   
 23   9  10  1   
 24   9  34  1   
 25   9  35  1   
 26  10  11  1   
 27  10  36  1   
 28  10  37  1   
 29  11  12  1   
 30  12  13  ar  
 31  12  14  ar  
 32  13  15  ar  
 33  13  38  1   
 34  14  16  ar  
 35  14  39  1   
 36  15  17  ar  
 37  15  18  1   
 38  16  17  ar  
 39  16  40  1   
 40  17  19  1   
 41  18  20  1   
 42  18  41  1   
 43  18  42  1   
 44  19  20  1   
 45  19  43  1   
 46  19  44  1   
 47  20  45  1   
 48  20  46  1   
@<TRIPOS>SUBSTRUCTURE
  1 ****  10 GROUP 4 **** **** 0

# MOE 2024.06 (io_trps.svl 2023.06)
