@<TRIPOS>MOLECULE
NONAME
28 27 1 0 0 
SMALL
USER_CHARGES


@<TRIPOS>ATOM
  1 F        1.5600     0.4330    -1.6230 F     1 <1>  -0.3400 
  2 C        0.4760     0.7480    -0.9190 C.3   1 <1>   1.0200 
  3 F       -0.5470     0.5300    -1.7390 F     1 <1>  -0.3400 
  4 F        0.3820    -0.2020     0.0070 F     1 <1>  -0.3400 
  5 C        0.4930     2.1930    -0.2920 C.3   1 <1>   0.5800 
  6 O        1.5720     2.3730     0.6330 O.3   1 <1>  -0.5600 
  7 N       -0.6390     2.4320     0.6780 N.am  1 <1>  -0.7300 
  8 C        0.5330     3.1970    -1.5120 C.3   1 <1>   1.0200 
  9 C        2.8960     2.5020     0.2040 C.3   1 <1>   0.1200 
 10 C       -1.8610     2.9080     0.3650 C.2   1 <1>   0.5690 
 11 F       -0.5600     3.1770    -2.2690 F     1 <1>  -0.3400 
 12 F        1.5420     2.9970    -2.3550 F     1 <1>  -0.3400 
 13 F        0.6640     4.4610    -1.1200 F     1 <1>  -0.3400 
 14 C        3.7640     2.5490     1.4530 C.3   1 <1>  -0.2400 
 15 O       -2.1330     4.0420     0.6520 O.2   1 <1>  -0.5700 
 16 C       -2.8880     2.0280    -0.3340 C.3   1 <1>  -0.0990 
 17 C       -4.2960     2.1470     0.2720 C.3   1 <1>  -0.2400 
 18 H       -0.2250     2.9240     1.4730 H     1 <1>   0.3700 
 19 H        3.0100     3.4180    -0.3510 H     1 <1>   0.0800 
 20 H        3.1790     1.6590    -0.4020 H     1 <1>   0.0800 
 21 H        3.4900     3.3910     2.0650 H     1 <1>   0.0800 
 22 H        4.7970     2.6520     1.1750 H     1 <1>   0.0800 
 23 H        3.6520     1.6420     2.0200 H     1 <1>   0.0800 
 24 H       -2.5820     1.0010    -0.2650 H     1 <1>   0.0800 
 25 H       -2.9290     2.3020    -1.3720 H     1 <1>   0.0800 
 26 H       -4.2770     1.8790     1.3140 H     1 <1>   0.0800 
 27 H       -4.9800     1.4950    -0.2420 H     1 <1>   0.0800 
 28 H       -4.6540     3.1590     0.1850 H     1 <1>   0.0800 
@<TRIPOS>BOND
  1   1   2  1   
  2   2   3  1   
  3   2   4  1   
  4   2   5  1   
  5   5   6  1   
  6   5   7  1   
  7   5   8  1   
  8   6   9  1   
  9   7  10  am  
 10   7  18  1   
 11   8  11  1   
 12   8  12  1   
 13   8  13  1   
 14   9  14  1   
 15   9  19  1   
 16   9  20  1   
 17  10  15  2   
 18  10  16  1   
 19  14  21  1   
 20  14  22  1   
 21  14  23  1   
 22  16  17  1   
 23  16  24  1   
 24  16  25  1   
 25  17  26  1   
 26  17  27  1   
 27  17  28  1   
@<TRIPOS>SUBSTRUCTURE
  1 ****   5 GROUP 4 **** **** 0

# MOE 2024.06 (io_trps.svl 2023.06)
