@<TRIPOS>MOLECULE
NONAME
43 45 1 0 0 
SMALL
USER_CHARGES


@<TRIPOS>ATOM
  1 N       -3.9910     6.0470    -0.1810 N.pl3 1 <1>  -0.8440 
  2 C       -4.2210     4.7710     0.0450 C.cat 1 <1>   1.2000 
  3 C       -2.5390     6.2760    -0.4450 C.3   1 <1>   0.1680 
  4 N       -3.1340     4.0410    -0.0370 N.pl3 1 <1>  -0.7050 
  5 N       -5.3070     4.0480     0.3520 N.pl3 1 <1>  -0.7050 
  6 C       -1.9360     4.8530    -0.3390 C.3   1 <1>   0.1680 
  7 C       -3.4690     2.7410     0.2730 C.ar  1 <1>   0.3110 
  8 C       -4.8350     2.7400     0.5280 C.ar  1 <1>   0.3110 
  9 C       -6.7090     4.5040     0.5770 C.3   1 <1>   0.1680 
 10 C       -2.7170     1.5780     0.3590 C.ar  1 <1>  -0.1500 
 11 C       -5.4770     1.5610     0.8940 C.ar  1 <1>  -0.1500 
 12 C       -7.6600     3.9820    -0.5250 C.3   1 <1>   0.3430 
 13 C       -3.3600     0.4070     0.7140 C.ar  1 <1>  -0.1500 
 14 C       -4.7300     0.4000     0.9820 C.ar  1 <1>  -0.1500 
 15 N       -9.1190     4.2250    -0.2410 N.4   1 <1>  -0.9590 
 16 C       -9.9520     3.4650    -1.2170 C.3   1 <1>   0.3430 
 17 C       -9.4930     5.6690    -0.2470 C.3   1 <1>   0.3430 
 18 C      -11.3580     3.2830    -0.6550 C.3   1 <1>  -0.2400 
 19 C       -9.7150     6.1220     1.1900 C.3   1 <1>  -0.2400 
 20 H       -4.6540     6.8150    -0.1090 H     1 <1>   0.4500 
 21 H       -2.1080     6.9310     0.2950 H     1 <1>   0.0800 
 22 H       -2.3830     6.6890    -1.4280 H     1 <1>   0.0800 
 23 H       -1.2150     4.7900     0.4600 H     1 <1>   0.0800 
 24 H       -1.4850     4.5470    -1.2680 H     1 <1>   0.0800 
 25 H       -6.7330     5.5800     0.5960 H     1 <1>   0.0800 
 26 H       -7.0340     4.1390     1.5360 H     1 <1>   0.0800 
 27 H       -1.6610     1.5970     0.1540 H     1 <1>   0.1500 
 28 H       -6.5280     1.5450     1.1130 H     1 <1>   0.1500 
 29 H       -7.5030     2.9200    -0.6230 H     1 <1>   0.0800 
 30 H       -7.3990     4.4420    -1.4640 H     1 <1>   0.0800 
 31 H       -2.8020    -0.5140     0.7900 H     1 <1>   0.1500 
 32 H       -5.2010    -0.5290     1.2630 H     1 <1>   0.1500 
 33 H       -9.3610     3.8490     0.6880 H     1 <1>   0.4500 
 34 H       -9.5230     2.4890    -1.3870 H     1 <1>   0.0800 
 35 H       -9.9930     3.9830    -2.1630 H     1 <1>   0.0800 
 36 H      -10.4060     5.8170    -0.8030 H     1 <1>   0.0800 
 37 H       -8.7220     6.2620    -0.7140 H     1 <1>   0.0800 
 38 H      -11.3320     2.7580     0.2830 H     1 <1>   0.0800 
 39 H      -11.9380     2.6950    -1.3440 H     1 <1>   0.0800 
 40 H      -11.8620     4.2250    -0.5290 H     1 <1>   0.0800 
 41 H      -10.5180     5.5660     1.6440 H     1 <1>   0.0800 
 42 H       -9.9990     7.1600     1.1910 H     1 <1>   0.0800 
 43 H       -8.8260     6.0240     1.7850 H     1 <1>   0.0800 
@<TRIPOS>BOND
  1   1   2  ar  
  2   1   3  1   
  3   1  20  1   
  4   2   4  ar  
  5   2   5  ar  
  6   3   6  1   
  7   3  21  1   
  8   3  22  1   
  9   4   6  1   
 10   4   7  1   
 11   5   8  1   
 12   5   9  1   
 13   6  23  1   
 14   6  24  1   
 15   7   8  ar  
 16   7  10  ar  
 17   8  11  ar  
 18   9  12  1   
 19   9  25  1   
 20   9  26  1   
 21  10  13  ar  
 22  10  27  1   
 23  11  14  ar  
 24  11  28  1   
 25  12  15  1   
 26  12  29  1   
 27  12  30  1   
 28  13  14  ar  
 29  13  31  1   
 30  14  32  1   
 31  15  16  1   
 32  15  17  1   
 33  15  33  1   
 34  16  18  1   
 35  16  34  1   
 36  16  35  1   
 37  17  19  1   
 38  17  36  1   
 39  17  37  1   
 40  18  38  1   
 41  18  39  1   
 42  18  40  1   
 43  19  41  1   
 44  19  42  1   
 45  19  43  1   
@<TRIPOS>SUBSTRUCTURE
  1 ****   5 GROUP 4 **** **** 0

# MOE 2024.06 (io_trps.svl 2023.06)
