@<TRIPOS>MOLECULE
NONAME
43 44 1 0 0 
SMALL
USER_CHARGES


@<TRIPOS>ATOM
  1 CL      -0.0620    -0.9060     0.9450 Cl    1 <1>  -0.1770 
  2 C       -0.8730    -2.2940     0.2540 C.ar  1 <1>   0.1770 
  3 C       -0.1900    -3.4890     0.0670 C.ar  1 <1>   0.0820 
  4 C       -2.2040    -2.1550    -0.0970 C.ar  1 <1>  -0.1500 
  5 O        1.1160    -3.5610     0.4210 O.3   1 <1>  -0.3630 
  6 C       -0.8810    -4.5800    -0.4780 C.ar  1 <1>   0.0830 
  7 C       -2.8850    -3.2310    -0.6470 C.ar  1 <1>  -0.1440 
  8 C        2.0470    -3.1710    -0.5660 C.3   1 <1>   0.2640 
  9 O       -0.3660    -5.8200    -0.7010 O.3   1 <1>  -0.3630 
 10 C       -2.2120    -4.4300    -0.8380 C.ar  1 <1>  -0.1500 
 11 C       -4.3450    -3.1100    -1.0260 C.3   1 <1>   0.4870 
 12 C        3.4470    -3.4460    -0.0410 C.ar  1 <1>  -0.1440 
 13 C        0.7030    -6.3370     0.0670 C.3   1 <1>   0.0400 
 14 N       -5.1230    -3.5900     0.1350 N.4   1 <1>  -0.9060 
 15 C        4.3070    -4.3300    -0.6760 C.ar  1 <1>   0.1900 
 16 C        3.9040    -2.8060     1.1020 C.ar  1 <1>  -0.1500 
 17 C       -6.5970    -3.5180    -0.0880 C.3   1 <1>   0.3430 
 18 F        3.9110    -4.9540    -1.7540 F     1 <1>  -0.1900 
 19 C        5.5840    -4.5870    -0.2130 C.ar  1 <1>  -0.1500 
 20 C        5.1820    -3.0510     1.5820 C.ar  1 <1>  -0.1500 
 21 C       -7.3850    -4.0140     1.1310 C.3   1 <1>   0.1200 
 22 C        6.0230    -3.9380     0.9280 C.ar  1 <1>  -0.1500 
 23 O       -8.7270    -3.8820     0.8320 O.3   1 <1>  -0.6800 
 24 H       -2.6780    -1.2020     0.0660 H     1 <1>   0.1500 
 25 H        1.9210    -2.1200    -0.7580 H     1 <1>   0.0800 
 26 H        1.8400    -3.7250    -1.4650 H     1 <1>   0.0800 
 27 H       -2.7050    -5.2830    -1.2730 H     1 <1>   0.1500 
 28 H       -4.5510    -3.7110    -1.8970 H     1 <1>   0.0800 
 29 H       -4.5870    -2.0820    -1.2460 H     1 <1>   0.0800 
 30 H        0.7070    -7.4070    -0.0410 H     1 <1>   0.0800 
 31 H        0.5610    -6.0730     1.1000 H     1 <1>   0.0800 
 32 H        1.6290    -5.9380    -0.3040 H     1 <1>   0.0800 
 33 H       -4.8500    -3.0310     0.9530 H     1 <1>   0.4500 
 34 H       -4.8300    -4.5550     0.3330 H     1 <1>   0.4500 
 35 H        3.2610    -2.1180     1.6250 H     1 <1>   0.1500 
 36 H       -6.8670    -4.1230    -0.9390 H     1 <1>   0.0800 
 37 H       -6.8850    -2.4990    -0.2880 H     1 <1>   0.0800 
 38 H        6.2170    -5.2800    -0.7370 H     1 <1>   0.1500 
 39 H        5.5220    -2.5470     2.4710 H     1 <1>   0.1500 
 40 H       -7.1780    -3.4160     2.0020 H     1 <1>   0.0800 
 41 H       -7.1880    -5.0540     1.3290 H     1 <1>   0.0800 
 42 H        7.0130    -4.1220     1.3080 H     1 <1>   0.1500 
 43 H       -9.3010    -4.1850     1.5700 H     1 <1>   0.4000 
@<TRIPOS>BOND
  1   1   2  1   
  2   2   3  ar  
  3   2   4  ar  
  4   3   5  1   
  5   3   6  ar  
  6   4   7  ar  
  7   4  24  1   
  8   5   8  1   
  9   6   9  1   
 10   6  10  ar  
 11   7  10  ar  
 12   7  11  1   
 13   8  12  1   
 14   8  25  1   
 15   8  26  1   
 16   9  13  1   
 17  10  27  1   
 18  11  14  1   
 19  11  28  1   
 20  11  29  1   
 21  12  15  ar  
 22  12  16  ar  
 23  13  30  1   
 24  13  31  1   
 25  13  32  1   
 26  14  17  1   
 27  14  33  1   
 28  14  34  1   
 29  15  18  1   
 30  15  19  ar  
 31  16  20  ar  
 32  16  35  1   
 33  17  21  1   
 34  17  36  1   
 35  17  37  1   
 36  19  22  ar  
 37  19  38  1   
 38  20  22  ar  
 39  20  39  1   
 40  21  23  1   
 41  21  40  1   
 42  21  41  1   
 43  22  42  1   
 44  23  43  1   
@<TRIPOS>SUBSTRUCTURE
  1 ****   3 GROUP 4 **** **** 0

# MOE 2024.06 (io_trps.svl 2023.06)
