@<TRIPOS>MOLECULE
NONAME
44 47 1 0 0 
SMALL
USER_CHARGES


@<TRIPOS>ATOM
  1 O       -0.0080     0.5090     1.5610 O.2   1 <1>  -0.5700 
  2 C       -0.3000     1.2920     0.6780 C.2   1 <1>   0.5440 
  3 N       -1.5810     1.3030     0.2070 N.am  1 <1>  -0.7300 
  4 C        0.6990     2.1860     0.1180 C.ar  1 <1>   0.0860 
  5 C       -2.6920     0.4500     0.6820 C.3   1 <1>   0.2200 
  6 C        2.0500     1.8410     0.1310 C.ar  1 <1>  -0.1500 
  7 C        0.3530     3.4150    -0.4500 C.ar  1 <1>  -0.1500 
  8 C       -3.0950    -0.5590    -0.4150 C.3   1 <1>  -0.0800 
  9 C       -3.9110     1.3210     1.0520 C.3   1 <1>  -0.0800 
 10 C        3.0190     2.6770    -0.4110 C.ar  1 <1>   0.0830 
 11 C        1.3090     4.2530    -0.9950 C.ar  1 <1>  -0.1500 
 12 C       -3.6510     0.1710    -1.6590 C.3   1 <1>  -0.1600 
 13 C       -4.2000    -1.4770     0.1490 C.3   1 <1>  -0.1600 
 14 C       -4.4670     2.0500    -0.1930 C.3   1 <1>  -0.1600 
 15 C       -5.0150     0.4010     1.6140 C.3   1 <1>  -0.1600 
 16 O        4.3440     2.3870    -0.4240 O.3   1 <1>  -0.3630 
 17 C        2.6400     3.8820    -0.9760 C.ar  1 <1>  -0.1500 
 18 C       -4.8740     1.0240    -1.2680 C.3   1 <1>  -0.0800 
 19 C       -5.4290    -0.6370     0.5520 C.3   1 <1>  -0.0800 
 20 C        4.8430     1.2120     0.1770 C.3   1 <1>   0.0400 
 21 C       -5.9640     0.1000    -0.6910 C.3   1 <1>  -0.1600 
 22 H       -1.8120     1.8580    -0.6140 H     1 <1>   0.3700 
 23 H       -2.3700    -0.0910     1.5560 H     1 <1>   0.0800 
 24 H        2.3180     0.9010     0.5760 H     1 <1>   0.1500 
 25 H       -0.6760     3.7260    -0.4600 H     1 <1>   0.1500 
 26 H       -2.2400    -1.1560    -0.6810 H     1 <1>   0.0800 
 27 H       -3.6250     2.0320     1.8070 H     1 <1>   0.0800 
 28 H        1.0220     5.1950    -1.4300 H     1 <1>   0.1500 
 29 H       -3.9370    -0.5520    -2.4030 H     1 <1>   0.0800 
 30 H       -2.8920     0.7940    -2.0980 H     1 <1>   0.0800 
 31 H       -3.8270    -2.0110     1.0060 H     1 <1>   0.0800 
 32 H       -4.4820    -2.2060    -0.5900 H     1 <1>   0.0800 
 33 H       -3.7330     2.7270    -0.5900 H     1 <1>   0.0800 
 34 H       -5.3240     2.6380     0.0870 H     1 <1>   0.0800 
 35 H       -5.8690     0.9880     1.9020 H     1 <1>   0.0800 
 36 H       -4.6560    -0.1040     2.4950 H     1 <1>   0.0800 
 37 H        3.3940     4.5240    -1.3960 H     1 <1>   0.1500 
 38 H       -5.2560     1.5350    -2.1360 H     1 <1>   0.0800 
 39 H       -6.1950    -1.2810     0.9500 H     1 <1>   0.0800 
 40 H        5.9120     1.2080     0.0660 H     1 <1>   0.0800 
 41 H        4.4200     0.3580    -0.3210 H     1 <1>   0.0800 
 42 H        4.5840     1.2170     1.2210 H     1 <1>   0.0800 
 43 H       -6.2670    -0.6150    -1.4350 H     1 <1>   0.0800 
 44 H       -6.8300     0.6800    -0.4250 H     1 <1>   0.0800 
@<TRIPOS>BOND
  1   1   2  2   
  2   2   3  am  
  3   2   4  1   
  4   3   5  1   
  5   3  22  1   
  6   4   6  ar  
  7   4   7  ar  
  8   5   8  1   
  9   5   9  1   
 10   5  23  1   
 11   6  10  ar  
 12   6  24  1   
 13   7  11  ar  
 14   7  25  1   
 15   8  12  1   
 16   8  13  1   
 17   8  26  1   
 18   9  14  1   
 19   9  15  1   
 20   9  27  1   
 21  10  16  1   
 22  10  17  ar  
 23  11  17  ar  
 24  11  28  1   
 25  12  18  1   
 26  12  29  1   
 27  12  30  1   
 28  13  19  1   
 29  13  31  1   
 30  13  32  1   
 31  14  18  1   
 32  14  33  1   
 33  14  34  1   
 34  15  19  1   
 35  15  35  1   
 36  15  36  1   
 37  16  20  1   
 38  17  37  1   
 39  18  21  1   
 40  18  38  1   
 41  19  21  1   
 42  19  39  1   
 43  20  40  1   
 44  20  41  1   
 45  20  42  1   
 46  21  43  1   
 47  21  44  1   
@<TRIPOS>SUBSTRUCTURE
  1 ****   3 GROUP 4 **** **** 0

# MOE 2024.06 (io_trps.svl 2023.06)
