@<TRIPOS>MOLECULE
NONAME
33 35 1 0 0 
SMALL
USER_CHARGES


@<TRIPOS>ATOM
  1 CL      -0.6080    -0.3550    -1.5160 Cl    1 <1>  -0.1770 
  2 C       -1.5720     0.6860    -0.4990 C.ar  1 <1>   0.1770 
  3 C       -1.2090     2.0180    -0.3160 C.ar  1 <1>   0.0860 
  4 C       -2.6820     0.1320     0.1160 C.ar  1 <1>  -0.1500 
  5 C       -2.0150     2.7690     0.5360 C.ar  1 <1>   0.1770 
  6 C       -0.0650     2.5890    -0.9740 C.2   1 <1>   0.5440 
  7 C       -3.4670     0.9090     0.9510 C.ar  1 <1>  -0.1500 
  8 CL      -1.6330     4.4440     0.8520 Cl    1 <1>  -0.1770 
  9 C       -3.1270     2.2350     1.1620 C.ar  1 <1>  -0.1500 
 10 O       -0.1000     2.8250    -2.1640 O.2   1 <1>  -0.5700 
 11 N        1.0630     2.8810    -0.2640 N.am  1 <1>  -0.7300 
 12 C        2.2820     3.5190    -0.8160 C.3   1 <1>   0.2200 
 13 C        3.6290     2.6640    -0.4470 C.3   1 <1>  -0.0800 
 14 C        2.4570     5.0430    -0.1610 C.3   1 <1>  -0.1600 
 15 C        3.8170     3.9160    -0.0090 C.3   1 <1>  -0.1600 
 16 C        5.1530     2.7840     0.1370 C.3   1 <1>  -0.1600 
 17 C        3.9750     5.1650     0.4390 C.3   1 <1>  -0.0800 
 18 C        5.3290     4.3160     0.7890 C.3   1 <1>  -0.1600 
 19 H       -2.9260    -0.9010    -0.0590 H     1 <1>   0.1500 
 20 H       -4.3330     0.4860     1.4320 H     1 <1>   0.1500 
 21 H       -3.7240     2.8550     1.8090 H     1 <1>   0.1500 
 22 H        1.0720     2.7600     0.7480 H     1 <1>   0.3700 
 23 H        2.1930     3.5970    -1.8910 H     1 <1>   0.0800 
 24 H        3.2320     1.8870     0.1920 H     1 <1>   0.0800 
 25 H        1.7320     5.2080     0.6200 H     1 <1>   0.0800 
 26 H        2.2890     5.7850    -0.9250 H     1 <1>   0.0800 
 27 H        4.2370     4.2370    -1.0620 H     1 <1>   0.0800 
 28 H        3.3810     3.6000     1.0390 H     1 <1>   0.0800 
 29 H        5.8670     2.6330    -0.6600 H     1 <1>   0.0800 
 30 H        5.3420     2.0310     0.8860 H     1 <1>   0.0800 
 31 H        4.3820     5.9450    -0.1910 H     1 <1>   0.0800 
 32 H        6.2060     4.7980     0.3840 H     1 <1>   0.0800 
 33 H        5.4600     4.2520     1.8590 H     1 <1>   0.0800 
@<TRIPOS>BOND
  1   1   2  1   
  2   2   3  ar  
  3   2   4  ar  
  4   3   5  ar  
  5   3   6  1   
  6   4   7  ar  
  7   4  19  1   
  8   5   8  1   
  9   5   9  ar  
 10   6  10  2   
 11   6  11  am  
 12   7   9  ar  
 13   7  20  1   
 14   9  21  1   
 15  11  12  1   
 16  11  22  1   
 17  12  13  1   
 18  12  14  1   
 19  12  23  1   
 20  13  15  1   
 21  13  16  1   
 22  13  24  1   
 23  14  17  1   
 24  14  25  1   
 25  14  26  1   
 26  15  17  1   
 27  15  27  1   
 28  15  28  1   
 29  16  18  1   
 30  16  29  1   
 31  16  30  1   
 32  17  18  1   
 33  17  31  1   
 34  18  32  1   
 35  18  33  1   
@<TRIPOS>SUBSTRUCTURE
  1 ****  11 GROUP 4 **** **** 0

# MOE 2024.06 (io_trps.svl 2023.06)
