@<TRIPOS>MOLECULE
NONAME
43 45 1 0 0 
SMALL
USER_CHARGES


@<TRIPOS>ATOM
  1 F       -1.4740     2.3740     2.0230 F     1 <1>  -0.1900 
  2 C       -0.9150     2.5650     0.8580 C.ar  1 <1>   0.1900 
  3 C       -1.6450     2.2780    -0.2890 C.ar  1 <1>  -0.1440 
  4 C        0.3750     3.0580     0.8220 C.ar  1 <1>  -0.1500 
  5 C       -1.0500     2.4960    -1.5270 C.ar  1 <1>  -0.1500 
  6 C       -3.0570     1.7310    -0.1810 C.3   1 <1>   0.4870 
  7 C        0.9300     3.2640    -0.4240 C.ar  1 <1>   0.1900 
  8 C        0.2440     2.9930    -1.5960 C.ar  1 <1>  -0.1500 
  9 N       -3.9390     2.7590     0.4340 N.4   1 <1>  -0.9590 
 10 F        2.1440     3.7320    -0.5010 F     1 <1>  -0.1900 
 11 C       -5.3060     2.2100     0.7540 C.3   1 <1>   0.3430 
 12 C       -4.0390     4.0110    -0.4070 C.3   1 <1>   0.3430 
 13 C       -6.2210     3.2520     1.4310 C.3   1 <1>   0.2090 
 14 C       -4.9270     5.0930     0.2410 C.3   1 <1>   0.2090 
 15 N       -6.2410     4.5390     0.6790 N.pl3 1 <1>  -0.8380 
 16 C       -7.3610     4.8190    -0.1020 C.ar  1 <1>   0.1000 
 17 C       -8.3200     5.7370     0.3260 C.ar  1 <1>  -0.1430 
 18 C       -7.5380     4.1810    -1.3270 C.ar  1 <1>  -0.1500 
 19 C       -9.4260     5.9980    -0.4660 C.ar  1 <1>  -0.1500 
 20 C       -8.1670     6.4580     1.6580 C.3   1 <1>  -0.0970 
 21 C       -8.6430     4.4460    -2.1120 C.ar  1 <1>  -0.1500 
 22 C       -9.5900     5.3570    -1.6810 C.ar  1 <1>  -0.1500 
 23 H        0.9260     3.2740     1.7200 H     1 <1>   0.1500 
 24 H       -1.5740     2.2810    -2.4440 H     1 <1>   0.1500 
 25 H       -3.0420     0.8450     0.4330 H     1 <1>   0.0800 
 26 H       -3.4230     1.4620    -1.1580 H     1 <1>   0.0800 
 27 H        0.7250     3.1680    -2.5440 H     1 <1>   0.1500 
 28 H       -3.4950     3.0280     1.3240 H     1 <1>   0.4500 
 29 H       -5.2170     1.3540     1.4020 H     1 <1>   0.0800 
 30 H       -5.7870     1.8880    -0.1540 H     1 <1>   0.0800 
 31 H       -4.4600     3.7670    -1.3670 H     1 <1>   0.0800 
 32 H       -3.0570     4.4240    -0.5730 H     1 <1>   0.0800 
 33 H       -5.8830     3.4380     2.4360 H     1 <1>   0.0800 
 34 H       -7.2230     2.8600     1.4950 H     1 <1>   0.0800 
 35 H       -5.0930     5.8900    -0.4650 H     1 <1>   0.0800 
 36 H       -4.4240     5.5160     1.0930 H     1 <1>   0.0800 
 37 H       -6.8110     3.4740    -1.6700 H     1 <1>   0.1500 
 38 H      -10.1710     6.7040    -0.1420 H     1 <1>   0.1500 
 39 H       -8.1370     5.7420     2.4590 H     1 <1>   0.0800 
 40 H       -8.9840     7.1330     1.8320 H     1 <1>   0.0800 
 41 H       -7.2510     7.0210     1.6630 H     1 <1>   0.0800 
 42 H       -8.7730     3.9490    -3.0580 H     1 <1>   0.1500 
 43 H      -10.4540     5.5680    -2.2880 H     1 <1>   0.1500 
@<TRIPOS>BOND
  1   1   2  1   
  2   2   3  ar  
  3   2   4  ar  
  4   3   5  ar  
  5   3   6  1   
  6   4   7  ar  
  7   4  23  1   
  8   5   8  ar  
  9   5  24  1   
 10   6   9  1   
 11   6  25  1   
 12   6  26  1   
 13   7   8  ar  
 14   7  10  1   
 15   8  27  1   
 16   9  11  1   
 17   9  12  1   
 18   9  28  1   
 19  11  13  1   
 20  11  29  1   
 21  11  30  1   
 22  12  14  1   
 23  12  31  1   
 24  12  32  1   
 25  13  15  1   
 26  13  33  1   
 27  13  34  1   
 28  14  15  1   
 29  14  35  1   
 30  14  36  1   
 31  15  16  1   
 32  16  17  ar  
 33  16  18  ar  
 34  17  19  ar  
 35  17  20  1   
 36  18  21  ar  
 37  18  37  1   
 38  19  22  ar  
 39  19  38  1   
 40  20  39  1   
 41  20  40  1   
 42  20  41  1   
 43  21  22  ar  
 44  21  42  1   
 45  22  43  1   
@<TRIPOS>SUBSTRUCTURE
  1 ****  12 GROUP 4 **** **** 0

# MOE 2024.06 (io_trps.svl 2023.06)
