@<TRIPOS>MOLECULE
NONAME
47 49 1 0 0 
SMALL
USER_CHARGES


@<TRIPOS>ATOM
  1 F       -0.9490     0.2390    -0.1440 F     1 <1>  -0.1900 
  2 C       -2.0350     0.9040    -0.4350 C.ar  1 <1>   0.1900 
  3 C       -3.2460     0.4300     0.0280 C.ar  1 <1>  -0.1500 
  4 C       -1.9270     2.0530    -1.1940 C.ar  1 <1>  -0.1500 
  5 C       -4.4100     1.1250    -0.2740 C.ar  1 <1>   0.1170 
  6 C       -3.0840     2.7510    -1.4940 C.ar  1 <1>  -0.1500 
  7 N       -5.6300     0.6330     0.2160 N.am  1 <1>  -0.5470 
  8 C       -4.3090     2.2900    -1.0360 C.ar  1 <1>  -0.1500 
  9 C       -6.9160     0.8300    -0.2120 C.2   1 <1>   0.5690 
 10 O       -7.1980     1.5040    -1.1730 O.2   1 <1>  -0.5700 
 11 C       -8.0280     0.1370     0.5790 C.3   1 <1>  -0.0190 
 12 C       -8.1430    -1.3480     0.1850 C.3   1 <1>  -0.1600 
 13 C       -9.3990     0.8250     0.4190 C.3   1 <1>  -0.1600 
 14 C       -9.2450    -2.0570     0.9760 C.3   1 <1>   0.1400 
 15 C      -10.5000     0.1010     1.1980 C.3   1 <1>   0.1400 
 16 N      -10.5340    -1.3330     0.7970 N.am  1 <1>  -0.6600 
 17 C      -11.6070    -1.9200     0.1510 C.2   1 <1>   0.5440 
 18 O      -11.4430    -2.9830    -0.4190 O.2   1 <1>  -0.5700 
 19 C      -12.9190    -1.3050     0.1230 C.ar  1 <1>   0.0860 
 20 C      -13.5920    -0.9630     1.2970 C.ar  1 <1>  -0.1500 
 21 C      -13.5580    -1.0390    -1.0870 C.ar  1 <1>  -0.1500 
 22 C      -14.8380    -0.3640     1.2610 C.ar  1 <1>  -0.1500 
 23 C      -14.8050    -0.4410    -1.1330 C.ar  1 <1>  -0.1500 
 24 C      -15.4540    -0.0950     0.0490 C.ar  1 <1>   0.0830 
 25 O      -16.6690     0.4960     0.0970 O.3   1 <1>  -0.3630 
 26 C      -17.4000     0.7850    -1.0740 C.3   1 <1>   0.0400 
 27 H       -3.2710    -0.4700     0.6110 H     1 <1>   0.1500 
 28 H       -0.9650     2.3890    -1.5370 H     1 <1>   0.1500 
 29 H       -3.0350     3.6510    -2.0840 H     1 <1>   0.1500 
 30 H       -5.5360    -0.0240     0.9870 H     1 <1>   0.3700 
 31 H       -5.1940     2.8500    -1.2770 H     1 <1>   0.1500 
 32 H       -7.7620     0.1890     1.6200 H     1 <1>   0.0800 
 33 H       -7.2090    -1.8520     0.3570 H     1 <1>   0.0800 
 34 H       -8.3680    -1.4280    -0.8660 H     1 <1>   0.0800 
 35 H       -9.6760     0.8470    -0.6220 H     1 <1>   0.0800 
 36 H       -9.3350     1.8440     0.7570 H     1 <1>   0.0800 
 37 H       -8.9980    -2.0730     2.0230 H     1 <1>   0.0800 
 38 H       -9.3290    -3.0780     0.6430 H     1 <1>   0.0800 
 39 H      -11.4410     0.5830     0.9970 H     1 <1>   0.0800 
 40 H      -10.3090     0.1660     2.2550 H     1 <1>   0.0800 
 41 H      -13.1280    -1.1750     2.2440 H     1 <1>   0.1500 
 42 H      -13.0600    -1.3130    -2.0010 H     1 <1>   0.1500 
 43 H      -15.3460    -0.1030     2.1720 H     1 <1>   0.1500 
 44 H      -15.2540    -0.2550    -2.0900 H     1 <1>   0.1500 
 45 H      -18.3300     1.2380    -0.7830 H     1 <1>   0.0800 
 46 H      -17.5890    -0.1320    -1.6020 H     1 <1>   0.0800 
 47 H      -16.8330     1.4700    -1.6790 H     1 <1>   0.0800 
@<TRIPOS>BOND
  1   1   2  1   
  2   2   3  ar  
  3   2   4  ar  
  4   3   5  ar  
  5   3  27  1   
  6   4   6  ar  
  7   4  28  1   
  8   5   7  1   
  9   5   8  ar  
 10   6   8  ar  
 11   6  29  1   
 12   7   9  am  
 13   7  30  1   
 14   8  31  1   
 15   9  10  2   
 16   9  11  1   
 17  11  12  1   
 18  11  13  1   
 19  11  32  1   
 20  12  14  1   
 21  12  33  1   
 22  12  34  1   
 23  13  15  1   
 24  13  35  1   
 25  13  36  1   
 26  14  16  1   
 27  14  37  1   
 28  14  38  1   
 29  15  16  1   
 30  15  39  1   
 31  15  40  1   
 32  16  17  am  
 33  17  18  2   
 34  17  19  1   
 35  19  20  ar  
 36  19  21  ar  
 37  20  22  ar  
 38  20  41  1   
 39  21  23  ar  
 40  21  42  1   
 41  22  24  ar  
 42  22  43  1   
 43  23  24  ar  
 44  23  44  1   
 45  24  25  1   
 46  25  26  1   
 47  26  45  1   
 48  26  46  1   
 49  26  47  1   
@<TRIPOS>SUBSTRUCTURE
  1 ****  13 GROUP 4 **** **** 0

# MOE 2024.06 (io_trps.svl 2023.06)
