@<TRIPOS>MOLECULE
NONAME
44 46 1 0 0 
SMALL
USER_CHARGES


@<TRIPOS>ATOM
  1 S       -1.6690     1.8270    -1.9620 S.3   1 <1>  -0.0800 
  2 C       -1.8090     1.0040    -0.4150 C.2   1 <1>  -0.1400 
  3 C       -0.1540     2.5640    -1.4820 C.2   1 <1>  -0.1100 
  4 C       -0.7570     1.2960     0.3770 C.2   1 <1>  -0.1810 
  5 C       -3.0400     0.1450    -0.2270 C.3   1 <1>   0.5230 
  6 C        0.1820     2.1860    -0.2370 C.2   1 <1>  -0.1500 
  7 C       -0.4890     0.7900     1.7840 C.3   1 <1>  -0.0590 
  8 N       -4.2320     1.0230    -0.3180 N.4   1 <1>  -0.9590 
  9 C       -4.2470     2.0570     0.7820 C.3   1 <1>   0.3430 
 10 C       -5.5220     0.2470    -0.3550 C.3   1 <1>   0.3430 
 11 C       -5.4750     2.9840     0.6980 C.3   1 <1>   0.2090 
 12 C       -6.7560     1.1660    -0.4460 C.3   1 <1>   0.2090 
 13 N       -6.7400     2.1920     0.6380 N.pl3 1 <1>  -0.8380 
 14 C       -7.9090     2.9630     0.7210 C.ar  1 <1>   0.1000 
 15 C       -8.3210     3.8760    -0.2680 C.ar  1 <1>   0.0820 
 16 C       -8.6950     2.8050     1.8530 C.ar  1 <1>  -0.1500 
 17 O       -7.5360     4.0260    -1.3830 O.3   1 <1>  -0.3620 
 18 C       -9.5000     4.5940    -0.0920 C.ar  1 <1>  -0.1500 
 19 C       -9.8640     3.5230     2.0210 C.ar  1 <1>  -0.1500 
 20 C       -7.8710     4.9550    -2.3920 C.3   1 <1>   0.0400 
 21 C      -10.2670     4.4170     1.0480 C.ar  1 <1>  -0.1500 
 22 H        0.3350     3.2090    -2.1930 H     1 <1>   0.1500 
 23 H       -3.0070    -0.3450     0.7320 H     1 <1>   0.0800 
 24 H       -3.0680    -0.6060    -1.0000 H     1 <1>   0.0800 
 25 H        1.0720     2.5020     0.2830 H     1 <1>   0.1500 
 26 H       -1.2680     0.1310     2.1210 H     1 <1>   0.0800 
 27 H       -0.4210     1.6200     2.4660 H     1 <1>   0.0800 
 28 H        0.4440     0.2550     1.8060 H     1 <1>   0.0800 
 29 H       -4.1410     1.5420    -1.2020 H     1 <1>   0.4500 
 30 H       -3.3530     2.6590     0.7340 H     1 <1>   0.0800 
 31 H       -4.2650     1.5660     1.7400 H     1 <1>   0.0800 
 32 H       -5.6140    -0.3430     0.5420 H     1 <1>   0.0800 
 33 H       -5.5250    -0.4250    -1.1980 H     1 <1>   0.0800 
 34 H       -5.3920     3.6130    -0.1710 H     1 <1>   0.0800 
 35 H       -5.5010     3.6230     1.5640 H     1 <1>   0.0800 
 36 H       -7.6510     0.5750    -0.3550 H     1 <1>   0.0800 
 37 H       -6.7770     1.6470    -1.4080 H     1 <1>   0.0800 
 38 H       -8.3820     2.1100     2.6100 H     1 <1>   0.1500 
 39 H       -9.8480     5.2970    -0.8230 H     1 <1>   0.1500 
 40 H      -10.4600     3.3850     2.9070 H     1 <1>   0.1500 
 41 H       -7.1120     4.9150    -3.1520 H     1 <1>   0.0800 
 42 H       -7.9040     5.9410    -1.9630 H     1 <1>   0.0800 
 43 H       -8.8230     4.6870    -2.8140 H     1 <1>   0.0800 
 44 H      -11.1780     4.9770     1.1760 H     1 <1>   0.1500 
@<TRIPOS>BOND
  1   1   2  1   
  2   1   3  1   
  3   2   4  2   
  4   2   5  1   
  5   3   6  2   
  6   3  22  1   
  7   4   6  1   
  8   4   7  1   
  9   5   8  1   
 10   5  23  1   
 11   5  24  1   
 12   6  25  1   
 13   7  26  1   
 14   7  27  1   
 15   7  28  1   
 16   8   9  1   
 17   8  10  1   
 18   8  29  1   
 19   9  11  1   
 20   9  30  1   
 21   9  31  1   
 22  10  12  1   
 23  10  32  1   
 24  10  33  1   
 25  11  13  1   
 26  11  34  1   
 27  11  35  1   
 28  12  13  1   
 29  12  36  1   
 30  12  37  1   
 31  13  14  1   
 32  14  15  ar  
 33  14  16  ar  
 34  15  17  1   
 35  15  18  ar  
 36  16  19  ar  
 37  16  38  1   
 38  17  20  1   
 39  18  21  ar  
 40  18  39  1   
 41  19  21  ar  
 42  19  40  1   
 43  20  41  1   
 44  20  42  1   
 45  20  43  1   
 46  21  44  1   
@<TRIPOS>SUBSTRUCTURE
  1 ****  11 GROUP 4 **** **** 0

# MOE 2024.06 (io_trps.svl 2023.06)
