@<TRIPOS>MOLECULE
NONAME
37 37 1 0 0 
SMALL
USER_CHARGES


@<TRIPOS>ATOM
  1 I       -0.7150     0.2010     0.9570 I     1 <1>  -0.0810 
  2 C        0.5720     1.8500     0.5410 C.ar  1 <1>   0.0810 
  3 C        0.0660     3.0180    -0.0320 C.ar  1 <1>   0.0860 
  4 C        1.9080     1.6830     0.8630 C.ar  1 <1>  -0.1500 
  5 C       -1.3260     3.2190    -0.3570 C.2   1 <1>   0.5440 
  6 C        0.9900     4.0310    -0.2870 C.ar  1 <1>  -0.1500 
  7 C        2.7930     2.7140     0.6040 C.ar  1 <1>  -0.1500 
  8 O       -1.6920     3.1440    -1.5110 O.2   1 <1>  -0.5700 
  9 N       -2.2100     3.5380     0.6400 N.am  1 <1>  -0.7300 
 10 C        2.3310     3.8860     0.0270 C.ar  1 <1>  -0.1500 
 11 C       -3.6830     3.7670     0.5810 C.3   1 <1>   0.2200 
 12 C       -4.4000     2.3840     0.6220 C.3   1 <1>  -0.0800 
 13 C       -4.0770     4.7830    -0.5350 C.3   1 <1>  -0.0800 
 14 C       -4.6230     1.7220    -0.7480 C.3   1 <1>  -0.2400 
 15 C       -5.7190     2.4120     1.4130 C.3   1 <1>  -0.2400 
 16 C       -3.2520     6.0820    -0.4410 C.3   1 <1>  -0.2400 
 17 C       -5.5640     5.1800    -0.4980 C.3   1 <1>  -0.2400 
 18 H        2.2550     0.7650     1.3050 H     1 <1>   0.1500 
 19 H        0.6430     4.9440    -0.7420 H     1 <1>   0.1500 
 20 H        3.8370     2.6050     0.8460 H     1 <1>   0.1500 
 21 H       -1.8420     3.5540     1.5910 H     1 <1>   0.3700 
 22 H        3.0210     4.6870    -0.1810 H     1 <1>   0.1500 
 23 H       -3.9270     4.2560     1.5080 H     1 <1>   0.0800 
 24 H       -3.7580     1.7220     1.1790 H     1 <1>   0.0800 
 25 H       -3.8890     4.3370    -1.4960 H     1 <1>   0.0800 
 26 H       -5.2890     2.3010    -1.3610 H     1 <1>   0.0800 
 27 H       -5.0440     0.7410    -0.6230 H     1 <1>   0.0800 
 28 H       -3.6900     1.6150    -1.2690 H     1 <1>   0.0800 
 29 H       -6.4810     2.9690     0.9050 H     1 <1>   0.0800 
 30 H       -5.5650     2.8460     2.3850 H     1 <1>   0.0800 
 31 H       -6.0820     1.4080     1.5520 H     1 <1>   0.0800 
 32 H       -3.3840     6.5470     0.5190 H     1 <1>   0.0800 
 33 H       -3.5540     6.7750    -1.2050 H     1 <1>   0.0800 
 34 H       -2.2060     5.8810    -0.5870 H     1 <1>   0.0800 
 35 H       -5.8430     5.5190     0.4830 H     1 <1>   0.0800 
 36 H       -6.1860     4.3520    -0.7770 H     1 <1>   0.0800 
 37 H       -5.7580     5.9690    -1.2020 H     1 <1>   0.0800 
@<TRIPOS>BOND
  1   1   2  1   
  2   2   3  ar  
  3   2   4  ar  
  4   3   5  1   
  5   3   6  ar  
  6   4   7  ar  
  7   4  18  1   
  8   5   8  2   
  9   5   9  am  
 10   6  10  ar  
 11   6  19  1   
 12   7  10  ar  
 13   7  20  1   
 14   9  11  1   
 15   9  21  1   
 16  10  22  1   
 17  11  12  1   
 18  11  13  1   
 19  11  23  1   
 20  12  14  1   
 21  12  15  1   
 22  12  24  1   
 23  13  16  1   
 24  13  17  1   
 25  13  25  1   
 26  14  26  1   
 27  14  27  1   
 28  14  28  1   
 29  15  29  1   
 30  15  30  1   
 31  15  31  1   
 32  16  32  1   
 33  16  33  1   
 34  16  34  1   
 35  17  35  1   
 36  17  36  1   
 37  17  37  1   
@<TRIPOS>SUBSTRUCTURE
  1 ****   5 GROUP 4 **** **** 0

# MOE 2024.06 (io_trps.svl 2023.06)
