@<TRIPOS>MOLECULE
NONAME
52 54 1 0 0 
SMALL
USER_CHARGES


@<TRIPOS>ATOM
  1 F       -1.7820     2.8600    -2.1680 F     1 <1>  -0.1970 
  2 C       -2.1980     2.2570    -1.0880 C.ar  1 <1>   0.1830 
  3 C       -1.4750     2.4060     0.0870 C.ar  1 <1>  -0.1510 
  4 C       -3.3710     1.5320    -1.1530 C.ar  1 <1>  -0.1570 
  5 C       -1.9630     1.7950     1.2340 C.ar  1 <1>  -0.1570 
  6 C       -0.2110     3.2470     0.1160 C.3   1 <1>   0.4920 
  7 C       -3.8470     0.9370     0.0020 C.ar  1 <1>  -0.1570 
  8 C       -3.1440     1.0710     1.1890 C.ar  1 <1>  -0.1570 
  9 N       -0.5300     4.7040     0.2520 N.pl3 1 <1>  -0.7670 
 10 C       -1.6710     5.3690     0.4450 C.cat 1 <1>   1.0690 
 11 C        0.4790     5.6730     0.0830 C.2   1 <1>   0.2710 
 12 N       -1.4500     6.6800     0.4040 N.pl3 1 <1>  -0.7040 
 13 N       -2.8680     4.8140     0.6580 N.pl3 1 <1>  -0.7180 
 14 C        1.8900     5.6200    -0.1540 C.2   1 <1>   0.6990 
 15 C       -0.1200     6.8770     0.1830 C.2   1 <1>   0.4210 
 16 C       -4.2310     5.4140     0.7470 C.3   1 <1>   0.1600 
 17 O        2.4690     4.5480    -0.2130 O.2   1 <1>  -0.5750 
 18 N        2.5730     6.8180    -0.3080 N.am  1 <1>  -0.4260 
 19 N        0.5540     8.0780     0.0740 N.am  1 <1>  -0.4410 
 20 C       -5.2560     4.5780    -0.0570 C.3   1 <1>   0.3370 
 21 C        1.9180     8.0400    -0.1890 C.2   1 <1>   0.6860 
 22 C        4.0450     6.8120    -0.5790 C.3   1 <1>   0.0520 
 23 C       -0.1540     9.3860     0.2110 C.3   1 <1>   0.0520 
 24 N       -6.6770     5.0150     0.1480 N.4   1 <1>  -0.9610 
 25 O        2.5380     9.0750    -0.3160 O.2   1 <1>  -0.5750 
 26 C       -7.6090     4.0100    -0.4550 C.3   1 <1>   0.2560 
 27 C       -6.9770     6.3630    -0.4330 C.3   1 <1>   0.2560 
 28 H       -3.8920     1.4260    -2.0900 H     1 <1>   0.1430 
 29 H       -1.4290     1.8670     2.1700 H     1 <1>   0.1430 
 30 H        0.3490     3.0830    -0.7910 H     1 <1>   0.0720 
 31 H        0.4140     2.9400     0.9390 H     1 <1>   0.0720 
 32 H       -4.7530     0.3510    -0.0240 H     1 <1>   0.1430 
 33 H       -3.5120     0.5900     2.0820 H     1 <1>   0.1430 
 34 H       -2.1350     7.4130     0.5470 H     1 <1>   0.4450 
 35 H       -2.8350     3.7910     0.7630 H     1 <1>   0.4450 
 36 H       -4.2110     6.4220     0.3710 H     1 <1>   0.0720 
 37 H       -4.5270     5.4340     1.7830 H     1 <1>   0.0720 
 38 H       -5.1690     3.5480     0.2500 H     1 <1>   0.0720 
 39 H       -5.0160     4.6340    -1.1070 H     1 <1>   0.0720 
 40 H        4.3650     5.8620    -0.9730 H     1 <1>   0.0720 
 41 H        4.5800     7.0110     0.3330 H     1 <1>   0.0720 
 42 H        4.2920     7.5740    -1.2990 H     1 <1>   0.0720 
 43 H       -0.9240     9.3230     0.9590 H     1 <1>   0.0720 
 44 H       -0.5880     9.6650    -0.7340 H     1 <1>   0.0720 
 45 H        0.5350    10.1590     0.5110 H     1 <1>   0.0720 
 46 H       -6.8890     5.0430     1.1590 H     1 <1>   0.4450 
 47 H       -7.4490     3.9400    -1.5190 H     1 <1>   0.0720 
 48 H       -8.6330     4.2980    -0.2800 H     1 <1>   0.0720 
 49 H       -7.4480     3.0380    -0.0160 H     1 <1>   0.0720 
 50 H       -6.7890     6.3650    -1.4940 H     1 <1>   0.0720 
 51 H       -6.3690     7.1210     0.0320 H     1 <1>   0.0720 
 52 H       -8.0140     6.6140    -0.2700 H     1 <1>   0.0720 
@<TRIPOS>BOND
  1   1   2  1   
  2   2   3  ar  
  3   2   4  ar  
  4   3   5  ar  
  5   3   6  1   
  6   4   7  ar  
  7   4  28  1   
  8   5   8  ar  
  9   5  29  1   
 10   6   9  1   
 11   6  30  1   
 12   6  31  1   
 13   7   8  ar  
 14   7  32  1   
 15   8  33  1   
 16   9  10  ar  
 17   9  11  1   
 18  10  12  ar  
 19  10  13  ar  
 20  11  14  1   
 21  11  15  2   
 22  12  15  1   
 23  12  34  1   
 24  13  16  1   
 25  13  35  1   
 26  14  17  2   
 27  14  18  am  
 28  15  19  1   
 29  16  20  1   
 30  16  36  1   
 31  16  37  1   
 32  18  21  am  
 33  18  22  1   
 34  19  21  am  
 35  19  23  1   
 36  20  24  1   
 37  20  38  1   
 38  20  39  1   
 39  21  25  2   
 40  22  40  1   
 41  22  41  1   
 42  22  42  1   
 43  23  43  1   
 44  23  44  1   
 45  23  45  1   
 46  24  26  1   
 47  24  27  1   
 48  24  46  1   
 49  26  47  1   
 50  26  48  1   
 51  26  49  1   
 52  27  50  1   
 53  27  51  1   
 54  27  52  1   
@<TRIPOS>SUBSTRUCTURE
  1 ****  10 GROUP 4 **** **** 0

# MOE 2024.06 (io_trps.svl 2023.06)
