@<TRIPOS>MOLECULE
NONAME
46 48 1 0 0 
SMALL
USER_CHARGES


@<TRIPOS>ATOM
  1 O       -0.7050    -0.3350    -0.8700 O.3   1 <1>  -0.3630 
  2 C       -1.8400    -0.8030    -0.2880 C.ar  1 <1>   0.0830 
  3 C        0.0640    -1.1140    -1.7590 C.3   1 <1>   0.0400 
  4 C       -2.5110     0.0630     0.6140 C.ar  1 <1>   0.0000 
  5 C       -2.3380    -2.0570    -0.5450 C.ar  1 <1>  -0.1500 
  6 C       -3.6940    -0.3830     1.2570 C.ar  1 <1>   0.0000 
  7 C       -2.0380     1.3650     0.8930 C.ar  1 <1>  -0.1500 
  8 C       -3.5080    -2.4890     0.0770 C.ar  1 <1>  -0.1500 
  9 C       -4.1810    -1.6840     0.9580 C.ar  1 <1>  -0.1440 
 10 C       -4.3260     0.5100     2.1580 C.ar  1 <1>  -0.1500 
 11 C       -2.6800     2.1970     1.7640 C.ar  1 <1>  -0.1500 
 12 C       -5.4590    -2.2440     1.5770 C.3   1 <1>   0.2530 
 13 C       -3.8390     1.7620     2.4060 C.ar  1 <1>  -0.1500 
 14 N       -6.5980    -2.1340     0.6390 N.3   1 <1>  -0.8100 
 15 C       -6.8480    -0.7470     0.1880 C.3   1 <1>   0.1100 
 16 C       -7.8150    -2.7570     1.1890 C.3   1 <1>   0.1100 
 17 C       -7.9990    -0.6880    -0.8350 C.3   1 <1>   0.3430 
 18 C       -8.9750    -2.7150     0.1720 C.3   1 <1>   0.3430 
 19 N       -9.2590    -1.3130    -0.3000 N.4   1 <1>  -0.9590 
 20 C      -10.3400    -1.2630    -1.3170 C.3   1 <1>   0.3430 
 21 C      -11.6830    -1.5490    -0.6550 C.3   1 <1>  -0.2400 
 22 H        0.9090    -0.5280    -2.0710 H     1 <1>   0.0800 
 23 H       -0.5400    -1.3670    -2.6130 H     1 <1>   0.0800 
 24 H        0.4010    -1.9980    -1.2470 H     1 <1>   0.0800 
 25 H       -1.8560    -2.7360    -1.2220 H     1 <1>   0.1500 
 26 H       -1.1430     1.7030     0.4020 H     1 <1>   0.1500 
 27 H       -3.8760    -3.4730    -0.1570 H     1 <1>   0.1500 
 28 H       -5.2160     0.2110     2.6730 H     1 <1>   0.1500 
 29 H       -2.3030     3.1850     1.9650 H     1 <1>   0.1500 
 30 H       -5.6900    -1.7700     2.5130 H     1 <1>   0.0800 
 31 H       -5.2930    -3.2860     1.7930 H     1 <1>   0.0800 
 32 H       -4.3310     2.4260     3.0960 H     1 <1>   0.1500 
 33 H       -5.9660    -0.3560    -0.2900 H     1 <1>   0.0800 
 34 H       -7.0750    -0.1170     1.0300 H     1 <1>   0.0800 
 35 H       -8.1100    -2.2570     2.0960 H     1 <1>   0.0800 
 36 H       -7.6070    -3.7870     1.4300 H     1 <1>   0.0800 
 37 H       -7.6830    -1.2100    -1.7230 H     1 <1>   0.0800 
 38 H       -8.1800     0.3400    -1.1000 H     1 <1>   0.0800 
 39 H       -9.8550    -3.1380     0.6270 H     1 <1>   0.0800 
 40 H       -8.7070    -3.3330    -0.6700 H     1 <1>   0.0800 
 41 H       -9.5530    -0.7620     0.5150 H     1 <1>   0.4500 
 42 H      -10.1490    -1.9810    -2.0990 H     1 <1>   0.0800 
 43 H      -10.3740    -0.2810    -1.7620 H     1 <1>   0.0800 
 44 H      -11.7310    -2.5540    -0.2780 H     1 <1>   0.0800 
 45 H      -12.4640    -1.4400    -1.3870 H     1 <1>   0.0800 
 46 H      -11.8760    -0.8510     0.1390 H     1 <1>   0.0800 
@<TRIPOS>BOND
  1   1   2  1   
  2   1   3  1   
  3   2   4  ar  
  4   2   5  ar  
  5   3  22  1   
  6   3  23  1   
  7   3  24  1   
  8   4   6  ar  
  9   4   7  ar  
 10   5   8  ar  
 11   5  25  1   
 12   6   9  ar  
 13   6  10  ar  
 14   7  11  ar  
 15   7  26  1   
 16   8   9  ar  
 17   8  27  1   
 18   9  12  1   
 19  10  13  ar  
 20  10  28  1   
 21  11  13  ar  
 22  11  29  1   
 23  12  14  1   
 24  12  30  1   
 25  12  31  1   
 26  13  32  1   
 27  14  15  1   
 28  14  16  1   
 29  15  17  1   
 30  15  33  1   
 31  15  34  1   
 32  16  18  1   
 33  16  35  1   
 34  16  36  1   
 35  17  19  1   
 36  17  37  1   
 37  17  38  1   
 38  18  19  1   
 39  18  39  1   
 40  18  40  1   
 41  19  20  1   
 42  19  41  1   
 43  20  21  1   
 44  20  42  1   
 45  20  43  1   
 46  21  44  1   
 47  21  45  1   
 48  21  46  1   
@<TRIPOS>SUBSTRUCTURE
  1 ****   9 GROUP 4 **** **** 0

# MOE 2024.06 (io_trps.svl 2023.06)
