@<TRIPOS>MOLECULE
NONAME
47 48 1 0 0 
SMALL
USER_CHARGES


@<TRIPOS>ATOM
  1 O        0.0950    -0.6440    -0.2900 O.3   1 <1>  -0.3630 
  2 C       -1.1390    -1.1940    -0.1600 C.ar  1 <1>   0.0830 
  3 C        1.2540    -1.3700     0.0270 C.3   1 <1>   0.1200 
  4 C       -1.3710    -2.4920     0.2780 C.ar  1 <1>  -0.1500 
  5 C       -2.2180    -0.3950    -0.4910 C.ar  1 <1>  -0.1500 
  6 C        2.4460    -0.4470    -0.2260 C.3   1 <1>  -0.1600 
  7 C       -2.6670    -2.9660     0.3790 C.ar  1 <1>  -0.1500 
  8 C       -3.5110    -0.8760    -0.3870 C.ar  1 <1>  -0.1500 
  9 C        3.7590    -1.1500     0.1100 C.3   1 <1>   0.3430 
 10 C       -3.7630    -2.1740     0.0510 C.ar  1 <1>  -0.1440 
 11 N        4.9110    -0.2660    -0.2150 N.4   1 <1>  -0.9590 
 12 C       -5.1890    -2.7560     0.1830 C.3   1 <1>   0.1440 
 13 C        6.2180    -0.9600    -0.1200 C.3   1 <1>   0.3430 
 14 C        5.0280     0.9330     0.6550 C.3   1 <1>   0.3430 
 15 C       -6.2900    -1.7590    -0.2170 C.3   1 <1>  -0.2400 
 16 C       -5.4440    -3.1660     1.6410 C.3   1 <1>  -0.2400 
 17 C       -5.3280    -3.9870    -0.7260 C.3   1 <1>  -0.2400 
 18 C        7.2380     0.1660    -0.0300 C.3   1 <1>  -0.1600 
 19 C        6.4710     1.3870     0.4860 C.3   1 <1>  -0.1600 
 20 H        1.2890    -2.2400    -0.6070 H     1 <1>   0.0800 
 21 H        1.1950    -1.6600     1.0630 H     1 <1>   0.0800 
 22 H       -0.5670    -3.1480     0.5450 H     1 <1>   0.1500 
 23 H       -2.0430     0.6090    -0.8310 H     1 <1>   0.1500 
 24 H        2.3250     0.4280     0.3870 H     1 <1>   0.0800 
 25 H        2.4400    -0.1640    -1.2640 H     1 <1>   0.0800 
 26 H       -2.8150    -3.9740     0.7220 H     1 <1>   0.1500 
 27 H       -4.3080    -0.2100    -0.6580 H     1 <1>   0.1500 
 28 H        3.8280    -2.0580    -0.4670 H     1 <1>   0.0800 
 29 H        3.7780    -1.4120     1.1560 H     1 <1>   0.0800 
 30 H        4.8120     0.0690    -1.1840 H     1 <1>   0.4500 
 31 H        6.3990    -1.5970    -0.9720 H     1 <1>   0.0800 
 32 H        6.2540    -1.5490     0.7830 H     1 <1>   0.0800 
 33 H        4.8560     0.6570     1.6830 H     1 <1>   0.0800 
 34 H        4.3300     1.7050     0.3690 H     1 <1>   0.0800 
 35 H       -6.1730    -1.4590    -1.2430 H     1 <1>   0.0800 
 36 H       -6.2540    -0.8860     0.4100 H     1 <1>   0.0800 
 37 H       -7.2630    -2.2050    -0.1100 H     1 <1>   0.0800 
 38 H       -5.3130    -2.3170     2.2880 H     1 <1>   0.0800 
 39 H       -4.7620    -3.9350     1.9530 H     1 <1>   0.0800 
 40 H       -6.4450    -3.5390     1.7620 H     1 <1>   0.0800 
 41 H       -5.1160    -3.7160    -1.7450 H     1 <1>   0.0800 
 42 H       -6.3260    -4.3840    -0.6770 H     1 <1>   0.0800 
 43 H       -4.6450    -4.7630    -0.4350 H     1 <1>   0.0800 
 44 H        7.6480     0.3650    -1.0060 H     1 <1>   0.0800 
 45 H        8.0450    -0.1080     0.6280 H     1 <1>   0.0800 
 46 H        6.8650     1.7390     1.4240 H     1 <1>   0.0800 
 47 H        6.5210     2.1920    -0.2280 H     1 <1>   0.0800 
@<TRIPOS>BOND
  1   1   2  1   
  2   1   3  1   
  3   2   4  ar  
  4   2   5  ar  
  5   3   6  1   
  6   3  20  1   
  7   3  21  1   
  8   4   7  ar  
  9   4  22  1   
 10   5   8  ar  
 11   5  23  1   
 12   6   9  1   
 13   6  24  1   
 14   6  25  1   
 15   7  10  ar  
 16   7  26  1   
 17   8  10  ar  
 18   8  27  1   
 19   9  11  1   
 20   9  28  1   
 21   9  29  1   
 22  10  12  1   
 23  11  13  1   
 24  11  14  1   
 25  11  30  1   
 26  12  15  1   
 27  12  16  1   
 28  12  17  1   
 29  13  18  1   
 30  13  31  1   
 31  13  32  1   
 32  14  19  1   
 33  14  33  1   
 34  14  34  1   
 35  15  35  1   
 36  15  36  1   
 37  15  37  1   
 38  16  38  1   
 39  16  39  1   
 40  16  40  1   
 41  17  41  1   
 42  17  42  1   
 43  17  43  1   
 44  18  19  1   
 45  18  44  1   
 46  18  45  1   
 47  19  46  1   
 48  19  47  1   
@<TRIPOS>SUBSTRUCTURE
  1 ****   1 GROUP 4 **** **** 0

# MOE 2024.06 (io_trps.svl 2023.06)
