@<TRIPOS>MOLECULE
NONAME
39 39 1 0 0 
SMALL
USER_CHARGES


@<TRIPOS>ATOM
  1 O       -0.6170    -6.7820     0.3280 O.3   1 <1>  -0.3630 
  2 C        0.2760    -5.7990     0.0280 C.ar  1 <1>   0.0830 
  3 C       -0.1730    -8.0530     0.7630 C.3   1 <1>   0.0400 
  4 C       -0.2130    -4.6530    -0.5930 C.ar  1 <1>  -0.1440 
  5 C        1.6320    -5.8920     0.3250 C.ar  1 <1>  -0.1500 
  6 C        0.6500    -3.6150    -0.9070 C.ar  1 <1>  -0.1500 
  7 C       -1.6840    -4.5430    -0.9230 C.3   1 <1>   0.4870 
  8 C        2.4930    -4.8560     0.0110 C.ar  1 <1>   0.0820 
  9 C        1.9980    -3.7120    -0.6080 C.ar  1 <1>  -0.1500 
 10 N       -2.4090    -4.5650     0.3570 N.4   1 <1>  -0.9060 
 11 O        3.7960    -5.0310     0.3380 O.3   1 <1>  -0.3620 
 12 C       -3.8790    -4.5560     0.2030 C.3   1 <1>   0.4230 
 13 C        4.7690    -4.0530     0.0440 C.3   1 <1>   0.0400 
 14 C       -4.4270    -3.1050     0.2270 C.3   1 <1>   0.1200 
 15 C       -4.4750    -5.4160     1.3250 C.3   1 <1>  -0.1600 
 16 O       -3.5200    -2.2110    -0.3470 O.3   1 <1>  -0.6800 
 17 C       -5.9970    -5.5910     1.2030 C.3   1 <1>  -0.2400 
 18 H       -1.0280    -8.7000     0.8540 H     1 <1>   0.0800 
 19 H        0.3090    -7.9510     1.7200 H     1 <1>   0.0800 
 20 H        0.5100    -8.4560     0.0340 H     1 <1>   0.0800 
 21 H        2.0530    -6.7550     0.8050 H     1 <1>   0.1500 
 22 H        0.2880    -2.7210    -1.3880 H     1 <1>   0.1500 
 23 H       -1.9770    -5.3800    -1.5360 H     1 <1>   0.0800 
 24 H       -1.8840    -3.6260    -1.4550 H     1 <1>   0.0800 
 25 H        2.6460    -2.8940    -0.8630 H     1 <1>   0.1500 
 26 H       -2.1250    -3.7250     0.8710 H     1 <1>   0.4500 
 27 H       -2.0650    -5.3950     0.8600 H     1 <1>   0.4500 
 28 H       -4.1410    -5.0080    -0.7400 H     1 <1>   0.0800 
 29 H        5.7220    -4.4180     0.3830 H     1 <1>   0.0800 
 30 H        4.5210    -3.1450     0.5650 H     1 <1>   0.0800 
 31 H        4.7970    -3.8940    -1.0190 H     1 <1>   0.0800 
 32 H       -4.6040    -2.7860     1.2410 H     1 <1>   0.0800 
 33 H       -5.3550    -3.0510    -0.3160 H     1 <1>   0.0800 
 34 H       -4.2520    -4.9790     2.2840 H     1 <1>   0.0800 
 35 H       -4.0290    -6.3960     1.2910 H     1 <1>   0.0800 
 36 H       -3.8940    -1.3010    -0.3760 H     1 <1>   0.4000 
 37 H       -6.5130    -4.6530     1.3150 H     1 <1>   0.0800 
 38 H       -6.3500    -6.2530     1.9750 H     1 <1>   0.0800 
 39 H       -6.2590    -6.0210     0.2510 H     1 <1>   0.0800 
@<TRIPOS>BOND
  1   1   2  1   
  2   1   3  1   
  3   2   4  ar  
  4   2   5  ar  
  5   3  18  1   
  6   3  19  1   
  7   3  20  1   
  8   4   6  ar  
  9   4   7  1   
 10   5   8  ar  
 11   5  21  1   
 12   6   9  ar  
 13   6  22  1   
 14   7  10  1   
 15   7  23  1   
 16   7  24  1   
 17   8   9  ar  
 18   8  11  1   
 19   9  25  1   
 20  10  12  1   
 21  10  26  1   
 22  10  27  1   
 23  11  13  1   
 24  12  14  1   
 25  12  15  1   
 26  12  28  1   
 27  13  29  1   
 28  13  30  1   
 29  13  31  1   
 30  14  16  1   
 31  14  32  1   
 32  14  33  1   
 33  15  17  1   
 34  15  34  1   
 35  15  35  1   
 36  16  36  1   
 37  17  37  1   
 38  17  38  1   
 39  17  39  1   
@<TRIPOS>SUBSTRUCTURE
  1 ****   4 GROUP 4 **** **** 0

# MOE 2024.06 (io_trps.svl 2023.06)
