@<TRIPOS>MOLECULE
NONAME
49 50 1 0 0 
SMALL
USER_CHARGES


@<TRIPOS>ATOM
  1 S        0.2770     0.2790    -0.8940 S.o2  1 <1>   1.3330 
  2 O       -0.8180    -0.5870    -0.5380 O.2   1 <1>  -0.6500 
  3 O        1.5920    -0.2750    -1.1130 O.2   1 <1>  -0.6500 
  4 N        0.4570     1.4320     0.3810 N.am  1 <1>  -0.6930 
  5 C       -0.1550     1.2970    -2.2890 C.3   1 <1>  -0.1350 
  6 C       -0.5560     2.3570     0.6300 C.ar  1 <1>   0.1990 
  7 C        1.2300     0.9540     1.5710 C.3   1 <1>   0.2570 
  8 C       -0.3560     3.7300     0.4560 C.ar  1 <1>  -0.1440 
  9 C       -1.8050     1.9080     1.0520 C.ar  1 <1>  -0.1500 
 10 C        2.7240     1.2990     1.5620 C.2   1 <1>   0.5690 
 11 C       -1.4060     4.6070     0.6820 C.ar  1 <1>  -0.1500 
 12 C        0.9840     4.3200     0.0250 C.3   1 <1>  -0.0170 
 13 C       -2.8430     2.7910     1.2780 C.ar  1 <1>  -0.1500 
 14 O        3.1710     1.9250     2.4940 O.2   1 <1>  -0.5700 
 15 N        3.5090     0.8600     0.5320 N.am  1 <1>  -0.5470 
 16 C       -2.6440     4.1450     1.0900 C.ar  1 <1>  -0.1500 
 17 C        1.6830     4.9940     1.2090 C.3   1 <1>  -0.2400 
 18 C        4.9050     0.8940     0.4220 C.ar  1 <1>   0.1170 
 19 C        5.6190     2.0610     0.1340 C.ar  1 <1>  -0.1430 
 20 C        5.5980    -0.2990     0.5800 C.ar  1 <1>  -0.1500 
 21 C        7.0000     2.0060     0.0200 C.ar  1 <1>  -0.1500 
 22 C        4.9280     3.4040    -0.0710 C.3   1 <1>  -0.0170 
 23 C        6.9740    -0.3450     0.4650 C.ar  1 <1>  -0.1500 
 24 C        7.6780     0.8110     0.1850 C.ar  1 <1>  -0.1500 
 25 C        4.4010     3.5320    -1.5030 C.3   1 <1>  -0.2400 
 26 H       -0.2620     0.6910    -3.1670 H     1 <1>   0.0800 
 27 H        0.6080     2.0280    -2.4640 H     1 <1>   0.0800 
 28 H       -1.0830     1.8020    -2.1060 H     1 <1>   0.0800 
 29 H        1.1300    -0.1130     1.6560 H     1 <1>   0.0800 
 30 H        0.8040     1.3840     2.4600 H     1 <1>   0.0800 
 31 H       -1.9680     0.8560     1.2030 H     1 <1>   0.1500 
 32 H       -1.2630     5.6660     0.5460 H     1 <1>   0.1500 
 33 H        0.8180     5.0480    -0.7500 H     1 <1>   0.0800 
 34 H        1.6290     3.5630    -0.3830 H     1 <1>   0.0800 
 35 H       -3.8030     2.4250     1.6010 H     1 <1>   0.1500 
 36 H        3.0260     0.3160    -0.1960 H     1 <1>   0.3700 
 37 H       -3.4490     4.8380     1.2640 H     1 <1>   0.1500 
 38 H        1.8800     4.2740     1.9830 H     1 <1>   0.0800 
 39 H        1.0690     5.7760     1.6170 H     1 <1>   0.0800 
 40 H        2.6170     5.4240     0.8930 H     1 <1>   0.0800 
 41 H        5.0520    -1.1980     0.7980 H     1 <1>   0.1500 
 42 H        7.5590     2.8980    -0.2000 H     1 <1>   0.1500 
 43 H        5.6200     4.2030     0.1270 H     1 <1>   0.0800 
 44 H        4.1220     3.5110     0.6290 H     1 <1>   0.0800 
 45 H        7.4960    -1.2770     0.5940 H     1 <1>   0.1500 
 46 H        8.7500     0.7830     0.0960 H     1 <1>   0.1500 
 47 H        5.2150     3.4520    -2.2020 H     1 <1>   0.0800 
 48 H        3.9200     4.4840    -1.6370 H     1 <1>   0.0800 
 49 H        3.6930     2.7500    -1.7090 H     1 <1>   0.0800 
@<TRIPOS>BOND
  1   1   2  2   
  2   1   3  2   
  3   1   4  am  
  4   1   5  1   
  5   4   6  1   
  6   4   7  1   
  7   5  26  1   
  8   5  27  1   
  9   5  28  1   
 10   6   8  ar  
 11   6   9  ar  
 12   7  10  1   
 13   7  29  1   
 14   7  30  1   
 15   8  11  ar  
 16   8  12  1   
 17   9  13  ar  
 18   9  31  1   
 19  10  14  2   
 20  10  15  am  
 21  11  16  ar  
 22  11  32  1   
 23  12  17  1   
 24  12  33  1   
 25  12  34  1   
 26  13  16  ar  
 27  13  35  1   
 28  15  18  1   
 29  15  36  1   
 30  16  37  1   
 31  17  38  1   
 32  17  39  1   
 33  17  40  1   
 34  18  19  ar  
 35  18  20  ar  
 36  19  21  ar  
 37  19  22  1   
 38  20  23  ar  
 39  20  41  1   
 40  21  24  ar  
 41  21  42  1   
 42  22  25  1   
 43  22  43  1   
 44  22  44  1   
 45  23  24  ar  
 46  23  45  1   
 47  24  46  1   
 48  25  47  1   
 49  25  48  1   
 50  25  49  1   
@<TRIPOS>SUBSTRUCTURE
  1 ****  10 GROUP 4 **** **** 0

# MOE 2024.06 (io_trps.svl 2023.06)
