@<TRIPOS>MOLECULE
NONAME
44 45 1 0 0 
SMALL
USER_CHARGES


@<TRIPOS>ATOM
  1 O        0.8460    -0.1490    -1.2890 O.3   1 <1>  -0.3630 
  2 C        0.3370    -1.2440    -0.6700 C.ar  1 <1>   0.0830 
  3 C        1.7250     0.6770    -0.5530 C.3   1 <1>   0.1200 
  4 C       -0.6450    -1.1150     0.3130 C.ar  1 <1>  -0.1440 
  5 C        0.7970    -2.5060    -1.0430 C.ar  1 <1>  -0.1440 
  6 C        3.1370     0.0850    -0.5800 C.3   1 <1>  -0.1600 
  7 C       -1.1090    -2.2510     0.9560 C.ar  1 <1>  -0.1500 
  8 C       -1.2530     0.2280     0.6940 C.3   1 <1>  -0.0960 
  9 C        0.3150    -3.6250    -0.3850 C.ar  1 <1>  -0.1500 
 10 C        1.8140    -2.6960    -2.1610 C.3   1 <1>  -0.0970 
 11 C        4.1390     0.9980     0.1380 C.3   1 <1>  -0.1600 
 12 C       -0.6310    -3.5050     0.6180 C.ar  1 <1>  -0.1430 
 13 C        5.5450     0.3860     0.1160 C.3   1 <1>  -0.1600 
 14 C       -1.1460    -4.7390     1.3360 C.3   1 <1>  -0.0970 
 15 C        6.5560     1.2850     0.8370 C.3   1 <1>   0.0960 
 16 N        7.9000     0.6780     0.8000 N.pl3 1 <1>   0.0480 
 17 C        8.8730     0.8750    -0.1170 C.2   1 <1>   0.0360 
 18 C        8.4260    -0.2010     1.6710 C.2   1 <1>  -0.3020 
 19 N        9.9530     0.1980     0.1060 N.2   1 <1>  -0.5650 
 20 C        9.6730    -0.4810     1.2340 C.2   1 <1>   0.0770 
 21 H        1.3690     0.7650     0.4570 H     1 <1>   0.0800 
 22 H        1.7150     1.6460    -1.0180 H     1 <1>   0.0800 
 23 H        3.4400    -0.0500    -1.6030 H     1 <1>   0.0800 
 24 H        3.1210    -0.8740    -0.0910 H     1 <1>   0.0800 
 25 H       -1.8540    -2.1600     1.7260 H     1 <1>   0.1500 
 26 H       -0.7140     0.6560     1.5190 H     1 <1>   0.0800 
 27 H       -2.2810     0.1040     0.9830 H     1 <1>   0.0800 
 28 H       -1.2250     0.9070    -0.1390 H     1 <1>   0.0800 
 29 H        0.6780    -4.6000    -0.6580 H     1 <1>   0.1500 
 30 H        1.7190    -1.9180    -2.8970 H     1 <1>   0.0800 
 31 H        1.6570    -3.6380    -2.6530 H     1 <1>   0.0800 
 32 H        2.8100    -2.6780    -1.7580 H     1 <1>   0.0800 
 33 H        3.8230     1.1390     1.1580 H     1 <1>   0.0800 
 34 H        4.1550     1.9600    -0.3470 H     1 <1>   0.0800 
 35 H        5.8580     0.2470    -0.9050 H     1 <1>   0.0800 
 36 H        5.5220    -0.5770     0.5980 H     1 <1>   0.0800 
 37 H       -2.1650    -4.5950     1.6460 H     1 <1>   0.0800 
 38 H       -0.5420    -4.9320     2.2040 H     1 <1>   0.0800 
 39 H       -1.1070    -5.5960     0.6880 H     1 <1>   0.0800 
 40 H        6.2690     1.4190     1.8650 H     1 <1>   0.0800 
 41 H        6.6000     2.2500     0.3650 H     1 <1>   0.0800 
 42 H        8.7430     1.5380    -0.9540 H     1 <1>   0.1500 
 43 H        7.9010    -0.5720     2.5320 H     1 <1>   0.1500 
 44 H       10.3960    -1.1450     1.6780 H     1 <1>   0.1500 
@<TRIPOS>BOND
  1   1   2  1   
  2   1   3  1   
  3   2   4  ar  
  4   2   5  ar  
  5   3   6  1   
  6   3  21  1   
  7   3  22  1   
  8   4   7  ar  
  9   4   8  1   
 10   5   9  ar  
 11   5  10  1   
 12   6  11  1   
 13   6  23  1   
 14   6  24  1   
 15   7  12  ar  
 16   7  25  1   
 17   8  26  1   
 18   8  27  1   
 19   8  28  1   
 20   9  12  ar  
 21   9  29  1   
 22  10  30  1   
 23  10  31  1   
 24  10  32  1   
 25  11  13  1   
 26  11  33  1   
 27  11  34  1   
 28  12  14  1   
 29  13  15  1   
 30  13  35  1   
 31  13  36  1   
 32  14  37  1   
 33  14  38  1   
 34  14  39  1   
 35  15  16  1   
 36  15  40  1   
 37  15  41  1   
 38  16  17  1   
 39  16  18  1   
 40  17  19  2   
 41  17  42  1   
 42  18  20  2   
 43  18  43  1   
 44  19  20  1   
 45  20  44  1   
@<TRIPOS>SUBSTRUCTURE
  1 ****   6 GROUP 4 **** **** 0

# MOE 2024.06 (io_trps.svl 2023.06)
