@<TRIPOS>MOLECULE
NONAME
46 48 1 0 0 
SMALL
USER_CHARGES


@<TRIPOS>ATOM
  1 CL      -1.8880     0.6420     2.1470 Cl    1 <1>  -0.1770 
  2 C       -1.4990     2.1950     1.4530 C.ar  1 <1>   0.1770 
  3 C       -0.9960     2.2570     0.1680 C.ar  1 <1>  -0.1500 
  4 C       -1.7010     3.3410     2.1990 C.ar  1 <1>  -0.1500 
  5 C       -0.6890     3.4910    -0.3820 C.ar  1 <1>  -0.1500 
  6 C       -1.3930     4.5710     1.6440 C.ar  1 <1>  -0.1500 
  7 C       -0.8870     4.6530     0.3530 C.ar  1 <1>  -0.1430 
  8 C       -0.5560     6.0120    -0.2480 C.3   1 <1>   0.2540 
  9 N       -1.7700     6.8450    -0.3590 N.3   1 <1>  -0.8100 
 10 C       -1.4560     8.2150    -0.8240 C.3   1 <1>   0.1100 
 11 C       -2.8010     6.2170    -1.2310 C.3   1 <1>   0.1100 
 12 C       -2.7130     9.1230    -0.8540 C.3   1 <1>   0.3430 
 13 C       -4.0430     7.1180    -1.4340 C.3   1 <1>   0.3430 
 14 N       -3.9590     8.3410    -0.5690 N.4   1 <1>  -0.9590 
 15 C       -5.2020     9.1530    -0.5430 C.3   1 <1>   0.4860 
 16 C       -6.3510     8.2680    -0.1040 C.ar  1 <1>  -0.1430 
 17 C       -7.3190     7.8780    -1.0180 C.ar  1 <1>  -0.1500 
 18 C       -6.4380     7.8280     1.2090 C.ar  1 <1>  -0.1500 
 19 C       -8.3540     7.0480    -0.6250 C.ar  1 <1>  -0.1500 
 20 C       -7.4740     6.9980     1.5980 C.ar  1 <1>  -0.1500 
 21 C       -8.4340     6.6000     0.6830 C.ar  1 <1>  -0.1430 
 22 C       -9.5700     5.6890     1.1140 C.3   1 <1>  -0.0970 
 23 H       -0.8460     1.3500    -0.3890 H     1 <1>   0.1500 
 24 H       -2.0930     3.2660     3.1980 H     1 <1>   0.1500 
 25 H       -0.2940     3.5370    -1.3820 H     1 <1>   0.1500 
 26 H       -1.5480     5.4690     2.2170 H     1 <1>   0.1500 
 27 H       -0.1030     5.8890    -1.2180 H     1 <1>   0.0800 
 28 H        0.1580     6.5030     0.3930 H     1 <1>   0.0800 
 29 H       -1.0250     8.1750    -1.8100 H     1 <1>   0.0800 
 30 H       -0.7250     8.6590    -0.1690 H     1 <1>   0.0800 
 31 H       -3.1280     5.2920    -0.7860 H     1 <1>   0.0800 
 32 H       -2.3780     5.9780    -2.1920 H     1 <1>   0.0800 
 33 H       -2.7820     9.5950    -1.8200 H     1 <1>   0.0800 
 34 H       -2.5950     9.9000    -0.1170 H     1 <1>   0.0800 
 35 H       -4.9250     6.5470    -1.1890 H     1 <1>   0.0800 
 36 H       -4.1130     7.4020    -2.4700 H     1 <1>   0.0800 
 37 H       -3.8100     7.9420     0.3690 H     1 <1>   0.4500 
 38 H       -5.4050     9.5560    -1.5210 H     1 <1>   0.0800 
 39 H       -5.0980     9.9710     0.1510 H     1 <1>   0.0800 
 40 H       -7.2850     8.2130    -2.0410 H     1 <1>   0.1500 
 41 H       -5.7100     8.1230     1.9450 H     1 <1>   0.1500 
 42 H       -9.1020     6.7510    -1.3400 H     1 <1>   0.1500 
 43 H       -7.5350     6.6610     2.6190 H     1 <1>   0.1500 
 44 H       -9.2410     5.0160     1.8850 H     1 <1>   0.0800 
 45 H       -9.9230     5.1050     0.2840 H     1 <1>   0.0800 
 46 H      -10.3850     6.2790     1.4930 H     1 <1>   0.0800 
@<TRIPOS>BOND
  1   1   2  1   
  2   2   3  ar  
  3   2   4  ar  
  4   3   5  ar  
  5   3  23  1   
  6   4   6  ar  
  7   4  24  1   
  8   5   7  ar  
  9   5  25  1   
 10   6   7  ar  
 11   6  26  1   
 12   7   8  1   
 13   8   9  1   
 14   8  27  1   
 15   8  28  1   
 16   9  10  1   
 17   9  11  1   
 18  10  12  1   
 19  10  29  1   
 20  10  30  1   
 21  11  13  1   
 22  11  31  1   
 23  11  32  1   
 24  12  14  1   
 25  12  33  1   
 26  12  34  1   
 27  13  14  1   
 28  13  35  1   
 29  13  36  1   
 30  14  15  1   
 31  14  37  1   
 32  15  16  1   
 33  15  38  1   
 34  15  39  1   
 35  16  17  ar  
 36  16  18  ar  
 37  17  19  ar  
 38  17  40  1   
 39  18  20  ar  
 40  18  41  1   
 41  19  21  ar  
 42  19  42  1   
 43  20  21  ar  
 44  20  43  1   
 45  21  22  1   
 46  22  44  1   
 47  22  45  1   
 48  22  46  1   
@<TRIPOS>SUBSTRUCTURE
  1 ****  11 GROUP 4 **** **** 0

# MOE 2024.06 (io_trps.svl 2023.06)
