@<TRIPOS>MOLECULE
NONAME
40 42 1 0 0 
SMALL
USER_CHARGES


@<TRIPOS>ATOM
  1 O        0.4080    -0.4130    -0.0820 O.2   1 <1>  -0.5700 
  2 C        0.2350    -1.5940    -0.3170 C.2   1 <1>   0.5440 
  3 N        1.2970    -2.3450    -0.7780 N.am  1 <1>  -0.6600 
  4 C       -1.0760    -2.1760    -0.0970 C.ar  1 <1>   0.0860 
  5 C        1.3530    -3.8420    -0.7150 C.3   1 <1>   0.1400 
  6 C        2.5940    -1.7170    -1.1930 C.3   1 <1>   0.1400 
  7 C       -1.7370    -2.8870    -1.0980 C.ar  1 <1>  -0.1500 
  8 C       -1.7230    -2.0400     1.1290 C.ar  1 <1>  -0.1500 
  9 C        2.5530    -4.3320     0.1170 C.3   1 <1>   0.2090 
 10 C        3.7690    -2.2330    -0.3470 C.3   1 <1>   0.2090 
 11 C       -2.9800    -3.4520    -0.8790 C.ar  1 <1>  -0.1500 
 12 C       -2.9660    -2.6040     1.3550 C.ar  1 <1>  -0.1500 
 13 N        3.8270    -3.7270    -0.3630 N.pl3 1 <1>  -0.8380 
 14 C       -3.6020    -3.3150     0.3510 C.ar  1 <1>  -0.1440 
 15 C        4.9910    -4.3320     0.0670 C.ar  1 <1>   0.4100 
 16 C       -4.9660    -3.9350     0.5970 C.3   1 <1>  -0.0970 
 17 N        5.6600    -3.7430     1.0520 N.ar  1 <1>  -0.6200 
 18 C        5.4020    -5.5210    -0.5300 C.ar  1 <1>  -0.1500 
 19 C        6.7620    -4.3560     1.4490 C.ar  1 <1>   0.1600 
 20 C        6.5500    -6.1490    -0.1070 C.ar  1 <1>  -0.1500 
 21 C        7.2450    -5.5390     0.9170 C.ar  1 <1>  -0.1500 
 22 H        1.4410    -4.2300    -1.7140 H     1 <1>   0.0800 
 23 H        0.4540    -4.2390    -0.2800 H     1 <1>   0.0800 
 24 H        2.5440    -0.6460    -1.1070 H     1 <1>   0.0800 
 25 H        2.7820    -1.9520    -2.2250 H     1 <1>   0.0800 
 26 H       -1.2660    -2.9900    -2.0600 H     1 <1>   0.1500 
 27 H       -1.2370    -1.4810     1.9100 H     1 <1>   0.1500 
 28 H        2.6160    -5.4040     0.0570 H     1 <1>   0.0800 
 29 H        2.4030    -4.0650     1.1490 H     1 <1>   0.0800 
 30 H        3.6560    -1.8870     0.6670 H     1 <1>   0.0800 
 31 H        4.6920    -1.8350    -0.7320 H     1 <1>   0.0800 
 32 H       -3.4660    -3.9970    -1.6700 H     1 <1>   0.1500 
 33 H       -3.4370    -2.4830     2.3140 H     1 <1>   0.1500 
 34 H       -4.8500    -4.9310     0.9830 H     1 <1>   0.0800 
 35 H       -5.5300    -3.9800    -0.3180 H     1 <1>   0.0800 
 36 H       -5.5220    -3.3500     1.3070 H     1 <1>   0.0800 
 37 H        4.8100    -5.9290    -1.3250 H     1 <1>   0.1500 
 38 H        7.3130    -3.8880     2.2460 H     1 <1>   0.1500 
 39 H        6.8910    -7.0680    -0.5510 H     1 <1>   0.1500 
 40 H        8.1510    -5.9740     1.2980 H     1 <1>   0.1500 
@<TRIPOS>BOND
  1   1   2  2   
  2   2   3  am  
  3   2   4  1   
  4   3   5  1   
  5   3   6  1   
  6   4   7  ar  
  7   4   8  ar  
  8   5   9  1   
  9   5  22  1   
 10   5  23  1   
 11   6  10  1   
 12   6  24  1   
 13   6  25  1   
 14   7  11  ar  
 15   7  26  1   
 16   8  12  ar  
 17   8  27  1   
 18   9  13  1   
 19   9  28  1   
 20   9  29  1   
 21  10  13  1   
 22  10  30  1   
 23  10  31  1   
 24  11  14  ar  
 25  11  32  1   
 26  12  14  ar  
 27  12  33  1   
 28  13  15  1   
 29  14  16  1   
 30  15  17  ar  
 31  15  18  ar  
 32  16  34  1   
 33  16  35  1   
 34  16  36  1   
 35  17  19  ar  
 36  18  20  ar  
 37  18  37  1   
 38  19  21  ar  
 39  19  38  1   
 40  20  21  ar  
 41  20  39  1   
 42  21  40  1   
@<TRIPOS>SUBSTRUCTURE
  1 ****   5 GROUP 4 **** **** 0

# MOE 2024.06 (io_trps.svl 2023.06)
