@<TRIPOS>MOLECULE
NONAME
34 34 1 0 0 
SMALL
USER_CHARGES


@<TRIPOS>ATOM
  1 CL      -0.1780     0.1340     0.0060 Cl    1 <1>  -0.1770 
  2 C        1.3900     0.9110     0.0030 C.ar  1 <1>   0.1770 
  3 C        1.4900     2.2980     0.0030 C.ar  1 <1>  -0.1440 
  4 C        2.5080     0.0980     0.0010 C.ar  1 <1>  -0.1500 
  5 C        2.7650     2.8520     0.0000 C.ar  1 <1>  -0.1500 
  6 C        0.2090     3.1370     0.0050 C.3   1 <1>  -0.0160 
  7 C        3.7700     0.6650    -0.0020 C.ar  1 <1>  -0.1500 
  8 C        3.8990     2.0520    -0.0020 C.ar  1 <1>   0.0830 
  9 C        0.4130     4.6570     0.0060 C.3   1 <1>  -0.2400 
 10 O        5.0940     2.6960    -0.0040 O.3   1 <1>  -0.3620 
 11 C        6.3110     1.9910    -0.0070 C.3   1 <1>   0.1200 
 12 C        7.4330     3.0320    -0.0100 C.3   1 <1>   0.3430 
 13 N        8.7860     2.3970    -0.0140 N.4   1 <1>  -0.9060 
 14 C        9.8700     3.4030    -0.0170 C.3   1 <1>   0.3430 
 15 C       11.2000     2.6660    -0.0210 C.3   1 <1>  -0.2400 
 16 H        2.3830    -0.9700     0.0010 H     1 <1>   0.1500 
 17 H        2.9070     3.9160     0.0000 H     1 <1>   0.1500 
 18 H       -0.3700     2.8730     0.8730 H     1 <1>   0.0800 
 19 H       -0.3730     2.8750    -0.8620 H     1 <1>   0.0800 
 20 H        4.6210     0.0120    -0.0030 H     1 <1>   0.1500 
 21 H        0.9550     4.9630     0.8840 H     1 <1>   0.0800 
 22 H       -0.5420     5.1510     0.0080 H     1 <1>   0.0800 
 23 H        0.9520     4.9650    -0.8720 H     1 <1>   0.0800 
 24 H        6.3410     1.3840    -0.8950 H     1 <1>   0.0800 
 25 H        6.3450     1.3840     0.8810 H     1 <1>   0.0800 
 26 H        7.3270     3.6530     0.8650 H     1 <1>   0.0800 
 27 H        7.3220     3.6530    -0.8850 H     1 <1>   0.0800 
 28 H        8.8940     1.7960    -0.8410 H     1 <1>   0.4500 
 29 H        8.8990     1.7960     0.8130 H     1 <1>   0.4500 
 30 H        9.8020     4.0290     0.8600 H     1 <1>   0.0800 
 31 H        9.7970     4.0300    -0.8930 H     1 <1>   0.0800 
 32 H       11.3080     2.0560     0.8580 H     1 <1>   0.0800 
 33 H       12.0020     3.3830    -0.0240 H     1 <1>   0.0800 
 34 H       11.3020     2.0560    -0.9020 H     1 <1>   0.0800 
@<TRIPOS>BOND
  1   1   2  1   
  2   2   3  ar  
  3   2   4  ar  
  4   3   5  ar  
  5   3   6  1   
  6   4   7  ar  
  7   4  16  1   
  8   5   8  ar  
  9   5  17  1   
 10   6   9  1   
 11   6  18  1   
 12   6  19  1   
 13   7   8  ar  
 14   7  20  1   
 15   8  10  1   
 16   9  21  1   
 17   9  22  1   
 18   9  23  1   
 19  10  11  1   
 20  11  12  1   
 21  11  24  1   
 22  11  25  1   
 23  12  13  1   
 24  12  26  1   
 25  12  27  1   
 26  13  14  1   
 27  13  28  1   
 28  13  29  1   
 29  14  15  1   
 30  14  30  1   
 31  14  31  1   
 32  15  32  1   
 33  15  33  1   
 34  15  34  1   
@<TRIPOS>SUBSTRUCTURE
  1 ****   8 GROUP 4 **** **** 0

# MOE 2024.06 (io_trps.svl 2023.06)
