@<TRIPOS>MOLECULE
NONAME
46 48 1 0 0 
SMALL
USER_CHARGES


@<TRIPOS>ATOM
  1 S        0.1340    -0.0540     0.0410 S.o2  1 <1>   1.4470 
  2 O       -0.3180     0.5520     1.2710 O.2   1 <1>  -0.6500 
  3 O       -0.4850     0.3520    -1.2000 O.2   1 <1>  -0.6500 
  4 N        1.7640     0.4100    -0.1130 N.am  1 <1>  -0.8490 
  5 C        0.1670    -1.8630     0.0980 C.ar  1 <1>  -0.0090 
  6 C        1.8540     1.8150    -0.5760 C.3   1 <1>   0.1960 
  7 C        2.5300     0.2450     1.1490 C.3   1 <1>   0.1960 
  8 C        0.3740    -2.5640     1.2800 C.ar  1 <1>   0.1900 
  9 C        0.0080    -2.6200    -1.0590 C.ar  1 <1>  -0.1500 
 10 C        3.3130     2.2960    -0.7750 C.3   1 <1>   0.3430 
 11 C        3.9880     0.7600     1.0490 C.3   1 <1>   0.3430 
 12 F        0.5560    -1.9090     2.3940 F     1 <1>  -0.1900 
 13 C        0.4170    -3.9480     1.3540 C.ar  1 <1>  -0.1500 
 14 C        0.0540    -4.0010    -0.9920 C.ar  1 <1>   0.1900 
 15 N        4.3060     1.2620    -0.3330 N.4   1 <1>  -0.9590 
 16 C        0.2540    -4.6840     0.1930 C.ar  1 <1>  -0.1500 
 17 F       -0.0940    -4.6850    -2.0930 F     1 <1>  -0.1900 
 18 C        5.7270     1.6570    -0.5160 C.3   1 <1>   0.4860 
 19 C        6.5970     0.4520    -0.2100 C.ar  1 <1>  -0.1440 
 20 C        6.6840    -0.6350    -1.0770 C.ar  1 <1>  -0.1440 
 21 C        7.3110     0.4420     0.9810 C.ar  1 <1>  -0.1500 
 22 C        7.4700    -1.7210    -0.7220 C.ar  1 <1>  -0.1500 
 23 C        5.9580    -0.6900    -2.4170 C.3   1 <1>  -0.0970 
 24 C        8.0940    -0.6450     1.3220 C.ar  1 <1>  -0.1500 
 25 C        8.1700    -1.7290     0.4700 C.ar  1 <1>  -0.1500 
 26 H        1.3600     2.4630     0.1310 H     1 <1>   0.0800 
 27 H        1.3380     1.9250    -1.5160 H     1 <1>   0.0800 
 28 H        2.5670    -0.7980     1.4120 H     1 <1>   0.0800 
 29 H        2.0400     0.7620     1.9580 H     1 <1>   0.0800 
 30 H       -0.1550    -2.1430    -2.0110 H     1 <1>   0.1500 
 31 H        3.4570     3.2090    -0.2210 H     1 <1>   0.0800 
 32 H        3.4620     2.5220    -1.8180 H     1 <1>   0.0800 
 33 H        4.6570    -0.0450     1.3100 H     1 <1>   0.0800 
 34 H        4.1330     1.5480     1.7690 H     1 <1>   0.0800 
 35 H        0.5750    -4.4370     2.3000 H     1 <1>   0.1500 
 36 H        4.1460     0.4420    -0.9340 H     1 <1>   0.4500 
 37 H        0.2800    -5.7600     0.2010 H     1 <1>   0.1500 
 38 H        5.9780     2.4700     0.1450 H     1 <1>   0.0800 
 39 H        5.9000     1.9750    -1.5310 H     1 <1>   0.0800 
 40 H        7.2720     1.2770     1.6600 H     1 <1>   0.1500 
 41 H        7.5490    -2.5750    -1.3740 H     1 <1>   0.1500 
 42 H        5.9920     0.2600    -2.9180 H     1 <1>   0.0800 
 43 H        4.9350    -0.9890    -2.2780 H     1 <1>   0.0800 
 44 H        6.4270    -1.4090    -3.0660 H     1 <1>   0.0800 
 45 H        8.6490    -0.6500     2.2450 H     1 <1>   0.1500 
 46 H        8.7790    -2.5780     0.7310 H     1 <1>   0.1500 
@<TRIPOS>BOND
  1   1   2  2   
  2   1   3  2   
  3   1   4  am  
  4   1   5  1   
  5   4   6  1   
  6   4   7  1   
  7   5   8  ar  
  8   5   9  ar  
  9   6  10  1   
 10   6  26  1   
 11   6  27  1   
 12   7  11  1   
 13   7  28  1   
 14   7  29  1   
 15   8  12  1   
 16   8  13  ar  
 17   9  14  ar  
 18   9  30  1   
 19  10  15  1   
 20  10  31  1   
 21  10  32  1   
 22  11  15  1   
 23  11  33  1   
 24  11  34  1   
 25  13  16  ar  
 26  13  35  1   
 27  14  16  ar  
 28  14  17  1   
 29  15  18  1   
 30  15  36  1   
 31  16  37  1   
 32  18  19  1   
 33  18  38  1   
 34  18  39  1   
 35  19  20  ar  
 36  19  21  ar  
 37  20  22  ar  
 38  20  23  1   
 39  21  24  ar  
 40  21  40  1   
 41  22  25  ar  
 42  22  41  1   
 43  23  42  1   
 44  23  43  1   
 45  23  44  1   
 46  24  25  ar  
 47  24  45  1   
 48  25  46  1   
@<TRIPOS>SUBSTRUCTURE
  1 ****   7 GROUP 4 **** **** 0

# MOE 2024.06 (io_trps.svl 2023.06)
