@<TRIPOS>MOLECULE
NONAME
50 52 1 0 0 
SMALL
USER_CHARGES


@<TRIPOS>ATOM
  1 O       -3.8070     1.3170    -1.9490 O.2   1 <1>  -0.5700 
  2 C       -4.4790     1.4510    -0.9630 C.2   1 <1>   0.6590 
  3 O       -5.5680     0.6850    -0.8410 O.3   1 <1>  -0.4300 
  4 C       -4.1210     2.4400     0.1670 C.3   1 <1>   0.2680 
  5 C       -6.7750     1.0730    -0.2250 C.3   1 <1>   0.1200 
  6 C       -5.1310     3.5950     0.2070 C.ar  1 <1>  -0.1440 
  7 C       -2.6570     2.9160     0.1570 C.ar  1 <1>  -0.1440 
  8 C       -7.8710     0.0980    -0.6710 C.3   1 <1>   0.3430 
  9 C       -5.4630     4.2800    -0.9550 C.ar  1 <1>  -0.1500 
 10 C       -5.7380     3.9580     1.4020 C.ar  1 <1>  -0.1500 
 11 C       -1.6390     1.9700     0.1290 C.ar  1 <1>  -0.1500 
 12 C       -2.3050     4.2620     0.2000 C.ar  1 <1>  -0.1500 
 13 N       -9.2260     0.4780    -0.1480 N.4   1 <1>  -0.9590 
 14 C       -6.4020     5.2950    -0.9260 C.ar  1 <1>  -0.1500 
 15 C       -6.6780     4.9730     1.4300 C.ar  1 <1>  -0.1500 
 16 C       -0.3100     2.3530     0.1390 C.ar  1 <1>  -0.1500 
 17 C       -0.9760     4.6470     0.2100 C.ar  1 <1>  -0.1500 
 18 C      -10.2260    -0.5860    -0.4430 C.3   1 <1>   0.3430 
 19 C       -9.6880     1.8160    -0.6570 C.3   1 <1>   0.3430 
 20 C       -7.0130     5.6400     0.2660 C.ar  1 <1>  -0.1500 
 21 C        0.0240     3.6930     0.1790 C.ar  1 <1>  -0.1500 
 22 C      -11.4900    -0.3400     0.3920 C.3   1 <1>  -0.1600 
 23 C      -11.1950     2.0270    -0.4420 C.3   1 <1>  -0.1600 
 24 C      -11.7700     1.1470     0.6770 C.3   1 <1>  -0.1600 
 25 H       -4.2290     1.8840     1.0790 H     1 <1>   0.0800 
 26 H       -7.0140     2.0660    -0.5600 H     1 <1>   0.0800 
 27 H       -6.6390     1.0500     0.8420 H     1 <1>   0.0800 
 28 H       -7.6140    -0.8880    -0.3190 H     1 <1>   0.0800 
 29 H       -7.8980     0.0770    -1.7480 H     1 <1>   0.0800 
 30 H       -4.9840     4.0340    -1.8910 H     1 <1>   0.1500 
 31 H       -5.4790     3.4610     2.3220 H     1 <1>   0.1500 
 32 H       -1.8690     0.9190     0.0920 H     1 <1>   0.1500 
 33 H       -3.0510     5.0370     0.2290 H     1 <1>   0.1500 
 34 H       -9.1880     0.5430     0.8780 H     1 <1>   0.4500 
 35 H       -6.6500     5.8250    -1.8310 H     1 <1>   0.1500 
 36 H       -7.1410     5.2550     2.3610 H     1 <1>   0.1500 
 37 H        0.4660     1.6070     0.1120 H     1 <1>   0.1500 
 38 H       -0.7200     5.6920     0.2400 H     1 <1>   0.1500 
 39 H       -9.8270    -1.5620    -0.2140 H     1 <1>   0.0800 
 40 H      -10.4760    -0.5600    -1.4920 H     1 <1>   0.0800 
 41 H       -9.4720     1.9070    -1.7100 H     1 <1>   0.0800 
 42 H       -9.1490     2.5960    -0.1420 H     1 <1>   0.0800 
 43 H       -7.7380     6.4360     0.2890 H     1 <1>   0.1500 
 44 H        1.0570     3.9930     0.1850 H     1 <1>   0.1500 
 45 H      -11.4170    -0.8740     1.3230 H     1 <1>   0.0800 
 46 H      -12.3230    -0.7640    -0.1430 H     1 <1>   0.0800 
 47 H      -11.7090     1.8060    -1.3630 H     1 <1>   0.0800 
 48 H      -11.3790     3.0650    -0.2260 H     1 <1>   0.0800 
 49 H      -11.3180     1.4280     1.6130 H     1 <1>   0.0800 
 50 H      -12.8320     1.3090     0.7700 H     1 <1>   0.0800 
@<TRIPOS>BOND
  1   1   2  2   
  2   2   3  1   
  3   2   4  1   
  4   3   5  1   
  5   4   6  1   
  6   4   7  1   
  7   4  25  1   
  8   5   8  1   
  9   5  26  1   
 10   5  27  1   
 11   6   9  ar  
 12   6  10  ar  
 13   7  11  ar  
 14   7  12  ar  
 15   8  13  1   
 16   8  28  1   
 17   8  29  1   
 18   9  14  ar  
 19   9  30  1   
 20  10  15  ar  
 21  10  31  1   
 22  11  16  ar  
 23  11  32  1   
 24  12  17  ar  
 25  12  33  1   
 26  13  18  1   
 27  13  19  1   
 28  13  34  1   
 29  14  20  ar  
 30  14  35  1   
 31  15  20  ar  
 32  15  36  1   
 33  16  21  ar  
 34  16  37  1   
 35  17  21  ar  
 36  17  38  1   
 37  18  22  1   
 38  18  39  1   
 39  18  40  1   
 40  19  23  1   
 41  19  41  1   
 42  19  42  1   
 43  20  43  1   
 44  21  44  1   
 45  22  24  1   
 46  22  45  1   
 47  22  46  1   
 48  23  24  1   
 49  23  47  1   
 50  23  48  1   
 51  24  49  1   
 52  24  50  1   
@<TRIPOS>SUBSTRUCTURE
  1 ****   6 GROUP 4 **** **** 0

# MOE 2024.06 (io_trps.svl 2023.06)
