@<TRIPOS>MOLECULE
NONAME
40 41 1 0 0 
SMALL
USER_CHARGES


@<TRIPOS>ATOM
  1 BR      -1.0730     0.8670    -2.6600 Br    1 <1>  -0.1110 
  2 C       -0.4880     2.3890    -1.6370 C.ar  1 <1>   0.1110 
  3 C       -1.3520     2.9160    -0.6920 C.ar  1 <1>  -0.1500 
  4 C        0.7660     2.9050    -1.8750 C.ar  1 <1>  -0.1500 
  5 C       -0.9350     4.0150     0.0480 C.ar  1 <1>   0.0830 
  6 C        1.1980     4.0070    -1.1380 C.ar  1 <1>   0.0280 
  7 O       -1.7120     4.6010     1.0000 O.3   1 <1>  -0.3630 
  8 C        0.3350     4.5560    -0.1800 C.ar  1 <1>   0.0830 
  9 C        2.4770     4.6040    -1.3110 C.2   1 <1>  -0.1780 
 10 C       -3.0150     4.1390     1.2800 C.3   1 <1>   0.0400 
 11 O        0.7410     5.6330     0.5380 O.3   1 <1>  -0.2320 
 12 C        2.8520     5.6760    -0.5620 C.2   1 <1>   0.0290 
 13 C        1.9320     6.2230     0.3940 C.2   1 <1>   0.7060 
 14 C        4.1340     6.3080    -0.7090 C.2   1 <1>   0.6160 
 15 O        2.1580     7.1860     1.0990 O.2   1 <1>  -0.5700 
 16 O        4.4270     6.7530    -1.8030 O.2   1 <1>  -0.5700 
 17 N        5.0650     6.3680     0.3110 N.am  1 <1>  -0.6600 
 18 C        6.2970     7.1910     0.1730 C.3   1 <1>   0.1400 
 19 C        4.8800     5.7380     1.6490 C.3   1 <1>   0.0600 
 20 C        7.4630     6.3090    -0.2800 C.3   1 <1>  -0.1600 
 21 C        8.7510     7.1270    -0.4310 C.3   1 <1>  -0.1600 
 22 C        9.9160     6.2430    -0.8860 C.3   1 <1>  -0.2400 
 23 H       -2.3140     2.4600    -0.5610 H     1 <1>   0.1500 
 24 H        1.4010     2.4620    -2.6210 H     1 <1>   0.1500 
 25 H        3.1380     4.1880    -2.0530 H     1 <1>   0.1500 
 26 H       -3.4280     4.7610     2.0540 H     1 <1>   0.0800 
 27 H       -2.9600     3.1210     1.6220 H     1 <1>   0.0800 
 28 H       -3.6140     4.2180     0.3900 H     1 <1>   0.0800 
 29 H        6.5250     7.6570     1.1160 H     1 <1>   0.0800 
 30 H        6.1340     7.9740    -0.5490 H     1 <1>   0.0800 
 31 H        4.1860     4.9170     1.5950 H     1 <1>   0.0800 
 32 H        4.5030     6.4710     2.3420 H     1 <1>   0.0800 
 33 H        5.8190     5.3620     2.0130 H     1 <1>   0.0800 
 34 H        7.2120     5.8630    -1.2270 H     1 <1>   0.0800 
 35 H        7.6220     5.5240     0.4380 H     1 <1>   0.0800 
 36 H        9.0020     7.5880     0.5090 H     1 <1>   0.0800 
 37 H        8.5980     7.9090    -1.1560 H     1 <1>   0.0800 
 38 H       10.1020     5.4660    -0.1660 H     1 <1>   0.0800 
 39 H       10.8080     6.8340    -0.9900 H     1 <1>   0.0800 
 40 H        9.6930     5.7900    -1.8360 H     1 <1>   0.0800 
@<TRIPOS>BOND
  1   1   2  1   
  2   2   3  ar  
  3   2   4  ar  
  4   3   5  ar  
  5   3  23  1   
  6   4   6  ar  
  7   4  24  1   
  8   5   7  1   
  9   5   8  ar  
 10   6   8  ar  
 11   6   9  1   
 12   7  10  1   
 13   8  11  1   
 14   9  12  2   
 15   9  25  1   
 16  10  26  1   
 17  10  27  1   
 18  10  28  1   
 19  11  13  1   
 20  12  13  1   
 21  12  14  1   
 22  13  15  2   
 23  14  16  2   
 24  14  17  am  
 25  17  18  1   
 26  17  19  1   
 27  18  20  1   
 28  18  29  1   
 29  18  30  1   
 30  19  31  1   
 31  19  32  1   
 32  19  33  1   
 33  20  21  1   
 34  20  34  1   
 35  20  35  1   
 36  21  22  1   
 37  21  36  1   
 38  21  37  1   
 39  22  38  1   
 40  22  39  1   
 41  22  40  1   
@<TRIPOS>SUBSTRUCTURE
  1 ****  12 GROUP 4 **** **** 0

# MOE 2024.06 (io_trps.svl 2023.06)
