@<TRIPOS>MOLECULE
NONAME
50 52 1 0 0 
SMALL
USER_CHARGES


@<TRIPOS>ATOM
  1 CL       0.2790     0.1840    -1.4140 Cl    1 <1>  -0.1770 
  2 C        1.7860     0.7410    -0.7320 C.ar  1 <1>   0.1770 
  3 C        2.9450     0.0380    -0.9900 C.ar  1 <1>  -0.1500 
  4 C        1.7910     1.8760     0.0560 C.ar  1 <1>  -0.1500 
  5 C        4.1510     0.4670    -0.4520 C.ar  1 <1>   0.1000 
  6 C        2.9890     2.3130     0.5950 C.ar  1 <1>  -0.1500 
  7 N        5.3150    -0.2560    -0.7090 N.pl3 1 <1>  -0.8380 
  8 C        4.1570     1.6130     0.3420 C.ar  1 <1>  -0.1500 
  9 C        6.5940     0.4380    -1.0560 C.3   1 <1>   0.2090 
 10 C        5.4270    -1.6530    -0.1930 C.3   1 <1>   0.2090 
 11 C        7.6450     0.2810     0.0630 C.3   1 <1>   0.3430 
 12 C        6.4960    -1.7580     0.9150 C.3   1 <1>   0.3430 
 13 N        7.8150    -1.1530     0.5060 N.4   1 <1>  -0.9590 
 14 C        8.8500    -1.2870     1.5650 C.3   1 <1>   0.4860 
 15 C       10.1760    -0.8240     0.9890 C.ar  1 <1>  -0.1430 
 16 C       10.8890    -1.5640     0.0440 C.ar  1 <1>  -0.1430 
 17 C       10.6640     0.3980     1.4250 C.ar  1 <1>  -0.1500 
 18 C       12.0680    -1.0390    -0.4910 C.ar  1 <1>  -0.1430 
 19 C       10.4120    -2.9470    -0.4090 C.3   1 <1>  -0.0970 
 20 C       11.8420     0.9030     0.9170 C.ar  1 <1>  -0.1500 
 21 C       12.5490     0.1920    -0.0440 C.ar  1 <1>   0.0830 
 22 C       12.8600    -1.8030    -1.5590 C.3   1 <1>  -0.0970 
 23 O       13.7160     0.6580    -0.5650 O.3   1 <1>  -0.3620 
 24 C       14.3630     1.8090    -0.0670 C.3   1 <1>   0.0400 
 25 H        2.9110    -0.8330    -1.6150 H     1 <1>   0.1500 
 26 H        0.8730     2.4050     0.2400 H     1 <1>   0.1500 
 27 H        3.0080     3.1980     1.2100 H     1 <1>   0.1500 
 28 H        5.0750     1.9620     0.7710 H     1 <1>   0.1500 
 29 H        6.4070     1.4830    -1.2340 H     1 <1>   0.0800 
 30 H        6.9790     0.0230    -1.9720 H     1 <1>   0.0800 
 31 H        5.6770    -2.3100    -1.0070 H     1 <1>   0.0800 
 32 H        4.4770    -1.9710     0.2030 H     1 <1>   0.0800 
 33 H        7.3360     0.8820     0.9010 H     1 <1>   0.0800 
 34 H        8.5870     0.6700    -0.2910 H     1 <1>   0.0800 
 35 H        6.6300    -2.7950     1.1730 H     1 <1>   0.0800 
 36 H        6.1210    -1.2460     1.7860 H     1 <1>   0.0800 
 37 H        8.1770    -1.6620    -0.3100 H     1 <1>   0.4500 
 38 H        8.9350    -2.3120     1.8860 H     1 <1>   0.0800 
 39 H        8.5900    -0.6840     2.4200 H     1 <1>   0.0800 
 40 H       10.1380     0.9740     2.1670 H     1 <1>   0.1500 
 41 H        9.6900    -3.3830     0.2530 H     1 <1>   0.0800 
 42 H       11.2440    -3.6300    -0.4380 H     1 <1>   0.0800 
 43 H        9.9900    -2.8880    -1.3970 H     1 <1>   0.0800 
 44 H       12.1940     1.8510     1.2790 H     1 <1>   0.1500 
 45 H       12.2080    -2.3070    -2.2470 H     1 <1>   0.0800 
 46 H       13.5000    -2.5260    -1.0860 H     1 <1>   0.0800 
 47 H       13.4740    -1.1450    -2.1470 H     1 <1>   0.0800 
 48 H       15.2890     1.9260    -0.6000 H     1 <1>   0.0800 
 49 H       14.5610     1.6730     0.9810 H     1 <1>   0.0800 
 50 H       13.7350     2.6650    -0.2360 H     1 <1>   0.0800 
@<TRIPOS>BOND
  1   1   2  1   
  2   2   3  ar  
  3   2   4  ar  
  4   3   5  ar  
  5   3  25  1   
  6   4   6  ar  
  7   4  26  1   
  8   5   7  1   
  9   5   8  ar  
 10   6   8  ar  
 11   6  27  1   
 12   7   9  1   
 13   7  10  1   
 14   8  28  1   
 15   9  11  1   
 16   9  29  1   
 17   9  30  1   
 18  10  12  1   
 19  10  31  1   
 20  10  32  1   
 21  11  13  1   
 22  11  33  1   
 23  11  34  1   
 24  12  13  1   
 25  12  35  1   
 26  12  36  1   
 27  13  14  1   
 28  13  37  1   
 29  14  15  1   
 30  14  38  1   
 31  14  39  1   
 32  15  16  ar  
 33  15  17  ar  
 34  16  18  ar  
 35  16  19  1   
 36  17  20  ar  
 37  17  40  1   
 38  18  21  ar  
 39  18  22  1   
 40  19  41  1   
 41  19  42  1   
 42  19  43  1   
 43  20  21  ar  
 44  20  44  1   
 45  21  23  1   
 46  22  45  1   
 47  22  46  1   
 48  22  47  1   
 49  23  24  1   
 50  24  48  1   
 51  24  49  1   
 52  24  50  1   
@<TRIPOS>SUBSTRUCTURE
  1 ****  11 GROUP 4 **** **** 0

# MOE 2024.06 (io_trps.svl 2023.06)
