@<TRIPOS>MOLECULE
NONAME
53 55 1 0 0 
SMALL
USER_CHARGES


@<TRIPOS>ATOM
  1 CL       0.6460    -3.0290    -1.4710 Cl    1 <1>  -0.1770 
  2 C        2.0870    -2.5700    -0.6010 C.ar  1 <1>   0.1770 
  3 C        3.0500    -3.5240    -0.3340 C.ar  1 <1>  -0.1500 
  4 C        2.2440    -1.2600    -0.1920 C.ar  1 <1>  -0.1500 
  5 C        4.1940    -3.1560     0.3540 C.ar  1 <1>  -0.1500 
  6 C        3.3900    -0.8980     0.4960 C.ar  1 <1>  -0.1500 
  7 C        4.3740    -1.8410     0.7660 C.ar  1 <1>  -0.1430 
  8 C        5.6390    -1.4420     1.5160 C.3   1 <1>   0.3390 
  9 N        6.7240    -1.1400     0.5610 N.am  1 <1>  -0.6930 
 10 S        6.7330     0.4200    -0.1840 S.o2  1 <1>   1.3330 
 11 C        7.7610    -2.0370     0.3910 C.ar  1 <1>   0.1990 
 12 O        8.1100     0.8200    -0.3380 O.2   1 <1>  -0.6500 
 13 O        5.8020     1.2530     0.5390 O.2   1 <1>  -0.6500 
 14 C        6.0560     0.0580    -1.7900 C.3   1 <1>  -0.1350 
 15 C        8.9620    -1.8720     1.0710 C.ar  1 <1>  -0.1500 
 16 C        7.6300    -3.1250    -0.4630 C.ar  1 <1>  -0.1500 
 17 C        9.9970    -2.7720     0.9050 C.ar  1 <1>  -0.1500 
 18 C        8.6670    -4.0220    -0.6280 C.ar  1 <1>  -0.1500 
 19 C        9.8800    -3.8650     0.0440 C.ar  1 <1>   0.0860 
 20 C       10.9630    -4.8080    -0.1440 C.2   1 <1>   0.5440 
 21 O       10.7290    -6.0000    -0.0540 O.2   1 <1>  -0.5700 
 22 N       12.2510    -4.4020    -0.4360 N.am  1 <1>  -0.6600 
 23 C       12.5870    -3.0830    -1.0400 C.3   1 <1>   0.1400 
 24 C       13.4050    -5.3370    -0.3370 C.3   1 <1>   0.1400 
 25 C       13.6950    -2.4100    -0.2240 C.3   1 <1>  -0.1600 
 26 C       14.5290    -4.6830     0.4740 C.3   1 <1>  -0.1600 
 27 C       14.9310    -3.3160    -0.1030 C.3   1 <1>  -0.0800 
 28 C       16.0030    -2.6550     0.7700 C.3   1 <1>  -0.2400 
 29 H        2.9010    -4.5380    -0.6590 H     1 <1>   0.1500 
 30 H        1.4780    -0.5360    -0.4070 H     1 <1>   0.1500 
 31 H        4.9440    -3.8990     0.5690 H     1 <1>   0.1500 
 32 H        3.5100     0.1240     0.8190 H     1 <1>   0.1500 
 33 H        5.9440    -2.2510     2.1570 H     1 <1>   0.0800 
 34 H        5.4510    -0.5870     2.1430 H     1 <1>   0.0800 
 35 H        6.6830    -0.6430    -2.3040 H     1 <1>   0.0800 
 36 H        5.9940     0.9560    -2.3720 H     1 <1>   0.0800 
 37 H        5.0740    -0.3610    -1.6960 H     1 <1>   0.0800 
 38 H        9.0760    -1.0280     1.7270 H     1 <1>   0.1500 
 39 H        6.7100    -3.2620    -1.0000 H     1 <1>   0.1500 
 40 H       10.9160    -2.6340     1.4470 H     1 <1>   0.1500 
 41 H        8.5520    -4.8670    -1.2860 H     1 <1>   0.1500 
 42 H       11.7240    -2.4430    -1.0850 H     1 <1>   0.0800 
 43 H       12.9290    -3.2430    -2.0480 H     1 <1>   0.0800 
 44 H       13.7510    -5.5720    -1.3280 H     1 <1>   0.0800 
 45 H       13.1080    -6.2550     0.1410 H     1 <1>   0.0800 
 46 H       13.3140    -2.1740     0.7530 H     1 <1>   0.0800 
 47 H       13.9690    -1.4860    -0.7020 H     1 <1>   0.0800 
 48 H       15.3810    -5.3400     0.4830 H     1 <1>   0.0800 
 49 H       14.1930    -4.5690     1.4900 H     1 <1>   0.0800 
 50 H       15.3410    -3.4690    -1.0880 H     1 <1>   0.0800 
 51 H       15.6290    -2.4850     1.7650 H     1 <1>   0.0800 
 52 H       16.2970    -1.7100     0.3480 H     1 <1>   0.0800 
 53 H       16.8740    -3.2840     0.8330 H     1 <1>   0.0800 
@<TRIPOS>BOND
  1   1   2  1   
  2   2   3  ar  
  3   2   4  ar  
  4   3   5  ar  
  5   3  29  1   
  6   4   6  ar  
  7   4  30  1   
  8   5   7  ar  
  9   5  31  1   
 10   6   7  ar  
 11   6  32  1   
 12   7   8  1   
 13   8   9  1   
 14   8  33  1   
 15   8  34  1   
 16   9  10  am  
 17   9  11  1   
 18  10  12  2   
 19  10  13  2   
 20  10  14  1   
 21  11  15  ar  
 22  11  16  ar  
 23  14  35  1   
 24  14  36  1   
 25  14  37  1   
 26  15  17  ar  
 27  15  38  1   
 28  16  18  ar  
 29  16  39  1   
 30  17  19  ar  
 31  17  40  1   
 32  18  19  ar  
 33  18  41  1   
 34  19  20  1   
 35  20  21  2   
 36  20  22  am  
 37  22  23  1   
 38  22  24  1   
 39  23  25  1   
 40  23  42  1   
 41  23  43  1   
 42  24  26  1   
 43  24  44  1   
 44  24  45  1   
 45  25  27  1   
 46  25  46  1   
 47  25  47  1   
 48  26  27  1   
 49  26  48  1   
 50  26  49  1   
 51  27  28  1   
 52  27  50  1   
 53  28  51  1   
 54  28  52  1   
 55  28  53  1   
@<TRIPOS>SUBSTRUCTURE
  1 ****  11 GROUP 4 **** **** 0

# MOE 2024.06 (io_trps.svl 2023.06)
