@<TRIPOS>MOLECULE
NONAME
42 42 1 0 0 
SMALL
USER_CHARGES


@<TRIPOS>ATOM
  1 O       -0.6580    -0.1870    -0.6890 O.2   1 <1>  -0.5700 
  2 C       -1.1010    -1.1690    -0.1240 C.2   1 <1>   0.6900 
  3 N       -2.4520    -1.3280     0.0690 N.am  1 <1>  -0.6600 
  4 N       -0.2710    -2.1320     0.3720 N.am  1 <1>  -0.5470 
  5 C       -3.1820    -2.5850    -0.2700 C.3   1 <1>   0.2200 
  6 C       -3.3400    -0.1730     0.3870 C.3   1 <1>   0.2200 
  7 C        1.1120    -2.3340     0.2740 C.ar  1 <1>   0.1170 
  8 C       -3.2020    -3.5220     0.9490 C.3   1 <1>  -0.1600 
  9 C       -2.6080    -3.2410    -1.5310 C.3   1 <1>  -0.2400 
 10 C       -3.6680     0.6180    -0.8910 C.3   1 <1>  -0.1600 
 11 C       -2.7260     0.6910     1.4940 C.3   1 <1>  -0.2400 
 12 C        1.8930    -1.7680    -0.7290 C.ar  1 <1>  -0.1500 
 13 C        1.7340    -3.1540     1.2090 C.ar  1 <1>  -0.1500 
 14 C       -4.2040    -4.6760     0.8000 C.3   1 <1>  -0.2400 
 15 C       -4.8090     1.6290    -0.7010 C.3   1 <1>  -0.2400 
 16 C        3.2530    -2.0100    -0.7930 C.ar  1 <1>  -0.1500 
 17 C        3.0940    -3.4000     1.1490 C.ar  1 <1>  -0.1500 
 18 C        3.8570    -2.8270     0.1470 C.ar  1 <1>  -0.1500 
 19 H       -0.7710    -2.7750     0.9740 H     1 <1>   0.3700 
 20 H       -4.2010    -2.3220    -0.5000 H     1 <1>   0.0800 
 21 H       -4.2630    -0.5660     0.7800 H     1 <1>   0.0800 
 22 H       -3.4770    -2.9500     1.8190 H     1 <1>   0.0800 
 23 H       -2.2260    -3.9380     1.1130 H     1 <1>   0.0800 
 24 H       -1.6430    -3.6750    -1.3470 H     1 <1>   0.0800 
 25 H       -2.5240    -2.5120    -2.3180 H     1 <1>   0.0800 
 26 H       -3.2640    -4.0210    -1.8720 H     1 <1>   0.0800 
 27 H       -3.9540    -0.0730    -1.6640 H     1 <1>   0.0800 
 28 H       -2.7910     1.1420    -1.2270 H     1 <1>   0.0800 
 29 H       -1.8670     1.2270     1.1310 H     1 <1>   0.0800 
 30 H       -2.4340     0.0750     2.3250 H     1 <1>   0.0800 
 31 H       -3.4430     1.4090     1.8450 H     1 <1>   0.0800 
 32 H        1.4370    -1.1360    -1.4690 H     1 <1>   0.1500 
 33 H        1.1520    -3.6010     1.9930 H     1 <1>   0.1500 
 34 H       -5.1940    -4.2960     0.6180 H     1 <1>   0.0800 
 35 H       -4.2260    -5.2590     1.7040 H     1 <1>   0.0800 
 36 H       -3.9260    -5.3250    -0.0110 H     1 <1>   0.0800 
 37 H       -5.6960     1.1360    -0.3440 H     1 <1>   0.0800 
 38 H       -5.0350     2.1010    -1.6410 H     1 <1>   0.0800 
 39 H       -4.5280     2.3960    -0.0020 H     1 <1>   0.0800 
 40 H        3.8400    -1.5610    -1.5750 H     1 <1>   0.1500 
 41 H        3.5610    -4.0350     1.8820 H     1 <1>   0.1500 
 42 H        4.9160    -3.0140     0.0980 H     1 <1>   0.1500 
@<TRIPOS>BOND
  1   1   2  2   
  2   2   3  am  
  3   2   4  am  
  4   3   5  1   
  5   3   6  1   
  6   4   7  1   
  7   4  19  1   
  8   5   8  1   
  9   5   9  1   
 10   5  20  1   
 11   6  10  1   
 12   6  11  1   
 13   6  21  1   
 14   7  12  ar  
 15   7  13  ar  
 16   8  14  1   
 17   8  22  1   
 18   8  23  1   
 19   9  24  1   
 20   9  25  1   
 21   9  26  1   
 22  10  15  1   
 23  10  27  1   
 24  10  28  1   
 25  11  29  1   
 26  11  30  1   
 27  11  31  1   
 28  12  16  ar  
 29  12  32  1   
 30  13  17  ar  
 31  13  33  1   
 32  14  34  1   
 33  14  35  1   
 34  14  36  1   
 35  15  37  1   
 36  15  38  1   
 37  15  39  1   
 38  16  18  ar  
 39  16  40  1   
 40  17  18  ar  
 41  17  41  1   
 42  18  42  1   
@<TRIPOS>SUBSTRUCTURE
  1 ****   2 GROUP 4 **** **** 0

# MOE 2024.06 (io_trps.svl 2023.06)
