@<TRIPOS>MOLECULE
NONAME
29 29 1 0 0 
SMALL
USER_CHARGES


@<TRIPOS>ATOM
  1 S       -0.1180    -0.0870    -0.4190 S.3   1 <1>  -0.3310 
  2 C       -1.5110     1.0030    -0.1500 C.2   1 <1>   0.2100 
  3 C        1.4770     0.7300     0.0410 C.3   1 <1>   0.0700 
  4 N       -2.6740     0.3650    -0.4420 N.am  1 <1>  -0.5390 
  5 C       -1.5160     2.3120     0.2800 C.2   1 <1>   0.0650 
  6 C        2.5920    -0.2920    -0.1650 C.3   1 <1>  -0.2400 
  7 C       -3.9010     0.9560    -0.3470 C.2   1 <1>   0.6160 
  8 C       -0.3570     3.0860     0.5970 C.1   1 <1>   0.4920 
  9 C       -2.7750     2.9450     0.4210 C.2   1 <1>  -0.1500 
 10 O       -4.8540     0.3030    -0.7310 O.2   1 <1>  -0.5700 
 11 C       -3.9590     2.2980     0.1390 C.2   1 <1>   0.0290 
 12 N        0.5530     3.7210     0.8590 N.1   1 <1>  -0.5570 
 13 C       -5.2360     2.9200     0.3060 C.2   1 <1>   0.7060 
 14 O       -6.2050     2.3850     0.8030 O.2   1 <1>  -0.5700 
 15 O       -5.3270     4.2020    -0.0610 O.3   1 <1>  -0.4300 
 16 C       -6.5340     4.9210     0.0740 C.3   1 <1>   0.1200 
 17 C       -6.2980     6.3400    -0.4340 C.3   1 <1>  -0.2400 
 18 H        1.4120     1.0300     1.0720 H     1 <1>   0.0800 
 19 H        1.6100     1.5820    -0.6020 H     1 <1>   0.0800 
 20 H       -2.6700    -0.5990    -0.7790 H     1 <1>   0.3700 
 21 H        2.4280    -1.1520     0.4600 H     1 <1>   0.0800 
 22 H        3.5400     0.1450     0.0920 H     1 <1>   0.0800 
 23 H        2.6240    -0.6060    -1.1930 H     1 <1>   0.0800 
 24 H       -2.7950     3.9670     0.7670 H     1 <1>   0.1500 
 25 H       -6.8180     4.9250     1.1130 H     1 <1>   0.0800 
 26 H       -7.2940     4.4240    -0.5060 H     1 <1>   0.0800 
 27 H       -5.5320     6.8210     0.1470 H     1 <1>   0.0800 
 28 H       -7.2040     6.9110    -0.3450 H     1 <1>   0.0800 
 29 H       -6.0070     6.3200    -1.4690 H     1 <1>   0.0800 
@<TRIPOS>BOND
  1   1   2  1   
  2   1   3  1   
  3   2   4  1   
  4   2   5  2   
  5   3   6  1   
  6   3  18  1   
  7   3  19  1   
  8   4   7  am  
  9   4  20  1   
 10   5   8  1   
 11   5   9  1   
 12   6  21  1   
 13   6  22  1   
 14   6  23  1   
 15   7  10  2   
 16   7  11  1   
 17   8  12  3   
 18   9  11  2   
 19   9  24  1   
 20  11  13  1   
 21  13  14  2   
 22  13  15  1   
 23  15  16  1   
 24  16  17  1   
 25  16  25  1   
 26  16  26  1   
 27  17  27  1   
 28  17  28  1   
 29  17  29  1   
@<TRIPOS>SUBSTRUCTURE
  1 ****   9 GROUP 4 **** **** 0

# MOE 2024.06 (io_trps.svl 2023.06)
