@<TRIPOS>MOLECULE
NONAME
43 44 1 0 0 
SMALL
USER_CHARGES


@<TRIPOS>ATOM
  1 BR       5.2140    -1.9260    -2.0230 Br    1 <1>  -0.1110 
  2 C        3.3970    -2.5760    -1.9730 C.ar  1 <1>   0.1110 
  3 C        2.8940    -3.1480    -0.8100 C.ar  1 <1>   0.0820 
  4 C        2.6340    -2.4560    -3.1180 C.ar  1 <1>  -0.1500 
  5 O        3.6500    -3.2630     0.3050 O.3   1 <1>  -0.3630 
  6 C        1.5920    -3.6230    -0.8100 C.ar  1 <1>  -0.1500 
  7 C        1.3310    -2.9280    -3.1020 C.ar  1 <1>  -0.1500 
  8 C        3.5180    -2.2300     1.2760 C.3   1 <1>   0.2610 
  9 C        0.8150    -3.5100    -1.9520 C.ar  1 <1>  -0.1500 
 10 C        4.8750    -1.5410     1.5210 C.2   1 <1>   0.5690 
 11 C        2.8920    -2.8240     2.5450 C.3   1 <1>  -0.2400 
 12 O        4.8900    -0.3350     1.4520 O.2   1 <1>  -0.5700 
 13 N        6.0490    -2.2310     1.7610 N.am  1 <1>  -0.6600 
 14 C        6.2200    -3.7100     1.6720 C.3   1 <1>   0.1400 
 15 C        7.3580    -1.5210     1.6780 C.3   1 <1>   0.1400 
 16 C        6.8480    -4.0670     0.3110 C.3   1 <1>   0.3430 
 17 C        8.0030    -1.8240     0.3140 C.3   1 <1>   0.3430 
 18 N        8.1290    -3.3100     0.0480 N.4   1 <1>  -0.9590 
 19 C        8.6090    -3.5720    -1.3260 C.3   1 <1>   0.4810 
 20 C       10.0720    -3.1940    -1.3650 C.2   1 <1>  -0.2880 
 21 C       11.0910    -4.0590    -1.3560 C.2   1 <1>  -0.3000 
 22 H        3.0450    -2.0040    -4.0030 H     1 <1>   0.1500 
 23 H        1.1870    -4.0810     0.0750 H     1 <1>   0.1500 
 24 H        0.7170    -2.8440    -3.9830 H     1 <1>   0.1500 
 25 H        2.8470    -1.4850     0.8820 H     1 <1>   0.0800 
 26 H       -0.1970    -3.8780    -1.9500 H     1 <1>   0.1500 
 27 H        3.5220    -3.5780     2.9770 H     1 <1>   0.0800 
 28 H        1.9290    -3.2450     2.3220 H     1 <1>   0.0800 
 29 H        2.7560    -2.0430     3.2720 H     1 <1>   0.0800 
 30 H        5.2840    -4.2240     1.7840 H     1 <1>   0.0800 
 31 H        6.8600    -4.0450     2.4700 H     1 <1>   0.0800 
 32 H        8.0010    -1.8470     2.4770 H     1 <1>   0.0800 
 33 H        7.2280    -0.4570     1.7840 H     1 <1>   0.0800 
 34 H        6.1260    -3.8390    -0.4550 H     1 <1>   0.0800 
 35 H        7.0360    -5.1280     0.2770 H     1 <1>   0.0800 
 36 H        8.9740    -1.3600     0.2740 H     1 <1>   0.0800 
 37 H        7.3920    -1.3700    -0.4490 H     1 <1>   0.0800 
 38 H        8.8580    -3.6750     0.6730 H     1 <1>   0.4500 
 39 H        8.0430    -3.0090    -2.0510 H     1 <1>   0.0800 
 40 H        8.5130    -4.6220    -1.5520 H     1 <1>   0.0800 
 41 H       10.2310    -2.1300    -1.4120 H     1 <1>   0.1500 
 42 H       12.1280    -3.7620    -1.3910 H     1 <1>   0.1500 
 43 H       10.9960    -5.1320    -1.3190 H     1 <1>   0.1500 
@<TRIPOS>BOND
  1   1   2  1   
  2   2   3  ar  
  3   2   4  ar  
  4   3   5  1   
  5   3   6  ar  
  6   4   7  ar  
  7   4  22  1   
  8   5   8  1   
  9   6   9  ar  
 10   6  23  1   
 11   7   9  ar  
 12   7  24  1   
 13   8  10  1   
 14   8  11  1   
 15   8  25  1   
 16   9  26  1   
 17  10  12  2   
 18  10  13  am  
 19  11  27  1   
 20  11  28  1   
 21  11  29  1   
 22  13  14  1   
 23  13  15  1   
 24  14  16  1   
 25  14  30  1   
 26  14  31  1   
 27  15  17  1   
 28  15  32  1   
 29  15  33  1   
 30  16  18  1   
 31  16  34  1   
 32  16  35  1   
 33  17  18  1   
 34  17  36  1   
 35  17  37  1   
 36  18  19  1   
 37  18  38  1   
 38  19  20  1   
 39  19  39  1   
 40  19  40  1   
 41  20  21  2   
 42  20  41  1   
 43  21  42  1   
 44  21  43  1   
@<TRIPOS>SUBSTRUCTURE
  1 ****   5 GROUP 4 **** **** 0

# MOE 2024.06 (io_trps.svl 2023.06)
