@<TRIPOS>MOLECULE
NONAME
47 50 1 0 0 
SMALL
USER_CHARGES


@<TRIPOS>ATOM
  1 CL      -0.5220    -2.9360     2.9610 Cl    1 <1>  -0.1770 
  2 C       -1.5670    -2.3530     1.6780 C.ar  1 <1>   0.1770 
  3 C       -1.1790    -2.4600     0.3350 C.ar  1 <1>   0.1000 
  4 C       -2.7760    -1.7910     2.0430 C.ar  1 <1>  -0.1500 
  5 N        0.0300    -3.0180    -0.1000 N.pl3 1 <1>  -0.8380 
  6 C       -2.0580    -1.9760    -0.6260 C.ar  1 <1>  -0.1500 
  7 C       -3.6330    -1.3180     1.0640 C.ar  1 <1>  -0.1500 
  8 C        0.1760    -4.4940     0.0770 C.3   1 <1>   0.2090 
  9 C        1.2650    -2.2310     0.2040 C.3   1 <1>   0.2090 
 10 C       -3.2710    -1.4120    -0.2690 C.ar  1 <1>  -0.1500 
 11 C        1.4010    -5.0260    -0.6950 C.3   1 <1>   0.3430 
 12 C        2.4810    -2.7880    -0.5630 C.3   1 <1>   0.3430 
 13 N        2.6650    -4.2750    -0.3590 N.4   1 <1>  -0.9590 
 14 C        3.8350    -4.7950    -1.1130 C.3   1 <1>   0.4860 
 15 C        5.0870    -4.1440    -0.5600 C.ar  1 <1>  -0.1430 
 16 C        5.6950    -3.0990    -1.2530 C.ar  1 <1>  -0.1500 
 17 C        5.6300    -4.5800     0.6440 C.ar  1 <1>  -0.1500 
 18 C        6.8290    -2.4630    -0.7640 C.ar  1 <1>   0.0820 
 19 C        6.7590    -3.9410     1.1180 C.ar  1 <1>   0.0820 
 20 O        7.3200    -1.4480    -1.5250 O.3   1 <1>  -0.3630 
 21 C        7.3540    -2.9110     0.4480 C.ar  1 <1>   0.0820 
 22 O        7.4150    -4.2110     2.2500 O.3   1 <1>  -0.3620 
 23 C        8.5160    -0.7870    -1.1700 C.3   1 <1>   0.0400 
 24 O        8.4240    -2.4900     1.1480 O.3   1 <1>  -0.3620 
 25 C        8.5160    -3.3090     2.3110 C.3   1 <1>   0.4000 
 26 H       -3.0440    -1.7250     3.0820 H     1 <1>   0.1500 
 27 H       -1.7850    -2.0450    -1.6630 H     1 <1>   0.1500 
 28 H       -4.5770    -0.8780     1.3380 H     1 <1>   0.1500 
 29 H       -0.7140    -4.9810    -0.2850 H     1 <1>   0.0800 
 30 H        0.2780    -4.7320     1.1210 H     1 <1>   0.0800 
 31 H        1.4660    -2.2550     1.2610 H     1 <1>   0.0800 
 32 H        1.1060    -1.2030    -0.0760 H     1 <1>   0.0800 
 33 H       -3.9370    -1.0440    -1.0320 H     1 <1>   0.1500 
 34 H        1.1950    -4.9310    -1.7490 H     1 <1>   0.0800 
 35 H        1.5240    -6.0730    -0.4740 H     1 <1>   0.0800 
 36 H        3.3640    -2.2590    -0.2430 H     1 <1>   0.0800 
 37 H        2.3360    -2.5830    -1.6110 H     1 <1>   0.0800 
 38 H        2.8660    -4.4090     0.6400 H     1 <1>   0.4500 
 39 H        3.7350    -4.5710    -2.1630 H     1 <1>   0.0800 
 40 H        3.9100    -5.8640    -0.9960 H     1 <1>   0.0800 
 41 H        5.3010    -2.7550    -2.1940 H     1 <1>   0.1500 
 42 H        5.2120    -5.3900     1.2160 H     1 <1>   0.1500 
 43 H        8.7340    -0.0570    -1.9280 H     1 <1>   0.0800 
 44 H        9.3120    -1.5090    -1.1170 H     1 <1>   0.0800 
 45 H        8.3780    -0.3000    -0.2220 H     1 <1>   0.0800 
 46 H        9.4390    -3.8630     2.2910 H     1 <1>   0.0800 
 47 H        8.4370    -2.6980     3.1930 H     1 <1>   0.0800 
@<TRIPOS>BOND
  1   1   2  1   
  2   2   3  ar  
  3   2   4  ar  
  4   3   5  1   
  5   3   6  ar  
  6   4   7  ar  
  7   4  26  1   
  8   5   8  1   
  9   5   9  1   
 10   6  10  ar  
 11   6  27  1   
 12   7  10  ar  
 13   7  28  1   
 14   8  11  1   
 15   8  29  1   
 16   8  30  1   
 17   9  12  1   
 18   9  31  1   
 19   9  32  1   
 20  10  33  1   
 21  11  13  1   
 22  11  34  1   
 23  11  35  1   
 24  12  13  1   
 25  12  36  1   
 26  12  37  1   
 27  13  14  1   
 28  13  38  1   
 29  14  15  1   
 30  14  39  1   
 31  14  40  1   
 32  15  16  ar  
 33  15  17  ar  
 34  16  18  ar  
 35  16  41  1   
 36  17  19  ar  
 37  17  42  1   
 38  18  20  1   
 39  18  21  ar  
 40  19  21  ar  
 41  19  22  1   
 42  20  23  1   
 43  21  24  1   
 44  22  25  1   
 45  23  43  1   
 46  23  44  1   
 47  23  45  1   
 48  24  25  1   
 49  25  46  1   
 50  25  47  1   
@<TRIPOS>SUBSTRUCTURE
  1 ****  12 GROUP 4 **** **** 0

# MOE 2024.06 (io_trps.svl 2023.06)
