@<TRIPOS>MOLECULE
NONAME
52 55 1 0 0 
SMALL
USER_CHARGES


@<TRIPOS>ATOM
  1 O       -0.1420    -0.5110     0.8500 O.2   1 <1>  -0.5700 
  2 C       -0.6180    -1.5470     0.4270 C.2   1 <1>   0.7800 
  3 O       -1.8590    -1.5580    -0.0610 O.3   1 <1>  -0.4300 
  4 N        0.0710    -2.7270     0.4260 N.am  1 <1>  -0.6600 
  5 C       -2.6330    -0.3810    -0.0890 C.3   1 <1>   0.1200 
  6 C        1.4750    -2.8060     0.9310 C.3   1 <1>   0.1400 
  7 C       -0.5340    -4.0020    -0.0750 C.3   1 <1>   0.1400 
  8 C       -3.9910    -0.7220    -0.6950 C.3   1 <1>  -0.2400 
  9 C        2.2940    -3.8770     0.1890 C.3   1 <1>   0.2090 
 10 C        0.1720    -5.2460     0.4900 C.3   1 <1>   0.2090 
 11 N        1.6510    -5.2310     0.2400 N.pl3 1 <1>  -0.8380 
 12 C        2.3980    -6.3570     0.5190 C.ar  1 <1>   0.4100 
 13 N        1.9170    -7.2130     1.3900 N.ar  1 <1>  -0.6200 
 14 C        3.6370    -6.5970    -0.0930 C.ar  1 <1>   0.0000 
 15 C        2.6790    -8.2770     1.6720 C.ar  1 <1>   0.4700 
 16 C        4.3280    -7.7140     0.2780 C.ar  1 <1>   0.1050 
 17 C        4.4460    -5.9970    -1.0670 C.2   1 <1>   0.1390 
 18 N        3.8530    -8.5870     1.1830 N.ar  1 <1>  -0.5670 
 19 N        5.5010    -7.7270    -0.4410 N.pl3 1 <1>   0.5930 
 20 N        5.5430    -6.6400    -1.2780 N.2   1 <1>  -0.7070 
 21 C        6.5120    -8.7260    -0.4000 C.ar  1 <1>  -0.0230 
 22 C        7.8340    -8.4380    -0.0430 C.ar  1 <1>  -0.1440 
 23 C        6.1800   -10.0400    -0.7190 C.ar  1 <1>  -0.1500 
 24 C        8.7790    -9.4510    -0.0240 C.ar  1 <1>  -0.1500 
 25 C        8.2660    -7.0250     0.3290 C.3   1 <1>  -0.0970 
 26 C        7.1300   -11.0430    -0.6940 C.ar  1 <1>  -0.1500 
 27 C        8.4380   -10.7530    -0.3490 C.ar  1 <1>  -0.1440 
 28 C        9.4870   -11.8500    -0.3200 C.3   1 <1>  -0.0970 
 29 H       -2.1160     0.3530    -0.6840 H     1 <1>   0.0800 
 30 H       -2.7390    -0.0200     0.9210 H     1 <1>   0.0800 
 31 H        1.4570    -3.0410     1.9810 H     1 <1>   0.0800 
 32 H        1.9580    -1.8510     0.8150 H     1 <1>   0.0800 
 33 H       -0.4690    -4.0210    -1.1480 H     1 <1>   0.0800 
 34 H       -1.5750    -4.0390     0.1960 H     1 <1>   0.0800 
 35 H       -3.8660    -1.0910    -1.6970 H     1 <1>   0.0800 
 36 H       -4.6040     0.1600    -0.7280 H     1 <1>   0.0800 
 37 H       -4.4880    -1.4640    -0.0960 H     1 <1>   0.0800 
 38 H        3.2760    -3.9240     0.6280 H     1 <1>   0.0800 
 39 H        2.4010    -3.5770    -0.8390 H     1 <1>   0.0800 
 40 H       -0.2520    -6.1290     0.0430 H     1 <1>   0.0800 
 41 H       -0.0060    -5.2980     1.5510 H     1 <1>   0.0800 
 42 H        2.2650    -8.9590     2.3960 H     1 <1>   0.1500 
 43 H        4.1720    -5.0970    -1.5890 H     1 <1>   0.1500 
 44 H        5.1660   -10.2820    -0.9880 H     1 <1>   0.1500 
 45 H        9.7950    -9.2290     0.2480 H     1 <1>   0.1500 
 46 H        7.6050    -6.6150     1.0720 H     1 <1>   0.0800 
 47 H        8.2420    -6.3950    -0.5430 H     1 <1>   0.0800 
 48 H        9.2640    -7.0170     0.7260 H     1 <1>   0.0800 
 49 H        6.8460   -12.0500    -0.9450 H     1 <1>   0.1500 
 50 H       10.4450   -11.4580    -0.6110 H     1 <1>   0.0800 
 51 H        9.2250   -12.6410    -0.9990 H     1 <1>   0.0800 
 52 H        9.5630   -12.2540     0.6730 H     1 <1>   0.0800 
@<TRIPOS>BOND
  1   1   2  2   
  2   2   3  1   
  3   2   4  am  
  4   3   5  1   
  5   4   6  1   
  6   4   7  1   
  7   5   8  1   
  8   5  29  1   
  9   5  30  1   
 10   6   9  1   
 11   6  31  1   
 12   6  32  1   
 13   7  10  1   
 14   7  33  1   
 15   7  34  1   
 16   8  35  1   
 17   8  36  1   
 18   8  37  1   
 19   9  11  1   
 20   9  38  1   
 21   9  39  1   
 22  10  11  1   
 23  10  40  1   
 24  10  41  1   
 25  11  12  1   
 26  12  13  ar  
 27  12  14  ar  
 28  13  15  ar  
 29  14  16  ar  
 30  14  17  1   
 31  15  18  ar  
 32  15  42  1   
 33  16  18  ar  
 34  16  19  1   
 35  17  20  2   
 36  17  43  1   
 37  19  20  1   
 38  19  21  1   
 39  21  22  ar  
 40  21  23  ar  
 41  22  24  ar  
 42  22  25  1   
 43  23  26  ar  
 44  23  44  1   
 45  24  27  ar  
 46  24  45  1   
 47  25  46  1   
 48  25  47  1   
 49  25  48  1   
 50  26  27  ar  
 51  26  49  1   
 52  27  28  1   
 53  28  50  1   
 54  28  51  1   
 55  28  52  1   
@<TRIPOS>SUBSTRUCTURE
  1 ****  14 GROUP 4 **** **** 0

# MOE 2024.06 (io_trps.svl 2023.06)
