@<TRIPOS>MOLECULE
NONAME
43 45 1 0 0 
SMALL
USER_CHARGES


@<TRIPOS>ATOM
  1 CL       0.9440     1.8430     2.5930 Cl    1 <1>  -0.1770 
  2 C        2.0370     0.9680     1.5520 C.ar  1 <1>   0.1770 
  3 C        3.0250     1.6540     0.8750 C.ar  1 <1>  -0.1500 
  4 C        1.8990    -0.3990     1.4240 C.ar  1 <1>  -0.1500 
  5 C        3.9100     0.9850     0.0340 C.ar  1 <1>  -0.0090 
  6 C        2.7730    -1.0850     0.6020 C.ar  1 <1>  -0.1500 
  7 S        5.1960     1.9280    -0.8370 S.o2  1 <1>   1.4470 
  8 C        3.7750    -0.4000    -0.0870 C.ar  1 <1>   0.0830 
  9 O        5.6160     1.3220    -2.0820 O.2   1 <1>  -0.6500 
 10 O        4.7680     3.3100    -0.8790 O.2   1 <1>  -0.6500 
 11 N        6.5280     1.8920     0.2130 N.am  1 <1>  -0.8490 
 12 O        4.6510    -1.0600    -0.8830 O.3   1 <1>  -0.3630 
 13 C        7.5340     2.8940    -0.1880 C.3   1 <1>   0.1960 
 14 C        7.1780     0.5670     0.2550 C.3   1 <1>   0.1960 
 15 C        4.3370    -2.3080    -1.4630 C.3   1 <1>   0.0400 
 16 C        8.7180     2.9650     0.7940 C.3   1 <1>   0.2090 
 17 C        8.3780     0.5150     1.2260 C.3   1 <1>   0.2090 
 18 N        9.3540     1.6300     1.0100 N.pl3 1 <1>  -0.8380 
 19 C       10.6220     1.3940     0.4540 C.ar  1 <1>   0.1000 
 20 C       10.8940     0.5690    -0.6460 C.ar  1 <1>   0.1900 
 21 C       11.7150     2.0310     1.0340 C.ar  1 <1>  -0.1500 
 22 F        9.9170    -0.0590    -1.2560 F     1 <1>  -0.1900 
 23 C       12.1670     0.3820    -1.1490 C.ar  1 <1>  -0.1500 
 24 C       13.0000     1.8560     0.5440 C.ar  1 <1>  -0.1500 
 25 C       13.2300     1.0330    -0.5460 C.ar  1 <1>  -0.1500 
 26 H        3.1010     2.7200     1.0030 H     1 <1>   0.1500 
 27 H        1.1220    -0.9110     1.9620 H     1 <1>   0.1500 
 28 H        2.6660    -2.1500     0.5150 H     1 <1>   0.1500 
 29 H        7.0790     3.8680    -0.2310 H     1 <1>   0.0800 
 30 H        7.9090     2.6620    -1.1720 H     1 <1>   0.0800 
 31 H        7.5100     0.2890    -0.7310 H     1 <1>   0.0800 
 32 H        6.4680    -0.1720     0.5790 H     1 <1>   0.0800 
 33 H        5.0870    -2.5280    -2.2010 H     1 <1>   0.0800 
 34 H        3.3720    -2.2430    -1.9340 H     1 <1>   0.0800 
 35 H        4.3450    -3.0640    -0.6990 H     1 <1>   0.0800 
 36 H        8.3670     3.3410     1.7390 H     1 <1>   0.0800 
 37 H        9.4490     3.6570     0.4140 H     1 <1>   0.0800 
 38 H        8.8800    -0.4310     1.1230 H     1 <1>   0.0800 
 39 H        8.0080     0.5770     2.2340 H     1 <1>   0.0800 
 40 H       11.5460     2.6650     1.8840 H     1 <1>   0.1500 
 41 H       12.3200    -0.2600    -1.9970 H     1 <1>   0.1500 
 42 H       13.8240     2.3620     1.0160 H     1 <1>   0.1500 
 43 H       14.2300     0.9000    -0.9230 H     1 <1>   0.1500 
@<TRIPOS>BOND
  1   1   2  1   
  2   2   3  ar  
  3   2   4  ar  
  4   3   5  ar  
  5   3  26  1   
  6   4   6  ar  
  7   4  27  1   
  8   5   7  1   
  9   5   8  ar  
 10   6   8  ar  
 11   6  28  1   
 12   7   9  2   
 13   7  10  2   
 14   7  11  am  
 15   8  12  1   
 16  11  13  1   
 17  11  14  1   
 18  12  15  1   
 19  13  16  1   
 20  13  29  1   
 21  13  30  1   
 22  14  17  1   
 23  14  31  1   
 24  14  32  1   
 25  15  33  1   
 26  15  34  1   
 27  15  35  1   
 28  16  18  1   
 29  16  36  1   
 30  16  37  1   
 31  17  18  1   
 32  17  38  1   
 33  17  39  1   
 34  18  19  1   
 35  19  20  ar  
 36  19  21  ar  
 37  20  22  1   
 38  20  23  ar  
 39  21  24  ar  
 40  21  40  1   
 41  23  25  ar  
 42  23  41  1   
 43  24  25  ar  
 44  24  42  1   
 45  25  43  1   
@<TRIPOS>SUBSTRUCTURE
  1 ****  14 GROUP 4 **** **** 0

# MOE 2024.06 (io_trps.svl 2023.06)
