@<TRIPOS>MOLECULE
NONAME
28 28 1 0 0 
SMALL
USER_CHARGES


@<TRIPOS>ATOM
  1 O       -1.7440     4.1030    -0.4130 O.2   1 <1>  -0.5700 
  2 C       -1.7180     2.8990    -0.2330 C.2   1 <1>   0.6340 
  3 O       -0.5220     2.2890    -0.2680 O.3   1 <1>  -0.4300 
  4 C       -2.9160     2.1160    -0.0210 C.ar  1 <1>   0.0860 
  5 C        0.6750     3.0100    -0.4960 C.3   1 <1>   0.0400 
  6 C       -2.9300     0.8540     0.6130 C.ar  1 <1>   0.1000 
  7 C       -4.1430     2.6280    -0.4570 C.ar  1 <1>  -0.1500 
  8 N       -1.7890     0.2560     1.1240 N.pl3 1 <1>  -0.9000 
  9 C       -4.1260     0.1600     0.7540 C.ar  1 <1>  -0.1500 
 10 C       -5.3270     1.9400    -0.2990 C.ar  1 <1>   0.0830 
 11 C       -5.3200     0.6710     0.2920 C.ar  1 <1>   0.0830 
 12 O       -6.4690     2.5410    -0.7210 O.3   1 <1>  -0.3630 
 13 O       -6.4260    -0.0950     0.4430 O.3   1 <1>  -0.3630 
 14 C       -7.2800     3.0610     0.3090 C.3   1 <1>   0.0400 
 15 C       -7.2170    -0.3610    -0.6960 C.3   1 <1>   0.0400 
 16 H        1.4990     2.3190    -0.4810 H     1 <1>   0.0800 
 17 H        0.7920     3.7440     0.2820 H     1 <1>   0.0800 
 18 H        0.6120     3.4930    -1.4550 H     1 <1>   0.0800 
 19 H       -4.1720     3.5950    -0.9290 H     1 <1>   0.1500 
 20 H       -1.7790    -0.7600     1.2460 H     1 <1>   0.4000 
 21 H       -0.8850     0.6330     0.8020 H     1 <1>   0.4000 
 22 H       -4.1290    -0.8000     1.2340 H     1 <1>   0.1500 
 23 H       -8.1410     3.5210    -0.1400 H     1 <1>   0.0800 
 24 H       -7.5860     2.2580     0.9570 H     1 <1>   0.0800 
 25 H       -6.7160     3.7920     0.8610 H     1 <1>   0.0800 
 26 H       -7.8420     0.4880    -0.9020 H     1 <1>   0.0800 
 27 H       -6.5720    -0.5650    -1.5320 H     1 <1>   0.0800 
 28 H       -7.8290    -1.2190    -0.4850 H     1 <1>   0.0800 
@<TRIPOS>BOND
  1   1   2  2   
  2   2   3  1   
  3   2   4  1   
  4   3   5  1   
  5   4   6  ar  
  6   4   7  ar  
  7   5  16  1   
  8   5  17  1   
  9   5  18  1   
 10   6   8  1   
 11   6   9  ar  
 12   7  10  ar  
 13   7  19  1   
 14   8  20  1   
 15   8  21  1   
 16   9  11  ar  
 17   9  22  1   
 18  10  11  ar  
 19  10  12  1   
 20  11  13  1   
 21  12  14  1   
 22  13  15  1   
 23  14  23  1   
 24  14  24  1   
 25  14  25  1   
 26  15  26  1   
 27  15  27  1   
 28  15  28  1   
@<TRIPOS>SUBSTRUCTURE
  1 ****   4 GROUP 4 **** **** 0

# MOE 2024.06 (io_trps.svl 2023.06)
