@<TRIPOS>MOLECULE
NONAME
29 30 1 0 0 
SMALL
USER_CHARGES


@<TRIPOS>ATOM
  1 S       -0.5030     0.1630     1.6490 S.2   1 <1>  -0.3800 
  2 C       -2.0340     0.1130     1.0980 C.2   1 <1>   0.5000 
  3 N       -2.6860    -1.0000     0.7400 N.am  1 <1>  -0.5470 
  4 N       -2.8270     1.1810     0.9380 N.am  1 <1>  -0.5470 
  5 C       -3.9570    -0.6350     0.3290 C.ar  1 <1>   0.1170 
  6 C       -4.0490     0.7410     0.4520 C.ar  1 <1>   0.1170 
  7 C       -5.0250    -1.3840    -0.1420 C.ar  1 <1>  -0.1500 
  8 C       -5.2150     1.4200     0.1140 C.ar  1 <1>  -0.1440 
  9 C       -6.1980    -0.7330    -0.4800 C.ar  1 <1>  -0.1430 
 10 C       -6.2910     0.6600    -0.3330 C.ar  1 <1>   0.0830 
 11 C       -5.2670     2.9390     0.2370 C.3   1 <1>  -0.0970 
 12 C       -7.3750    -1.5380    -1.0150 C.3   1 <1>  -0.0970 
 13 O       -7.4590     1.2690    -0.6510 O.3   1 <1>  -0.3630 
 14 C       -8.3460     1.4770     0.4220 C.3   1 <1>   0.1200 
 15 C       -9.6100     2.1300    -0.1280 C.3   1 <1>  -0.2400 
 16 H       -2.2940    -1.9400     0.7700 H     1 <1>   0.3700 
 17 H       -2.5580     2.1420     1.1410 H     1 <1>   0.3700 
 18 H       -4.9230    -2.4490    -0.2380 H     1 <1>   0.1500 
 19 H       -4.3330     3.3690    -0.0770 H     1 <1>   0.0800 
 20 H       -5.4540     3.2160     1.2580 H     1 <1>   0.0800 
 21 H       -6.0430     3.3500    -0.3830 H     1 <1>   0.0800 
 22 H       -7.0800    -2.5440    -1.2520 H     1 <1>   0.0800 
 23 H       -7.7560    -1.0780    -1.9090 H     1 <1>   0.0800 
 24 H       -8.1600    -1.5730    -0.2820 H     1 <1>   0.0800 
 25 H       -7.8670     2.1130     1.1450 H     1 <1>   0.0800 
 26 H       -8.5700     0.5240     0.8700 H     1 <1>   0.0800 
 27 H       -9.3690     3.0740    -0.5830 H     1 <1>   0.0800 
 28 H      -10.3090     2.3010     0.6700 H     1 <1>   0.0800 
 29 H      -10.0700     1.4880    -0.8570 H     1 <1>   0.0800 
@<TRIPOS>BOND
  1   1   2  2   
  2   2   3  am  
  3   2   4  am  
  4   3   5  1   
  5   3  16  1   
  6   4   6  1   
  7   4  17  1   
  8   5   6  ar  
  9   5   7  ar  
 10   6   8  ar  
 11   7   9  ar  
 12   7  18  1   
 13   8  10  ar  
 14   8  11  1   
 15   9  10  ar  
 16   9  12  1   
 17  10  13  1   
 18  11  19  1   
 19  11  20  1   
 20  11  21  1   
 21  12  22  1   
 22  12  23  1   
 23  12  24  1   
 24  13  14  1   
 25  14  15  1   
 26  14  25  1   
 27  14  26  1   
 28  15  27  1   
 29  15  28  1   
 30  15  29  1   
@<TRIPOS>SUBSTRUCTURE
  1 ****   8 GROUP 4 **** **** 0

# MOE 2024.06 (io_trps.svl 2023.06)
