@<TRIPOS>MOLECULE
NONAME
34 35 1 0 0 
SMALL
USER_CHARGES


@<TRIPOS>ATOM
  1 S       -0.0090    -0.3140    -0.0020 S.3   1 <1>   0.1810 
  2 N       -1.6070    -0.9030    -0.0030 N.2   1 <1>  -0.5100 
  3 C       -0.4770     1.3650     0.0000 C.2   1 <1>   0.1040 
  4 C       -2.4010     0.0950    -0.0020 C.2   1 <1>   0.1080 
  5 N        0.4510     2.3920     0.0010 N.am  1 <1>  -0.4940 
  6 C       -1.8390     1.4220     0.0000 C.2   1 <1>  -0.0860 
  7 C       -3.8940    -0.1890    -0.0020 C.3   1 <1>  -0.0590 
  8 C        1.8250     2.4280     0.0000 C.2   1 <1>   0.7160 
  9 C       -2.5600     2.6660     0.0010 C.2   1 <1>   0.8060 
 10 O        2.4660     1.3980    -0.0010 O.2   1 <1>  -0.5700 
 11 C        2.4810     3.7190     0.0020 C.2   1 <1>  -0.0860 
 12 O       -1.9940     3.7470     0.0030 O.2   1 <1>  -0.5700 
 13 O       -3.8960     2.6610     0.0010 O.3   1 <1>  -0.4300 
 14 C        1.8840     4.9400     0.0040 C.2   1 <1>  -0.1100 
 15 C        3.9170     3.8420     0.0020 C.2   1 <1>  -0.1500 
 16 C       -4.6500     3.8530     0.0020 C.3   1 <1>   0.1200 
 17 S        3.0500     6.2410     0.0050 S.3   1 <1>  -0.0800 
 18 C        4.3800     5.1040     0.0030 C.2   1 <1>  -0.1400 
 19 C       -6.1280     3.4740     0.0010 C.3   1 <1>  -0.2400 
 20 C        5.7810     5.6760     0.0030 C.3   1 <1>  -0.0600 
 21 H        0.0310     3.3260     0.0020 H     1 <1>   0.3700 
 22 H       -4.0710    -1.2500    -0.0030 H     1 <1>   0.0800 
 23 H       -4.3520     0.2280    -0.8800 H     1 <1>   0.0800 
 24 H       -4.3510     0.2260     0.8770 H     1 <1>   0.0800 
 25 H        0.8470     5.2300     0.0050 H     1 <1>   0.1500 
 26 H        4.5340     2.9580     0.0000 H     1 <1>   0.1500 
 27 H       -4.3970     4.4210    -0.8780 H     1 <1>   0.0800 
 28 H       -4.3980     4.4190     0.8840 H     1 <1>   0.0800 
 29 H       -6.3660     2.9030    -0.8790 H     1 <1>   0.0800 
 30 H       -6.7300     4.3650     0.0020 H     1 <1>   0.0800 
 31 H       -6.3660     2.9010     0.8790 H     1 <1>   0.0800 
 32 H        6.5060     4.8820     0.0020 H     1 <1>   0.0800 
 33 H        5.9300     6.2810     0.8790 H     1 <1>   0.0800 
 34 H        5.9290     6.2840    -0.8710 H     1 <1>   0.0800 
@<TRIPOS>BOND
  1   1   2  1   
  2   1   3  1   
  3   2   4  2   
  4   3   5  1   
  5   3   6  2   
  6   4   6  1   
  7   4   7  1   
  8   5   8  am  
  9   5  21  1   
 10   6   9  1   
 11   7  22  1   
 12   7  23  1   
 13   7  24  1   
 14   8  10  2   
 15   8  11  1   
 16   9  12  2   
 17   9  13  1   
 18  11  14  2   
 19  11  15  1   
 20  13  16  1   
 21  14  17  1   
 22  14  25  1   
 23  15  18  2   
 24  15  26  1   
 25  16  19  1   
 26  16  27  1   
 27  16  28  1   
 28  17  18  1   
 29  18  20  1   
 30  19  29  1   
 31  19  30  1   
 32  19  31  1   
 33  20  32  1   
 34  20  33  1   
 35  20  34  1   
@<TRIPOS>SUBSTRUCTURE
  1 ****   5 GROUP 4 **** **** 0

# MOE 2024.06 (io_trps.svl 2023.06)
