@<TRIPOS>MOLECULE
NONAME
22 24 1 0 0 
SMALL
USER_CHARGES


@<TRIPOS>ATOM
  1 O        0.1490     0.3920     0.3530 O.2   1 <1>  -0.5700 
  2 C       -0.3090     1.4920     0.4970 C.2   1 <1>   0.5690 
  3 N        0.3930     2.6480     0.6790 N.am  1 <1>  -0.4900 
  4 C       -1.7610     1.8580     0.6060 C.3   1 <1>  -0.0190 
  5 C       -0.4160     3.7410     0.5820 C.2   1 <1>   0.5690 
  6 C       -3.1610     1.4140     0.1410 C.3   1 <1>   0.4180 
  7 C       -1.7000     3.2540    -0.0190 C.3   1 <1>  -0.0190 
  8 O       -0.1320     4.8740     0.8600 O.2   1 <1>  -0.5700 
  9 O       -3.4560     2.3360    -0.8590 O.3   1 <1>  -0.5600 
 10 C       -4.0990     1.9860     1.1830 C.2   1 <1>  -0.2880 
 11 C       -3.3930    -0.0130    -0.3260 C.3   1 <1>  -0.2400 
 12 C       -3.1850     3.5440    -0.2090 C.3   1 <1>   0.3380 
 13 C       -4.0650     3.3050     1.0070 C.2   1 <1>  -0.2880 
 14 H        1.3930     2.6890     0.8570 H     1 <1>   0.3700 
 15 H       -1.8510     1.9430     1.6780 H     1 <1>   0.0800 
 16 H       -1.3820     3.1630    -1.0480 H     1 <1>   0.0800 
 17 H       -4.6010     1.3550     1.8950 H     1 <1>   0.1500 
 18 H       -2.7230    -0.2480    -1.1330 H     1 <1>   0.0800 
 19 H       -4.4090    -0.1290    -0.6540 H     1 <1>   0.0800 
 20 H       -3.2070    -0.6950     0.4840 H     1 <1>   0.0800 
 21 H       -3.4490     4.3730    -0.8430 H     1 <1>   0.0800 
 22 H       -4.5290     4.1230     1.5310 H     1 <1>   0.1500 
@<TRIPOS>BOND
  1   1   2  2   
  2   2   3  am  
  3   2   4  1   
  4   3   5  am  
  5   3  14  1   
  6   4   6  1   
  7   4   7  1   
  8   4  15  1   
  9   5   7  1   
 10   5   8  2   
 11   6   9  1   
 12   6  10  1   
 13   6  11  1   
 14   7  12  1   
 15   7  16  1   
 16   9  12  1   
 17  10  13  2   
 18  10  17  1   
 19  11  18  1   
 20  11  19  1   
 21  11  20  1   
 22  12  13  1   
 23  12  21  1   
 24  13  22  1   
@<TRIPOS>SUBSTRUCTURE
  1 ****   4 GROUP 4 **** **** 0

# MOE 2024.06 (io_trps.svl 2023.06)
