@<TRIPOS>MOLECULE
NONAME
45 47 1 0 0 
SMALL
USER_CHARGES


@<TRIPOS>ATOM
  1 CL      -0.1130     0.4280     1.2200 Cl    1 <1>  -0.1770 
  2 C        0.7550     1.7750     0.5150 C.ar  1 <1>   0.1770 
  3 C        0.0900     2.9600     0.2330 C.ar  1 <1>   0.0820 
  4 C        2.0980     1.6190     0.2410 C.ar  1 <1>  -0.1500 
  5 O       -1.2330     3.0590     0.4910 O.3   1 <1>  -0.3630 
  6 C        0.8170     4.0170    -0.3270 C.ar  1 <1>   0.0830 
  7 C        2.8320     2.6570    -0.3290 C.ar  1 <1>   0.0860 
  8 C       -2.0950     2.8550    -0.6070 C.3   1 <1>   0.2640 
  9 O        0.2840     5.2310    -0.6260 O.3   1 <1>  -0.3630 
 10 C        2.1590     3.8460    -0.6140 C.ar  1 <1>  -0.1500 
 11 C        4.2400     2.4910    -0.6270 C.2   1 <1>   0.5440 
 12 C       -3.4640     3.4210    -0.2660 C.ar  1 <1>  -0.1440 
 13 C       -0.5320     5.8810     0.3300 C.3   1 <1>   0.0400 
 14 O        4.5860     1.5480    -1.3130 O.2   1 <1>  -0.5700 
 15 N        5.2010     3.3590    -0.1540 N.am  1 <1>  -0.6600 
 16 C       -4.0210     4.4290    -1.0380 C.ar  1 <1>  -0.1500 
 17 C       -4.1690     2.9320     0.8240 C.ar  1 <1>  -0.1500 
 18 C        5.0050     4.3360     0.9580 C.3   1 <1>   0.1400 
 19 C        6.6150     3.3040    -0.6340 C.3   1 <1>   0.1400 
 20 C       -5.2690     4.9400    -0.7260 C.ar  1 <1>  -0.1500 
 21 C       -5.4170     3.4420     1.1370 C.ar  1 <1>  -0.1500 
 22 C        5.6200     5.6970     0.5910 C.3   1 <1>   0.1200 
 23 C        7.1500     4.7210    -0.9010 C.3   1 <1>   0.1200 
 24 C       -5.9680     4.4470     0.3610 C.ar  1 <1>  -0.1500 
 25 O        6.9600     5.5460     0.2160 O.3   1 <1>  -0.5600 
 26 H        2.5850     0.6850     0.4610 H     1 <1>   0.1500 
 27 H       -2.1560     1.7970    -0.7940 H     1 <1>   0.0800 
 28 H       -1.6820     3.3510    -1.4680 H     1 <1>   0.0800 
 29 H        2.6990     4.6560    -1.0720 H     1 <1>   0.1500 
 30 H       -0.5090     6.9360     0.1280 H     1 <1>   0.0800 
 31 H       -0.1500     5.6850     1.3160 H     1 <1>   0.0800 
 32 H       -1.5410     5.5210     0.2400 H     1 <1>   0.0800 
 33 H       -3.4870     4.8230    -1.8860 H     1 <1>   0.1500 
 34 H       -3.7420     2.1530     1.4340 H     1 <1>   0.1500 
 35 H        5.4940     3.9620     1.8410 H     1 <1>   0.0800 
 36 H        3.9640     4.4620     1.1890 H     1 <1>   0.0800 
 37 H        6.6840     2.7260    -1.5390 H     1 <1>   0.0800 
 38 H        7.2240     2.8260     0.1130 H     1 <1>   0.0800 
 39 H       -5.6960     5.7220    -1.3290 H     1 <1>   0.1500 
 40 H       -5.9570     3.0580     1.9840 H     1 <1>   0.1500 
 41 H        5.5910     6.3590     1.4390 H     1 <1>   0.0800 
 42 H        5.0820     6.1510    -0.2230 H     1 <1>   0.0800 
 43 H        6.6470     5.1600    -1.7440 H     1 <1>   0.0800 
 44 H        8.2050     4.6860    -1.1070 H     1 <1>   0.0800 
 45 H       -6.9380     4.8430     0.6040 H     1 <1>   0.1500 
@<TRIPOS>BOND
  1   1   2  1   
  2   2   3  ar  
  3   2   4  ar  
  4   3   5  1   
  5   3   6  ar  
  6   4   7  ar  
  7   4  26  1   
  8   5   8  1   
  9   6   9  1   
 10   6  10  ar  
 11   7  10  ar  
 12   7  11  1   
 13   8  12  1   
 14   8  27  1   
 15   8  28  1   
 16   9  13  1   
 17  10  29  1   
 18  11  14  2   
 19  11  15  am  
 20  12  16  ar  
 21  12  17  ar  
 22  13  30  1   
 23  13  31  1   
 24  13  32  1   
 25  15  18  1   
 26  15  19  1   
 27  16  20  ar  
 28  16  33  1   
 29  17  21  ar  
 30  17  34  1   
 31  18  22  1   
 32  18  35  1   
 33  18  36  1   
 34  19  23  1   
 35  19  37  1   
 36  19  38  1   
 37  20  24  ar  
 38  20  39  1   
 39  21  24  ar  
 40  21  40  1   
 41  22  25  1   
 42  22  41  1   
 43  22  42  1   
 44  23  25  1   
 45  23  43  1   
 46  23  44  1   
 47  24  45  1   
@<TRIPOS>SUBSTRUCTURE
  1 ****   6 GROUP 4 **** **** 0

# MOE 2024.06 (io_trps.svl 2023.06)
