@<TRIPOS>MOLECULE
NONAME
35 36 1 0 0 
SMALL
USER_CHARGES


@<TRIPOS>ATOM
  1 F       -0.8830    -0.0720    -1.7580 F     1 <1>  -0.3400 
  2 C       -1.8800    -0.8150    -1.2960 C.3   1 <1>   1.1640 
  3 F       -2.6630    -1.0800    -2.3360 F     1 <1>  -0.3400 
  4 F       -1.3530    -1.9720    -0.9230 F     1 <1>  -0.3400 
  5 C       -2.6690    -0.1510    -0.1540 C.ar  1 <1>  -0.1440 
  6 C       -3.8780    -0.7010     0.2620 C.ar  1 <1>  -0.1500 
  7 C       -2.2070     0.9950     0.4850 C.ar  1 <1>  -0.1500 
  8 C       -4.6190    -0.1180     1.2810 C.ar  1 <1>  -0.1440 
  9 C       -2.9340     1.5740     1.5080 C.ar  1 <1>  -0.1500 
 10 C       -4.1370     1.0210     1.9060 C.ar  1 <1>  -0.1500 
 11 C       -5.9520    -0.7120     1.6990 C.3   1 <1>   0.4870 
 12 N       -6.9340    -0.4790     0.6040 N.4   1 <1>  -0.9590 
 13 C       -7.1780     0.9820     0.3880 C.3   1 <1>   0.3430 
 14 C       -8.1970    -1.2420     0.8270 C.3   1 <1>   0.3430 
 15 C       -8.0750     1.1780    -0.8310 C.3   1 <1>  -0.1600 
 16 C       -9.1120    -1.0850    -0.3840 C.3   1 <1>  -0.1600 
 17 C       -9.3730     0.3930    -0.6620 C.3   1 <1>   0.2000 
 18 O      -10.1000     0.4980    -1.8210 O.3   1 <1>  -0.6800 
 19 H       -4.2320    -1.5990    -0.2200 H     1 <1>   0.1500 
 20 H       -1.2710     1.4470     0.1940 H     1 <1>   0.1500 
 21 H       -2.5580     2.4580     1.9960 H     1 <1>   0.1500 
 22 H       -4.6820     1.4910     2.7090 H     1 <1>   0.1500 
 23 H       -6.2920    -0.2530     2.6130 H     1 <1>   0.0800 
 24 H       -5.8290    -1.7690     1.8720 H     1 <1>   0.0800 
 25 H       -6.4930    -0.8310    -0.2550 H     1 <1>   0.4500 
 26 H       -6.2430     1.4960     0.2260 H     1 <1>   0.0800 
 27 H       -7.6520     1.4070     1.2580 H     1 <1>   0.0800 
 28 H       -8.6990    -0.8700     1.7070 H     1 <1>   0.0800 
 29 H       -7.9790    -2.2870     0.9780 H     1 <1>   0.0800 
 30 H       -7.5490     0.8610    -1.7140 H     1 <1>   0.0800 
 31 H       -8.3040     2.2250    -0.9310 H     1 <1>   0.0800 
 32 H      -10.0470    -1.5770    -0.1820 H     1 <1>   0.0800 
 33 H       -8.6590    -1.5580    -1.2370 H     1 <1>   0.0800 
 34 H       -9.9690     0.8220     0.1290 H     1 <1>   0.0800 
 35 H       -9.6170     0.1490    -2.5940 H     1 <1>   0.4000 
@<TRIPOS>BOND
  1   1   2  1   
  2   2   3  1   
  3   2   4  1   
  4   2   5  1   
  5   5   6  ar  
  6   5   7  ar  
  7   6   8  ar  
  8   6  19  1   
  9   7   9  ar  
 10   7  20  1   
 11   8  10  ar  
 12   8  11  1   
 13   9  10  ar  
 14   9  21  1   
 15  10  22  1   
 16  11  12  1   
 17  11  23  1   
 18  11  24  1   
 19  12  13  1   
 20  12  14  1   
 21  12  25  1   
 22  13  15  1   
 23  13  26  1   
 24  13  27  1   
 25  14  16  1   
 26  14  28  1   
 27  14  29  1   
 28  15  17  1   
 29  15  30  1   
 30  15  31  1   
 31  16  17  1   
 32  16  32  1   
 33  16  33  1   
 34  17  18  1   
 35  17  34  1   
 36  18  35  1   
@<TRIPOS>SUBSTRUCTURE
  1 ****   6 GROUP 4 **** **** 0

# MOE 2024.06 (io_trps.svl 2023.06)
