@<TRIPOS>MOLECULE
NONAME
59 61 1 0 0 
SMALL
USER_CHARGES


@<TRIPOS>ATOM
  1 O       -2.8670    -1.8800    -2.3310 O.3   1 <1>  -0.3630 
  2 C       -3.5440    -1.7270    -1.1670 C.ar  1 <1>   0.0820 
  3 C       -1.5730    -2.4330    -2.2260 C.3   1 <1>   0.0400 
  4 C       -3.1640    -0.8060    -0.1850 C.ar  1 <1>   0.0820 
  5 C       -4.6490    -2.5330    -0.9640 C.ar  1 <1>  -0.1500 
  6 O       -2.1230     0.0540    -0.3290 O.3   1 <1>  -0.3630 
  7 C       -3.8710    -0.7460     1.0030 C.ar  1 <1>  -0.1500 
  8 C       -5.3700    -2.4570     0.2250 C.ar  1 <1>   0.0820 
  9 C       -2.2050     0.9800    -1.3920 C.3   1 <1>   0.0400 
 10 C       -4.9750    -1.5590     1.2140 C.ar  1 <1>  -0.1440 
 11 O       -6.4600    -3.2380     0.4720 O.3   1 <1>  -0.3630 
 12 C       -5.7450    -1.4530     2.5230 C.3   1 <1>   0.2530 
 13 C       -6.8740    -4.2320    -0.4390 C.3   1 <1>   0.0400 
 14 N       -6.9950    -0.7040     2.3070 N.3   1 <1>  -0.8100 
 15 C       -7.9810    -0.8670     3.3950 C.3   1 <1>   0.1100 
 16 C       -6.8000     0.7220     1.9540 C.3   1 <1>   0.1100 
 17 C       -9.3470    -0.2450     3.0100 C.3   1 <1>   0.3430 
 18 C       -8.1450     1.4190     1.6350 C.3   1 <1>   0.3430 
 19 N       -9.2660     0.4270     1.6700 N.4   1 <1>  -0.9590 
 20 C      -10.5420     0.9110     1.1150 C.3   1 <1>   0.4810 
 21 C      -11.3500    -0.3110     0.7570 C.2   1 <1>  -0.2880 
 22 C      -11.4640    -0.8110    -0.4860 C.2   1 <1>  -0.1780 
 23 C      -12.2030    -1.9820    -0.9070 C.ar  1 <1>   0.0280 
 24 C      -11.9630    -2.5390    -2.1610 C.ar  1 <1>  -0.1500 
 25 C      -13.1620    -2.5930    -0.1020 C.ar  1 <1>  -0.1500 
 26 C      -12.6450    -3.6620    -2.5930 C.ar  1 <1>  -0.1500 
 27 C      -13.8460    -3.7180    -0.5270 C.ar  1 <1>  -0.1500 
 28 C      -13.5880    -4.2560    -1.7750 C.ar  1 <1>  -0.1500 
 29 H       -1.1800    -2.5600    -3.2180 H     1 <1>   0.0800 
 30 H       -1.6420    -3.3860    -1.7300 H     1 <1>   0.0800 
 31 H       -0.9450    -1.7660    -1.6640 H     1 <1>   0.0800 
 32 H       -4.9180    -3.2130    -1.7470 H     1 <1>   0.1500 
 33 H       -3.5480    -0.0500     1.7550 H     1 <1>   0.1500 
 34 H       -1.4240     1.7070    -1.2640 H     1 <1>   0.0800 
 35 H       -3.1660     1.4610    -1.3630 H     1 <1>   0.0800 
 36 H       -2.0730     0.4650    -2.3260 H     1 <1>   0.0800 
 37 H       -5.1470    -0.9700     3.2770 H     1 <1>   0.0800 
 38 H       -5.9720    -2.4490     2.8660 H     1 <1>   0.0800 
 39 H       -7.1460    -3.7640    -1.3680 H     1 <1>   0.0800 
 40 H       -7.7270    -4.7360    -0.0210 H     1 <1>   0.0800 
 41 H       -6.0700    -4.9330    -0.5810 H     1 <1>   0.0800 
 42 H       -8.1250    -1.9160     3.5950 H     1 <1>   0.0800 
 43 H       -7.6130    -0.4090     4.2970 H     1 <1>   0.0800 
 44 H       -6.3040     1.2380     2.7580 H     1 <1>   0.0800 
 45 H       -6.1690     0.7930     1.0840 H     1 <1>   0.0800 
 46 H       -9.6460     0.4620     3.7660 H     1 <1>   0.0800 
 47 H      -10.0840    -1.0300     2.9810 H     1 <1>   0.0800 
 48 H       -8.0780     1.8700     0.6590 H     1 <1>   0.0800 
 49 H       -8.3210     2.2030     2.3530 H     1 <1>   0.0800 
 50 H       -8.9250    -0.3360     1.0580 H     1 <1>   0.4500 
 51 H      -11.0670     1.5320     1.8230 H     1 <1>   0.0800 
 52 H      -10.3530     1.4830     0.2210 H     1 <1>   0.0800 
 53 H      -11.8310    -0.7570     1.6080 H     1 <1>   0.1500 
 54 H      -10.9570    -0.3250    -1.3020 H     1 <1>   0.1500 
 55 H      -11.2330    -2.0930    -2.8120 H     1 <1>   0.1500 
 56 H      -13.3890    -2.1910     0.8660 H     1 <1>   0.1500 
 57 H      -12.4430    -4.0770    -3.5660 H     1 <1>   0.1500 
 58 H      -14.5830    -4.1750     0.1100 H     1 <1>   0.1500 
 59 H      -14.1210    -5.1300    -2.1080 H     1 <1>   0.1500 
@<TRIPOS>BOND
  1   1   2  1   
  2   1   3  1   
  3   2   4  ar  
  4   2   5  ar  
  5   3  29  1   
  6   3  30  1   
  7   3  31  1   
  8   4   6  1   
  9   4   7  ar  
 10   5   8  ar  
 11   5  32  1   
 12   6   9  1   
 13   7  10  ar  
 14   7  33  1   
 15   8  10  ar  
 16   8  11  1   
 17   9  34  1   
 18   9  35  1   
 19   9  36  1   
 20  10  12  1   
 21  11  13  1   
 22  12  14  1   
 23  12  37  1   
 24  12  38  1   
 25  13  39  1   
 26  13  40  1   
 27  13  41  1   
 28  14  15  1   
 29  14  16  1   
 30  15  17  1   
 31  15  42  1   
 32  15  43  1   
 33  16  18  1   
 34  16  44  1   
 35  16  45  1   
 36  17  19  1   
 37  17  46  1   
 38  17  47  1   
 39  18  19  1   
 40  18  48  1   
 41  18  49  1   
 42  19  20  1   
 43  19  50  1   
 44  20  21  1   
 45  20  51  1   
 46  20  52  1   
 47  21  22  2   
 48  21  53  1   
 49  22  23  1   
 50  22  54  1   
 51  23  24  ar  
 52  23  25  ar  
 53  24  26  ar  
 54  24  55  1   
 55  25  27  ar  
 56  25  56  1   
 57  26  28  ar  
 58  26  57  1   
 59  27  28  ar  
 60  27  58  1   
 61  28  59  1   
@<TRIPOS>SUBSTRUCTURE
  1 ****  11 GROUP 4 **** **** 0

# MOE 2024.06 (io_trps.svl 2023.06)
