@<TRIPOS>MOLECULE
NONAME
39 40 1 0 0 
SMALL
USER_CHARGES


@<TRIPOS>ATOM
  1 S       -2.9480    -5.7470     0.3870 S.3   1 <1>  -0.0800 
  2 C       -1.5920    -4.7570    -0.1170 C.2   1 <1>  -0.1100 
  3 C       -1.9900    -7.2080     0.2470 C.2   1 <1>  -0.1100 
  4 C       -0.5060    -5.5180    -0.3560 C.2   1 <1>  -0.1810 
  5 C       -0.7380    -6.9210    -0.1530 C.2   1 <1>  -0.1500 
  6 C        0.8420    -4.9980    -0.7900 C.3   1 <1>   0.5240 
  7 N        1.7180    -5.0890     0.3930 N.4   1 <1>  -0.9060 
  8 C        3.1040    -4.6210     0.1300 C.3   1 <1>   0.3430 
  9 C        3.9710    -4.7530     1.3810 C.3   1 <1>  -0.0170 
 10 C        5.3760    -4.3130     1.0240 C.ar  1 <1>  -0.1430 
 11 C        6.2070    -5.1680     0.3220 C.ar  1 <1>  -0.1500 
 12 C        5.8420    -3.0570     1.3750 C.ar  1 <1>  -0.1500 
 13 C        7.4860    -4.7900    -0.0510 C.ar  1 <1>   0.0830 
 14 C        7.1170    -2.6600     1.0100 C.ar  1 <1>  -0.1500 
 15 O        8.1690    -5.7470    -0.7410 O.3   1 <1>  -0.3620 
 16 C        7.9530    -3.5080     0.2870 C.ar  1 <1>   0.0830 
 17 C        9.5790    -5.7880    -0.7710 C.3   1 <1>   0.0400 
 18 O        9.1970    -3.1060    -0.1070 O.3   1 <1>  -0.3630 
 19 C        9.6890    -1.8080     0.1450 C.3   1 <1>   0.0400 
 20 H       -1.7730    -3.6960    -0.1750 H     1 <1>   0.1500 
 21 H       -2.4790    -8.1400     0.4780 H     1 <1>   0.1500 
 22 H        0.0250    -7.6640    -0.3190 H     1 <1>   0.1500 
 23 H        0.7540    -3.9730    -1.1140 H     1 <1>   0.0800 
 24 H        1.2260    -5.5930    -1.6040 H     1 <1>   0.0800 
 25 H        1.7120    -6.0650     0.7100 H     1 <1>   0.4500 
 26 H        1.2780    -4.5450     1.1450 H     1 <1>   0.4500 
 27 H        3.0950    -3.5880    -0.1820 H     1 <1>   0.0800 
 28 H        3.5460    -5.2040    -0.6620 H     1 <1>   0.0800 
 29 H        3.9990    -5.7750     1.7170 H     1 <1>   0.0800 
 30 H        3.5870    -4.1360     2.1740 H     1 <1>   0.0800 
 31 H        5.8820    -6.1560     0.0480 H     1 <1>   0.1500 
 32 H        5.2250    -2.3740     1.9330 H     1 <1>   0.1500 
 33 H        7.4370    -1.6780     1.3020 H     1 <1>   0.1500 
 34 H        9.8790    -6.7610    -1.1140 H     1 <1>   0.0800 
 35 H        9.9570    -5.6140     0.2210 H     1 <1>   0.0800 
 36 H        9.9340    -5.0370    -1.4530 H     1 <1>   0.0800 
 37 H       10.6720    -1.7350    -0.2840 H     1 <1>   0.0800 
 38 H        9.7430    -1.6540     1.2080 H     1 <1>   0.0800 
 39 H        9.0360    -1.0900    -0.3190 H     1 <1>   0.0800 
@<TRIPOS>BOND
  1   1   2  1   
  2   1   3  1   
  3   2   4  2   
  4   2  20  1   
  5   3   5  2   
  6   3  21  1   
  7   4   5  1   
  8   4   6  1   
  9   5  22  1   
 10   6   7  1   
 11   6  23  1   
 12   6  24  1   
 13   7   8  1   
 14   7  25  1   
 15   7  26  1   
 16   8   9  1   
 17   8  27  1   
 18   8  28  1   
 19   9  10  1   
 20   9  29  1   
 21   9  30  1   
 22  10  11  ar  
 23  10  12  ar  
 24  11  13  ar  
 25  11  31  1   
 26  12  14  ar  
 27  12  32  1   
 28  13  15  1   
 29  13  16  ar  
 30  14  16  ar  
 31  14  33  1   
 32  15  17  1   
 33  16  18  1   
 34  17  34  1   
 35  17  35  1   
 36  17  36  1   
 37  18  19  1   
 38  19  37  1   
 39  19  38  1   
 40  19  39  1   
@<TRIPOS>SUBSTRUCTURE
  1 ****   8 GROUP 4 **** **** 0

# MOE 2024.06 (io_trps.svl 2023.06)
