@<TRIPOS>MOLECULE
NONAME
49 50 1 0 0 
SMALL
USER_CHARGES


@<TRIPOS>ATOM
  1 S       -0.4460     0.2910    -1.3760 S.o2  1 <1>   1.3330 
  2 O       -0.4250     1.7230    -1.2060 O.2   1 <1>  -0.6500 
  3 O       -0.5410    -0.2940    -2.6900 O.2   1 <1>  -0.6500 
  4 N       -1.7690    -0.3070    -0.4340 N.am  1 <1>  -0.6930 
  5 C        0.9600    -0.3860    -0.5180 C.3   1 <1>  -0.1350 
  6 C       -1.9350    -1.6670    -0.1650 C.ar  1 <1>   0.1990 
  7 C       -2.6110     0.7240     0.2650 C.3   1 <1>   0.2570 
  8 C       -2.0120    -2.1270     1.1470 C.ar  1 <1>  -0.1500 
  9 C       -2.0340    -2.5950    -1.1960 C.ar  1 <1>  -0.1500 
 10 C       -4.0390     0.2690     0.5730 C.2   1 <1>   0.5690 
 11 C       -2.1810    -3.4720     1.4200 C.ar  1 <1>  -0.1500 
 12 C       -2.2010    -3.9410    -0.9280 C.ar  1 <1>  -0.1500 
 13 O       -4.4750     0.4500     1.6860 O.2   1 <1>  -0.5700 
 14 N       -4.7590    -0.3330    -0.4160 N.am  1 <1>  -0.7300 
 15 C       -2.2750    -4.3820     0.3820 C.ar  1 <1>  -0.1500 
 16 C       -6.0720    -1.0020    -0.2920 C.3   1 <1>   0.2200 
 17 C       -7.1480     0.0250     0.1190 C.3   1 <1>  -0.1600 
 18 C       -5.9310    -2.1900     0.6720 C.3   1 <1>  -0.1600 
 19 C       -8.3360     0.0940    -0.8530 C.3   1 <1>  -0.1600 
 20 C       -6.8910    -3.3600     0.3990 C.3   1 <1>  -0.1600 
 21 C       -9.4370    -0.9450    -0.5980 C.3   1 <1>  -0.1600 
 22 C       -8.3830    -3.0190     0.5260 C.3   1 <1>  -0.1600 
 23 C       -9.0050    -2.4120    -0.7470 C.3   1 <1>  -0.1600 
 24 H        0.9670    -0.0540     0.5010 H     1 <1>   0.0800 
 25 H        1.8670    -0.0660    -0.9920 H     1 <1>   0.0800 
 26 H        0.9240    -1.4570    -0.5340 H     1 <1>   0.0800 
 27 H       -2.6920     1.6010    -0.3500 H     1 <1>   0.0800 
 28 H       -2.1300     1.0080     1.1830 H     1 <1>   0.0800 
 29 H       -1.9450    -1.4300     1.9620 H     1 <1>   0.1500 
 30 H       -1.9870    -2.2640    -2.2180 H     1 <1>   0.1500 
 31 H       -2.2420    -3.8120     2.4400 H     1 <1>   0.1500 
 32 H       -2.2760    -4.6470    -1.7380 H     1 <1>   0.1500 
 33 H       -4.2580    -0.5520    -1.2800 H     1 <1>   0.3700 
 34 H       -2.4070    -5.4300     0.5920 H     1 <1>   0.1500 
 35 H       -6.3100    -1.3910    -1.2670 H     1 <1>   0.0800 
 36 H       -6.7030     1.0050     0.1450 H     1 <1>   0.0800 
 37 H       -7.5030    -0.1710     1.1150 H     1 <1>   0.0800 
 38 H       -6.0490    -1.8520     1.6870 H     1 <1>   0.0800 
 39 H       -4.9340    -2.5850     0.5860 H     1 <1>   0.0800 
 40 H       -7.9870     0.0210    -1.8680 H     1 <1>   0.0800 
 41 H       -8.7860     1.0670    -0.7500 H     1 <1>   0.0800 
 42 H       -6.6660    -4.1270     1.1200 H     1 <1>   0.0800 
 43 H       -6.6880    -3.7800    -0.5710 H     1 <1>   0.0800 
 44 H      -10.2190    -0.7600    -1.3150 H     1 <1>   0.0800 
 45 H       -9.8700    -0.7860     0.3750 H     1 <1>   0.0800 
 46 H       -8.5480    -2.3910     1.3850 H     1 <1>   0.0800 
 47 H       -8.9000    -3.9420     0.7240 H     1 <1>   0.0800 
 48 H       -8.3580    -2.5270    -1.5990 H     1 <1>   0.0800 
 49 H       -9.8940    -2.9800    -0.9650 H     1 <1>   0.0800 
@<TRIPOS>BOND
  1   1   2  2   
  2   1   3  2   
  3   1   4  am  
  4   1   5  1   
  5   4   6  1   
  6   4   7  1   
  7   5  24  1   
  8   5  25  1   
  9   5  26  1   
 10   6   8  ar  
 11   6   9  ar  
 12   7  10  1   
 13   7  27  1   
 14   7  28  1   
 15   8  11  ar  
 16   8  29  1   
 17   9  12  ar  
 18   9  30  1   
 19  10  13  2   
 20  10  14  am  
 21  11  15  ar  
 22  11  31  1   
 23  12  15  ar  
 24  12  32  1   
 25  14  16  1   
 26  14  33  1   
 27  15  34  1   
 28  16  17  1   
 29  16  18  1   
 30  16  35  1   
 31  17  19  1   
 32  17  36  1   
 33  17  37  1   
 34  18  20  1   
 35  18  38  1   
 36  18  39  1   
 37  19  21  1   
 38  19  40  1   
 39  19  41  1   
 40  20  22  1   
 41  20  42  1   
 42  20  43  1   
 43  21  23  1   
 44  21  44  1   
 45  21  45  1   
 46  22  23  1   
 47  22  46  1   
 48  22  47  1   
 49  23  48  1   
 50  23  49  1   
@<TRIPOS>SUBSTRUCTURE
  1 ****  14 GROUP 4 **** **** 0

# MOE 2024.06 (io_trps.svl 2023.06)
