@<TRIPOS>MOLECULE
NONAME
41 42 1 0 0 
SMALL
USER_CHARGES


@<TRIPOS>ATOM
  1 S       -0.1070    -0.0870     0.5980 S.3   1 <1>  -0.3320 
  2 C       -1.5930    -0.9150     0.0110 C.ar  1 <1>   0.1020 
  3 C        0.1650    -0.6370     2.3400 C.3   1 <1>  -0.0100 
  4 C       -1.9640    -0.6810    -1.2990 C.ar  1 <1>  -0.1500 
  5 C       -2.3430    -1.7530     0.8200 C.ar  1 <1>  -0.1500 
  6 C       -3.0990    -1.2860    -1.8110 C.ar  1 <1>  -0.1500 
  7 C       -3.4790    -2.3570     0.3060 C.ar  1 <1>  -0.1500 
  8 C       -3.8650    -2.1230    -1.0090 C.ar  1 <1>  -0.1430 
  9 C       -5.1180    -2.7690    -1.5680 C.3   1 <1>   0.4860 
 10 N       -6.3100    -2.1050    -0.9810 N.4   1 <1>  -0.9590 
 11 C       -7.6130    -2.7370    -1.3630 C.3   1 <1>   0.3430 
 12 C       -6.3530    -0.6190    -1.1920 C.3   1 <1>   0.3430 
 13 C       -8.8030    -2.0590    -0.6390 C.3   1 <1>   0.1100 
 14 C       -7.5470     0.0170    -0.4380 C.3   1 <1>   0.1100 
 15 N       -8.3660    -0.9840     0.2910 N.3   1 <1>  -0.8100 
 16 C       -9.5100    -0.3270     0.9610 C.3   1 <1>   0.1100 
 17 C      -10.1420    -1.2280     2.0300 C.3   1 <1>   0.1200 
 18 O      -11.1810    -0.5450     2.6410 O.3   1 <1>  -0.6800 
 19 H        1.0640    -0.1640     2.6920 H     1 <1>   0.0800 
 20 H        0.2740    -1.7070     2.3380 H     1 <1>   0.0800 
 21 H       -0.6820    -0.3260     2.9240 H     1 <1>   0.0800 
 22 H       -1.3610    -0.0310    -1.9100 H     1 <1>   0.1500 
 23 H       -2.0560    -1.9420     1.8370 H     1 <1>   0.1500 
 24 H       -3.3680    -1.0960    -2.8360 H     1 <1>   0.1500 
 25 H       -4.0500    -3.0100     0.9430 H     1 <1>   0.1500 
 26 H       -5.1190    -3.8180    -1.3210 H     1 <1>   0.0800 
 27 H       -5.1300    -2.6710    -2.6410 H     1 <1>   0.0800 
 28 H       -6.2680    -2.1910     0.0450 H     1 <1>   0.4500 
 29 H       -7.6020    -3.7830    -1.1040 H     1 <1>   0.0800 
 30 H       -7.7620    -2.6640    -2.4280 H     1 <1>   0.0800 
 31 H       -6.4360    -0.3950    -2.2420 H     1 <1>   0.0800 
 32 H       -5.4400    -0.1690    -0.8330 H     1 <1>   0.0800 
 33 H       -9.3420    -2.8150    -0.0950 H     1 <1>   0.0800 
 34 H       -9.4770    -1.6530    -1.3750 H     1 <1>   0.0800 
 35 H       -8.1620     0.5500    -1.1440 H     1 <1>   0.0800 
 36 H       -7.1630     0.7390     0.2620 H     1 <1>   0.0800 
 37 H      -10.2570    -0.0530     0.2340 H     1 <1>   0.0800 
 38 H       -9.1630     0.5680     1.4490 H     1 <1>   0.0800 
 39 H       -9.4240    -1.4980     2.7840 H     1 <1>   0.0800 
 40 H      -10.5620    -2.1150     1.5900 H     1 <1>   0.0800 
 41 H      -10.8440     0.1620     3.2260 H     1 <1>   0.4000 
@<TRIPOS>BOND
  1   1   2  1   
  2   1   3  1   
  3   2   4  ar  
  4   2   5  ar  
  5   3  19  1   
  6   3  20  1   
  7   3  21  1   
  8   4   6  ar  
  9   4  22  1   
 10   5   7  ar  
 11   5  23  1   
 12   6   8  ar  
 13   6  24  1   
 14   7   8  ar  
 15   7  25  1   
 16   8   9  1   
 17   9  10  1   
 18   9  26  1   
 19   9  27  1   
 20  10  11  1   
 21  10  12  1   
 22  10  28  1   
 23  11  13  1   
 24  11  29  1   
 25  11  30  1   
 26  12  14  1   
 27  12  31  1   
 28  12  32  1   
 29  13  15  1   
 30  13  33  1   
 31  13  34  1   
 32  14  15  1   
 33  14  35  1   
 34  14  36  1   
 35  15  16  1   
 36  16  17  1   
 37  16  37  1   
 38  16  38  1   
 39  17  18  1   
 40  17  39  1   
 41  17  40  1   
 42  18  41  1   
@<TRIPOS>SUBSTRUCTURE
  1 ****  10 GROUP 4 **** **** 0

# MOE 2024.06 (io_trps.svl 2023.06)
