@<TRIPOS>MOLECULE
NONAME
40 40 1 0 0 
SMALL
USER_CHARGES


@<TRIPOS>ATOM
  1 BR       1.9640    -1.8430    -0.6340 Br    1 <1>  -0.1110 
  2 C        0.3860    -2.8600    -0.2180 C.ar  1 <1>   0.1110 
  3 C       -0.8500    -2.3330    -0.5300 C.ar  1 <1>  -0.1500 
  4 C        0.5270    -4.0940     0.3840 C.ar  1 <1>  -0.1500 
  5 C       -1.9800    -3.0740    -0.2270 C.ar  1 <1>  -0.1500 
  6 C       -0.6160    -4.8200     0.6790 C.ar  1 <1>  -0.1500 
  7 C       -1.8850    -4.3260     0.3780 C.ar  1 <1>  -0.0090 
  8 S       -3.3800    -5.2830     0.7600 S.o2  1 <1>   1.4470 
  9 O       -3.0170    -6.6310     1.1410 O.2   1 <1>  -0.6500 
 10 O       -4.2450    -4.4820     1.5950 O.2   1 <1>  -0.6500 
 11 N       -4.1500    -5.3990    -0.7500 N.am  1 <1>  -0.8490 
 12 C       -5.6210    -5.6600    -0.6160 C.3   1 <1>   0.1960 
 13 C       -3.5030    -6.3380    -1.6740 C.3   1 <1>   0.1160 
 14 P       -6.2950    -7.0940     0.2720 P.3   1 <1>   1.2420 
 15 O       -6.1920    -7.1100     1.7290 O.2   1 <1>  -0.7000 
 16 O       -5.6610    -8.3960    -0.4320 O.3   1 <1>  -0.5510 
 17 O       -7.8230    -7.1500    -0.2180 O.3   1 <1>  -0.5510 
 18 C       -4.8840    -9.2940     0.2870 C.3   1 <1>   0.1200 
 19 C       -8.6440    -8.1680     0.2260 C.3   1 <1>   0.1200 
 20 C       -5.7920   -10.3280     0.9490 C.3   1 <1>  -0.2400 
 21 C      -10.0340    -7.9310    -0.3550 C.3   1 <1>  -0.2400 
 22 H       -0.9260    -1.3660    -0.9970 H     1 <1>   0.1500 
 23 H        1.5060    -4.4760     0.6170 H     1 <1>   0.1500 
 24 H       -2.9550    -2.6790    -0.4610 H     1 <1>   0.1500 
 25 H       -0.5220    -5.7840     1.1510 H     1 <1>   0.1500 
 26 H       -6.0150    -5.6800    -1.6150 H     1 <1>   0.0800 
 27 H       -6.0470    -4.7790    -0.1720 H     1 <1>   0.0800 
 28 H       -2.4830    -6.0400    -1.8450 H     1 <1>   0.0800 
 29 H       -4.0160    -6.3410    -2.6210 H     1 <1>   0.0800 
 30 H       -3.5030    -7.3370    -1.2740 H     1 <1>   0.0800 
 31 H       -4.2980    -8.7630     1.0190 H     1 <1>   0.0800 
 32 H       -4.2210    -9.7800    -0.4080 H     1 <1>   0.0800 
 33 H       -8.6680    -8.1460     1.3030 H     1 <1>   0.0800 
 34 H       -8.2440    -9.1080    -0.1120 H     1 <1>   0.0800 
 35 H       -6.4270    -9.8590     1.6800 H     1 <1>   0.0800 
 36 H       -5.1900   -11.0610     1.4530 H     1 <1>   0.0800 
 37 H       -6.3910   -10.8280     0.2090 H     1 <1>   0.0800 
 38 H      -10.4190    -6.9850    -0.0190 H     1 <1>   0.0800 
 39 H      -10.7000    -8.7080    -0.0270 H     1 <1>   0.0800 
 40 H       -9.9940    -7.9440    -1.4290 H     1 <1>   0.0800 
@<TRIPOS>BOND
  1   1   2  1   
  2   2   3  ar  
  3   2   4  ar  
  4   3   5  ar  
  5   3  22  1   
  6   4   6  ar  
  7   4  23  1   
  8   5   7  ar  
  9   5  24  1   
 10   6   7  ar  
 11   6  25  1   
 12   7   8  1   
 13   8   9  2   
 14   8  10  2   
 15   8  11  am  
 16  11  12  1   
 17  11  13  1   
 18  12  14  1   
 19  12  26  1   
 20  12  27  1   
 21  13  28  1   
 22  13  29  1   
 23  13  30  1   
 24  14  15  2   
 25  14  16  1   
 26  14  17  1   
 27  16  18  1   
 28  17  19  1   
 29  18  20  1   
 30  18  31  1   
 31  18  32  1   
 32  19  21  1   
 33  19  33  1   
 34  19  34  1   
 35  20  35  1   
 36  20  36  1   
 37  20  37  1   
 38  21  38  1   
 39  21  39  1   
 40  21  40  1   
@<TRIPOS>SUBSTRUCTURE
  1 ****   8 GROUP 4 **** **** 0

# MOE 2024.06 (io_trps.svl 2023.06)
