@<TRIPOS>MOLECULE
NONAME
52 54 1 0 0 
SMALL
USER_CHARGES


@<TRIPOS>ATOM
  1 S       -5.9130    -4.9370     0.4150 S.3   1 <1>  -0.0800 
  2 C       -5.4420    -3.2650     0.1430 C.2   1 <1>  -0.1400 
  3 C       -7.4740    -4.6660    -0.3390 C.2   1 <1>  -0.1100 
  4 C       -6.4310    -2.5930    -0.4760 C.2   1 <1>  -0.1500 
  5 C       -4.0670    -2.8440     0.6240 C.3   1 <1>   0.3000 
  6 C       -7.5870    -3.3900    -0.7510 C.2   1 <1>  -0.1500 
  7 O       -3.0950    -3.4730    -0.1830 O.3   1 <1>  -0.3630 
  8 C       -1.7860    -3.5300     0.1860 C.ar  1 <1>   0.0830 
  9 C       -0.9570    -4.5610    -0.2890 C.ar  1 <1>   0.0830 
 10 C       -1.2420    -2.5580     1.0210 C.ar  1 <1>  -0.1500 
 11 O       -1.3180    -5.5910    -1.1070 O.3   1 <1>  -0.3620 
 12 C        0.3770    -4.5820     0.0810 C.ar  1 <1>  -0.1500 
 13 C        0.0940    -2.5960     1.3800 C.ar  1 <1>  -0.1500 
 14 C       -2.6620    -5.9620    -1.3310 C.3   1 <1>   0.0400 
 15 C        0.9140    -3.6080     0.9060 C.ar  1 <1>  -0.1430 
 16 C        2.3810    -3.6530     1.2640 C.3   1 <1>   0.4860 
 17 N        3.1060    -3.0820     0.1110 N.4   1 <1>  -0.9060 
 18 C        4.5740    -3.0300     0.2500 C.3   1 <1>   0.4230 
 19 C        5.0990    -2.0810    -0.8350 C.3   1 <1>  -0.1600 
 20 C        5.1350    -4.4590     0.1740 C.3   1 <1>  -0.1600 
 21 C        6.5480    -1.6470    -0.5700 C.3   1 <1>  -0.1600 
 22 C        6.6690    -4.5590     0.2200 C.3   1 <1>  -0.1600 
 23 C        7.6160    -2.5820    -1.1550 C.3   1 <1>  -0.1600 
 24 C        7.3320    -4.0900    -1.0810 C.3   1 <1>  -0.1600 
 25 H       -8.1480    -5.5020    -0.3950 H     1 <1>   0.1500 
 26 H       -6.4010    -1.5550    -0.7610 H     1 <1>   0.1500 
 27 H       -3.9210    -3.1470     1.6460 H     1 <1>   0.0800 
 28 H       -3.9490    -1.7800     0.5280 H     1 <1>   0.0800 
 29 H       -8.4450    -2.9670    -1.2440 H     1 <1>   0.1500 
 30 H       -1.8450    -1.7510     1.3950 H     1 <1>   0.1500 
 31 H        0.9810    -5.3900    -0.2940 H     1 <1>   0.1500 
 32 H        0.4780    -1.8260     2.0290 H     1 <1>   0.1500 
 33 H       -2.6690    -6.9020    -1.8520 H     1 <1>   0.0800 
 34 H       -3.1390    -5.2100    -1.9340 H     1 <1>   0.0800 
 35 H       -3.1610    -6.0660    -0.3830 H     1 <1>   0.0800 
 36 H        2.6810    -4.6730     1.4390 H     1 <1>   0.0800 
 37 H        2.5660    -3.0740     2.1550 H     1 <1>   0.0800 
 38 H        2.7390    -2.1390    -0.0510 H     1 <1>   0.4500 
 39 H        2.8580    -3.6210    -0.7260 H     1 <1>   0.4500 
 40 H        4.8240    -2.6070     1.2110 H     1 <1>   0.0800 
 41 H        4.5030    -1.1850    -0.8270 H     1 <1>   0.0800 
 42 H        5.0170    -2.5240    -1.8140 H     1 <1>   0.0800 
 43 H        4.7880    -4.9410    -0.7230 H     1 <1>   0.0800 
 44 H        4.7660    -5.0220     1.0130 H     1 <1>   0.0800 
 45 H        6.7100    -1.5400     0.4900 H     1 <1>   0.0800 
 46 H        6.7040    -0.6720    -1.0020 H     1 <1>   0.0800 
 47 H        6.9230    -5.5980     0.3550 H     1 <1>   0.0800 
 48 H        7.0730    -4.0270     1.0650 H     1 <1>   0.0800 
 49 H        8.5450    -2.3810    -0.6480 H     1 <1>   0.0800 
 50 H        7.7720    -2.3270    -2.1900 H     1 <1>   0.0800 
 51 H        6.7330    -4.3870    -1.9250 H     1 <1>   0.0800 
 52 H        8.2760    -4.6000    -1.1870 H     1 <1>   0.0800 
@<TRIPOS>BOND
  1   1   2  1   
  2   1   3  1   
  3   2   4  2   
  4   2   5  1   
  5   3   6  2   
  6   3  25  1   
  7   4   6  1   
  8   4  26  1   
  9   5   7  1   
 10   5  27  1   
 11   5  28  1   
 12   6  29  1   
 13   7   8  1   
 14   8   9  ar  
 15   8  10  ar  
 16   9  11  1   
 17   9  12  ar  
 18  10  13  ar  
 19  10  30  1   
 20  11  14  1   
 21  12  15  ar  
 22  12  31  1   
 23  13  15  ar  
 24  13  32  1   
 25  14  33  1   
 26  14  34  1   
 27  14  35  1   
 28  15  16  1   
 29  16  17  1   
 30  16  36  1   
 31  16  37  1   
 32  17  18  1   
 33  17  38  1   
 34  17  39  1   
 35  18  19  1   
 36  18  20  1   
 37  18  40  1   
 38  19  21  1   
 39  19  41  1   
 40  19  42  1   
 41  20  22  1   
 42  20  43  1   
 43  20  44  1   
 44  21  23  1   
 45  21  45  1   
 46  21  46  1   
 47  22  24  1   
 48  22  47  1   
 49  22  48  1   
 50  23  24  1   
 51  23  49  1   
 52  23  50  1   
 53  24  51  1   
 54  24  52  1   
@<TRIPOS>SUBSTRUCTURE
  1 ****  12 GROUP 4 **** **** 0

# MOE 2024.06 (io_trps.svl 2023.06)
