@<TRIPOS>MOLECULE
NONAME
37 38 1 0 0 
SMALL
USER_CHARGES


@<TRIPOS>ATOM
  1 S       -0.0870     0.0690    -1.0160 S.3   1 <1>  -0.3320 
  2 C       -1.6280     0.8240    -0.4630 C.ar  1 <1>   0.1020 
  3 C        1.2780     1.0220    -0.2160 C.3   1 <1>   0.0700 
  4 C       -2.8010     0.3120    -0.9860 C.ar  1 <1>  -0.1500 
  5 C       -1.6550     1.8700     0.4460 C.ar  1 <1>  -0.1500 
  6 C        2.6040     0.4190    -0.6730 C.3   1 <1>   0.1400 
  7 C       -4.0150     0.8520    -0.6010 C.ar  1 <1>  -0.1500 
  8 C       -2.8750     2.4050     0.8260 C.ar  1 <1>  -0.1500 
  9 N        3.7360     1.1900    -0.1140 N.am  1 <1>  -0.4200 
 10 C       -4.0570     1.9010     0.3050 C.ar  1 <1>  -0.1430 
 11 C        4.1210     1.1720     1.1950 C.2   1 <1>   0.6900 
 12 C        4.5960     1.9720    -0.8270 C.2   1 <1>   0.5690 
 13 C       -5.3910     2.4910     0.7270 C.3   1 <1>  -0.0960 
 14 O        3.5880     0.5210     2.0660 O.2   1 <1>  -0.5700 
 15 N        5.1930     1.9590     1.4050 N.am  1 <1>  -0.7300 
 16 O        4.5380     2.1910    -2.0140 O.2   1 <1>  -0.5700 
 17 C        5.6620     2.5330     0.1380 C.3   1 <1>   0.3610 
 18 C        7.0700     2.0090    -0.1500 C.3   1 <1>  -0.2400 
 19 C        5.6320     4.0590     0.2490 C.3   1 <1>  -0.2400 
 20 H        1.1530     0.9290     0.8490 H     1 <1>   0.0800 
 21 H        1.1810     2.0440    -0.5340 H     1 <1>   0.0800 
 22 H       -2.7600    -0.5020    -1.6880 H     1 <1>   0.1500 
 23 H       -0.7550     2.2740     0.8630 H     1 <1>   0.1500 
 24 H        2.6570     0.4330    -1.7480 H     1 <1>   0.0800 
 25 H        2.6730    -0.6020    -0.3370 H     1 <1>   0.0800 
 26 H       -4.9270     0.4510    -1.0080 H     1 <1>   0.1500 
 27 H       -2.9000     3.2170     1.5320 H     1 <1>   0.1500 
 28 H       -5.7670     1.9630     1.5850 H     1 <1>   0.0800 
 29 H       -6.1070     2.4110    -0.0710 H     1 <1>   0.0800 
 30 H       -5.2810     3.5300     0.9790 H     1 <1>   0.0800 
 31 H        5.7550     1.9160     2.2540 H     1 <1>   0.3700 
 32 H        7.0720     0.9340    -0.1790 H     1 <1>   0.0800 
 33 H        7.7630     2.3470     0.6000 H     1 <1>   0.0800 
 34 H        7.4010     2.3710    -1.1070 H     1 <1>   0.0800 
 35 H        4.6410     4.3970     0.4930 H     1 <1>   0.0800 
 36 H        5.9140     4.4950    -0.6930 H     1 <1>   0.0800 
 37 H        6.3190     4.3980     1.0030 H     1 <1>   0.0800 
@<TRIPOS>BOND
  1   1   2  1   
  2   1   3  1   
  3   2   4  ar  
  4   2   5  ar  
  5   3   6  1   
  6   3  20  1   
  7   3  21  1   
  8   4   7  ar  
  9   4  22  1   
 10   5   8  ar  
 11   5  23  1   
 12   6   9  1   
 13   6  24  1   
 14   6  25  1   
 15   7  10  ar  
 16   7  26  1   
 17   8  10  ar  
 18   8  27  1   
 19   9  11  am  
 20   9  12  am  
 21  10  13  1   
 22  11  14  2   
 23  11  15  am  
 24  12  16  2   
 25  12  17  1   
 26  13  28  1   
 27  13  29  1   
 28  13  30  1   
 29  15  17  1   
 30  15  31  1   
 31  17  18  1   
 32  17  19  1   
 33  18  32  1   
 34  18  33  1   
 35  18  34  1   
 36  19  35  1   
 37  19  36  1   
 38  19  37  1   
@<TRIPOS>SUBSTRUCTURE
  1 ****   3 GROUP 4 **** **** 0

# MOE 2024.06 (io_trps.svl 2023.06)
