@<TRIPOS>MOLECULE
NONAME
48 50 1 0 0 
SMALL
USER_CHARGES


@<TRIPOS>ATOM
  1 CL       0.6870     1.7760     0.2600 Cl    1 <1>  -0.1770 
  2 C        2.1520     1.3770    -0.6010 C.ar  1 <1>   0.1770 
  3 C        3.1930     0.7790     0.0780 C.ar  1 <1>  -0.1500 
  4 C        2.2420     1.6680    -1.9500 C.ar  1 <1>  -0.1500 
  5 C        4.3620     0.4580    -0.5970 C.ar  1 <1>   0.1000 
  6 C        3.4060     1.3500    -2.6300 C.ar  1 <1>  -0.1500 
  7 N        5.4070    -0.1440     0.0920 N.pl3 1 <1>  -0.8380 
  8 C        4.4560     0.7490    -1.9560 C.ar  1 <1>  -0.1500 
  9 C        6.6370     0.6770     0.2870 C.3   1 <1>   0.2090 
 10 C        5.6690    -1.5790    -0.2210 C.3   1 <1>   0.2090 
 11 C        7.5590     0.0360     1.3460 C.3   1 <1>   0.3430 
 12 C        6.5950    -2.2080     0.8410 C.3   1 <1>   0.3430 
 13 N        7.8610    -1.4150     1.0510 N.4   1 <1>  -0.9590 
 14 C        8.7280    -2.0280     2.0790 C.3   1 <1>   0.4810 
 15 C       10.0890    -1.4100     1.9020 C.2   1 <1>  -0.2880 
 16 C       11.0580    -1.9300     1.1300 C.2   1 <1>  -0.1780 
 17 C       12.3730    -1.3800     0.8860 C.ar  1 <1>   0.0280 
 18 C       13.0230    -1.5740    -0.3410 C.ar  1 <1>   0.0830 
 19 C       13.0290    -0.6440     1.8690 C.ar  1 <1>  -0.1500 
 20 O       12.3680    -2.2870    -1.2970 O.3   1 <1>  -0.3630 
 21 C       14.2910    -1.0360    -0.5540 C.ar  1 <1>  -0.1500 
 22 C       14.2850    -0.1110     1.6520 C.ar  1 <1>  -0.1500 
 23 C       12.9720    -2.6150    -2.5310 C.3   1 <1>   0.0400 
 24 C       14.9170    -0.3070     0.4390 C.ar  1 <1>  -0.1500 
 25 H        3.0990     0.5640     1.1250 H     1 <1>   0.1500 
 26 H        1.4150     2.1340    -2.4540 H     1 <1>   0.1500 
 27 H        3.4910     1.5700    -3.6810 H     1 <1>   0.1500 
 28 H        5.3560     0.5050    -2.4890 H     1 <1>   0.1500 
 29 H        7.1640     0.7720    -0.6470 H     1 <1>   0.0800 
 30 H        6.3560     1.6660     0.6090 H     1 <1>   0.0800 
 31 H        4.7340    -2.1120    -0.2420 H     1 <1>   0.0800 
 32 H        6.1190    -1.6610    -1.1960 H     1 <1>   0.0800 
 33 H        7.0690     0.1140     2.3030 H     1 <1>   0.0800 
 34 H        8.4750     0.6000     1.3960 H     1 <1>   0.0800 
 35 H        6.8370    -3.2150     0.5420 H     1 <1>   0.0800 
 36 H        6.0470    -2.2610     1.7670 H     1 <1>   0.0800 
 37 H        8.4090    -1.4380     0.1800 H     1 <1>   0.4500 
 38 H        8.3460    -1.8570     3.0730 H     1 <1>   0.0800 
 39 H        8.7990    -3.0900     1.9090 H     1 <1>   0.0800 
 40 H       10.2150    -0.4900     2.4470 H     1 <1>   0.1500 
 41 H       10.8880    -2.8510     0.5970 H     1 <1>   0.1500 
 42 H       12.5600    -0.4900     2.8230 H     1 <1>   0.1500 
 43 H       14.8080    -1.1700    -1.4850 H     1 <1>   0.1500 
 44 H       14.7760     0.4540     2.4260 H     1 <1>   0.1500 
 45 H       12.2810    -3.2150    -3.0950 H     1 <1>   0.0800 
 46 H       13.8700    -3.1770    -2.3420 H     1 <1>   0.0800 
 47 H       13.1900    -1.7080    -3.0660 H     1 <1>   0.0800 
 48 H       15.8960     0.1070     0.2690 H     1 <1>   0.1500 
@<TRIPOS>BOND
  1   1   2  1   
  2   2   3  ar  
  3   2   4  ar  
  4   3   5  ar  
  5   3  25  1   
  6   4   6  ar  
  7   4  26  1   
  8   5   7  1   
  9   5   8  ar  
 10   6   8  ar  
 11   6  27  1   
 12   7   9  1   
 13   7  10  1   
 14   8  28  1   
 15   9  11  1   
 16   9  29  1   
 17   9  30  1   
 18  10  12  1   
 19  10  31  1   
 20  10  32  1   
 21  11  13  1   
 22  11  33  1   
 23  11  34  1   
 24  12  13  1   
 25  12  35  1   
 26  12  36  1   
 27  13  14  1   
 28  13  37  1   
 29  14  15  1   
 30  14  38  1   
 31  14  39  1   
 32  15  16  2   
 33  15  40  1   
 34  16  17  1   
 35  16  41  1   
 36  17  18  ar  
 37  17  19  ar  
 38  18  20  1   
 39  18  21  ar  
 40  19  22  ar  
 41  19  42  1   
 42  20  23  1   
 43  21  24  ar  
 44  21  43  1   
 45  22  24  ar  
 46  22  44  1   
 47  23  45  1   
 48  23  46  1   
 49  23  47  1   
 50  24  48  1   
@<TRIPOS>SUBSTRUCTURE
  1 ****  13 GROUP 4 **** **** 0

# MOE 2024.06 (io_trps.svl 2023.06)
