@<TRIPOS>MOLECULE
NONAME
59 62 1 0 0 
SMALL
USER_CHARGES


@<TRIPOS>ATOM
  1 O        0.2680    -0.3900    -0.1080 O.2   1 <1>  -0.5700 
  2 C        1.2530    -0.8080     0.4510 C.2   1 <1>   0.4950 
  3 C        2.6020    -0.4540     0.1540 C.2   1 <1>  -0.1240 
  4 C        1.0190    -1.8720     1.5030 C.3   1 <1>  -0.0990 
  5 C        3.6550    -1.2670     0.4950 C.2   1 <1>  -0.0380 
  6 C        2.8610     0.8580    -0.6010 C.3   1 <1>   0.5020 
  7 C        1.9740    -3.0580     1.3030 C.3   1 <1>   0.0000 
  8 N        4.9990    -1.1060     0.1870 N.pl3 1 <1>  -0.6000 
  9 C        3.4250    -2.5370     1.3170 C.3   1 <1>  -0.0220 
 10 N        4.0250     1.5510     0.0090 N.am  1 <1>  -0.4770 
 11 C        1.7910     1.9200    -0.9260 C.ar  1 <1>  -0.1430 
 12 C        1.7740    -4.0750     2.4380 C.3   1 <1>  -0.2400 
 13 C        1.6780    -3.7630    -0.0350 C.3   1 <1>  -0.2400 
 14 C        5.6930    -0.1040    -0.5260 C.ar  1 <1>   0.1000 
 15 C        5.2250     1.2130    -0.6200 C.ar  1 <1>   0.1170 
 16 C        3.9970     1.9760     1.3160 C.2   1 <1>   0.5690 
 17 C        0.8930     2.4200     0.0110 C.ar  1 <1>  -0.1500 
 18 C        1.7440     2.4340    -2.2150 C.ar  1 <1>  -0.1500 
 19 C        6.8920    -0.4280    -1.1450 C.ar  1 <1>  -0.1500 
 20 C        5.9430     2.1610    -1.3340 C.ar  1 <1>  -0.1500 
 21 O        3.0530     1.8310     2.0550 O.2   1 <1>  -0.5700 
 22 C        5.2240     2.6410     1.9000 C.3   1 <1>  -0.1790 
 23 C       -0.0320     3.4120    -0.3090 C.ar  1 <1>   0.0830 
 24 C        0.8240     3.4080    -2.5560 C.ar  1 <1>  -0.1500 
 25 C        7.6090     0.5230    -1.8510 C.ar  1 <1>  -0.1500 
 26 C        7.1340     1.8190    -1.9480 C.ar  1 <1>  -0.1500 
 27 O       -0.8780     3.9270     0.6340 O.3   1 <1>  -0.3630 
 28 C       -0.0720     3.8990    -1.6240 C.ar  1 <1>   0.0830 
 29 C       -0.8120     3.5250     1.9850 C.3   1 <1>   0.0400 
 30 O       -0.9360     4.8460    -2.0890 O.3   1 <1>  -0.3630 
 31 C       -2.2720     4.8670    -1.6400 C.3   1 <1>   0.0400 
 32 H       -0.0030    -2.2060     1.4530 H     1 <1>   0.0800 
 33 H        1.1740    -1.4240     2.4680 H     1 <1>   0.0800 
 34 H        3.1790     0.5120    -1.5690 H     1 <1>   0.0800 
 35 H        5.6160    -1.8590     0.5060 H     1 <1>   0.4000 
 36 H        3.7120    -2.3140     2.3300 H     1 <1>   0.0800 
 37 H        4.0730    -3.3210     0.9670 H     1 <1>   0.0800 
 38 H        1.9560    -3.6200     3.3960 H     1 <1>   0.0800 
 39 H        2.4470    -4.9070     2.3250 H     1 <1>   0.0800 
 40 H        0.7660    -4.4530     2.4320 H     1 <1>   0.0800 
 41 H        1.8490    -3.1090    -0.8720 H     1 <1>   0.0800 
 42 H        0.6520    -4.0880    -0.0710 H     1 <1>   0.0800 
 43 H        2.3070    -4.6270    -0.1560 H     1 <1>   0.0800 
 44 H        0.9230     2.0120     0.9990 H     1 <1>   0.1500 
 45 H        2.4260     2.0820    -2.9680 H     1 <1>   0.1500 
 46 H        7.2690    -1.4330    -1.0820 H     1 <1>   0.1500 
 47 H        5.5650     3.1650    -1.4070 H     1 <1>   0.1500 
 48 H        6.0240     1.9290     1.9720 H     1 <1>   0.0800 
 49 H        5.0030     3.0150     2.8820 H     1 <1>   0.0800 
 50 H        5.5260     3.4620     1.2780 H     1 <1>   0.0800 
 51 H        0.7940     3.7960    -3.5580 H     1 <1>   0.1500 
 52 H        8.5370     0.2540    -2.3270 H     1 <1>   0.1500 
 53 H        7.6900     2.5580    -2.5000 H     1 <1>   0.1500 
 54 H       -1.5350     4.0940     2.5400 H     1 <1>   0.0800 
 55 H        0.1770     3.7220     2.3610 H     1 <1>   0.0800 
 56 H       -1.0440     2.4760     2.0470 H     1 <1>   0.0800 
 57 H       -2.8670     5.3700    -2.3790 H     1 <1>   0.0800 
 58 H       -2.3170     5.4030    -0.7090 H     1 <1>   0.0800 
 59 H       -2.6170     3.8550    -1.5120 H     1 <1>   0.0800 
@<TRIPOS>BOND
  1   1   2  2   
  2   2   3  1   
  3   2   4  1   
  4   3   5  2   
  5   3   6  1   
  6   4   7  1   
  7   4  32  1   
  8   4  33  1   
  9   5   8  1   
 10   5   9  1   
 11   6  10  1   
 12   6  11  1   
 13   6  34  1   
 14   7   9  1   
 15   7  12  1   
 16   7  13  1   
 17   8  14  1   
 18   8  35  1   
 19   9  36  1   
 20   9  37  1   
 21  10  15  1   
 22  10  16  am  
 23  11  17  ar  
 24  11  18  ar  
 25  12  38  1   
 26  12  39  1   
 27  12  40  1   
 28  13  41  1   
 29  13  42  1   
 30  13  43  1   
 31  14  15  ar  
 32  14  19  ar  
 33  15  20  ar  
 34  16  21  2   
 35  16  22  1   
 36  17  23  ar  
 37  17  44  1   
 38  18  24  ar  
 39  18  45  1   
 40  19  25  ar  
 41  19  46  1   
 42  20  26  ar  
 43  20  47  1   
 44  22  48  1   
 45  22  49  1   
 46  22  50  1   
 47  23  27  1   
 48  23  28  ar  
 49  24  28  ar  
 50  24  51  1   
 51  25  26  ar  
 52  25  52  1   
 53  26  53  1   
 54  27  29  1   
 55  28  30  1   
 56  29  54  1   
 57  29  55  1   
 58  29  56  1   
 59  30  31  1   
 60  31  57  1   
 61  31  58  1   
 62  31  59  1   
@<TRIPOS>SUBSTRUCTURE
  1 ****   6 GROUP 4 **** **** 0

# MOE 2024.06 (io_trps.svl 2023.06)
