@<TRIPOS>MOLECULE
NONAME
42 45 1 0 0 
SMALL
USER_CHARGES


@<TRIPOS>ATOM
  1 S       -0.0130     0.6900     0.0930 S.3   1 <1>  -0.3320 
  2 C        1.3530    -0.4510     0.0360 C.ar  1 <1>   0.7220 
  3 C       -1.4950    -0.4180     0.0230 C.3   1 <1>   0.2500 
  4 N        2.5430     0.1100     0.0760 N.ar  1 <1>  -0.6200 
  5 N        1.0280    -1.7300    -0.0400 N.ar  1 <1>  -0.6200 
  6 C       -2.8000     0.3630     0.0620 C.2   1 <1>   0.2980 
  7 C        3.5490    -0.7320     0.0370 C.ar  1 <1>   0.1660 
  8 C        2.0500    -2.5530    -0.0810 C.ar  1 <1>   0.1660 
  9 O       -3.9080    -0.3190     0.0100 O.3   1 <1>  -0.2800 
 10 N       -2.9560     1.6270     0.1400 N.2   1 <1>  -0.3380 
 11 C        3.3590    -2.1020    -0.0360 C.ar  1 <1>  -0.1440 
 12 C        4.9350    -0.1030     0.0940 C.3   1 <1>  -0.0160 
 13 C        1.7010    -4.0280    -0.1790 C.3   1 <1>  -0.0960 
 14 C       -4.7910     0.6520     0.0640 C.2   1 <1>   0.4250 
 15 N       -4.2550     1.8210     0.1420 N.2   1 <1>  -0.3380 
 16 C        4.5450    -3.0680    -0.0760 C.3   1 <1>  -0.0160 
 17 C        6.0570    -1.0690    -0.3040 C.3   1 <1>  -0.1600 
 18 C       -6.2070     0.3450     0.0340 C.ar  1 <1>   0.0530 
 19 C        5.8590    -2.4230     0.3820 C.3   1 <1>  -0.1600 
 20 C       -6.6750    -0.9690    -0.0520 C.ar  1 <1>  -0.1500 
 21 C       -7.1670     1.3590     0.0910 C.ar  1 <1>  -0.1500 
 22 C       -8.0280    -1.2560    -0.0800 C.ar  1 <1>  -0.1500 
 23 C       -8.5210     1.0780     0.0630 C.ar  1 <1>  -0.1500 
 24 C       -8.9550    -0.2320    -0.0230 C.ar  1 <1>  -0.1500 
 25 H       -1.4320    -1.0800     0.8660 H     1 <1>   0.0800 
 26 H       -1.4230    -0.9790    -0.8900 H     1 <1>   0.0800 
 27 H        5.0990     0.2410     1.1000 H     1 <1>   0.0800 
 28 H        4.9610     0.7560    -0.5530 H     1 <1>   0.0800 
 29 H        0.6920    -4.1490    -0.5300 H     1 <1>   0.0800 
 30 H        1.7830    -4.4840     0.7900 H     1 <1>   0.0800 
 31 H        2.3540    -4.5310    -0.8670 H     1 <1>   0.0800 
 32 H        4.6630    -3.4180    -1.0870 H     1 <1>   0.0800 
 33 H        4.3510    -3.9210     0.5500 H     1 <1>   0.0800 
 34 H        7.0080    -0.6490    -0.0270 H     1 <1>   0.0800 
 35 H        6.0500    -1.2040    -1.3720 H     1 <1>   0.0800 
 36 H        6.6820    -3.0760     0.1490 H     1 <1>   0.0800 
 37 H        5.8360    -2.2830     1.4500 H     1 <1>   0.0800 
 38 H       -5.9720    -1.7820    -0.0980 H     1 <1>   0.1500 
 39 H       -6.8460     2.3840     0.1580 H     1 <1>   0.1500 
 40 H       -8.3620    -2.2770    -0.1470 H     1 <1>   0.1500 
 41 H       -9.2380     1.8800     0.1080 H     1 <1>   0.1500 
 42 H      -10.0080    -0.4520    -0.0440 H     1 <1>   0.1500 
@<TRIPOS>BOND
  1   1   2  1   
  2   1   3  1   
  3   2   4  ar  
  4   2   5  ar  
  5   3   6  1   
  6   3  25  1   
  7   3  26  1   
  8   4   7  ar  
  9   5   8  ar  
 10   6   9  1   
 11   6  10  2   
 12   7  11  ar  
 13   7  12  1   
 14   8  11  ar  
 15   8  13  1   
 16   9  14  1   
 17  10  15  1   
 18  11  16  1   
 19  12  17  1   
 20  12  27  1   
 21  12  28  1   
 22  13  29  1   
 23  13  30  1   
 24  13  31  1   
 25  14  15  2   
 26  14  18  1   
 27  16  19  1   
 28  16  32  1   
 29  16  33  1   
 30  17  19  1   
 31  17  34  1   
 32  17  35  1   
 33  18  20  ar  
 34  18  21  ar  
 35  19  36  1   
 36  19  37  1   
 37  20  22  ar  
 38  20  38  1   
 39  21  23  ar  
 40  21  39  1   
 41  22  24  ar  
 42  22  40  1   
 43  23  24  ar  
 44  23  41  1   
 45  24  42  1   
@<TRIPOS>SUBSTRUCTURE
  1 ****   3 GROUP 4 **** **** 0

# MOE 2024.06 (io_trps.svl 2023.06)
