@<TRIPOS>MOLECULE
NONAME
45 46 1 0 0 
SMALL
USER_CHARGES


@<TRIPOS>ATOM
  1 O        1.6310     1.1000     1.3120 O.2   1 <1>  -0.5700 
  2 C        0.8410     1.4490     0.4550 C.2   1 <1>   0.5440 
  3 N        0.9390     0.8770    -0.7810 N.am  1 <1>  -0.7300 
  4 C       -0.1740     2.4500     0.7350 C.ar  1 <1>   0.0860 
  5 C        1.9800    -0.1290    -1.1780 C.3   1 <1>   0.2010 
  6 C       -0.6460     3.3210    -0.2490 C.ar  1 <1>  -0.1500 
  7 C       -0.7180     2.5790     2.0130 C.ar  1 <1>  -0.1500 
  8 C        3.3610     0.4840    -1.4140 C.2   1 <1>   0.5690 
  9 C       -1.6230     4.2600     0.0270 C.ar  1 <1>  -0.1500 
 10 C       -1.6940     3.5170     2.2940 C.ar  1 <1>  -0.1500 
 11 O        3.8870     0.3550    -2.4950 O.2   1 <1>  -0.5700 
 12 N        3.9470     1.1570    -0.3930 N.am  1 <1>  -0.7300 
 13 C       -2.1560     4.3620     1.3000 C.ar  1 <1>  -0.1430 
 14 C        5.2390     1.8550    -0.4250 C.3   1 <1>   0.2200 
 15 C       -3.2280     5.3930     1.6070 C.3   1 <1>  -0.0970 
 16 C        6.1380     1.2120     0.6360 C.3   1 <1>  -0.1600 
 17 C        4.9670     3.3510    -0.2220 C.3   1 <1>  -0.1600 
 18 C        7.5140     1.8760     0.8150 C.3   1 <1>  -0.1600 
 19 C        6.1900     4.2200    -0.5550 C.3   1 <1>  -0.1600 
 20 C        7.4210     3.2310     1.5310 C.3   1 <1>  -0.1600 
 21 C        7.1690     4.4340     0.6100 C.3   1 <1>  -0.1600 
 22 H        0.3120     1.1790    -1.5270 H     1 <1>   0.3700 
 23 H        1.6650    -0.6300    -2.0750 H     1 <1>   0.0800 
 24 H        2.0700    -0.8660    -0.4000 H     1 <1>   0.0800 
 25 H       -0.2400     3.2720    -1.2430 H     1 <1>   0.1500 
 26 H       -0.3650     1.9290     2.7960 H     1 <1>   0.1500 
 27 H       -1.9670     4.9170    -0.7540 H     1 <1>   0.1500 
 28 H       -2.0920     3.5870     3.2920 H     1 <1>   0.1500 
 29 H        3.3980     1.2630     0.4740 H     1 <1>   0.3700 
 30 H        5.6860     1.7090    -1.3950 H     1 <1>   0.0800 
 31 H       -3.8180     5.5960     0.7310 H     1 <1>   0.0800 
 32 H       -2.7680     6.3080     1.9350 H     1 <1>   0.0800 
 33 H       -3.8820     5.0370     2.3810 H     1 <1>   0.0800 
 34 H        6.2990     0.1880     0.3460 H     1 <1>   0.0800 
 35 H        5.6250     1.2030     1.5820 H     1 <1>   0.0800 
 36 H        4.6240     3.5450     0.7790 H     1 <1>   0.0800 
 37 H        4.1800     3.6320    -0.9010 H     1 <1>   0.0800 
 38 H        8.0170     1.9760    -0.1310 H     1 <1>   0.0800 
 39 H        8.1110     1.2200     1.4260 H     1 <1>   0.0800 
 40 H        5.8460     5.1880    -0.8770 H     1 <1>   0.0800 
 41 H        6.7160     3.7880    -1.3900 H     1 <1>   0.0800 
 42 H        8.3460     3.4070     2.0530 H     1 <1>   0.0800 
 43 H        6.6490     3.1870     2.2810 H     1 <1>   0.0800 
 44 H        6.8060     5.2440     1.2200 H     1 <1>   0.0800 
 45 H        8.1090     4.7540     0.1950 H     1 <1>   0.0800 
@<TRIPOS>BOND
  1   1   2  2   
  2   2   3  am  
  3   2   4  1   
  4   3   5  1   
  5   3  22  1   
  6   4   6  ar  
  7   4   7  ar  
  8   5   8  1   
  9   5  23  1   
 10   5  24  1   
 11   6   9  ar  
 12   6  25  1   
 13   7  10  ar  
 14   7  26  1   
 15   8  11  2   
 16   8  12  am  
 17   9  13  ar  
 18   9  27  1   
 19  10  13  ar  
 20  10  28  1   
 21  12  14  1   
 22  12  29  1   
 23  13  15  1   
 24  14  16  1   
 25  14  17  1   
 26  14  30  1   
 27  15  31  1   
 28  15  32  1   
 29  15  33  1   
 30  16  18  1   
 31  16  34  1   
 32  16  35  1   
 33  17  19  1   
 34  17  36  1   
 35  17  37  1   
 36  18  20  1   
 37  18  38  1   
 38  18  39  1   
 39  19  21  1   
 40  19  40  1   
 41  19  41  1   
 42  20  21  1   
 43  20  42  1   
 44  20  43  1   
 45  21  44  1   
 46  21  45  1   
@<TRIPOS>SUBSTRUCTURE
  1 ****   1 GROUP 4 **** **** 0

# MOE 2024.06 (io_trps.svl 2023.06)
