@<TRIPOS>MOLECULE
NONAME
46 48 1 0 0 
SMALL
USER_CHARGES


@<TRIPOS>ATOM
  1 F       -0.8120     1.1250     1.7880 F     1 <1>  -0.1900 
  2 C        0.0720     1.6450     0.9680 C.ar  1 <1>   0.1900 
  3 C       -0.3540     2.4770    -0.0750 C.ar  1 <1>   0.1000 
  4 C        1.4000     1.3350     1.1860 C.ar  1 <1>  -0.1500 
  5 N       -1.6870     2.8190    -0.3360 N.pl3 1 <1>  -0.8380 
  6 C        0.6340     2.9940    -0.9040 C.ar  1 <1>  -0.1500 
  7 C        2.3590     1.8670     0.3390 C.ar  1 <1>  -0.1500 
  8 C       -2.3390     3.7040     0.6790 C.3   1 <1>   0.2090 
  9 C       -2.5780     1.6960    -0.7550 C.3   1 <1>   0.2090 
 10 C        1.9720     2.6960    -0.7030 C.ar  1 <1>  -0.1500 
 11 C       -3.6890     4.2410     0.1710 C.3   1 <1>   0.1400 
 12 C       -3.9240     2.2240    -1.2820 C.3   1 <1>   0.1400 
 13 N       -4.5810     3.1280    -0.2850 N.am  1 <1>  -0.6600 
 14 C       -5.9000     3.0780     0.0860 C.2   1 <1>   0.6900 
 15 O       -6.4210     4.0420     0.6140 O.2   1 <1>  -0.5700 
 16 N       -6.5980     1.9220    -0.1190 N.am  1 <1>  -0.5470 
 17 C       -7.9610     1.6230     0.0150 C.ar  1 <1>   0.1170 
 18 C       -8.9590     2.5860    -0.0730 C.ar  1 <1>  -0.1500 
 19 C       -8.3400     0.3040     0.2230 C.ar  1 <1>  -0.1500 
 20 C      -10.2990     2.2550     0.0470 C.ar  1 <1>  -0.1430 
 21 C       -9.6740    -0.0400     0.3410 C.ar  1 <1>  -0.1500 
 22 C      -10.6620     0.9280     0.2550 C.ar  1 <1>  -0.1430 
 23 C      -11.3420     3.3590    -0.0530 C.3   1 <1>  -0.0970 
 24 C      -12.1200     0.5140     0.3920 C.3   1 <1>  -0.0970 
 25 H        1.6770     0.6920     2.0000 H     1 <1>   0.1500 
 26 H        0.3380     3.6370    -1.7130 H     1 <1>   0.1500 
 27 H        3.4000     1.6390     0.4900 H     1 <1>   0.1500 
 28 H       -1.6880     4.5310     0.9010 H     1 <1>   0.0800 
 29 H       -2.5010     3.1530     1.5890 H     1 <1>   0.0800 
 30 H       -2.7550     1.0440     0.0820 H     1 <1>   0.0800 
 31 H       -2.0890     1.1270    -1.5260 H     1 <1>   0.0800 
 32 H        2.7170     3.1100    -1.3610 H     1 <1>   0.1500 
 33 H       -3.5140     4.9120    -0.6510 H     1 <1>   0.0800 
 34 H       -4.1590     4.8010     0.9610 H     1 <1>   0.0800 
 35 H       -4.5590     1.3950    -1.5330 H     1 <1>   0.0800 
 36 H       -3.7430     2.7800    -2.1850 H     1 <1>   0.0800 
 37 H       -5.9950     1.1270    -0.2790 H     1 <1>   0.3700 
 38 H       -8.6790     3.6100    -0.2380 H     1 <1>   0.1500 
 39 H       -7.5910    -0.4620     0.2960 H     1 <1>   0.1500 
 40 H       -9.9390    -1.0690     0.5040 H     1 <1>   0.1500 
 41 H      -10.8770     4.3160    -0.2030 H     1 <1>   0.0800 
 42 H      -11.9190     3.4030     0.8530 H     1 <1>   0.0800 
 43 H      -12.0000     3.1700    -0.8820 H     1 <1>   0.0800 
 44 H      -12.5640     1.0110     1.2360 H     1 <1>   0.0800 
 45 H      -12.2080    -0.5470     0.5400 H     1 <1>   0.0800 
 46 H      -12.6630     0.7780    -0.4970 H     1 <1>   0.0800 
@<TRIPOS>BOND
  1   1   2  1   
  2   2   3  ar  
  3   2   4  ar  
  4   3   5  1   
  5   3   6  ar  
  6   4   7  ar  
  7   4  25  1   
  8   5   8  1   
  9   5   9  1   
 10   6  10  ar  
 11   6  26  1   
 12   7  10  ar  
 13   7  27  1   
 14   8  11  1   
 15   8  28  1   
 16   8  29  1   
 17   9  12  1   
 18   9  30  1   
 19   9  31  1   
 20  10  32  1   
 21  11  13  1   
 22  11  33  1   
 23  11  34  1   
 24  12  13  1   
 25  12  35  1   
 26  12  36  1   
 27  13  14  am  
 28  14  15  2   
 29  14  16  am  
 30  16  17  1   
 31  16  37  1   
 32  17  18  ar  
 33  17  19  ar  
 34  18  20  ar  
 35  18  38  1   
 36  19  21  ar  
 37  19  39  1   
 38  20  22  ar  
 39  20  23  1   
 40  21  22  ar  
 41  21  40  1   
 42  22  24  1   
 43  23  41  1   
 44  23  42  1   
 45  23  43  1   
 46  24  44  1   
 47  24  45  1   
 48  24  46  1   
@<TRIPOS>SUBSTRUCTURE
  1 ****  13 GROUP 4 **** **** 0

# MOE 2024.06 (io_trps.svl 2023.06)
