@<TRIPOS>MOLECULE
NONAME
59 62 1 0 0 
SMALL
USER_CHARGES


@<TRIPOS>ATOM
  1 BR       0.0780     1.5620     1.4770 Br    1 <1>  -0.1110 
  2 C        1.7550     0.9980     0.7230 C.ar  1 <1>   0.1110 
  3 C        2.5080     0.0590     1.4000 C.ar  1 <1>  -0.1500 
  4 C        2.1640     1.5450    -0.4770 C.ar  1 <1>  -0.1500 
  5 C        3.7160    -0.3420     0.8550 C.ar  1 <1>  -0.1500 
  6 C        3.3730     1.1380    -1.0140 C.ar  1 <1>  -0.1500 
  7 C        4.1560     0.2000    -0.3490 C.ar  1 <1>  -0.1430 
  8 C        5.4880    -0.2290    -0.9350 C.3   1 <1>   0.4870 
  9 N        6.5800     0.4120    -0.1530 N.4   1 <1>  -0.9590 
 10 C        6.5440     1.9060    -0.2720 C.3   1 <1>   0.3430 
 11 C        7.9260    -0.1060    -0.5520 C.3   1 <1>   0.3430 
 12 C        7.6930     2.5730     0.5140 C.3   1 <1>   0.1100 
 13 C        9.0630     0.5780     0.2370 C.3   1 <1>   0.1100 
 14 N        9.0400     2.0650     0.1210 N.3   1 <1>  -0.8100 
 15 C       10.1570     2.7450     0.8380 C.3   1 <1>   0.1900 
 16 C       10.1330     4.2570     0.5380 C.3   1 <1>  -0.1600 
 17 C       11.5170     2.1660     0.3990 C.3   1 <1>  -0.1600 
 18 C       11.3600     4.9990     1.0630 C.3   1 <1>   0.3430 
 19 C       12.7100     2.9570     0.9300 C.3   1 <1>   0.3430 
 20 N       12.5910     4.3800     0.5200 N.4   1 <1>  -0.9590 
 21 C       13.8070     5.1610     0.8840 C.3   1 <1>   0.4860 
 22 C       14.9900     4.5950     0.1250 C.ar  1 <1>  -0.1430 
 23 C       15.9450     3.8360     0.7880 C.ar  1 <1>  -0.1500 
 24 C       15.1260     4.8240    -1.2370 C.ar  1 <1>  -0.1500 
 25 C       17.0160     3.3020     0.0930 C.ar  1 <1>  -0.1500 
 26 C       16.1970     4.2880    -1.9300 C.ar  1 <1>  -0.1500 
 27 C       17.1410     3.5260    -1.2660 C.ar  1 <1>  -0.1500 
 28 H        2.1480    -0.3480     2.3300 H     1 <1>   0.1500 
 29 H        1.5430     2.2690    -0.9770 H     1 <1>   0.1500 
 30 H        4.2970    -1.0820     1.3790 H     1 <1>   0.1500 
 31 H        3.6880     1.5600    -1.9550 H     1 <1>   0.1500 
 32 H        5.5470     0.0640    -1.9710 H     1 <1>   0.0800 
 33 H        5.5700    -1.3020    -0.8790 H     1 <1>   0.0800 
 34 H        6.4140     0.1840     0.8340 H     1 <1>   0.4500 
 35 H        5.6020     2.2800     0.0980 H     1 <1>   0.0800 
 36 H        6.6290     2.1910    -1.3070 H     1 <1>   0.0800 
 37 H        8.0880     0.0740    -1.6020 H     1 <1>   0.0800 
 38 H        7.9740    -1.1710    -0.3870 H     1 <1>   0.0800 
 39 H        7.5370     2.4270     1.5690 H     1 <1>   0.0800 
 40 H        7.6200     3.6260     0.3130 H     1 <1>   0.0800 
 41 H        9.9810     0.1910    -0.1660 H     1 <1>   0.0800 
 42 H        9.0070     0.2890     1.2740 H     1 <1>   0.0800 
 43 H       10.0410     2.5950     1.9000 H     1 <1>   0.0800 
 44 H        9.2830     4.7140     1.0090 H     1 <1>   0.0800 
 45 H       10.0550     4.4160    -0.5230 H     1 <1>   0.0800 
 46 H       11.5720     2.1340    -0.6750 H     1 <1>   0.0800 
 47 H       11.6300     1.1660     0.7740 H     1 <1>   0.0800 
 48 H       11.3750     4.9580     2.1410 H     1 <1>   0.0800 
 49 H       11.3050     6.0350     0.7650 H     1 <1>   0.0800 
 50 H       13.6200     2.5320     0.5330 H     1 <1>   0.0800 
 51 H       12.7470     2.8860     2.0050 H     1 <1>   0.0800 
 52 H       12.5460     4.3900    -0.5070 H     1 <1>   0.4500 
 53 H       13.9870     5.1040     1.9450 H     1 <1>   0.0800 
 54 H       13.6790     6.1970     0.6140 H     1 <1>   0.0800 
 55 H       15.8750     3.6520     1.8470 H     1 <1>   0.1500 
 56 H       14.4110     5.4220    -1.7770 H     1 <1>   0.1500 
 57 H       17.7570     2.7120     0.6060 H     1 <1>   0.1500 
 58 H       16.3020     4.4660    -2.9870 H     1 <1>   0.1500 
 59 H       17.9750     3.1110    -1.8070 H     1 <1>   0.1500 
@<TRIPOS>BOND
  1   1   2  1   
  2   2   3  ar  
  3   2   4  ar  
  4   3   5  ar  
  5   3  28  1   
  6   4   6  ar  
  7   4  29  1   
  8   5   7  ar  
  9   5  30  1   
 10   6   7  ar  
 11   6  31  1   
 12   7   8  1   
 13   8   9  1   
 14   8  32  1   
 15   8  33  1   
 16   9  10  1   
 17   9  11  1   
 18   9  34  1   
 19  10  12  1   
 20  10  35  1   
 21  10  36  1   
 22  11  13  1   
 23  11  37  1   
 24  11  38  1   
 25  12  14  1   
 26  12  39  1   
 27  12  40  1   
 28  13  14  1   
 29  13  41  1   
 30  13  42  1   
 31  14  15  1   
 32  15  16  1   
 33  15  17  1   
 34  15  43  1   
 35  16  18  1   
 36  16  44  1   
 37  16  45  1   
 38  17  19  1   
 39  17  46  1   
 40  17  47  1   
 41  18  20  1   
 42  18  48  1   
 43  18  49  1   
 44  19  20  1   
 45  19  50  1   
 46  19  51  1   
 47  20  21  1   
 48  20  52  1   
 49  21  22  1   
 50  21  53  1   
 51  21  54  1   
 52  22  23  ar  
 53  22  24  ar  
 54  23  25  ar  
 55  23  55  1   
 56  24  26  ar  
 57  24  56  1   
 58  25  27  ar  
 59  25  57  1   
 60  26  27  ar  
 61  26  58  1   
 62  27  59  1   
@<TRIPOS>SUBSTRUCTURE
  1 ****  14 GROUP 4 **** **** 0

# MOE 2024.06 (io_trps.svl 2023.06)
