@<TRIPOS>MOLECULE
NONAME
40 41 1 0 0 
SMALL
USER_CHARGES


@<TRIPOS>ATOM
  1 S        0.0020    -0.2080    -0.1140 S.o2  1 <1>   1.3330 
  2 O        0.4430    -0.7560     1.1490 O.2   1 <1>  -0.6500 
  3 O        0.3370    -0.8820    -1.3480 O.2   1 <1>  -0.6500 
  4 N       -1.6860    -0.0750    -0.0440 N.am  1 <1>  -0.8490 
  5 C        0.5340     1.5060    -0.2480 C.3   1 <1>  -0.0550 
  6 C       -2.3370    -1.2750    -0.5940 C.3   1 <1>   0.1960 
  7 C       -2.1840     0.2150     1.3030 C.3   1 <1>   0.1960 
  8 C        2.0590     1.6930    -0.3370 C.3   1 <1>  -0.2400 
  9 C       -3.8520    -1.3090    -0.3210 C.3   1 <1>  -0.1600 
 10 C       -3.6520     0.6610     1.2350 C.3   1 <1>  -0.1600 
 11 C       -4.4100     0.0840     0.0190 C.3   1 <1>  -0.0190 
 12 C       -5.9200     0.0650     0.2480 C.2   1 <1>   0.5690 
 13 O       -6.3740    -0.6950     1.0680 O.2   1 <1>  -0.5700 
 14 N       -6.6840     0.9280    -0.4890 N.am  1 <1>  -0.5470 
 15 C       -8.0730     1.1780    -0.5290 C.ar  1 <1>   0.1170 
 16 C       -8.5520     2.2360    -1.3070 C.ar  1 <1>   0.1900 
 17 C       -9.0190     0.4210     0.1650 C.ar  1 <1>  -0.1500 
 18 F       -7.6910     2.9640    -1.9760 F     1 <1>  -0.1900 
 19 C       -9.8900     2.5610    -1.4130 C.ar  1 <1>  -0.1500 
 20 C      -10.3710     0.7190     0.0810 C.ar  1 <1>  -0.1500 
 21 C      -10.7810     1.7820    -0.7040 C.ar  1 <1>   0.1900 
 22 F      -12.0560     2.0580    -0.7780 F     1 <1>  -0.1900 
 23 H        0.1740     2.0510     0.6020 H     1 <1>   0.0800 
 24 H        0.0850     1.9350    -1.1230 H     1 <1>   0.0800 
 25 H       -1.8830    -2.1620    -0.1800 H     1 <1>   0.0800 
 26 H       -2.1720    -1.2920    -1.6590 H     1 <1>   0.0800 
 27 H       -1.5980     0.9910     1.7650 H     1 <1>   0.0800 
 28 H       -2.0950    -0.6710     1.9130 H     1 <1>   0.0800 
 29 H        2.5340     1.2910     0.5410 H     1 <1>   0.0800 
 30 H        2.3030     2.7380    -0.4180 H     1 <1>   0.0800 
 31 H        2.4450     1.1790    -1.2010 H     1 <1>   0.0800 
 32 H       -4.0390    -1.9750     0.5030 H     1 <1>   0.0800 
 33 H       -4.3580    -1.7160    -1.1780 H     1 <1>   0.0800 
 34 H       -3.6970     1.7340     1.2010 H     1 <1>   0.0800 
 35 H       -4.1320     0.3520     2.1480 H     1 <1>   0.0800 
 36 H       -4.2030     0.7180    -0.8250 H     1 <1>   0.0800 
 37 H       -6.1560     1.5340    -1.1170 H     1 <1>   0.3700 
 38 H       -8.7140    -0.4090     0.7760 H     1 <1>   0.1500 
 39 H      -10.2250     3.3820    -2.0190 H     1 <1>   0.1500 
 40 H      -11.0990     0.1360     0.6180 H     1 <1>   0.1500 
@<TRIPOS>BOND
  1   1   2  2   
  2   1   3  2   
  3   1   4  am  
  4   1   5  1   
  5   4   6  1   
  6   4   7  1   
  7   5   8  1   
  8   5  23  1   
  9   5  24  1   
 10   6   9  1   
 11   6  25  1   
 12   6  26  1   
 13   7  10  1   
 14   7  27  1   
 15   7  28  1   
 16   8  29  1   
 17   8  30  1   
 18   8  31  1   
 19   9  11  1   
 20   9  32  1   
 21   9  33  1   
 22  10  11  1   
 23  10  34  1   
 24  10  35  1   
 25  11  12  1   
 26  11  36  1   
 27  12  13  2   
 28  12  14  am  
 29  14  15  1   
 30  14  37  1   
 31  15  16  ar  
 32  15  17  ar  
 33  16  18  1   
 34  16  19  ar  
 35  17  20  ar  
 36  17  38  1   
 37  19  21  ar  
 38  19  39  1   
 39  20  21  ar  
 40  20  40  1   
 41  21  22  1   
@<TRIPOS>SUBSTRUCTURE
  1 ****  11 GROUP 4 **** **** 0

# MOE 2024.06 (io_trps.svl 2023.06)
