@<TRIPOS>MOLECULE
NONAME
44 48 1 0 0 
SMALL
USER_CHARGES


@<TRIPOS>ATOM
  1 S       -0.4130    -0.9460     0.3760 S.3   1 <1>  -0.0800 
  2 C        1.0260     0.0500     0.3620 C.2   1 <1>  -0.0360 
  3 C       -1.4020     0.4780     0.0980 C.2   1 <1>  -0.1400 
  4 N        2.3090    -0.4430     0.5330 N.pl3 1 <1>   0.3790 
  5 C        0.7590     1.3660     0.1630 C.2   1 <1>  -0.0860 
  6 C       -0.6580     1.5940     0.0230 C.2   1 <1>  -0.1810 
  7 C       -2.9050     0.3530    -0.0250 C.3   1 <1>   0.0200 
  8 C        3.3550     0.4090     0.5010 C.2   1 <1>   0.2500 
  9 C        2.8980    -1.6300     0.7330 C.2   1 <1>   0.0360 
 10 C        1.8650     2.3000     0.1150 C.2   1 <1>   0.7160 
 11 C       -1.2980     2.9570    -0.1990 C.3   1 <1>   0.0210 
 12 C       -3.4750     1.6590    -0.6160 C.3   1 <1>  -0.0800 
 13 N        4.4750    -0.2240     0.6730 N.2   1 <1>  -0.3380 
 14 N        3.1620     1.8020     0.3000 N.am  1 <1>  -0.2410 
 15 N        4.1770    -1.5230     0.8180 N.2   1 <1>  -0.3380 
 16 O        1.6780     3.4880    -0.0840 O.2   1 <1>  -0.5700 
 17 C       -2.8230     2.9010     0.0300 C.3   1 <1>  -0.1600 
 18 C       -5.0010     1.7050    -0.4610 C.3   1 <1>  -0.2400 
 19 C        4.2810     2.6640     0.2880 C.ar  1 <1>   0.1170 
 20 C        5.2660     2.5350    -0.6860 C.ar  1 <1>  -0.1500 
 21 C        4.4260     3.6570     1.2520 C.ar  1 <1>  -0.1500 
 22 C        6.3670     3.3730    -0.7020 C.ar  1 <1>  -0.1500 
 23 C        5.5240     4.4970     1.2400 C.ar  1 <1>  -0.1500 
 24 C        6.5010     4.3640     0.2670 C.ar  1 <1>   0.0820 
 25 O        7.5480     5.2280     0.3290 O.3   1 <1>  -0.3630 
 26 C        8.6080     5.1520    -0.5980 C.3   1 <1>   0.0400 
 27 H       -3.3160     0.1700     0.9520 H     1 <1>   0.0800 
 28 H       -3.1550    -0.4760    -0.6630 H     1 <1>   0.0800 
 29 H        2.3380    -2.5440     0.8090 H     1 <1>   0.1500 
 30 H       -1.0910     3.2770    -1.2050 H     1 <1>   0.0800 
 31 H       -0.8710     3.6800     0.4740 H     1 <1>   0.0800 
 32 H       -3.2430     1.6750    -1.6680 H     1 <1>   0.0800 
 33 H       -3.2660     3.7990    -0.3650 H     1 <1>   0.0800 
 34 H       -3.0110     2.8810     1.0890 H     1 <1>   0.0800 
 35 H       -5.2780     1.7090     0.5780 H     1 <1>   0.0800 
 36 H       -5.4500     0.8500    -0.9350 H     1 <1>   0.0800 
 37 H       -5.3950     2.5920    -0.9240 H     1 <1>   0.0800 
 38 H        5.1710     1.7680    -1.4340 H     1 <1>   0.1500 
 39 H        3.6740     3.7750     2.0110 H     1 <1>   0.1500 
 40 H        7.1050     3.2390    -1.4690 H     1 <1>   0.1500 
 41 H        5.6310     5.2650     1.9850 H     1 <1>   0.1500 
 42 H        9.3210     5.9180    -0.3530 H     1 <1>   0.0800 
 43 H        8.2190     5.3180    -1.5870 H     1 <1>   0.0800 
 44 H        9.0700     4.1840    -0.5210 H     1 <1>   0.0800 
@<TRIPOS>BOND
  1   1   2  1   
  2   1   3  1   
  3   2   4  1   
  4   2   5  2   
  5   3   6  2   
  6   3   7  1   
  7   4   8  1   
  8   4   9  1   
  9   5   6  1   
 10   5  10  1   
 11   6  11  1   
 12   7  12  1   
 13   7  27  1   
 14   7  28  1   
 15   8  13  2   
 16   8  14  1   
 17   9  15  2   
 18   9  29  1   
 19  10  14  am  
 20  10  16  2   
 21  11  17  1   
 22  11  30  1   
 23  11  31  1   
 24  12  17  1   
 25  12  18  1   
 26  12  32  1   
 27  13  15  1   
 28  14  19  1   
 29  17  33  1   
 30  17  34  1   
 31  18  35  1   
 32  18  36  1   
 33  18  37  1   
 34  19  20  ar  
 35  19  21  ar  
 36  20  22  ar  
 37  20  38  1   
 38  21  23  ar  
 39  21  39  1   
 40  22  24  ar  
 41  22  40  1   
 42  23  24  ar  
 43  23  41  1   
 44  24  25  1   
 45  25  26  1   
 46  26  42  1   
 47  26  43  1   
 48  26  44  1   
@<TRIPOS>SUBSTRUCTURE
  1 ****  10 GROUP 4 **** **** 0

# MOE 2024.06 (io_trps.svl 2023.06)
