@<TRIPOS>MOLECULE
NONAME
33 33 1 0 0 
SMALL
USER_CHARGES


@<TRIPOS>ATOM
  1 S       -0.0850     0.1100     0.1600 S.o2  1 <1>   1.3330 
  2 O       -0.1860     0.4370     1.5630 O.2   1 <1>  -0.6500 
  3 O        1.0470    -0.6470    -0.3230 O.2   1 <1>  -0.6500 
  4 N       -1.4980    -0.7090    -0.2900 N.am  1 <1>  -0.8490 
  5 C       -0.1690     1.6080    -0.7980 C.3   1 <1>  -0.1350 
  6 C       -2.6950    -0.1690     0.3790 C.3   1 <1>   0.1960 
  7 C       -1.3760    -2.1480    -0.0300 C.3   1 <1>   0.1960 
  8 C       -3.9650    -0.8190    -0.1900 C.3   1 <1>  -0.0190 
  9 C       -2.5980    -2.8970    -0.5760 C.3   1 <1>  -0.1600 
 10 C       -5.2150    -0.2260     0.4430 C.2   1 <1>   0.5690 
 11 C       -3.9090    -2.3450    -0.0010 C.3   1 <1>  -0.1600 
 12 O       -5.1550     0.2680     1.5430 O.2   1 <1>  -0.5700 
 13 N       -6.3770    -0.2760    -0.2600 N.am  1 <1>  -0.7300 
 14 C       -7.6800     0.2220     0.2200 C.3   1 <1>   0.1400 
 15 C       -8.7200    -0.8730     0.0190 C.3   1 <1>  -0.2400 
 16 H        0.7100     2.1970    -0.6300 H     1 <1>   0.0800 
 17 H       -1.0270     2.1860    -0.5190 H     1 <1>   0.0800 
 18 H       -0.2310     1.3720    -1.8420 H     1 <1>   0.0800 
 19 H       -2.7530     0.8950     0.2280 H     1 <1>   0.0800 
 20 H       -2.6370    -0.3490     1.4410 H     1 <1>   0.0800 
 21 H       -1.2770    -2.3200     1.0300 H     1 <1>   0.0800 
 22 H       -0.4950    -2.5350    -0.5150 H     1 <1>   0.0800 
 23 H       -3.9970    -0.5970    -1.2410 H     1 <1>   0.0800 
 24 H       -2.5090    -3.9420    -0.3350 H     1 <1>   0.0800 
 25 H       -2.6030    -2.8080    -1.6480 H     1 <1>   0.0800 
 26 H       -4.7490    -2.8120    -0.4860 H     1 <1>   0.0800 
 27 H       -3.9620    -2.5730     1.0510 H     1 <1>   0.0800 
 28 H       -6.3900    -0.7080    -1.1840 H     1 <1>   0.3700 
 29 H       -7.9540     1.1030    -0.3360 H     1 <1>   0.0800 
 30 H       -7.6170     0.4820     1.2640 H     1 <1>   0.0800 
 31 H       -8.8150    -1.1210    -1.0230 H     1 <1>   0.0800 
 32 H       -9.6750    -0.5310     0.3740 H     1 <1>   0.0800 
 33 H       -8.4470    -1.7510     0.5770 H     1 <1>   0.0800 
@<TRIPOS>BOND
  1   1   2  2   
  2   1   3  2   
  3   1   4  am  
  4   1   5  1   
  5   4   6  1   
  6   4   7  1   
  7   5  16  1   
  8   5  17  1   
  9   5  18  1   
 10   6   8  1   
 11   6  19  1   
 12   6  20  1   
 13   7   9  1   
 14   7  21  1   
 15   7  22  1   
 16   8  10  1   
 17   8  11  1   
 18   8  23  1   
 19   9  11  1   
 20   9  24  1   
 21   9  25  1   
 22  10  12  2   
 23  10  13  am  
 24  11  26  1   
 25  11  27  1   
 26  13  14  1   
 27  13  28  1   
 28  14  15  1   
 29  14  29  1   
 30  14  30  1   
 31  15  31  1   
 32  15  32  1   
 33  15  33  1   
@<TRIPOS>SUBSTRUCTURE
  1 ****   6 GROUP 4 **** **** 0

# MOE 2024.06 (io_trps.svl 2023.06)
