@<TRIPOS>MOLECULE
NONAME
43 45 1 0 0 
SMALL
USER_CHARGES


@<TRIPOS>ATOM
  1 I        2.5730    -0.9440    -3.7120 I     1 <1>  -0.0810 
  2 C        2.6000    -1.9070    -1.8140 C.ar  1 <1>   0.0810 
  3 C        3.7770    -1.9320    -1.1000 C.ar  1 <1>  -0.1500 
  4 C        1.4340    -2.4810    -1.3440 C.ar  1 <1>  -0.1500 
  5 C        3.8220    -2.5710     0.1390 C.ar  1 <1>   0.0860 
  6 C        1.4670    -3.1020    -0.1110 C.ar  1 <1>  -0.1500 
  7 C        2.6460    -3.1650     0.6340 C.ar  1 <1>   0.1170 
  8 C        5.0540    -2.6120     0.8960 C.2   1 <1>   0.5440 
  9 N        2.6570    -3.7910     1.8860 N.am  1 <1>  -0.5470 
 10 O        5.0490    -2.1920     2.0410 O.2   1 <1>  -0.5700 
 11 N        6.2270    -3.1200     0.3690 N.am  1 <1>  -0.6600 
 12 C        1.9860    -4.8720     2.3900 C.2   1 <1>   0.7150 
 13 C        7.5340    -2.9030     1.0520 C.3   1 <1>   0.1400 
 14 C        6.2670    -4.0150    -0.8180 C.3   1 <1>   0.1400 
 15 O        1.9880    -4.9790     3.6000 O.2   1 <1>  -0.5700 
 16 C        1.3460    -5.8540     1.5380 C.2   1 <1>   0.0550 
 17 C        8.2850    -1.7660     0.3530 C.3   1 <1>  -0.1600 
 18 C        7.0780    -3.4030    -1.9680 C.3   1 <1>  -0.1600 
 19 O        0.2900    -6.5430     1.9630 O.3   1 <1>  -0.2800 
 20 C        1.6330    -6.2630     0.2680 C.2   1 <1>  -0.1500 
 21 C        9.0870    -2.1640    -0.9000 C.3   1 <1>  -0.1600 
 22 C        8.5900    -3.3820    -1.6970 C.3   1 <1>  -0.1600 
 23 C       -0.0990    -7.3630     1.0140 C.2   1 <1>  -0.0100 
 24 C        0.6950    -7.2380    -0.0700 C.2   1 <1>  -0.1500 
 25 H        4.6610    -1.4570    -1.4880 H     1 <1>   0.1500 
 26 H        0.5270    -2.4380    -1.9220 H     1 <1>   0.1500 
 27 H        0.5630    -3.5360     0.2800 H     1 <1>   0.1500 
 28 H        3.2840    -3.3650     2.5820 H     1 <1>   0.3700 
 29 H        8.1160    -3.8080     1.0510 H     1 <1>   0.0800 
 30 H        7.3690    -2.6290     2.0800 H     1 <1>   0.0800 
 31 H        5.2690    -4.2200    -1.1630 H     1 <1>   0.0800 
 32 H        6.7000    -4.9580    -0.5300 H     1 <1>   0.0800 
 33 H        8.9710    -1.3330     1.0600 H     1 <1>   0.0800 
 34 H        7.5780    -0.9950     0.1020 H     1 <1>   0.0800 
 35 H        6.7200    -2.4160    -2.2020 H     1 <1>   0.0800 
 36 H        6.9090    -4.0160    -2.8350 H     1 <1>   0.0800 
 37 H        2.4260    -5.9190    -0.3710 H     1 <1>   0.1500 
 38 H       10.1020    -2.3660    -0.6040 H     1 <1>   0.0800 
 39 H        9.1210    -1.3120    -1.5570 H     1 <1>   0.0800 
 40 H        9.1050    -3.3830    -2.6430 H     1 <1>   0.0800 
 41 H        8.8770    -4.2880    -1.1900 H     1 <1>   0.0800 
 42 H       -0.9470    -8.0010     1.1920 H     1 <1>   0.1500 
 43 H        0.6390    -7.7670    -1.0050 H     1 <1>   0.1500 
@<TRIPOS>BOND
  1   1   2  1   
  2   2   3  ar  
  3   2   4  ar  
  4   3   5  ar  
  5   3  25  1   
  6   4   6  ar  
  7   4  26  1   
  8   5   7  ar  
  9   5   8  1   
 10   6   7  ar  
 11   6  27  1   
 12   7   9  1   
 13   8  10  2   
 14   8  11  am  
 15   9  12  am  
 16   9  28  1   
 17  11  13  1   
 18  11  14  1   
 19  12  15  2   
 20  12  16  1   
 21  13  17  1   
 22  13  29  1   
 23  13  30  1   
 24  14  18  1   
 25  14  31  1   
 26  14  32  1   
 27  16  19  1   
 28  16  20  2   
 29  17  21  1   
 30  17  33  1   
 31  17  34  1   
 32  18  22  1   
 33  18  35  1   
 34  18  36  1   
 35  19  23  1   
 36  20  24  1   
 37  20  37  1   
 38  21  22  1   
 39  21  38  1   
 40  21  39  1   
 41  22  40  1   
 42  22  41  1   
 43  23  24  2   
 44  23  42  1   
 45  24  43  1   
@<TRIPOS>SUBSTRUCTURE
  1 ****   5 GROUP 4 **** **** 0

# MOE 2024.06 (io_trps.svl 2023.06)
