@<TRIPOS>MOLECULE
NONAME
44 44 1 0 0 
SMALL
USER_CHARGES


@<TRIPOS>ATOM
  1 CL       0.5590     0.1700    -0.4510 Cl    1 <1>  -0.1770 
  2 C        0.4310    -1.5710    -0.3040 C.ar  1 <1>   0.1770 
  3 C        1.5780    -2.3530    -0.2120 C.ar  1 <1>   0.0820 
  4 C       -0.8290    -2.1360    -0.2830 C.ar  1 <1>  -0.1500 
  5 O        2.7860    -1.7270    -0.2410 O.3   1 <1>  -0.3630 
  6 C        1.4330    -3.7340    -0.0960 C.ar  1 <1>  -0.1500 
  7 C       -0.9570    -3.5100    -0.1670 C.ar  1 <1>  -0.1500 
  8 C        3.9960    -2.4450    -0.1590 C.3   1 <1>   0.1200 
  9 C        0.1720    -4.3100    -0.0720 C.ar  1 <1>  -0.1440 
 10 C        5.1400    -1.4370    -0.2250 C.3   1 <1>   0.1200 
 11 C        0.0270    -5.8170     0.0530 C.3   1 <1>  -0.0960 
 12 O        6.3540    -2.1250    -0.1470 O.3   1 <1>  -0.5600 
 13 C        7.4740    -1.3070    -0.1970 C.3   1 <1>   0.1200 
 14 C        8.7040    -2.2140    -0.1020 C.3   1 <1>   0.3430 
 15 N        9.9790    -1.4280    -0.1460 N.4   1 <1>  -0.9060 
 16 C       11.2210    -2.2020    -0.0620 C.3   1 <1>   0.5030 
 17 C       12.3590    -1.1890    -0.1270 C.3   1 <1>  -0.2400 
 18 C       11.2730    -2.9560     1.2660 C.3   1 <1>  -0.2400 
 19 C       11.3140    -3.1640    -1.2460 C.3   1 <1>  -0.2400 
 20 H       -1.6970    -1.5060    -0.3560 H     1 <1>   0.1500 
 21 H        2.2910    -4.3750    -0.0240 H     1 <1>   0.1500 
 22 H       -1.9390    -3.9510    -0.1520 H     1 <1>   0.1500 
 23 H        4.0440    -3.1250    -0.9920 H     1 <1>   0.0800 
 24 H        4.0130    -2.9750     0.7760 H     1 <1>   0.0800 
 25 H        5.0720    -0.7540     0.6040 H     1 <1>   0.0800 
 26 H        5.1010    -0.9020    -1.1580 H     1 <1>   0.0800 
 27 H        0.8080    -6.2200     0.6720 H     1 <1>   0.0800 
 28 H        0.0850    -6.2700    -0.9200 H     1 <1>   0.0800 
 29 H       -0.9190    -6.0700     0.4980 H     1 <1>   0.0800 
 30 H        7.4320    -0.6250     0.6340 H     1 <1>   0.0800 
 31 H        7.4600    -0.7720    -1.1320 H     1 <1>   0.0800 
 32 H        8.6760    -2.9130    -0.9220 H     1 <1>   0.0800 
 33 H        8.6480    -2.7680     0.8210 H     1 <1>   0.0800 
 34 H        9.9940    -0.7550     0.6250 H     1 <1>   0.4500 
 35 H       10.0200    -0.8910    -1.0170 H     1 <1>   0.4500 
 36 H       12.3140    -0.4970     0.6960 H     1 <1>   0.0800 
 37 H       12.3430    -0.6420    -1.0530 H     1 <1>   0.0800 
 38 H       13.3050    -1.6990    -0.0690 H     1 <1>   0.0800 
 39 H       12.2280    -3.4420     1.3690 H     1 <1>   0.0800 
 40 H       11.1560    -2.2860     2.1000 H     1 <1>   0.0800 
 41 H       10.5220    -3.7240     1.3180 H     1 <1>   0.0800 
 42 H       11.2260    -2.6410    -2.1810 H     1 <1>   0.0800 
 43 H       10.5630    -3.9320    -1.1950 H     1 <1>   0.0800 
 44 H       12.2710    -3.6570    -1.2360 H     1 <1>   0.0800 
@<TRIPOS>BOND
  1   1   2  1   
  2   2   3  ar  
  3   2   4  ar  
  4   3   5  1   
  5   3   6  ar  
  6   4   7  ar  
  7   4  20  1   
  8   5   8  1   
  9   6   9  ar  
 10   6  21  1   
 11   7   9  ar  
 12   7  22  1   
 13   8  10  1   
 14   8  23  1   
 15   8  24  1   
 16   9  11  1   
 17  10  12  1   
 18  10  25  1   
 19  10  26  1   
 20  11  27  1   
 21  11  28  1   
 22  11  29  1   
 23  12  13  1   
 24  13  14  1   
 25  13  30  1   
 26  13  31  1   
 27  14  15  1   
 28  14  32  1   
 29  14  33  1   
 30  15  16  1   
 31  15  34  1   
 32  15  35  1   
 33  16  17  1   
 34  16  18  1   
 35  16  19  1   
 36  17  36  1   
 37  17  37  1   
 38  17  38  1   
 39  18  39  1   
 40  18  40  1   
 41  18  41  1   
 42  19  42  1   
 43  19  43  1   
 44  19  44  1   
@<TRIPOS>SUBSTRUCTURE
  1 ****   8 GROUP 4 **** **** 0

# MOE 2024.06 (io_trps.svl 2023.06)
