@<TRIPOS>MOLECULE
NONAME
41 42 1 0 0 
SMALL
USER_CHARGES


@<TRIPOS>ATOM
  1 O        0.2100     0.3740     0.5650 O.3   1 <1>  -0.3630 
  2 C       -1.0450     0.1840     0.0860 C.ar  1 <1>   0.0830 
  3 C        1.0790    -0.7130     0.7790 C.3   1 <1>   0.1200 
  4 C       -1.5770    -1.0640    -0.2220 C.ar  1 <1>  -0.1500 
  5 C       -1.8200     1.3180    -0.0990 C.ar  1 <1>  -0.1500 
  6 C        2.4080    -0.1680     1.2990 C.3   1 <1>  -0.1600 
  7 C       -2.8680    -1.1750    -0.7100 C.ar  1 <1>   0.0830 
  8 C       -3.1110     1.2150    -0.5860 C.ar  1 <1>  -0.1500 
  9 C        3.4060    -1.3070     1.5260 C.3   1 <1>   0.1200 
 10 O       -3.3070    -2.4290    -0.9860 O.3   1 <1>  -0.3630 
 11 C       -3.6380    -0.0280    -0.8920 C.ar  1 <1>  -0.1500 
 12 O        4.6180    -0.7850     2.0280 O.3   1 <1>  -0.3630 
 13 C       -4.6060    -2.6570    -1.4860 C.3   1 <1>   0.0400 
 14 C        5.5570    -0.2050     1.2330 C.ar  1 <1>   0.0830 
 15 C        5.4590    -0.1040    -0.1540 C.ar  1 <1>  -0.1500 
 16 C        6.6750     0.3060     1.8720 C.ar  1 <1>  -0.1500 
 17 C        6.4690     0.5030    -0.8820 C.ar  1 <1>  -0.1500 
 18 C        7.6830     0.9120     1.1450 C.ar  1 <1>  -0.1500 
 19 C        7.5900     1.0150    -0.2330 C.ar  1 <1>   0.0830 
 20 O        8.6230     1.6240    -0.8720 O.3   1 <1>  -0.3620 
 21 C        8.6180     1.7870    -2.2720 C.3   1 <1>   0.0400 
 22 H        1.2160    -1.2240    -0.1580 H     1 <1>   0.0800 
 23 H        0.6260    -1.3710     1.5010 H     1 <1>   0.0800 
 24 H       -1.0140    -1.9670    -0.0940 H     1 <1>   0.1500 
 25 H       -1.4040     2.2800     0.1420 H     1 <1>   0.1500 
 26 H        2.2380     0.3410     2.2320 H     1 <1>   0.0800 
 27 H        2.8020     0.5300     0.5830 H     1 <1>   0.0800 
 28 H       -3.7040     2.1010    -0.7250 H     1 <1>   0.1500 
 29 H        3.6050    -1.8690     0.6310 H     1 <1>   0.0800 
 30 H        3.0250    -1.9830     2.2720 H     1 <1>   0.0800 
 31 H       -4.6420    -0.0830    -1.2680 H     1 <1>   0.1500 
 32 H       -4.7290    -3.7150    -1.6270 H     1 <1>   0.0800 
 33 H       -4.7110    -2.1480    -2.4280 H     1 <1>   0.0800 
 34 H       -5.3240    -2.2970    -0.7710 H     1 <1>   0.0800 
 35 H        4.6090    -0.4870    -0.6830 H     1 <1>   0.1500 
 36 H        6.7490     0.2270     2.9420 H     1 <1>   0.1500 
 37 H        6.3660     0.5670    -1.9480 H     1 <1>   0.1500 
 38 H        8.5500     1.3090     1.6430 H     1 <1>   0.1500 
 39 H        9.5250     2.2930    -2.5520 H     1 <1>   0.0800 
 40 H        7.7670     2.3810    -2.5520 H     1 <1>   0.0800 
 41 H        8.5840     0.8170    -2.7360 H     1 <1>   0.0800 
@<TRIPOS>BOND
  1   1   2  1   
  2   1   3  1   
  3   2   4  ar  
  4   2   5  ar  
  5   3   6  1   
  6   3  22  1   
  7   3  23  1   
  8   4   7  ar  
  9   4  24  1   
 10   5   8  ar  
 11   5  25  1   
 12   6   9  1   
 13   6  26  1   
 14   6  27  1   
 15   7  10  1   
 16   7  11  ar  
 17   8  11  ar  
 18   8  28  1   
 19   9  12  1   
 20   9  29  1   
 21   9  30  1   
 22  10  13  1   
 23  11  31  1   
 24  12  14  1   
 25  13  32  1   
 26  13  33  1   
 27  13  34  1   
 28  14  15  ar  
 29  14  16  ar  
 30  15  17  ar  
 31  15  35  1   
 32  16  18  ar  
 33  16  36  1   
 34  17  19  ar  
 35  17  37  1   
 36  18  19  ar  
 37  18  38  1   
 38  19  20  1   
 39  20  21  1   
 40  21  39  1   
 41  21  40  1   
 42  21  41  1   
@<TRIPOS>SUBSTRUCTURE
  1 ****   6 GROUP 4 **** **** 0

# MOE 2024.06 (io_trps.svl 2023.06)
