@<TRIPOS>MOLECULE
NONAME
28 29 1 0 0 
SMALL
USER_CHARGES


@<TRIPOS>ATOM
  1 O        0.8410     0.5380     1.6080 O.2   1 <1>  -0.5700 
  2 C        1.0920     1.1660     0.6050 C.2   1 <1>   0.6590 
  3 O        0.1380     1.8890     0.0110 O.3   1 <1>  -0.4300 
  4 C        2.4950     1.1780    -0.0660 C.3   1 <1>   0.6210 
  5 C       -1.1840     1.9410     0.5090 C.3   1 <1>   0.0400 
  6 O        3.5190     0.8940     0.8900 O.3   1 <1>  -0.3630 
  7 O        2.6050     0.2020    -1.0890 O.3   1 <1>  -0.5600 
  8 C        2.7650     2.5660    -0.6890 C.3   1 <1>   0.1200 
  9 C        4.7940     1.2580     0.5960 C.ar  1 <1>   0.0820 
 10 C        2.4710    -1.1360    -0.7030 C.3   1 <1>   0.0400 
 11 O        4.0890     2.7020    -1.1840 O.3   1 <1>  -0.3630 
 12 C        5.0780     2.1450    -0.4430 C.ar  1 <1>   0.0820 
 13 C        5.8240     0.7260     1.3520 C.ar  1 <1>  -0.1500 
 14 C        6.3910     2.4750    -0.7290 C.ar  1 <1>  -0.1500 
 15 C        7.1370     1.0660     1.0670 C.ar  1 <1>  -0.1500 
 16 C        7.4200     1.9360     0.0270 C.ar  1 <1>  -0.1500 
 17 H       -1.7660     2.5800    -0.1300 H     1 <1>   0.0800 
 18 H       -1.1650     2.3360     1.5110 H     1 <1>   0.0800 
 19 H       -1.5950     0.9460     0.5120 H     1 <1>   0.0800 
 20 H        2.6170     3.3290     0.0530 H     1 <1>   0.0800 
 21 H        2.0890     2.7440    -1.5040 H     1 <1>   0.0800 
 22 H        2.5810    -1.7480    -1.5810 H     1 <1>   0.0800 
 23 H        1.4990    -1.3000    -0.2720 H     1 <1>   0.0800 
 24 H        3.2440    -1.3880     0.0040 H     1 <1>   0.0800 
 25 H        5.5960     0.0500     2.1560 H     1 <1>   0.1500 
 26 H        6.6010     3.1520    -1.5370 H     1 <1>   0.1500 
 27 H        7.9380     0.6500     1.6540 H     1 <1>   0.1500 
 28 H        8.4410     2.1960    -0.1950 H     1 <1>   0.1500 
@<TRIPOS>BOND
  1   1   2  2   
  2   2   3  1   
  3   2   4  1   
  4   3   5  1   
  5   4   6  1   
  6   4   7  1   
  7   4   8  1   
  8   5  17  1   
  9   5  18  1   
 10   5  19  1   
 11   6   9  1   
 12   7  10  1   
 13   8  11  1   
 14   8  20  1   
 15   8  21  1   
 16   9  12  ar  
 17   9  13  ar  
 18  10  22  1   
 19  10  23  1   
 20  10  24  1   
 21  11  12  1   
 22  12  14  ar  
 23  13  15  ar  
 24  13  25  1   
 25  14  16  ar  
 26  14  26  1   
 27  15  16  ar  
 28  15  27  1   
 29  16  28  1   
@<TRIPOS>SUBSTRUCTURE
  1 ****   6 GROUP 4 **** **** 0

# MOE 2024.06 (io_trps.svl 2023.06)
