@<TRIPOS>MOLECULE
NONAME
43 44 1 0 0 
SMALL
USER_CHARGES


@<TRIPOS>ATOM
  1 O        0.2570    -0.3100     1.0110 O.3   1 <1>  -0.3630 
  2 C       -0.7220    -0.7880     0.1900 C.ar  1 <1>   0.0830 
  3 C        1.5770    -0.7910     0.9290 C.3   1 <1>   0.1200 
  4 C       -0.7950    -2.0930    -0.3280 C.ar  1 <1>   0.0830 
  5 C       -1.7100     0.1300    -0.1290 C.ar  1 <1>  -0.1500 
  6 C        2.5070     0.2590     1.5350 C.3   1 <1>  -0.1600 
  7 O        0.1500    -3.0190     0.0140 O.3   1 <1>  -0.3630 
  8 C       -1.8520    -2.4220    -1.1750 C.ar  1 <1>  -0.1500 
  9 C       -2.7570    -0.2130    -0.9640 C.ar  1 <1>  -0.1500 
 10 C        3.9630    -0.2070     1.4530 C.3   1 <1>   0.1200 
 11 C       -0.0360    -4.3960    -0.2320 C.3   1 <1>   0.0400 
 12 C       -2.8250    -1.4890    -1.4900 C.ar  1 <1>  -0.1500 
 13 O        4.8080     0.7750     2.0140 O.3   1 <1>  -0.3630 
 14 C        5.1860     1.8950     1.3450 C.ar  1 <1>   0.0830 
 15 C        5.9700     2.7990     2.0430 C.ar  1 <1>  -0.1500 
 16 C        4.8380     2.1760     0.0260 C.ar  1 <1>  -0.1500 
 17 C        6.4020     3.9680     1.4420 C.ar  1 <1>  -0.1500 
 18 C        5.2720     3.3460    -0.5730 C.ar  1 <1>  -0.1500 
 19 C        6.0550     4.2490     0.1300 C.ar  1 <1>  -0.1430 
 20 C        6.5290     5.5330    -0.5310 C.3   1 <1>  -0.0170 
 21 C        7.8730     5.3130    -1.2290 C.3   1 <1>  -0.2400 
 22 H        1.8140    -0.9600    -0.1070 H     1 <1>   0.0800 
 23 H        1.6340    -1.7140     1.4790 H     1 <1>   0.0800 
 24 H       -1.6500     1.1210     0.2820 H     1 <1>   0.1500 
 25 H        2.2430     0.4090     2.5670 H     1 <1>   0.0800 
 26 H        2.3840     1.1820     0.9990 H     1 <1>   0.0800 
 27 H       -1.9410    -3.4010    -1.6040 H     1 <1>   0.1500 
 28 H       -3.5150     0.5130    -1.2040 H     1 <1>   0.1500 
 29 H        4.2770    -0.4080     0.4440 H     1 <1>   0.0800 
 30 H        4.0940    -1.1020     2.0340 H     1 <1>   0.0800 
 31 H        0.7720    -4.9300     0.2340 H     1 <1>   0.0800 
 32 H       -0.0220    -4.5680    -1.2930 H     1 <1>   0.0800 
 33 H       -0.9730    -4.7050     0.1990 H     1 <1>   0.0800 
 34 H       -3.6370    -1.7570    -2.1440 H     1 <1>   0.1500 
 35 H        6.2380     2.5800     3.0600 H     1 <1>   0.1500 
 36 H        4.2340     1.5030    -0.5500 H     1 <1>   0.1500 
 37 H        7.0120     4.6560     2.0000 H     1 <1>   0.1500 
 38 H        4.9980     3.5530    -1.5920 H     1 <1>   0.1500 
 39 H        6.6290     6.3070     0.2100 H     1 <1>   0.0800 
 40 H        5.7980     5.8620    -1.2490 H     1 <1>   0.0800 
 41 H        8.6130     4.9990    -0.5160 H     1 <1>   0.0800 
 42 H        8.2030     6.2250    -1.6940 H     1 <1>   0.0800 
 43 H        7.7780     4.5530    -1.9840 H     1 <1>   0.0800 
@<TRIPOS>BOND
  1   1   2  1   
  2   1   3  1   
  3   2   4  ar  
  4   2   5  ar  
  5   3   6  1   
  6   3  22  1   
  7   3  23  1   
  8   4   7  1   
  9   4   8  ar  
 10   5   9  ar  
 11   5  24  1   
 12   6  10  1   
 13   6  25  1   
 14   6  26  1   
 15   7  11  1   
 16   8  12  ar  
 17   8  27  1   
 18   9  12  ar  
 19   9  28  1   
 20  10  13  1   
 21  10  29  1   
 22  10  30  1   
 23  11  31  1   
 24  11  32  1   
 25  11  33  1   
 26  12  34  1   
 27  13  14  1   
 28  14  15  ar  
 29  14  16  ar  
 30  15  17  ar  
 31  15  35  1   
 32  16  18  ar  
 33  16  36  1   
 34  17  19  ar  
 35  17  37  1   
 36  18  19  ar  
 37  18  38  1   
 38  19  20  1   
 39  20  21  1   
 40  20  39  1   
 41  20  40  1   
 42  21  41  1   
 43  21  42  1   
 44  21  43  1   
@<TRIPOS>SUBSTRUCTURE
  1 ****   6 GROUP 4 **** **** 0

# MOE 2024.06 (io_trps.svl 2023.06)
