@<TRIPOS>MOLECULE
NONAME
47 50 1 0 0 
SMALL
USER_CHARGES


@<TRIPOS>ATOM
  1 O       -0.1160     0.3500     0.3450 O.2   1 <1>  -0.5700 
  2 C       -0.1390     1.5760     0.3020 C.2   1 <1>   0.7160 
  3 N        1.0380     2.3060     0.1860 N.am  1 <1>  -0.2290 
  4 C       -1.3500     2.3030     0.3590 C.2   1 <1>  -0.0860 
  5 C        0.9580     3.7070     0.1210 C.2   1 <1>   0.4960 
  6 C        2.2880     1.6860     0.1290 C.2   1 <1>  -0.0410 
  7 C       -1.3100     3.6720     0.2890 C.2   1 <1>  -0.0260 
  8 C       -2.6990     1.9530     0.4800 C.2   1 <1>  -0.1500 
  9 N       -0.1640     4.3830     0.1660 N.2   1 <1>  -0.5760 
 10 C        2.1830     4.4230    -0.0030 C.2   1 <1>  -0.1360 
 11 C        3.4390     2.3940     0.0110 C.2   1 <1>  -0.1500 
 12 N       -2.5760     4.1640     0.3630 N.pl3 1 <1>   0.0480 
 13 C       -3.4520     3.0990     0.4730 C.2   1 <1>  -0.2370 
 14 C        3.3910     3.8040    -0.0580 C.2   1 <1>  -0.1500 
 15 C       -2.9340     5.5970     0.3310 C.3   1 <1>   0.0160 
 16 C       -4.8830     3.2410     0.5700 C.2   1 <1>   0.7150 
 17 O       -5.3560     4.1690     1.2040 O.2   1 <1>  -0.5700 
 18 N       -5.7370     2.3480    -0.0480 N.am  1 <1>  -0.6600 
 19 C       -7.1700     2.2740     0.3650 C.3   1 <1>   0.2200 
 20 C       -5.3050     1.5270    -1.2190 C.3   1 <1>   0.0600 
 21 C       -7.6400     0.8190     0.5250 C.3   1 <1>  -0.1600 
 22 C       -8.0580     3.0440    -0.6220 C.3   1 <1>  -0.1600 
 23 C       -9.1120     0.7660     0.9590 C.3   1 <1>  -0.1600 
 24 C       -9.5330     2.9860    -0.1960 C.3   1 <1>  -0.1600 
 25 C      -10.0070     1.5360    -0.0230 C.3   1 <1>  -0.1600 
 26 H        2.3000     0.6080     0.1840 H     1 <1>   0.1500 
 27 H       -3.0520     0.9400     0.5690 H     1 <1>   0.1500 
 28 H        2.1020     5.4930    -0.0520 H     1 <1>   0.1500 
 29 H        4.3990     1.9090    -0.0320 H     1 <1>   0.1500 
 30 H        4.3130     4.3530    -0.1520 H     1 <1>   0.1500 
 31 H       -2.0730     6.1840     0.0680 H     1 <1>   0.0800 
 32 H       -3.2860     5.8930     1.3030 H     1 <1>   0.0800 
 33 H       -3.7100     5.7560    -0.3940 H     1 <1>   0.0800 
 34 H       -7.2740     2.7440     1.3290 H     1 <1>   0.0800 
 35 H       -6.0810     1.4920    -1.9620 H     1 <1>   0.0800 
 36 H       -4.4270     1.9510    -1.6750 H     1 <1>   0.0800 
 37 H       -5.0830     0.5250    -0.8960 H     1 <1>   0.0800 
 38 H       -7.0320     0.3290     1.2640 H     1 <1>   0.0800 
 39 H       -7.5450     0.2920    -0.4070 H     1 <1>   0.0800 
 40 H       -7.9660     2.6260    -1.6080 H     1 <1>   0.0800 
 41 H       -7.7390     4.0710    -0.6550 H     1 <1>   0.0800 
 42 H       -9.2100     1.1970     1.9420 H     1 <1>   0.0800 
 43 H       -9.4360    -0.2590     1.0150 H     1 <1>   0.0800 
 44 H      -10.1420     3.4810    -0.9330 H     1 <1>   0.0800 
 45 H       -9.6530     3.5130     0.7360 H     1 <1>   0.0800 
 46 H      -11.0220     1.5310     0.3350 H     1 <1>   0.0800 
 47 H       -9.9940     1.0420    -0.9790 H     1 <1>   0.0800 
@<TRIPOS>BOND
  1   1   2  2   
  2   2   3  am  
  3   2   4  1   
  4   3   5  1   
  5   3   6  1   
  6   4   7  2   
  7   4   8  1   
  8   5   9  2   
  9   5  10  1   
 10   6  11  2   
 11   6  26  1   
 12   7   9  1   
 13   7  12  1   
 14   8  13  2   
 15   8  27  1   
 16  10  14  2   
 17  10  28  1   
 18  11  14  1   
 19  11  29  1   
 20  12  13  1   
 21  12  15  1   
 22  13  16  1   
 23  14  30  1   
 24  15  31  1   
 25  15  32  1   
 26  15  33  1   
 27  16  17  2   
 28  16  18  am  
 29  18  19  1   
 30  18  20  1   
 31  19  21  1   
 32  19  22  1   
 33  19  34  1   
 34  20  35  1   
 35  20  36  1   
 36  20  37  1   
 37  21  23  1   
 38  21  38  1   
 39  21  39  1   
 40  22  24  1   
 41  22  40  1   
 42  22  41  1   
 43  23  25  1   
 44  23  42  1   
 45  23  43  1   
 46  24  25  1   
 47  24  44  1   
 48  24  45  1   
 49  25  46  1   
 50  25  47  1   
@<TRIPOS>SUBSTRUCTURE
  1 ****  13 GROUP 4 **** **** 0

# MOE 2024.06 (io_trps.svl 2023.06)
