@<TRIPOS>MOLECULE
NONAME
52 52 1 0 0 
SMALL
USER_CHARGES


@<TRIPOS>ATOM
  1 O       -0.1350     0.7390     0.0150 O.3   1 <1>  -0.5600 
  2 C       -1.2650    -0.0550    -0.2020 C.3   1 <1>   0.1200 
  3 C        1.0210    -0.0200     0.2240 C.3   1 <1>   0.1200 
  4 C       -2.4140     0.7530    -0.8170 C.3   1 <1>   0.1200 
  5 C        2.1430     0.8180     0.8480 C.3   1 <1>   0.1200 
  6 O       -2.6930     1.8880    -0.0500 O.3   1 <1>  -0.5600 
  7 O        2.3830     1.9710     0.0940 O.3   1 <1>  -0.5600 
  8 C       -3.9840     2.3900    -0.2080 C.3   1 <1>   0.1200 
  9 C        3.6580     2.5130     0.2570 C.3   1 <1>   0.1200 
 10 C       -4.0200     3.7890     0.4180 C.3   1 <1>   0.3430 
 11 C        3.6470     3.9190    -0.3520 C.3   1 <1>   0.3430 
 12 N       -2.8220     4.5700    -0.0200 N.4   1 <1>  -0.9590 
 13 N        2.4250     4.6550     0.0960 N.4   1 <1>  -0.9590 
 14 C       -2.4690     5.6370     0.9710 C.3   1 <1>   0.3430 
 15 C       -2.9500     5.0500    -1.4290 C.3   1 <1>   0.2630 
 16 C        2.0360     5.7220    -0.8820 C.3   1 <1>   0.3430 
 17 C        2.5370     5.1230     1.5110 C.3   1 <1>   0.2630 
 18 C       -1.2930     6.5380     0.5410 C.3   1 <1>   0.1200 
 19 C        0.8310     6.5790    -0.4410 C.3   1 <1>   0.1200 
 20 O       -0.2180     5.7840     0.0450 O.3   1 <1>  -0.5600 
 21 H       -1.5730    -0.4720     0.7410 H     1 <1>   0.0800 
 22 H       -1.0060    -0.8570    -0.8730 H     1 <1>   0.0800 
 23 H        1.3420    -0.4160    -0.7240 H     1 <1>   0.0800 
 24 H        0.7880    -0.8380     0.8860 H     1 <1>   0.0800 
 25 H       -3.2910     0.1290    -0.8630 H     1 <1>   0.0800 
 26 H       -2.1520     1.0680    -1.8120 H     1 <1>   0.0800 
 27 H        3.0390     0.2240     0.8870 H     1 <1>   0.0800 
 28 H        1.8710     1.1130     1.8470 H     1 <1>   0.0800 
 29 H       -4.6780     1.7310     0.2870 H     1 <1>   0.0800 
 30 H       -4.2210     2.4400    -1.2570 H     1 <1>   0.0800 
 31 H        4.3720     1.8840    -0.2450 H     1 <1>   0.0800 
 32 H        3.8940     2.5580     1.3070 H     1 <1>   0.0800 
 33 H       -4.0040     3.6710     1.4890 H     1 <1>   0.0800 
 34 H       -4.9300     4.2980     0.1490 H     1 <1>   0.0800 
 35 H        3.6340     3.8140    -1.4240 H     1 <1>   0.0800 
 36 H        4.5400     4.4560    -0.0780 H     1 <1>   0.0800 
 37 H       -2.0530     3.8650    -0.0050 H     1 <1>   0.4500 
 38 H        1.6790     3.9260     0.0720 H     1 <1>   0.4500 
 39 H       -2.2150     5.1730     1.9100 H     1 <1>   0.0800 
 40 H       -3.3290     6.2620     1.1460 H     1 <1>   0.0800 
 41 H       -3.7460     5.7720    -1.5110 H     1 <1>   0.0800 
 42 H       -3.1600     4.2230    -2.0870 H     1 <1>   0.0800 
 43 H       -2.0280     5.5070    -1.7500 H     1 <1>   0.0800 
 44 H        1.7970     5.2620    -1.8260 H     1 <1>   0.0800 
 45 H        2.8750     6.3780    -1.0490 H     1 <1>   0.0800 
 46 H        3.3090     5.8690     1.6010 H     1 <1>   0.0800 
 47 H        2.7750     4.2950     2.1580 H     1 <1>   0.0800 
 48 H        1.6010     5.5450     1.8370 H     1 <1>   0.0800 
 49 H       -0.9530     7.1100     1.3870 H     1 <1>   0.0800 
 50 H       -1.6210     7.2200    -0.2250 H     1 <1>   0.0800 
 51 H        0.4720     7.1500    -1.2800 H     1 <1>   0.0800 
 52 H        1.1370     7.2620     0.3330 H     1 <1>   0.0800 
@<TRIPOS>BOND
  1   1   2  1   
  2   1   3  1   
  3   2   4  1   
  4   2  21  1   
  5   2  22  1   
  6   3   5  1   
  7   3  23  1   
  8   3  24  1   
  9   4   6  1   
 10   4  25  1   
 11   4  26  1   
 12   5   7  1   
 13   5  27  1   
 14   5  28  1   
 15   6   8  1   
 16   7   9  1   
 17   8  10  1   
 18   8  29  1   
 19   8  30  1   
 20   9  11  1   
 21   9  31  1   
 22   9  32  1   
 23  10  12  1   
 24  10  33  1   
 25  10  34  1   
 26  11  13  1   
 27  11  35  1   
 28  11  36  1   
 29  12  14  1   
 30  12  15  1   
 31  12  37  1   
 32  13  16  1   
 33  13  17  1   
 34  13  38  1   
 35  14  18  1   
 36  14  39  1   
 37  14  40  1   
 38  15  41  1   
 39  15  42  1   
 40  15  43  1   
 41  16  19  1   
 42  16  44  1   
 43  16  45  1   
 44  17  46  1   
 45  17  47  1   
 46  17  48  1   
 47  18  20  1   
 48  18  49  1   
 49  18  50  1   
 50  19  20  1   
 51  19  51  1   
 52  19  52  1   
@<TRIPOS>SUBSTRUCTURE
  1 ****  20 GROUP 4 **** **** 0

# MOE 2024.06 (io_trps.svl 2023.06)
