@<TRIPOS>MOLECULE
NONAME
29 31 1 0 0 
SMALL
USER_CHARGES


@<TRIPOS>ATOM
  1 O       -0.1320     0.4930    -0.0270 O.2   1 <1>  -0.5700 
  2 C       -0.2200     1.6850     0.2220 C.2   1 <1>   0.8660 
  3 N        0.9120     2.3410     0.6290 N.2   1 <1>  -0.6610 
  4 C       -1.4510     2.3940     0.1010 C.2   1 <1>  -0.2370 
  5 C        0.8250     3.5950     0.8940 C.2   1 <1>   0.4400 
  6 N       -2.7190     2.0040    -0.2750 N.pl3 1 <1>   0.0480 
  7 C       -1.4920     3.7220     0.3960 C.2   1 <1>   0.0830 
  8 N       -0.3170     4.3280     0.8010 N.pl3 1 <1>  -0.5330 
  9 C       -3.5210     3.1020    -0.2000 C.2   1 <1>  -0.3320 
 10 C       -3.1610     0.6460    -0.6810 C.3   1 <1>   0.0960 
 11 C       -2.7960     4.1900     0.2120 C.2   1 <1>   0.0190 
 12 C       -5.0070     3.0610    -0.5270 C.3   1 <1>   0.0200 
 13 C       -4.1940     0.0750     0.3000 C.3   1 <1>  -0.1600 
 14 C       -3.2020     5.5450     0.4390 C.1   1 <1>   0.5380 
 15 C       -5.7630     2.1350     0.4340 C.3   1 <1>  -0.1600 
 16 C       -5.6120     0.6390     0.1120 C.3   1 <1>  -0.1600 
 17 N       -3.4900     6.6330     0.6280 N.1   1 <1>  -0.5570 
 18 H        1.7080     4.1210     1.2140 H     1 <1>   0.0600 
 19 H       -0.3080     5.3260     1.0320 H     1 <1>   0.4000 
 20 H       -2.3150    -0.0120    -0.7190 H     1 <1>   0.0800 
 21 H       -3.5760     0.6970    -1.6710 H     1 <1>   0.0800 
 22 H       -5.1560     2.7460    -1.5450 H     1 <1>   0.0800 
 23 H       -5.4170     4.0520    -0.4370 H     1 <1>   0.0800 
 24 H       -3.8570     0.2290     1.3120 H     1 <1>   0.0800 
 25 H       -4.2420    -0.9880     0.1410 H     1 <1>   0.0800 
 26 H       -6.8100     2.3800     0.3770 H     1 <1>   0.0800 
 27 H       -5.4460     2.3270     1.4450 H     1 <1>   0.0800 
 28 H       -6.2740     0.0920     0.7630 H     1 <1>   0.0800 
 29 H       -5.9410     0.4540    -0.8960 H     1 <1>   0.0800 
@<TRIPOS>BOND
  1   1   2  2   
  2   2   3  1   
  3   2   4  1   
  4   3   5  2   
  5   4   6  1   
  6   4   7  2   
  7   5   8  1   
  8   5  18  1   
  9   6   9  1   
 10   6  10  1   
 11   7   8  1   
 12   7  11  1   
 13   8  19  1   
 14   9  11  2   
 15   9  12  1   
 16  10  13  1   
 17  10  20  1   
 18  10  21  1   
 19  11  14  1   
 20  12  15  1   
 21  12  22  1   
 22  12  23  1   
 23  13  16  1   
 24  13  24  1   
 25  13  25  1   
 26  14  17  3   
 27  15  16  1   
 28  15  26  1   
 29  15  27  1   
 30  16  28  1   
 31  16  29  1   
@<TRIPOS>SUBSTRUCTURE
  1 ****   6 GROUP 4 **** **** 0

# MOE 2024.06 (io_trps.svl 2023.06)
