@<TRIPOS>MOLECULE
NONAME
43 44 1 0 0 
SMALL
USER_CHARGES


@<TRIPOS>ATOM
  1 S       -0.4750    -0.6180    -0.1310 S.3   1 <1>  -0.3320 
  2 C        1.3020    -0.5840    -0.2940 C.ar  1 <1>   0.7220 
  3 C       -0.8120    -1.4730     1.4890 C.3   1 <1>   0.2110 
  4 N        1.9920    -1.1410     0.6880 N.ar  1 <1>  -0.6200 
  5 N        1.7330     0.0030    -1.3960 N.ar  1 <1>  -0.6200 
  6 C       -2.1840    -2.1540     1.4500 C.2   1 <1>   0.5690 
  7 C       -0.7120    -0.4120     2.5920 C.3   1 <1>  -0.2400 
  8 C        3.2940    -1.0980     0.5320 C.ar  1 <1>   0.1660 
  9 C        3.0390     0.0320    -1.5240 C.ar  1 <1>   0.1660 
 10 O       -2.3960    -3.0530     2.2270 O.2   1 <1>  -0.5700 
 11 N       -3.1100    -1.7110     0.5390 N.am  1 <1>  -0.5470 
 12 C        3.8720    -0.5140    -0.5730 C.ar  1 <1>  -0.1500 
 13 C        4.1360    -1.7210     1.6250 C.3   1 <1>  -0.0970 
 14 C        3.5900     0.6930    -2.7700 C.3   1 <1>  -0.0970 
 15 C       -4.4340    -2.0800     0.2860 C.ar  1 <1>   0.1170 
 16 C       -5.2120    -2.8170     1.1740 C.ar  1 <1>  -0.1500 
 17 C       -5.0190    -1.6830    -0.9100 C.ar  1 <1>  -0.1500 
 18 C       -6.5200    -3.1440     0.8720 C.ar  1 <1>  -0.1500 
 19 C       -6.3270    -2.0110    -1.2100 C.ar  1 <1>  -0.1500 
 20 C       -7.1200    -2.7520    -0.3280 C.ar  1 <1>   0.0860 
 21 C       -8.4930    -3.1030    -0.6290 C.2   1 <1>   0.6340 
 22 O       -9.2010    -3.7390     0.1270 O.2   1 <1>  -0.5700 
 23 O       -9.0050    -2.7030    -1.7990 O.3   1 <1>  -0.4300 
 24 C      -10.3360    -3.0020    -2.1720 C.3   1 <1>   0.0400 
 25 H       -0.0620    -2.2320     1.6180 H     1 <1>   0.0800 
 26 H       -1.4440     0.3600     2.4380 H     1 <1>   0.0800 
 27 H        0.2690     0.0290     2.5990 H     1 <1>   0.0800 
 28 H       -0.8870    -0.8680     3.5500 H     1 <1>   0.0800 
 29 H       -2.7270    -1.0170    -0.1070 H     1 <1>   0.3700 
 30 H        4.9380    -0.4840    -0.6900 H     1 <1>   0.1500 
 31 H        3.8870    -2.7610     1.7230 H     1 <1>   0.0800 
 32 H        3.9360    -1.2280     2.5590 H     1 <1>   0.0800 
 33 H        5.1840    -1.6340     1.4030 H     1 <1>   0.0800 
 34 H        3.2170     0.1860    -3.6410 H     1 <1>   0.0800 
 35 H        4.6640     0.6640    -2.7820 H     1 <1>   0.0800 
 36 H        3.2690     1.7180    -2.8040 H     1 <1>   0.0800 
 37 H       -4.7990    -3.1380     2.1130 H     1 <1>   0.1500 
 38 H       -4.4420    -1.1130    -1.6160 H     1 <1>   0.1500 
 39 H       -7.0950    -3.7160     1.5800 H     1 <1>   0.1500 
 40 H       -6.7450    -1.6860    -2.1480 H     1 <1>   0.1500 
 41 H      -10.5210    -2.5830    -3.1440 H     1 <1>   0.0800 
 42 H      -11.0050    -2.5710    -1.4470 H     1 <1>   0.0800 
 43 H      -10.4570    -4.0710    -2.1990 H     1 <1>   0.0800 
@<TRIPOS>BOND
  1   1   2  1   
  2   1   3  1   
  3   2   4  ar  
  4   2   5  ar  
  5   3   6  1   
  6   3   7  1   
  7   3  25  1   
  8   4   8  ar  
  9   5   9  ar  
 10   6  10  2   
 11   6  11  am  
 12   7  26  1   
 13   7  27  1   
 14   7  28  1   
 15   8  12  ar  
 16   8  13  1   
 17   9  12  ar  
 18   9  14  1   
 19  11  15  1   
 20  11  29  1   
 21  12  30  1   
 22  13  31  1   
 23  13  32  1   
 24  13  33  1   
 25  14  34  1   
 26  14  35  1   
 27  14  36  1   
 28  15  16  ar  
 29  15  17  ar  
 30  16  18  ar  
 31  16  37  1   
 32  17  19  ar  
 33  17  38  1   
 34  18  20  ar  
 35  18  39  1   
 36  19  20  ar  
 37  19  40  1   
 38  20  21  1   
 39  21  22  2   
 40  21  23  1   
 41  23  24  1   
 42  24  41  1   
 43  24  42  1   
 44  24  43  1   
@<TRIPOS>SUBSTRUCTURE
  1 ****  11 GROUP 4 **** **** 0

# MOE 2024.06 (io_trps.svl 2023.06)
