@<TRIPOS>MOLECULE
NONAME
38 38 1 0 0 
SMALL
USER_CHARGES


@<TRIPOS>ATOM
  1 O        0.2820     0.7700     0.4110 O.2   1 <1>  -0.5700 
  2 C        0.5010     1.9580     0.4060 C.2   1 <1>   0.5690 
  3 N        1.7590     2.4850     0.4800 N.am  1 <1>  -0.5470 
  4 C       -0.6710     2.9360     0.2770 C.3   1 <1>  -0.0190 
  5 C        3.0200     1.8620     0.5750 C.ar  1 <1>   0.1170 
  6 C       -1.7340     2.6580     1.3690 C.3   1 <1>  -0.1600 
  7 C       -1.2280     2.8610    -1.1640 C.3   1 <1>  -0.1600 
  8 C        4.1500     2.5190     0.0630 C.ar  1 <1>   0.1170 
  9 C        3.1860     0.6260     1.1900 C.ar  1 <1>  -0.1500 
 10 C       -2.4050     3.9270     1.9160 C.3   1 <1>  -0.2400 
 11 C       -2.3230     3.8840    -1.4880 C.3   1 <1>  -0.2400 
 12 N        4.0400     3.7620    -0.5840 N.am  1 <1>  -0.5470 
 13 C        5.4020     1.9360     0.1910 C.ar  1 <1>  -0.1500 
 14 C        4.4390     0.0500     1.3050 C.ar  1 <1>  -0.1500 
 15 C        3.4870     4.0400    -1.7900 C.2   1 <1>   0.5690 
 16 C        5.5500     0.7070     0.8070 C.ar  1 <1>  -0.1500 
 17 O        3.3590     5.1820    -2.1430 O.2   1 <1>  -0.5700 
 18 C        3.0250     2.9250    -2.7000 C.3   1 <1>  -0.1790 
 19 H        1.8170     3.4940     0.3430 H     1 <1>   0.3700 
 20 H       -0.2810     3.9260     0.4330 H     1 <1>   0.0800 
 21 H       -1.2590     2.1650     2.2010 H     1 <1>   0.0800 
 22 H       -2.4770     1.9780     0.9890 H     1 <1>   0.0800 
 23 H       -1.6100     1.8700    -1.3450 H     1 <1>   0.0800 
 24 H       -0.4140     3.0160    -1.8510 H     1 <1>   0.0800 
 25 H        2.3330     0.1070     1.5890 H     1 <1>   0.1500 
 26 H       -1.6720     4.5800     2.3550 H     1 <1>   0.0800 
 27 H       -3.1160     3.6590     2.6780 H     1 <1>   0.0800 
 28 H       -2.9270     4.4640     1.1470 H     1 <1>   0.0800 
 29 H       -3.2270     3.6540    -0.9540 H     1 <1>   0.0800 
 30 H       -2.5460     3.8570    -2.5400 H     1 <1>   0.0800 
 31 H       -2.0020     4.8790    -1.2340 H     1 <1>   0.0800 
 32 H        4.4570     4.5720    -0.1230 H     1 <1>   0.3700 
 33 H        6.2670     2.4430    -0.1990 H     1 <1>   0.1500 
 34 H        4.5460    -0.9080     1.7830 H     1 <1>   0.1500 
 35 H        6.5250     0.2600     0.8990 H     1 <1>   0.1500 
 36 H        2.1260     2.4820    -2.3150 H     1 <1>   0.0800 
 37 H        3.7860     2.1720    -2.7740 H     1 <1>   0.0800 
 38 H        2.8270     3.3160    -3.6810 H     1 <1>   0.0800 
@<TRIPOS>BOND
  1   1   2  2   
  2   2   3  am  
  3   2   4  1   
  4   3   5  1   
  5   3  19  1   
  6   4   6  1   
  7   4   7  1   
  8   4  20  1   
  9   5   8  ar  
 10   5   9  ar  
 11   6  10  1   
 12   6  21  1   
 13   6  22  1   
 14   7  11  1   
 15   7  23  1   
 16   7  24  1   
 17   8  12  1   
 18   8  13  ar  
 19   9  14  ar  
 20   9  25  1   
 21  10  26  1   
 22  10  27  1   
 23  10  28  1   
 24  11  29  1   
 25  11  30  1   
 26  11  31  1   
 27  12  15  am  
 28  12  32  1   
 29  13  16  ar  
 30  13  33  1   
 31  14  16  ar  
 32  14  34  1   
 33  15  17  2   
 34  15  18  1   
 35  16  35  1   
 36  18  36  1   
 37  18  37  1   
 38  18  38  1   
@<TRIPOS>SUBSTRUCTURE
  1 ****   3 GROUP 4 **** **** 0

# MOE 2024.06 (io_trps.svl 2023.06)
