@<TRIPOS>MOLECULE
NONAME
47 49 1 0 0 
SMALL
USER_CHARGES


@<TRIPOS>ATOM
  1 CL       5.5660    -3.2590     2.5210 Cl    1 <1>  -0.1770 
  2 C        5.7750    -1.6870     1.7900 C.ar  1 <1>   0.1770 
  3 C        4.7500    -1.1470     1.0350 C.ar  1 <1>  -0.1500 
  4 C        6.9600    -1.0030     1.9780 C.ar  1 <1>  -0.1500 
  5 C        4.9210     0.0990     0.4570 C.ar  1 <1>  -0.1500 
  6 C        7.1220     0.2430     1.3960 C.ar  1 <1>  -0.1500 
  7 C        6.1070     0.8090     0.6250 C.ar  1 <1>   0.1170 
  8 N        6.2280     2.0730     0.0310 N.am  1 <1>  -0.5470 
  9 C        7.3270     2.7170    -0.4520 C.2   1 <1>   0.6900 
 10 O        8.4180     2.1800    -0.4790 O.2   1 <1>  -0.5700 
 11 N        7.1610     3.9960    -0.8920 N.am  1 <1>  -0.7300 
 12 C        7.9960     4.8210    -1.8160 C.3   1 <1>   0.1400 
 13 C        9.5020     4.5370    -1.7540 C.3   1 <1>  -0.1600 
 14 C       10.0440     4.6500    -0.3260 C.3   1 <1>   0.3430 
 15 N       11.3920     4.0280    -0.2290 N.4   1 <1>  -0.9590 
 16 C       11.2880     2.5360    -0.2090 C.3   1 <1>   0.4860 
 17 C       12.1290     4.4830     0.9830 C.3   1 <1>   0.3430 
 18 C       12.6720     1.9150    -0.1110 C.ar  1 <1>  -0.1430 
 19 C       13.5950     4.0500     0.9010 C.3   1 <1>  -0.0170 
 20 C       13.7510     2.6150     0.4180 C.ar  1 <1>  -0.1430 
 21 C       12.8510     0.6130    -0.5550 C.ar  1 <1>  -0.1500 
 22 C       14.9940     2.0060     0.4960 C.ar  1 <1>  -0.1500 
 23 C       14.0940     0.0110    -0.4740 C.ar  1 <1>  -0.1500 
 24 C       15.1660     0.7080     0.0520 C.ar  1 <1>  -0.1500 
 25 H        3.8370    -1.6990     0.9060 H     1 <1>   0.1500 
 26 H        7.7420    -1.4430     2.5710 H     1 <1>   0.1500 
 27 H        4.1250     0.5170    -0.1330 H     1 <1>   0.1500 
 28 H        8.0400     0.7780     1.5480 H     1 <1>   0.1500 
 29 H        5.3450     2.5180    -0.1960 H     1 <1>   0.3700 
 30 H        6.2290     4.3890    -0.7530 H     1 <1>   0.3700 
 31 H        7.8290     5.8600    -1.5820 H     1 <1>   0.0800 
 32 H        7.6500     4.6590    -2.8240 H     1 <1>   0.0800 
 33 H       10.0090     5.2480    -2.3820 H     1 <1>   0.0800 
 34 H        9.6700     3.5610    -2.1700 H     1 <1>   0.0800 
 35 H        9.3730     4.1580     0.3600 H     1 <1>   0.0800 
 36 H       10.0940     5.6910    -0.0530 H     1 <1>   0.0800 
 37 H       11.9510     4.2650    -1.0560 H     1 <1>   0.4500 
 38 H       10.8030     2.1840    -1.1050 H     1 <1>   0.0800 
 39 H       10.6920     2.2190     0.6310 H     1 <1>   0.0800 
 40 H       11.6790     4.0470     1.8610 H     1 <1>   0.0800 
 41 H       12.0800     5.5560     1.0730 H     1 <1>   0.0800 
 42 H       14.0450     4.1550     1.8720 H     1 <1>   0.0800 
 43 H       14.1200     4.7040     0.2280 H     1 <1>   0.0800 
 44 H       12.0280     0.0520    -0.9650 H     1 <1>   0.1500 
 45 H       15.8390     2.5370     0.9010 H     1 <1>   0.1500 
 46 H       14.2280    -1.0000    -0.8200 H     1 <1>   0.1500 
 47 H       16.1330     0.2390     0.1150 H     1 <1>   0.1500 
@<TRIPOS>BOND
  1   1   2  1   
  2   2   3  ar  
  3   2   4  ar  
  4   3   5  ar  
  5   3  25  1   
  6   4   6  ar  
  7   4  26  1   
  8   5   7  ar  
  9   5  27  1   
 10   6   7  ar  
 11   6  28  1   
 12   7   8  1   
 13   8   9  am  
 14   8  29  1   
 15   9  10  2   
 16   9  11  am  
 17  11  12  1   
 18  11  30  1   
 19  12  13  1   
 20  12  31  1   
 21  12  32  1   
 22  13  14  1   
 23  13  33  1   
 24  13  34  1   
 25  14  15  1   
 26  14  35  1   
 27  14  36  1   
 28  15  16  1   
 29  15  17  1   
 30  15  37  1   
 31  16  18  1   
 32  16  38  1   
 33  16  39  1   
 34  17  19  1   
 35  17  40  1   
 36  17  41  1   
 37  18  20  ar  
 38  18  21  ar  
 39  19  20  1   
 40  19  42  1   
 41  19  43  1   
 42  20  22  ar  
 43  21  23  ar  
 44  21  44  1   
 45  22  24  ar  
 46  22  45  1   
 47  23  24  ar  
 48  23  46  1   
 49  24  47  1   
@<TRIPOS>SUBSTRUCTURE
  1 ****  10 GROUP 4 **** **** 0

# MOE 2024.06 (io_trps.svl 2023.06)
