@<TRIPOS>MOLECULE
NONAME
29 29 1 0 0 
SMALL
USER_CHARGES


@<TRIPOS>ATOM
  1 O       -6.3270    -2.1400    -0.1060 O.3   1 <1>  -0.3630 
  2 C       -7.6800    -2.2050    -0.0250 C.ar  1 <1>   0.0830 
  3 C       -5.6540    -0.9010    -0.1240 C.3   1 <1>   0.1200 
  4 C       -8.5060    -1.0900     0.0840 C.ar  1 <1>  -0.1500 
  5 C       -8.2470    -3.4690    -0.0560 C.ar  1 <1>  -0.1500 
  6 C       -4.1480    -1.1760    -0.2260 C.3   1 <1>   0.2000 
  7 C       -9.8780    -1.2500     0.1620 C.ar  1 <1>  -0.1500 
  8 C       -9.6190    -3.6250     0.0220 C.ar  1 <1>  -0.1500 
  9 O       -3.7830    -2.0960     0.7590 O.3   1 <1>  -0.6800 
 10 C       -3.2890     0.0930    -0.0460 C.3   1 <1>   0.3430 
 11 C      -10.4420    -2.5150     0.1300 C.ar  1 <1>  -0.1440 
 12 N       -1.9330    -0.2870     0.4420 N.4   1 <1>  -0.8530 
 13 C      -11.9480    -2.6860     0.2170 C.3   1 <1>  -0.0970 
 14 H       -5.8880    -0.3760     0.7860 H     1 <1>   0.0800 
 15 H       -6.0010    -0.3390    -0.9740 H     1 <1>   0.0800 
 16 H       -8.1110    -0.0930     0.1130 H     1 <1>   0.1500 
 17 H       -7.6120    -4.3320    -0.1400 H     1 <1>   0.1500 
 18 H       -3.9400    -1.6230    -1.1840 H     1 <1>   0.0800 
 19 H      -10.5110    -0.3840     0.2480 H     1 <1>   0.1500 
 20 H      -10.0440    -4.6130    -0.0010 H     1 <1>   0.1500 
 21 H       -4.4810    -2.7960     0.8000 H     1 <1>   0.4000 
 22 H       -3.7680     0.7210     0.6880 H     1 <1>   0.0800 
 23 H       -3.2300     0.6450    -0.9700 H     1 <1>   0.0800 
 24 H       -2.0960    -1.0980     1.0670 H     1 <1>   0.4500 
 25 H       -1.4630     0.4550     0.9700 H     1 <1>   0.4500 
 26 H       -1.3280    -0.6230    -0.3130 H     1 <1>   0.4500 
 27 H      -12.4480    -1.8390    -0.2180 H     1 <1>   0.0800 
 28 H      -12.2450    -2.7730     1.2470 H     1 <1>   0.0800 
 29 H      -12.2580    -3.5700    -0.3100 H     1 <1>   0.0800 
@<TRIPOS>BOND
  1   1   2  1   
  2   1   3  1   
  3   2   4  ar  
  4   2   5  ar  
  5   3   6  1   
  6   3  14  1   
  7   3  15  1   
  8   4   7  ar  
  9   4  16  1   
 10   5   8  ar  
 11   5  17  1   
 12   6   9  1   
 13   6  10  1   
 14   6  18  1   
 15   7  11  ar  
 16   7  19  1   
 17   8  11  ar  
 18   8  20  1   
 19   9  21  1   
 20  10  12  1   
 21  10  22  1   
 22  10  23  1   
 23  11  13  1   
 24  12  24  1   
 25  12  25  1   
 26  12  26  1   
 27  13  27  1   
 28  13  28  1   
 29  13  29  1   
@<TRIPOS>SUBSTRUCTURE
  1 ****   2 GROUP 4 **** **** 0

# MOE 2024.06 (io_trps.svl 2023.06)
