@<TRIPOS>MOLECULE
NONAME
26 26 1 0 0 
SMALL
USER_CHARGES


@<TRIPOS>ATOM
  1 F        0.0360     0.3600    -0.7250 F     1 <1>  -0.3400 
  2 C       -0.4050     1.3160     0.0840 C.3   1 <1>   1.1640 
  3 F        0.0760     1.0380     1.2880 F     1 <1>  -0.3400 
  4 F        0.1900     2.4360    -0.3080 F     1 <1>  -0.3400 
  5 C       -1.9380     1.4340     0.0920 C.ar  1 <1>  -0.1440 
  6 C       -2.5500     2.6360     0.4300 C.ar  1 <1>  -0.1500 
  7 C       -2.7450     0.3460    -0.2240 C.ar  1 <1>  -0.1500 
  8 C       -3.9320     2.7750     0.4380 C.ar  1 <1>   0.1170 
  9 C       -4.1250     0.4580    -0.2000 C.ar  1 <1>  -0.1500 
 10 N       -4.5480     3.9940     0.7710 N.am  1 <1>  -0.5470 
 11 C       -4.7260     1.6650     0.1350 C.ar  1 <1>   0.0830 
 12 C       -4.2820     5.2860     0.4480 C.2   1 <1>   0.5690 
 13 O       -6.0800     1.8290     0.1900 O.3   1 <1>  -0.3630 
 14 O       -4.9860     6.1660     0.8700 O.2   1 <1>  -0.5700 
 15 C       -3.1340     5.6580    -0.4610 C.3   1 <1>  -0.1790 
 16 C       -6.9660     0.7850    -0.1530 C.3   1 <1>   0.0400 
 17 H       -1.9440     3.4800     0.7050 H     1 <1>   0.1500 
 18 H       -2.3050    -0.6030    -0.4870 H     1 <1>   0.1500 
 19 H       -4.7100    -0.4090    -0.4440 H     1 <1>   0.1500 
 20 H       -5.4700     3.8860     1.1960 H     1 <1>   0.3700 
 21 H       -3.0110     4.9210    -1.2310 H     1 <1>   0.0800 
 22 H       -2.2310     5.7440     0.1130 H     1 <1>   0.0800 
 23 H       -3.3390     6.6060    -0.9230 H     1 <1>   0.0800 
 24 H       -7.9710     1.1550    -0.0570 H     1 <1>   0.0800 
 25 H       -6.8140    -0.0390     0.5210 H     1 <1>   0.0800 
 26 H       -6.7820     0.4910    -1.1720 H     1 <1>   0.0800 
@<TRIPOS>BOND
  1   1   2  1   
  2   2   3  1   
  3   2   4  1   
  4   2   5  1   
  5   5   6  ar  
  6   5   7  ar  
  7   6   8  ar  
  8   6  17  1   
  9   7   9  ar  
 10   7  18  1   
 11   8  10  1   
 12   8  11  ar  
 13   9  11  ar  
 14   9  19  1   
 15  10  12  am  
 16  10  20  1   
 17  11  13  1   
 18  12  14  2   
 19  12  15  1   
 20  13  16  1   
 21  15  21  1   
 22  15  22  1   
 23  15  23  1   
 24  16  24  1   
 25  16  25  1   
 26  16  26  1   
@<TRIPOS>SUBSTRUCTURE
  1 ****   6 GROUP 4 **** **** 0

# MOE 2024.06 (io_trps.svl 2023.06)
