@<TRIPOS>MOLECULE
NONAME
45 48 1 0 0 
SMALL
USER_CHARGES


@<TRIPOS>ATOM
  1 S       -0.0380     0.6290     1.4240 S.o2  1 <1>   1.4470 
  2 O        0.4150    -0.7280     1.2130 O.2   1 <1>  -0.6500 
  3 O        0.0870     1.2080     2.7450 O.2   1 <1>  -0.6500 
  4 N        0.7620     1.6670     0.3420 N.am  1 <1>  -0.8490 
  5 C       -1.7640     0.7420     0.8690 C.ar  1 <1>  -0.0090 
  6 C        2.1990     1.3450     0.2150 C.3   1 <1>   0.2760 
  7 C        0.5240     3.0660     0.7140 C.3   1 <1>   0.1960 
  8 C       -2.0940     0.5800    -0.4720 C.ar  1 <1>  -0.1500 
  9 C       -2.8000     0.9860     1.7620 C.ar  1 <1>  -0.1500 
 10 C        3.1040     2.5840    -0.0630 C.3   1 <1>  -0.0800 
 11 C        2.4060     0.3170    -0.9110 C.3   1 <1>  -0.1600 
 12 C        1.0150     4.0120    -0.3840 C.3   1 <1>  -0.1600 
 13 C       -3.4040     0.6620    -0.9080 C.ar  1 <1>  -0.1500 
 14 C       -4.1130     1.0690     1.3350 C.ar  1 <1>  -0.1500 
 15 C        2.3950     3.6320    -0.9410 C.3   1 <1>  -0.1600 
 16 C        4.4660     2.2170    -0.7020 C.3   1 <1>  -0.1600 
 17 C        3.8480    -0.2290    -0.9160 C.3   1 <1>  -0.1600 
 18 C       -4.4370     0.9060    -0.0080 C.ar  1 <1>  -0.0230 
 19 C        4.8800     0.7780    -0.3780 C.3   1 <1>  -0.1600 
 20 N       -5.7920     0.9850    -0.4440 N.pl3 1 <1>   0.5930 
 21 N       -6.7080     1.7970     0.0630 N.2   1 <1>  -0.4180 
 22 C       -6.4030     0.2960    -1.3980 C.2   1 <1>   0.0360 
 23 N       -7.7990     1.5840    -0.5780 N.2   1 <1>   0.0000 
 24 N       -7.6260     0.6440    -1.5000 N.2   1 <1>  -0.3380 
 25 H        2.5380     0.9020     1.1390 H     1 <1>   0.0800 
 26 H        1.0350     3.2870     1.6380 H     1 <1>   0.0800 
 27 H       -0.5280     3.2370     0.8700 H     1 <1>   0.0800 
 28 H       -1.3040     0.3900    -1.1810 H     1 <1>   0.1500 
 29 H       -2.5730     1.1140     2.8090 H     1 <1>   0.1500 
 30 H        3.3160     3.0310     0.8930 H     1 <1>   0.0800 
 31 H        2.2080     0.7970    -1.8530 H     1 <1>   0.0800 
 32 H        1.7290    -0.5110    -0.8270 H     1 <1>   0.0800 
 33 H        1.0520     5.0080     0.0200 H     1 <1>   0.0800 
 34 H        0.2980     4.0190    -1.1860 H     1 <1>   0.0800 
 35 H       -3.6100     0.5390    -1.9590 H     1 <1>   0.1500 
 36 H       -4.8920     1.2640     2.0550 H     1 <1>   0.1500 
 37 H        2.2570     3.2240    -1.9280 H     1 <1>   0.0800 
 38 H        3.0060     4.5130    -1.0350 H     1 <1>   0.0800 
 39 H        5.2210     2.9030    -0.3590 H     1 <1>   0.0800 
 40 H        4.4120     2.3100    -1.7740 H     1 <1>   0.0800 
 41 H        4.1050    -0.5080    -1.9230 H     1 <1>   0.0800 
 42 H        3.8930    -1.1210    -0.3130 H     1 <1>   0.0800 
 43 H        4.9650     0.6710     0.6900 H     1 <1>   0.0800 
 44 H        5.8470     0.5660    -0.8030 H     1 <1>   0.0800 
 45 H       -5.9130    -0.4530    -1.9880 H     1 <1>   0.1500 
@<TRIPOS>BOND
  1   1   2  2   
  2   1   3  2   
  3   1   4  am  
  4   1   5  1   
  5   4   6  1   
  6   4   7  1   
  7   5   8  ar  
  8   5   9  ar  
  9   6  10  1   
 10   6  11  1   
 11   6  25  1   
 12   7  12  1   
 13   7  26  1   
 14   7  27  1   
 15   8  13  ar  
 16   8  28  1   
 17   9  14  ar  
 18   9  29  1   
 19  10  15  1   
 20  10  16  1   
 21  10  30  1   
 22  11  17  1   
 23  11  31  1   
 24  11  32  1   
 25  12  15  1   
 26  12  33  1   
 27  12  34  1   
 28  13  18  ar  
 29  13  35  1   
 30  14  18  ar  
 31  14  36  1   
 32  15  37  1   
 33  15  38  1   
 34  16  19  1   
 35  16  39  1   
 36  16  40  1   
 37  17  19  1   
 38  17  41  1   
 39  17  42  1   
 40  18  20  1   
 41  19  43  1   
 42  19  44  1   
 43  20  21  1   
 44  20  22  1   
 45  21  23  2   
 46  22  24  2   
 47  22  45  1   
 48  23  24  1   
@<TRIPOS>SUBSTRUCTURE
  1 ****   5 GROUP 4 **** **** 0

# MOE 2024.06 (io_trps.svl 2023.06)
