@<TRIPOS>MOLECULE
NONAME
39 40 1 0 0 
SMALL
USER_CHARGES


@<TRIPOS>ATOM
  1 O        1.7280     1.3180    -1.1750 O.2   1 <1>  -0.5700 
  2 C        0.9910     1.6710    -0.2750 C.2   1 <1>   0.5440 
  3 N        1.2600     1.2300     0.9900 N.am  1 <1>  -0.7300 
  4 C       -0.1360     2.5490    -0.5340 C.ar  1 <1>   0.0860 
  5 C        2.4660     0.4220     1.3740 C.3   1 <1>   0.2010 
  6 C       -0.5900     3.4690     0.4130 C.ar  1 <1>  -0.1500 
  7 C       -0.8090     2.5070    -1.7550 C.ar  1 <1>  -0.1500 
  8 C        3.7540     1.2460     1.4170 C.2   1 <1>   0.5690 
  9 C       -1.6720     4.2930     0.1580 C.ar  1 <1>  -0.1500 
 10 C       -1.8900     3.3290    -2.0150 C.ar  1 <1>  -0.1500 
 11 O        4.3820     1.3150     2.4480 O.2   1 <1>  -0.5700 
 12 N        4.1360     1.8860     0.2860 N.am  1 <1>  -0.7300 
 13 C       -2.3310     4.2260    -1.0580 C.ar  1 <1>  -0.1430 
 14 C        5.2630     2.8120     0.1290 C.3   1 <1>   0.2200 
 15 C       -3.5170     5.1300    -1.3420 C.3   1 <1>  -0.0970 
 16 C        4.7070     4.2090    -0.1110 C.3   1 <1>  -0.1600 
 17 C        5.9730     2.4900    -1.1790 C.3   1 <1>  -0.1600 
 18 C        4.3080     4.2450    -1.5910 C.3   1 <1>  -0.1600 
 19 C        5.1290     3.1460    -2.2800 C.3   1 <1>  -0.1600 
 20 H        0.6780     1.5470     1.7660 H     1 <1>   0.3700 
 21 H        2.5990    -0.3710     0.6610 H     1 <1>   0.0800 
 22 H        2.3040    -0.0210     2.3400 H     1 <1>   0.0800 
 23 H       -0.0880     3.5510     1.3590 H     1 <1>   0.1500 
 24 H       -0.4740     1.8150    -2.5090 H     1 <1>   0.1500 
 25 H       -1.9980     4.9930     0.9080 H     1 <1>   0.1500 
 26 H       -2.3860     3.2690    -2.9680 H     1 <1>   0.1500 
 27 H        3.5070     1.8260    -0.5280 H     1 <1>   0.3700 
 28 H        5.9180     2.7640     0.9840 H     1 <1>   0.0800 
 29 H       -3.1790     6.0350    -1.8150 H     1 <1>   0.0800 
 30 H       -4.0260     5.3850    -0.4300 H     1 <1>   0.0800 
 31 H       -4.2160     4.6380    -1.9940 H     1 <1>   0.0800 
 32 H        5.4940     4.9230     0.0580 H     1 <1>   0.0800 
 33 H        3.8870     4.4380     0.5460 H     1 <1>   0.0800 
 34 H        6.0960     1.4310    -1.3250 H     1 <1>   0.0800 
 35 H        6.9450     2.9510    -1.1620 H     1 <1>   0.0800 
 36 H        4.5020     5.2130    -2.0210 H     1 <1>   0.0800 
 37 H        3.2590     4.0230    -1.6900 H     1 <1>   0.0800 
 38 H        4.4620     2.4180    -2.7110 H     1 <1>   0.0800 
 39 H        5.7550     3.5490    -3.0570 H     1 <1>   0.0800 
@<TRIPOS>BOND
  1   1   2  2   
  2   2   3  am  
  3   2   4  1   
  4   3   5  1   
  5   3  20  1   
  6   4   6  ar  
  7   4   7  ar  
  8   5   8  1   
  9   5  21  1   
 10   5  22  1   
 11   6   9  ar  
 12   6  23  1   
 13   7  10  ar  
 14   7  24  1   
 15   8  11  2   
 16   8  12  am  
 17   9  13  ar  
 18   9  25  1   
 19  10  13  ar  
 20  10  26  1   
 21  12  14  1   
 22  12  27  1   
 23  13  15  1   
 24  14  16  1   
 25  14  17  1   
 26  14  28  1   
 27  15  29  1   
 28  15  30  1   
 29  15  31  1   
 30  16  18  1   
 31  16  32  1   
 32  16  33  1   
 33  17  19  1   
 34  17  34  1   
 35  17  35  1   
 36  18  19  1   
 37  18  36  1   
 38  18  37  1   
 39  19  38  1   
 40  19  39  1   
@<TRIPOS>SUBSTRUCTURE
  1 ****   2 GROUP 4 **** **** 0

# MOE 2024.06 (io_trps.svl 2023.06)
