@<TRIPOS>MOLECULE
NONAME
48 50 1 0 0 
SMALL
USER_CHARGES


@<TRIPOS>ATOM
  1 N        0.2210     0.2930     0.1250 N.4   1 <1>  -0.9590 
  2 C        1.4400    -0.5960     0.1440 C.3   1 <1>   0.3430 
  3 C        0.2360     1.3400     1.1880 C.3   1 <1>   0.3430 
  4 C       -1.0080    -0.5300     0.2880 C.3   1 <1>   0.4810 
  5 C        2.7840     0.0670    -0.2810 C.3   1 <1>   0.3430 
  6 C        0.9430     2.6210     0.7390 C.3   1 <1>  -0.1600 
  7 C       -2.1970     0.2640    -0.2180 C.2   1 <1>  -0.2540 
  8 N        3.1020     1.4110     0.3380 N.4   1 <1>  -0.9590 
  9 C        2.1870     2.4870    -0.1410 C.3   1 <1>   0.3430 
 10 C       -2.1400     1.4430    -1.0210 C.2   1 <1>  -0.2880 
 11 C       -3.6530    -0.4820     0.3160 C.3   1 <1>   0.1160 
 12 C        4.5170     1.7870    -0.0050 C.3   1 <1>   0.2630 
 13 C       -3.6900     2.0560    -1.4130 C.3   1 <1>  -0.0220 
 14 C       -5.3410    -0.2170     0.1240 C.3   1 <1>   0.0000 
 15 C       -4.0740     0.5350    -0.3660 C.3   1 <1>   0.0000 
 16 C       -5.0760     1.1790    -0.8420 C.3   1 <1>   0.0000 
 17 C       -6.1090     0.0890     1.4360 C.3   1 <1>  -0.2400 
 18 C       -6.0610    -1.3790    -0.6060 C.3   1 <1>  -0.2400 
 19 H        0.0680     0.7320    -0.7930 H     1 <1>   0.4500 
 20 H        1.2720    -1.4350    -0.5120 H     1 <1>   0.0800 
 21 H        1.5630    -1.0000     1.1360 H     1 <1>   0.0800 
 22 H        0.7150     0.9490     2.0710 H     1 <1>   0.0800 
 23 H       -0.7770     1.5980     1.4610 H     1 <1>   0.0800 
 24 H       -1.1520    -0.7840     1.3270 H     1 <1>   0.0800 
 25 H       -0.9370    -1.4450    -0.2790 H     1 <1>   0.0800 
 26 H        2.7820     0.1700    -1.3540 H     1 <1>   0.0800 
 27 H        3.5770    -0.6240    -0.0410 H     1 <1>   0.0800 
 28 H        1.2030     3.1820     1.6190 H     1 <1>   0.0800 
 29 H        0.2310     3.2290     0.2090 H     1 <1>   0.0800 
 30 H        3.0610     1.3610     1.3680 H     1 <1>   0.4500 
 31 H        2.7040     3.4350    -0.1350 H     1 <1>   0.0800 
 32 H        1.8970     2.2880    -1.1600 H     1 <1>   0.0800 
 33 H       -1.3090     1.9970    -1.4210 H     1 <1>   0.1500 
 34 H       -3.5560    -0.4310     1.3900 H     1 <1>   0.0000 
 35 H        4.6400     1.8750    -1.0730 H     1 <1>   0.0800 
 36 H        5.2060     1.0410     0.3590 H     1 <1>   0.0800 
 37 H        4.7750     2.7320     0.4470 H     1 <1>   0.0800 
 38 H       -3.7620     2.1270    -2.4870 H     1 <1>   0.0800 
 39 H       -3.7610     3.0660    -1.0450 H     1 <1>   0.0800 
 40 H       -3.8820    -0.0290    -1.3730 H     1 <1>   0.0000 
 41 H       -3.8950     1.2850     0.5050 H     1 <1>   0.0000 
 42 H       -5.5570     0.8870    -1.7640 H     1 <1>   0.0000 
 43 H       -5.6530     0.8990     1.9780 H     1 <1>   0.0800 
 44 H       -6.1260    -0.7780     2.0710 H     1 <1>   0.0800 
 45 H       -7.1240     0.3690     1.2120 H     1 <1>   0.0800 
 46 H       -5.5650    -1.6290    -1.5270 H     1 <1>   0.0800 
 47 H       -7.0750    -1.1000    -0.8360 H     1 <1>   0.0800 
 48 H       -6.0800    -2.2560     0.0170 H     1 <1>   0.0800 
@<TRIPOS>BOND
  1   1   2  1   
  2   1   3  1   
  3   1   4  1   
  4   1  19  1   
  5   2   5  1   
  6   2  20  1   
  7   2  21  1   
  8   3   6  1   
  9   3  22  1   
 10   3  23  1   
 11   4   7  1   
 12   4  24  1   
 13   4  25  1   
 14   5   8  1   
 15   5  26  1   
 16   5  27  1   
 17   6   9  1   
 18   6  28  1   
 19   6  29  1   
 20   7  10  2   
 21   7  11  1   
 22   8   9  1   
 23   8  12  1   
 24   8  30  1   
 25   9  31  1   
 26   9  32  1   
 27  10  13  1   
 28  10  33  1   
 29  11  14  1   
 30  11  15  1   
 31  11  34  1   
 32  12  35  1   
 33  12  36  1   
 34  12  37  1   
 35  13  16  1   
 36  13  38  1   
 37  13  39  1   
 38  14  16  1   
 39  14  17  1   
 40  14  18  1   
 41  15  16  1   
 42  15  40  1   
 43  15  41  1   
 44  16  42  1   
 45  17  43  1   
 46  17  44  1   
 47  17  45  1   
 48  18  46  1   
 49  18  47  1   
 50  18  48  1   
@<TRIPOS>SUBSTRUCTURE
  1 ****   7 GROUP 4 **** **** 0

# MOE 2024.06 (io_trps.svl 2023.06)
