@<TRIPOS>MOLECULE
NONAME
33 34 1 0 0 
SMALL
USER_CHARGES


@<TRIPOS>ATOM
  1 S       -0.1440     0.3590    -0.3210 S.3   1 <1>  -0.0800 
  2 C       -1.7450     0.7190     0.3070 C.2   1 <1>  -0.1400 
  3 C        0.5760     1.6270     0.6530 C.2   1 <1>  -0.1100 
  4 C       -1.6820     1.7320     1.1930 C.2   1 <1>  -0.1500 
  5 C       -2.8860    -0.1330    -0.2170 C.3   1 <1>   0.2900 
  6 C       -0.3620     2.2510     1.3890 C.2   1 <1>  -0.1500 
  7 N       -4.1720     0.5910    -0.1260 N.3   1 <1>  -0.8100 
  8 C       -4.2210     1.7350    -1.0730 C.3   1 <1>   0.1100 
  9 C       -5.3220    -0.3130    -0.3560 C.3   1 <1>   0.1100 
 10 C       -5.5630     2.5040    -1.0010 C.3   1 <1>   0.3430 
 11 C       -6.6810     0.4290    -0.2790 C.3   1 <1>   0.3430 
 12 N       -6.4890     1.8910     0.0080 N.4   1 <1>  -0.9590 
 13 C       -7.7410     2.6640     0.1860 C.3   1 <1>   0.3430 
 14 C       -8.4370     2.2290     1.4700 C.3   1 <1>  -0.2400 
 15 H        1.6380     1.7720     0.5720 H     1 <1>   0.1500 
 16 H       -2.5190     2.1400     1.7300 H     1 <1>   0.1500 
 17 H       -2.9290    -1.0350     0.3700 H     1 <1>   0.0800 
 18 H       -2.6930    -0.4060    -1.2410 H     1 <1>   0.0800 
 19 H       -0.1820     3.0620     2.0720 H     1 <1>   0.1500 
 20 H       -4.0700     1.3850    -2.0800 H     1 <1>   0.0800 
 21 H       -3.4220     2.4240    -0.8550 H     1 <1>   0.0800 
 22 H       -5.3140    -1.0950     0.3850 H     1 <1>   0.0800 
 23 H       -5.2330    -0.7840    -1.3210 H     1 <1>   0.0800 
 24 H       -6.0240     2.5000    -1.9750 H     1 <1>   0.0800 
 25 H       -5.3610     3.5290    -0.7380 H     1 <1>   0.0800 
 26 H       -7.2750    -0.0240     0.4970 H     1 <1>   0.0800 
 27 H       -7.2070     0.3020    -1.2100 H     1 <1>   0.0800 
 28 H       -5.9390     1.9020     0.8820 H     1 <1>   0.4500 
 29 H       -8.3940     2.5170    -0.6590 H     1 <1>   0.0800 
 30 H       -7.5100     3.7150     0.2560 H     1 <1>   0.0800 
 31 H       -8.7810     1.2120     1.4070 H     1 <1>   0.0800 
 32 H       -9.2980     2.8530     1.6320 H     1 <1>   0.0800 
 33 H       -7.7830     2.3410     2.3170 H     1 <1>   0.0800 
@<TRIPOS>BOND
  1   1   2  1   
  2   1   3  1   
  3   2   4  2   
  4   2   5  1   
  5   3   6  2   
  6   3  15  1   
  7   4   6  1   
  8   4  16  1   
  9   5   7  1   
 10   5  17  1   
 11   5  18  1   
 12   6  19  1   
 13   7   8  1   
 14   7   9  1   
 15   8  10  1   
 16   8  20  1   
 17   8  21  1   
 18   9  11  1   
 19   9  22  1   
 20   9  23  1   
 21  10  12  1   
 22  10  24  1   
 23  10  25  1   
 24  11  12  1   
 25  11  26  1   
 26  11  27  1   
 27  12  13  1   
 28  12  28  1   
 29  13  14  1   
 30  13  29  1   
 31  13  30  1   
 32  14  31  1   
 33  14  32  1   
 34  14  33  1   
@<TRIPOS>SUBSTRUCTURE
  1 ****   7 GROUP 4 **** **** 0

# MOE 2024.06 (io_trps.svl 2023.06)
