@<TRIPOS>MOLECULE
NONAME
33 33 1 0 0 
SMALL
USER_CHARGES


@<TRIPOS>ATOM
  1 S        0.1780     0.0470    -0.4380 S.o2  1 <1>   1.4470 
  2 O        0.8230    -1.2280    -0.2250 O.2   1 <1>  -0.6500 
  3 O        0.4800     0.7750    -1.6510 O.2   1 <1>  -0.6500 
  4 N        0.8180     0.9440     0.8310 N.am  1 <1>  -0.9140 
  5 C       -1.6340     0.0150    -0.1350 C.ar  1 <1>  -0.0090 
  6 C        2.0590     1.6600     0.5250 C.3   1 <1>   0.1960 
  7 C       -2.3490     1.2040     0.0760 C.ar  1 <1>  -0.1430 
  8 C       -2.3650    -1.1840    -0.1220 C.ar  1 <1>  -0.1430 
  9 C        3.2280     0.7190     0.1900 C.3   1 <1>   0.1200 
 10 C       -3.7110     1.1810     0.3330 C.ar  1 <1>  -0.1500 
 11 C       -1.6950     2.5830     0.0320 C.3   1 <1>  -0.0970 
 12 C       -3.7270    -1.1830     0.1360 C.ar  1 <1>  -0.1500 
 13 C       -1.7350    -2.5450    -0.3960 C.3   1 <1>  -0.0970 
 14 O        4.3810     1.4700     0.0080 O.3   1 <1>  -0.6800 
 15 C       -4.4070    -0.0070     0.3720 C.ar  1 <1>  -0.1440 
 16 C       -5.8980    -0.0210     0.6560 C.3   1 <1>  -0.0970 
 17 H        1.0230     0.2400     1.5380 H     1 <1>   0.4200 
 18 H        2.3310     2.2450     1.3880 H     1 <1>   0.0800 
 19 H        1.8890     2.3360    -0.2960 H     1 <1>   0.0800 
 20 H        3.0470     0.1650    -0.7160 H     1 <1>   0.0800 
 21 H        3.4090     0.0370     1.0030 H     1 <1>   0.0800 
 22 H       -4.2420     2.1010     0.5040 H     1 <1>   0.1500 
 23 H       -1.1350     2.7570     0.9320 H     1 <1>   0.0800 
 24 H       -2.4360     3.3580    -0.0530 H     1 <1>   0.0800 
 25 H       -1.0420     2.6760    -0.8160 H     1 <1>   0.0800 
 26 H       -4.2740    -2.1100     0.1530 H     1 <1>   0.1500 
 27 H       -1.0950    -2.8300     0.4210 H     1 <1>   0.0800 
 28 H       -1.1610    -2.5210    -1.3050 H     1 <1>   0.0800 
 29 H       -2.4830    -3.3080    -0.5090 H     1 <1>   0.0800 
 30 H        4.3610     1.9270    -0.8570 H     1 <1>   0.4000 
 31 H       -6.1680     0.8050     1.2900 H     1 <1>   0.0800 
 32 H       -6.1790    -0.9330     1.1510 H     1 <1>   0.0800 
 33 H       -6.4450     0.0570    -0.2670 H     1 <1>   0.0800 
@<TRIPOS>BOND
  1   1   2  2   
  2   1   3  2   
  3   1   4  am  
  4   1   5  1   
  5   4   6  1   
  6   4  17  1   
  7   5   7  ar  
  8   5   8  ar  
  9   6   9  1   
 10   6  18  1   
 11   6  19  1   
 12   7  10  ar  
 13   7  11  1   
 14   8  12  ar  
 15   8  13  1   
 16   9  14  1   
 17   9  20  1   
 18   9  21  1   
 19  10  15  ar  
 20  10  22  1   
 21  11  23  1   
 22  11  24  1   
 23  11  25  1   
 24  12  15  ar  
 25  12  26  1   
 26  13  27  1   
 27  13  28  1   
 28  13  29  1   
 29  14  30  1   
 30  15  16  1   
 31  16  31  1   
 32  16  32  1   
 33  16  33  1   
@<TRIPOS>SUBSTRUCTURE
  1 ****   5 GROUP 4 **** **** 0

# MOE 2024.06 (io_trps.svl 2023.06)
