@<TRIPOS>MOLECULE
NONAME
44 46 1 0 0 
SMALL
USER_CHARGES


@<TRIPOS>ATOM
  1 O       -3.6400     2.2230     3.5880 O.3   1 <1>  -0.5320 
  2 C       -3.4370     1.9390     2.2950 C.ar  1 <1>   0.0830 
  3 C       -4.3580     1.1470     1.6350 C.ar  1 <1>  -0.1500 
  4 C       -2.3260     2.4320     1.6320 C.ar  1 <1>  -0.1500 
  5 C       -4.1790     0.8440     0.2930 C.ar  1 <1>  -0.1430 
  6 C       -2.1400     2.1250     0.2960 C.ar  1 <1>  -0.1500 
  7 C       -3.0620     1.3350    -0.3720 C.ar  1 <1>  -0.1500 
  8 C       -5.1980    -0.0060    -0.4400 C.3   1 <1>   0.4860 
  9 N       -6.4710     0.7520    -0.5470 N.4   1 <1>  -0.9590 
 10 C       -7.5990    -0.0260    -1.1520 C.3   1 <1>   0.3430 
 11 C       -6.3370     2.1040    -1.1860 C.3   1 <1>   0.3430 
 12 C       -8.9120     0.7940    -1.1500 C.3   1 <1>   0.1100 
 13 C       -7.6670     2.8940    -1.0950 C.3   1 <1>   0.1100 
 14 N       -8.7540     2.1050    -0.4690 N.3   1 <1>  -0.8100 
 15 C      -10.0180     2.8660    -0.4140 C.3   1 <1>   0.2530 
 16 C      -11.0830     2.0860     0.3430 C.ar  1 <1>  -0.1430 
 17 C      -10.9010     1.7820     1.6840 C.ar  1 <1>  -0.1500 
 18 C      -12.2410     1.6680    -0.2970 C.ar  1 <1>  -0.1500 
 19 C      -11.8620     1.0660     2.3770 C.ar  1 <1>  -0.1500 
 20 C      -13.2020     0.9510     0.3950 C.ar  1 <1>  -0.1500 
 21 C      -13.0130     0.6490     1.7320 C.ar  1 <1>  -0.1500 
 22 H       -2.9260     2.7540     3.9860 H     1 <1>   0.4500 
 23 H       -5.2020     0.7790     2.1910 H     1 <1>   0.1500 
 24 H       -1.6080     3.0450     2.1470 H     1 <1>   0.1500 
 25 H       -1.2740     2.5010    -0.2230 H     1 <1>   0.1500 
 26 H       -2.8920     1.1080    -1.4110 H     1 <1>   0.1500 
 27 H       -5.3570    -0.9210     0.1070 H     1 <1>   0.0800 
 28 H       -4.8300    -0.2520    -1.4210 H     1 <1>   0.0800 
 29 H       -6.8000     0.9790     0.4030 H     1 <1>   0.4500 
 30 H       -7.7600    -0.9320    -0.5920 H     1 <1>   0.0800 
 31 H       -7.3590    -0.3040    -2.1650 H     1 <1>   0.0800 
 32 H       -6.0560     1.9970    -2.2200 H     1 <1>   0.0800 
 33 H       -5.5650     2.6710    -0.6930 H     1 <1>   0.0800 
 34 H       -9.6680     0.2110    -0.6510 H     1 <1>   0.0800 
 35 H       -9.2410     0.9460    -2.1640 H     1 <1>   0.0800 
 36 H       -7.9590     3.2040    -2.0840 H     1 <1>   0.0800 
 37 H       -7.4980     3.7850    -0.5140 H     1 <1>   0.0800 
 38 H      -10.3600     3.0870    -1.4110 H     1 <1>   0.0800 
 39 H       -9.8530     3.8000     0.0980 H     1 <1>   0.0800 
 40 H      -10.0070     2.1030     2.1890 H     1 <1>   0.1500 
 41 H      -12.4050     1.8970    -1.3350 H     1 <1>   0.1500 
 42 H      -11.7150     0.8350     3.4180 H     1 <1>   0.1500 
 43 H      -14.1000     0.6300    -0.1040 H     1 <1>   0.1500 
 44 H      -13.7610     0.0940     2.2710 H     1 <1>   0.1500 
@<TRIPOS>BOND
  1   1   2  1   
  2   1  22  1   
  3   2   3  ar  
  4   2   4  ar  
  5   3   5  ar  
  6   3  23  1   
  7   4   6  ar  
  8   4  24  1   
  9   5   7  ar  
 10   5   8  1   
 11   6   7  ar  
 12   6  25  1   
 13   7  26  1   
 14   8   9  1   
 15   8  27  1   
 16   8  28  1   
 17   9  10  1   
 18   9  11  1   
 19   9  29  1   
 20  10  12  1   
 21  10  30  1   
 22  10  31  1   
 23  11  13  1   
 24  11  32  1   
 25  11  33  1   
 26  12  14  1   
 27  12  34  1   
 28  12  35  1   
 29  13  14  1   
 30  13  36  1   
 31  13  37  1   
 32  14  15  1   
 33  15  16  1   
 34  15  38  1   
 35  15  39  1   
 36  16  17  ar  
 37  16  18  ar  
 38  17  19  ar  
 39  17  40  1   
 40  18  20  ar  
 41  18  41  1   
 42  19  21  ar  
 43  19  42  1   
 44  20  21  ar  
 45  20  43  1   
 46  21  44  1   
@<TRIPOS>SUBSTRUCTURE
  1 ****   9 GROUP 4 **** **** 0

# MOE 2024.06 (io_trps.svl 2023.06)
