@<TRIPOS>MOLECULE
NONAME
51 52 1 0 0 
SMALL
USER_CHARGES


@<TRIPOS>ATOM
  1 S       -0.2360    -0.0960    -0.4450 S.o2  1 <1>   1.4470 
  2 O        0.3820    -0.1150    -1.7540 O.2   1 <1>  -0.6500 
  3 O       -0.3440     1.1550     0.2730 O.2   1 <1>  -0.6500 
  4 N        0.6550    -1.1510     0.5370 N.am  1 <1>  -0.8490 
  5 C       -1.8670    -0.8810    -0.5200 C.ar  1 <1>  -0.0090 
  6 C        1.8930    -0.5190     1.0170 C.3   1 <1>   0.1960 
  7 C        0.9880    -2.4150    -0.1410 C.3   1 <1>   0.1960 
  8 C       -2.5280    -1.2580     0.6430 C.ar  1 <1>  -0.1500 
  9 C       -2.4970    -1.1230    -1.7340 C.ar  1 <1>  -0.1500 
 10 C        2.7030    -1.4830     1.9020 C.3   1 <1>   0.1200 
 11 C        1.8100    -3.3340     0.7800 C.3   1 <1>   0.1200 
 12 C       -3.7740    -1.8610     0.6090 C.ar  1 <1>  -0.1430 
 13 C       -3.7420    -1.7220    -1.7900 C.ar  1 <1>  -0.1500 
 14 O        2.9650    -2.6790     1.2230 O.3   1 <1>  -0.5600 
 15 C       -4.3890    -2.0940    -0.6160 C.ar  1 <1>   0.0830 
 16 C       -4.4570    -2.2550     1.9120 C.3   1 <1>  -0.0970 
 17 O       -5.6120    -2.6780    -0.6030 O.3   1 <1>  -0.3630 
 18 C       -6.3810    -2.8390    -1.7900 C.3   1 <1>   0.1810 
 19 C       -7.7540    -3.4180    -1.4800 C.2   1 <1>   0.5690 
 20 O       -8.4910    -3.6570    -2.4070 O.2   1 <1>  -0.5700 
 21 N       -8.0910    -3.6360    -0.1790 N.am  1 <1>  -0.7300 
 22 C       -9.3250    -4.1750     0.3930 C.3   1 <1>   0.3000 
 23 C       -9.1320    -4.1910     1.9080 C.3   1 <1>  -0.2400 
 24 C      -10.4990    -3.2650     0.0320 C.3   1 <1>  -0.2400 
 25 C       -9.5470    -5.5990    -0.1140 C.3   1 <1>  -0.2400 
 26 H        1.6510     0.3590     1.5930 H     1 <1>   0.0800 
 27 H        2.4990    -0.2110     0.1800 H     1 <1>   0.0800 
 28 H        1.5600    -2.2220    -1.0340 H     1 <1>   0.0800 
 29 H        0.0830    -2.9230    -0.4260 H     1 <1>   0.0800 
 30 H       -2.0470    -1.0700     1.5880 H     1 <1>   0.1500 
 31 H       -2.0050    -0.8360    -2.6500 H     1 <1>   0.1500 
 32 H        2.1620    -1.7100     2.8040 H     1 <1>   0.0800 
 33 H        3.6480    -1.0410     2.1660 H     1 <1>   0.0800 
 34 H        2.1180    -4.2170     0.2490 H     1 <1>   0.0800 
 35 H        1.2300    -3.6280     1.6380 H     1 <1>   0.0800 
 36 H       -4.1840    -1.8880    -2.7540 H     1 <1>   0.1500 
 37 H       -3.8400    -2.0210     2.7610 H     1 <1>   0.0800 
 38 H       -4.6570    -3.3110     1.9140 H     1 <1>   0.0800 
 39 H       -5.3870    -1.7250     2.0100 H     1 <1>   0.0800 
 40 H       -5.8560    -3.5040    -2.4490 H     1 <1>   0.0800 
 41 H       -6.5010    -1.8760    -2.2520 H     1 <1>   0.0800 
 42 H       -7.3770    -3.4000     0.5120 H     1 <1>   0.3700 
 43 H       -8.9610    -3.1960     2.2780 H     1 <1>   0.0800 
 44 H       -8.3000    -4.8180     2.1760 H     1 <1>   0.0800 
 45 H      -10.0130    -4.5800     2.3870 H     1 <1>   0.0800 
 46 H      -10.3090    -2.2580     0.3560 H     1 <1>   0.0800 
 47 H      -11.3980    -3.6140     0.5060 H     1 <1>   0.0800 
 48 H      -10.6630    -3.2640    -1.0310 H     1 <1>   0.0800 
 49 H       -8.6950    -6.2160     0.1090 H     1 <1>   0.0800 
 50 H       -9.7100    -5.6010    -1.1770 H     1 <1>   0.0800 
 51 H      -10.4130    -6.0290     0.3540 H     1 <1>   0.0800 
@<TRIPOS>BOND
  1   1   2  2   
  2   1   3  2   
  3   1   4  am  
  4   1   5  1   
  5   4   6  1   
  6   4   7  1   
  7   5   8  ar  
  8   5   9  ar  
  9   6  10  1   
 10   6  26  1   
 11   6  27  1   
 12   7  11  1   
 13   7  28  1   
 14   7  29  1   
 15   8  12  ar  
 16   8  30  1   
 17   9  13  ar  
 18   9  31  1   
 19  10  14  1   
 20  10  32  1   
 21  10  33  1   
 22  11  14  1   
 23  11  34  1   
 24  11  35  1   
 25  12  15  ar  
 26  12  16  1   
 27  13  15  ar  
 28  13  36  1   
 29  15  17  1   
 30  16  37  1   
 31  16  38  1   
 32  16  39  1   
 33  17  18  1   
 34  18  19  1   
 35  18  40  1   
 36  18  41  1   
 37  19  20  2   
 38  19  21  am  
 39  21  22  1   
 40  21  42  1   
 41  22  23  1   
 42  22  24  1   
 43  22  25  1   
 44  23  43  1   
 45  23  44  1   
 46  23  45  1   
 47  24  46  1   
 48  24  47  1   
 49  24  48  1   
 50  25  49  1   
 51  25  50  1   
 52  25  51  1   
@<TRIPOS>SUBSTRUCTURE
  1 ****  12 GROUP 4 **** **** 0

# MOE 2024.06 (io_trps.svl 2023.06)
