@<TRIPOS>MOLECULE
NONAME
47 48 1 0 0 
SMALL
USER_CHARGES


@<TRIPOS>ATOM
  1 S       -1.1430     1.8960     0.1080 S.o2  1 <1>   1.4470 
  2 O       -1.8420     1.1280    -0.9020 O.2   1 <1>  -0.6500 
  3 O       -1.5780     3.2340     0.4280 O.2   1 <1>  -0.6500 
  4 N       -1.2950     1.0650     1.5540 N.am  1 <1>  -0.9140 
  5 C        0.6420     1.8640    -0.2060 C.ar  1 <1>  -0.0090 
  6 C       -2.5410     0.3020     1.6770 C.3   1 <1>   0.3370 
  7 C        1.4270     2.9990    -0.0330 C.ar  1 <1>  -0.1500 
  8 C        1.2740     0.6940    -0.6140 C.ar  1 <1>  -0.1500 
  9 C       -3.8300     1.1650     1.6140 C.2   1 <1>   0.5690 
 10 C       -2.4310    -0.4980     2.9780 C.3   1 <1>  -0.2400 
 11 C        2.7910     2.9680    -0.2620 C.ar  1 <1>  -0.1500 
 12 C        2.6390     0.6520    -0.8470 C.ar  1 <1>  -0.1500 
 13 O       -4.2980     1.6220     2.6330 O.2   1 <1>  -0.5700 
 14 N       -4.3940     1.4080     0.4020 N.am  1 <1>  -0.7300 
 15 C        3.4080     1.7980    -0.6700 C.ar  1 <1>   0.0830 
 16 C       -5.5430     2.2890     0.1530 C.3   1 <1>   0.2200 
 17 O        4.7450     1.8510    -0.8740 O.3   1 <1>  -0.3620 
 18 C       -6.3620     1.7010    -0.9890 C.3   1 <1>  -0.1600 
 19 C       -5.0340     3.6020    -0.4260 C.3   1 <1>  -0.1600 
 20 C        5.4730     0.7220    -1.3000 C.3   1 <1>   0.1200 
 21 C       -5.6350     2.1120    -2.2760 C.3   1 <1>  -0.1600 
 22 C       -4.7660     3.3220    -1.9090 C.3   1 <1>  -0.1600 
 23 C        6.9380     1.1270    -1.4340 C.3   1 <1>  -0.2400 
 24 H       -1.3650     1.8120     2.2470 H     1 <1>   0.4200 
 25 H       -2.5900    -0.4120     0.8720 H     1 <1>   0.0800 
 26 H        0.9680     3.9200     0.2850 H     1 <1>   0.1500 
 27 H        0.6870    -0.1980    -0.7530 H     1 <1>   0.1500 
 28 H       -2.3650     0.1640     3.8230 H     1 <1>   0.0800 
 29 H       -1.5650    -1.1350     2.9520 H     1 <1>   0.0800 
 30 H       -3.3050    -1.1120     3.0990 H     1 <1>   0.0800 
 31 H        3.3880     3.8520    -0.1260 H     1 <1>   0.1500 
 32 H        3.0810    -0.2740    -1.1620 H     1 <1>   0.1500 
 33 H       -3.8600     1.1800    -0.4460 H     1 <1>   0.3700 
 34 H       -6.1210     2.4290     1.0530 H     1 <1>   0.0800 
 35 H       -7.3360     2.1580    -0.9780 H     1 <1>   0.0800 
 36 H       -6.4810     0.6360    -0.8990 H     1 <1>   0.0800 
 37 H       -4.1660     3.9680     0.0940 H     1 <1>   0.0800 
 38 H       -5.8160     4.3370    -0.3440 H     1 <1>   0.0800 
 39 H        5.0790     0.4010    -2.2490 H     1 <1>   0.0800 
 40 H        5.3580    -0.0540    -0.5640 H     1 <1>   0.0800 
 41 H       -6.3390     2.3550    -3.0530 H     1 <1>   0.0800 
 42 H       -5.0060     1.3070    -2.6160 H     1 <1>   0.0800 
 43 H       -3.7260     3.0770    -2.0480 H     1 <1>   0.0800 
 44 H       -5.0030     4.1810    -2.5130 H     1 <1>   0.0800 
 45 H        7.0390     1.9140    -2.1590 H     1 <1>   0.0800 
 46 H        7.5210     0.2840    -1.7580 H     1 <1>   0.0800 
 47 H        7.3170     1.4610    -0.4840 H     1 <1>   0.0800 
@<TRIPOS>BOND
  1   1   2  2   
  2   1   3  2   
  3   1   4  am  
  4   1   5  1   
  5   4   6  1   
  6   4  24  1   
  7   5   7  ar  
  8   5   8  ar  
  9   6   9  1   
 10   6  10  1   
 11   6  25  1   
 12   7  11  ar  
 13   7  26  1   
 14   8  12  ar  
 15   8  27  1   
 16   9  13  2   
 17   9  14  am  
 18  10  28  1   
 19  10  29  1   
 20  10  30  1   
 21  11  15  ar  
 22  11  31  1   
 23  12  15  ar  
 24  12  32  1   
 25  14  16  1   
 26  14  33  1   
 27  15  17  1   
 28  16  18  1   
 29  16  19  1   
 30  16  34  1   
 31  17  20  1   
 32  18  21  1   
 33  18  35  1   
 34  18  36  1   
 35  19  22  1   
 36  19  37  1   
 37  19  38  1   
 38  20  23  1   
 39  20  39  1   
 40  20  40  1   
 41  21  22  1   
 42  21  41  1   
 43  21  42  1   
 44  22  43  1   
 45  22  44  1   
 46  23  45  1   
 47  23  46  1   
 48  23  47  1   
@<TRIPOS>SUBSTRUCTURE
  1 ****   1 GROUP 4 **** **** 0

# MOE 2024.06 (io_trps.svl 2023.06)
