@<TRIPOS>MOLECULE
NONAME
30 30 1 0 0 
SMALL
USER_CHARGES


@<TRIPOS>ATOM
  1 O       -0.3490     0.2960    -0.2550 O.2   1 <1>  -0.5700 
  2 C       -0.0370     1.4540    -0.0660 C.2   1 <1>   0.7800 
  3 O       -0.9660     2.4090    -0.0790 O.3   1 <1>  -0.4300 
  4 N        1.2300     1.8940     0.1580 N.am  1 <1>  -0.5470 
  5 C       -2.3270     2.0980    -0.3080 C.3   1 <1>   0.0400 
  6 C        2.4590     1.2210     0.2470 C.ar  1 <1>   0.1170 
  7 C        2.5610    -0.1450     0.4910 C.ar  1 <1>  -0.1500 
  8 C        3.6290     1.9570     0.1040 C.ar  1 <1>  -0.1500 
  9 C        3.7930    -0.7710     0.5750 C.ar  1 <1>  -0.1430 
 10 C        4.8740     1.3560     0.1830 C.ar  1 <1>  -0.1430 
 11 C        4.9500    -0.0170     0.4020 C.ar  1 <1>   0.0830 
 12 C        3.8510    -2.2640     0.8620 C.3   1 <1>  -0.0970 
 13 C        6.1300     2.2030     0.0360 C.3   1 <1>  -0.0970 
 14 O        6.1630    -0.6190     0.4590 O.3   1 <1>  -0.3630 
 15 C        6.6470    -1.1260    -0.7630 C.3   1 <1>   0.0400 
 16 H        1.2730     2.9050     0.2350 H     1 <1>   0.3700 
 17 H       -2.8960     3.0090    -0.2750 H     1 <1>   0.0800 
 18 H       -2.6630     1.4220     0.4590 H     1 <1>   0.0800 
 19 H       -2.4200     1.6360    -1.2760 H     1 <1>   0.0800 
 20 H        1.6680    -0.7270     0.6220 H     1 <1>   0.1500 
 21 H        3.5620     3.0140    -0.0740 H     1 <1>   0.1500 
 22 H        2.9360    -2.6010     1.3150 H     1 <1>   0.0800 
 23 H        4.6590    -2.4830     1.5360 H     1 <1>   0.0800 
 24 H        4.0020    -2.8070    -0.0530 H     1 <1>   0.0800 
 25 H        5.9100     3.2460     0.1760 H     1 <1>   0.0800 
 26 H        6.5500     2.0670    -0.9430 H     1 <1>   0.0800 
 27 H        6.8590     1.9120     0.7710 H     1 <1>   0.0800 
 28 H        7.6090    -1.5700    -0.5860 H     1 <1>   0.0800 
 29 H        6.7350    -0.3170    -1.4660 H     1 <1>   0.0800 
 30 H        5.9590    -1.8650    -1.1320 H     1 <1>   0.0800 
@<TRIPOS>BOND
  1   1   2  2   
  2   2   3  1   
  3   2   4  am  
  4   3   5  1   
  5   4   6  1   
  6   4  16  1   
  7   5  17  1   
  8   5  18  1   
  9   5  19  1   
 10   6   7  ar  
 11   6   8  ar  
 12   7   9  ar  
 13   7  20  1   
 14   8  10  ar  
 15   8  21  1   
 16   9  11  ar  
 17   9  12  1   
 18  10  11  ar  
 19  10  13  1   
 20  11  14  1   
 21  12  22  1   
 22  12  23  1   
 23  12  24  1   
 24  13  25  1   
 25  13  26  1   
 26  13  27  1   
 27  14  15  1   
 28  15  28  1   
 29  15  29  1   
 30  15  30  1   
@<TRIPOS>SUBSTRUCTURE
  1 ****   6 GROUP 4 **** **** 0

# MOE 2024.06 (io_trps.svl 2023.06)
