@<TRIPOS>MOLECULE
NONAME
47 49 1 0 0 
SMALL
USER_CHARGES


@<TRIPOS>ATOM
  1 CL      -4.2290     0.7450     1.5110 Cl    1 <1>  -0.1770 
  2 C       -2.7370     1.6480     1.3810 C.ar  1 <1>   0.1770 
  3 C       -2.3000     2.1080     0.1480 C.ar  1 <1>  -0.1440 
  4 C       -2.0190     1.8840     2.5430 C.ar  1 <1>  -0.1500 
  5 C       -1.1090     2.8190     0.1330 C.ar  1 <1>   0.1900 
  6 C       -3.0880     1.8390    -1.1250 C.3   1 <1>   0.2540 
  7 C       -0.8310     2.5970     2.4920 C.ar  1 <1>  -0.1500 
  8 F       -0.6570     3.2880    -1.0010 F     1 <1>  -0.1900 
  9 C       -0.3690     3.0700     1.2750 C.ar  1 <1>  -0.1500 
 10 N       -4.2660     2.7240    -1.1950 N.3   1 <1>  -0.8100 
 11 C       -3.9040     4.1520    -1.3710 C.3   1 <1>   0.1100 
 12 C       -5.2170     2.2900    -2.2430 C.3   1 <1>   0.1100 
 13 C       -5.1490     5.0700    -1.4290 C.3   1 <1>   0.3430 
 14 C       -6.4870     3.1770    -2.2870 C.3   1 <1>   0.3430 
 15 N       -6.4150     4.2830    -1.2750 N.4   1 <1>  -0.9590 
 16 C       -7.6250     5.1240    -1.1730 C.3   1 <1>   0.4810 
 17 C       -8.7670     4.2490    -0.7150 C.2   1 <1>  -0.2880 
 18 C       -9.2430     4.2040     0.5410 C.2   1 <1>  -0.1780 
 19 C      -10.3330     3.3960     1.0420 C.ar  1 <1>   0.0280 
 20 C      -10.4490     3.1540     2.4090 C.ar  1 <1>  -0.1500 
 21 C      -11.2970     2.8400     0.2040 C.ar  1 <1>  -0.1500 
 22 C      -11.4790     2.3850     2.9190 C.ar  1 <1>  -0.1500 
 23 C      -12.3300     2.0690     0.7070 C.ar  1 <1>  -0.1500 
 24 C      -12.4220     1.8390     2.0680 C.ar  1 <1>  -0.1500 
 25 H       -2.3900     1.5090     3.4810 H     1 <1>   0.1500 
 26 H       -3.4110     0.8120    -1.1150 H     1 <1>   0.0800 
 27 H       -2.4700     1.9750    -1.9970 H     1 <1>   0.0800 
 28 H       -0.2700     2.7800     3.3930 H     1 <1>   0.1500 
 29 H        0.5500     3.6250     1.2110 H     1 <1>   0.1500 
 30 H       -3.2880     4.4720    -0.5480 H     1 <1>   0.0800 
 31 H       -3.3250     4.2770    -2.2720 H     1 <1>   0.0800 
 32 H       -4.7370     2.3110    -3.2070 H     1 <1>   0.0800 
 33 H       -5.5170     1.2730    -2.0530 H     1 <1>   0.0800 
 34 H       -5.1540     5.5970    -2.3690 H     1 <1>   0.0800 
 35 H       -5.0730     5.8030    -0.6430 H     1 <1>   0.0800 
 36 H       -7.3440     2.5550    -2.0890 H     1 <1>   0.0800 
 37 H       -6.6000     3.5870    -3.2770 H     1 <1>   0.0800 
 38 H       -6.2970     3.7780    -0.3810 H     1 <1>   0.4500 
 39 H       -7.4630     5.9010    -0.4430 H     1 <1>   0.0800 
 40 H       -7.8570     5.5840    -2.1200 H     1 <1>   0.0800 
 41 H       -9.1780     3.6510    -1.5080 H     1 <1>   0.1500 
 42 H       -8.7940     4.8170     1.3060 H     1 <1>   0.1500 
 43 H       -9.7250     3.5680     3.0870 H     1 <1>   0.1500 
 44 H      -11.2540     3.0130    -0.8550 H     1 <1>   0.1500 
 45 H      -11.5480     2.2090     3.9790 H     1 <1>   0.1500 
 46 H      -13.0640     1.6490     0.0430 H     1 <1>   0.1500 
 47 H      -13.2240     1.2390     2.4620 H     1 <1>   0.1500 
@<TRIPOS>BOND
  1   1   2  1   
  2   2   3  ar  
  3   2   4  ar  
  4   3   5  ar  
  5   3   6  1   
  6   4   7  ar  
  7   4  25  1   
  8   5   8  1   
  9   5   9  ar  
 10   6  10  1   
 11   6  26  1   
 12   6  27  1   
 13   7   9  ar  
 14   7  28  1   
 15   9  29  1   
 16  10  11  1   
 17  10  12  1   
 18  11  13  1   
 19  11  30  1   
 20  11  31  1   
 21  12  14  1   
 22  12  32  1   
 23  12  33  1   
 24  13  15  1   
 25  13  34  1   
 26  13  35  1   
 27  14  15  1   
 28  14  36  1   
 29  14  37  1   
 30  15  16  1   
 31  15  38  1   
 32  16  17  1   
 33  16  39  1   
 34  16  40  1   
 35  17  18  2   
 36  17  41  1   
 37  18  19  1   
 38  18  42  1   
 39  19  20  ar  
 40  19  21  ar  
 41  20  22  ar  
 42  20  43  1   
 43  21  23  ar  
 44  21  44  1   
 45  22  24  ar  
 46  22  45  1   
 47  23  24  ar  
 48  23  46  1   
 49  24  47  1   
@<TRIPOS>SUBSTRUCTURE
  1 ****  15 GROUP 4 **** **** 0

# MOE 2024.06 (io_trps.svl 2023.06)
