@<TRIPOS>MOLECULE
NONAME
54 56 1 0 0 
SMALL
USER_CHARGES


@<TRIPOS>ATOM
  1 O        1.1220     0.9030     1.6620 O.2   1 <1>  -0.5700 
  2 C        0.7300     1.7420     0.8860 C.2   1 <1>   0.5690 
  3 N       -0.5980     2.0190     0.6850 N.am  1 <1>  -0.5470 
  4 C        1.7600     2.5210     0.0460 C.3   1 <1>   0.1710 
  5 C       -1.7480     1.4610     1.2650 C.ar  1 <1>   0.1170 
  6 N        2.9010     1.7150    -0.4830 N.3   1 <1>  -0.8100 
  7 C       -2.9490     1.5420     0.5680 C.ar  1 <1>  -0.1500 
  8 C       -1.7490     0.8440     2.5120 C.ar  1 <1>  -0.1500 
  9 C        2.4850     0.5220    -1.2570 C.3   1 <1>   0.1100 
 10 C        3.9010     2.5170    -1.2210 C.3   1 <1>   0.1100 
 11 C       -4.1210     1.0190     1.0890 C.ar  1 <1>  -0.1440 
 12 C       -2.9130     0.3170     3.0400 C.ar  1 <1>  -0.1500 
 13 C        3.6930    -0.3780    -1.6170 C.3   1 <1>   0.3430 
 14 C        5.1010     1.6580    -1.6990 C.3   1 <1>   0.3430 
 15 C       -4.0980     0.4040     2.3290 C.ar  1 <1>  -0.1500 
 16 C       -5.4230     1.1100     0.3150 C.3   1 <1>  -0.0970 
 17 N        4.9900     0.2470    -1.1960 N.4   1 <1>  -0.9590 
 18 C        6.1650    -0.6130    -1.4470 C.3   1 <1>   0.4810 
 19 C        7.3430    -0.0270    -0.7070 C.2   1 <1>  -0.2880 
 20 C        7.8290    -0.4970     0.4550 C.2   1 <1>  -0.1780 
 21 C        8.9540     0.0080     1.2120 C.ar  1 <1>   0.0280 
 22 C        9.9140     0.8500     0.6520 C.ar  1 <1>  -0.1500 
 23 C        9.1100    -0.3480     2.5490 C.ar  1 <1>  -0.1500 
 24 C       10.9790     1.3220     1.3990 C.ar  1 <1>  -0.1500 
 25 C       10.1730     0.1190     3.3000 C.ar  1 <1>  -0.1500 
 26 C       11.1110     0.9570     2.7260 C.ar  1 <1>  -0.1500 
 27 H       -0.8030     2.7220    -0.0200 H     1 <1>   0.3700 
 28 H        2.1550     3.2980     0.6760 H     1 <1>   0.0800 
 29 H        1.2520     2.9900    -0.7770 H     1 <1>   0.0800 
 30 H       -2.9670     2.0150    -0.3950 H     1 <1>   0.1500 
 31 H       -0.8410     0.7730     3.0820 H     1 <1>   0.1500 
 32 H        1.7920    -0.0690    -0.6820 H     1 <1>   0.0800 
 33 H        1.9810     0.8260    -2.1590 H     1 <1>   0.0800 
 34 H        3.4410     2.9890    -2.0730 H     1 <1>   0.0800 
 35 H        4.2720     3.2980    -0.5780 H     1 <1>   0.0800 
 36 H       -2.8980    -0.1600     4.0040 H     1 <1>   0.1500 
 37 H        3.6940    -0.5600    -2.6780 H     1 <1>   0.0800 
 38 H        3.5700    -1.3270    -1.1210 H     1 <1>   0.0800 
 39 H        6.0100     2.1090    -1.3380 H     1 <1>   0.0800 
 40 H        5.1360     1.6630    -2.7750 H     1 <1>   0.0800 
 41 H       -4.9990    -0.0110     2.7460 H     1 <1>   0.1500 
 42 H       -5.6290     0.1670    -0.1600 H     1 <1>   0.0800 
 43 H       -5.3680     1.8730    -0.4400 H     1 <1>   0.0800 
 44 H       -6.2340     1.3490     0.9790 H     1 <1>   0.0800 
 45 H        4.8900     0.3640    -0.1740 H     1 <1>   0.4500 
 46 H        5.9710    -1.6040    -1.0710 H     1 <1>   0.0800 
 47 H        6.3750    -0.6800    -2.5020 H     1 <1>   0.0800 
 48 H        7.7720     0.8210    -1.2100 H     1 <1>   0.1500 
 49 H        7.3610    -1.3460     0.9240 H     1 <1>   0.1500 
 50 H        9.8420     1.1400    -0.3780 H     1 <1>   0.1500 
 51 H        8.3910    -0.9980     3.0150 H     1 <1>   0.1500 
 52 H       11.7100     1.9710     0.9480 H     1 <1>   0.1500 
 53 H       10.2720    -0.1690     4.3330 H     1 <1>   0.1500 
 54 H       11.9390     1.3220     3.3090 H     1 <1>   0.1500 
@<TRIPOS>BOND
  1   1   2  2   
  2   2   3  am  
  3   2   4  1   
  4   3   5  1   
  5   3  27  1   
  6   4   6  1   
  7   4  28  1   
  8   4  29  1   
  9   5   7  ar  
 10   5   8  ar  
 11   6   9  1   
 12   6  10  1   
 13   7  11  ar  
 14   7  30  1   
 15   8  12  ar  
 16   8  31  1   
 17   9  13  1   
 18   9  32  1   
 19   9  33  1   
 20  10  14  1   
 21  10  34  1   
 22  10  35  1   
 23  11  15  ar  
 24  11  16  1   
 25  12  15  ar  
 26  12  36  1   
 27  13  17  1   
 28  13  37  1   
 29  13  38  1   
 30  14  17  1   
 31  14  39  1   
 32  14  40  1   
 33  15  41  1   
 34  16  42  1   
 35  16  43  1   
 36  16  44  1   
 37  17  18  1   
 38  17  45  1   
 39  18  19  1   
 40  18  46  1   
 41  18  47  1   
 42  19  20  2   
 43  19  48  1   
 44  20  21  1   
 45  20  49  1   
 46  21  22  ar  
 47  21  23  ar  
 48  22  24  ar  
 49  22  50  1   
 50  23  25  ar  
 51  23  51  1   
 52  24  26  ar  
 53  24  52  1   
 54  25  26  ar  
 55  25  53  1   
 56  26  54  1   
@<TRIPOS>SUBSTRUCTURE
  1 ****   6 GROUP 4 **** **** 0

# MOE 2024.06 (io_trps.svl 2023.06)
