@<TRIPOS>MOLECULE
NONAME
43 45 1 0 0 
SMALL
USER_CHARGES


@<TRIPOS>ATOM
  1 S        0.6130    -0.0990     1.7990 S.o2  1 <1>   1.4470 
  2 O        0.6150    -0.1260     3.2460 O.2   1 <1>  -0.6500 
  3 O        0.9690     1.1170     1.1040 O.2   1 <1>  -0.6500 
  4 N        1.7390    -1.2700     1.3110 N.am  1 <1>  -0.8490 
  5 C       -0.9640    -0.7140     1.1450 C.ar  1 <1>  -0.0090 
  6 C        3.1250    -0.7920     1.6120 C.3   1 <1>   0.2570 
  7 C        1.4760    -2.5690     1.9470 C.3   1 <1>   0.1960 
  8 C       -1.1580    -0.9040    -0.2000 C.ar  1 <1>  -0.1500 
  9 C       -2.0280    -1.0220     2.0130 C.ar  1 <1>  -0.1500 
 10 C        4.1810    -1.2340     0.5960 C.2   1 <1>   0.5690 
 11 C        2.2290    -3.6970     1.2460 C.3   1 <1>  -0.2400 
 12 C       -2.3650    -1.4000    -0.7300 C.ar  1 <1>   0.0000 
 13 C       -3.2150    -1.5050     1.5340 C.ar  1 <1>  -0.1500 
 14 O        5.3190    -1.4070     0.9670 O.2   1 <1>  -0.5700 
 15 N        3.7900    -1.4210    -0.6930 N.am  1 <1>  -0.5790 
 16 C       -3.4160    -1.7100     0.1560 C.ar  1 <1>   0.0000 
 17 C       -2.5610    -1.6000    -2.1110 C.ar  1 <1>  -0.1500 
 18 C        4.6330    -1.8640    -1.8080 C.3   1 <1>   0.0490 
 19 C       -4.6240    -2.2100    -0.3710 C.ar  1 <1>  -0.1500 
 20 C       -3.7430    -2.0880    -2.5960 C.ar  1 <1>  -0.1500 
 21 C        4.2760    -1.4020    -3.1810 C.3   1 <1>  -0.2000 
 22 C        4.0490    -2.8300    -2.7840 C.3   1 <1>  -0.2000 
 23 C       -4.7870    -2.3960    -1.7160 C.ar  1 <1>  -0.1500 
 24 H        3.4270    -1.1120     2.5940 H     1 <1>   0.0800 
 25 H        3.1620     0.2830     1.6140 H     1 <1>   0.0800 
 26 H        0.4250    -2.7960     1.8800 H     1 <1>   0.0800 
 27 H        1.7350    -2.5380     2.9940 H     1 <1>   0.0800 
 28 H       -0.3650    -0.6690    -0.8880 H     1 <1>   0.1500 
 29 H       -1.8920    -0.8700     3.0710 H     1 <1>   0.1500 
 30 H        2.0370    -3.6780     0.1880 H     1 <1>   0.0800 
 31 H        1.8920    -4.6420     1.6320 H     1 <1>   0.0800 
 32 H        3.2870    -3.6330     1.4250 H     1 <1>   0.0800 
 33 H       -4.0210    -1.7360     2.2080 H     1 <1>   0.1500 
 34 H        2.7930    -1.3160    -0.8900 H     1 <1>   0.3700 
 35 H       -1.7590    -1.3600    -2.7850 H     1 <1>   0.1500 
 36 H        5.6750    -1.9580    -1.5450 H     1 <1>   0.1000 
 37 H       -5.4230    -2.4450     0.3090 H     1 <1>   0.1500 
 38 H       -3.8880    -2.2390    -3.6520 H     1 <1>   0.1500 
 39 H        5.0720    -1.1860    -3.8730 H     1 <1>   0.1000 
 40 H        3.4310    -0.7480    -3.3050 H     1 <1>   0.1000 
 41 H        3.0430    -3.1780    -2.6320 H     1 <1>   0.1000 
 42 H        4.6890    -3.5830    -3.2070 H     1 <1>   0.1000 
 43 H       -5.7110    -2.7790    -2.1140 H     1 <1>   0.1500 
@<TRIPOS>BOND
  1   1   2  2   
  2   1   3  2   
  3   1   4  am  
  4   1   5  1   
  5   4   6  1   
  6   4   7  1   
  7   5   8  ar  
  8   5   9  ar  
  9   6  10  1   
 10   6  24  1   
 11   6  25  1   
 12   7  11  1   
 13   7  26  1   
 14   7  27  1   
 15   8  12  ar  
 16   8  28  1   
 17   9  13  ar  
 18   9  29  1   
 19  10  14  2   
 20  10  15  am  
 21  11  30  1   
 22  11  31  1   
 23  11  32  1   
 24  12  16  ar  
 25  12  17  ar  
 26  13  16  ar  
 27  13  33  1   
 28  15  18  1   
 29  15  34  1   
 30  16  19  ar  
 31  17  20  ar  
 32  17  35  1   
 33  18  21  1   
 34  18  22  1   
 35  18  36  1   
 36  19  23  ar  
 37  19  37  1   
 38  20  23  ar  
 39  20  38  1   
 40  21  22  1   
 41  21  39  1   
 42  21  40  1   
 43  22  41  1   
 44  22  42  1   
 45  23  43  1   
@<TRIPOS>SUBSTRUCTURE
  1 ****   8 GROUP 4 **** **** 0

# MOE 2024.06 (io_trps.svl 2023.06)
