@<TRIPOS>MOLECULE
NONAME
47 48 1 0 0 
SMALL
USER_CHARGES


@<TRIPOS>ATOM
  1 S        0.1800     0.1160    -1.2930 S.o2  1 <1>   1.4470 
  2 O       -0.4290     0.9890    -2.2730 O.2   1 <1>  -0.6500 
  3 O        1.0290    -0.9510    -1.7750 O.2   1 <1>  -0.6500 
  4 N        1.2200     1.1290    -0.4060 N.am  1 <1>  -0.8490 
  5 C       -1.0910    -0.4110    -0.1110 C.ar  1 <1>  -0.0090 
  6 C        2.1070     1.8610    -1.3290 C.3   1 <1>   0.1960 
  7 C        1.9920     0.3820     0.6070 C.3   1 <1>   0.1960 
  8 C       -0.9090    -1.4960     0.7450 C.ar  1 <1>   0.0830 
  9 C       -2.2870     0.2940    -0.0260 C.ar  1 <1>  -0.1500 
 10 C        3.0990     2.7820    -0.5880 C.3   1 <1>   0.3430 
 11 C        2.9870     1.2820     1.3700 C.3   1 <1>   0.3430 
 12 O        0.2520    -2.1940     0.6950 O.3   1 <1>  -0.3630 
 13 C       -1.8910    -1.8530     1.6620 C.ar  1 <1>  -0.1500 
 14 C       -3.2800    -0.0650     0.8800 C.ar  1 <1>   0.0830 
 15 N        3.9050     2.0330     0.4410 N.4   1 <1>  -0.9590 
 16 C        0.2160    -3.6030     0.5490 C.3   1 <1>   0.1200 
 17 C       -3.0720    -1.1400     1.7240 C.ar  1 <1>  -0.1500 
 18 O       -4.4660     0.5820     1.0000 O.3   1 <1>  -0.3620 
 19 C        4.8110     2.9510     1.1950 C.3   1 <1>   0.2630 
 20 C       -0.3410    -3.9710    -0.8280 C.3   1 <1>  -0.2400 
 21 C       -4.8090     1.6500     0.1450 C.3   1 <1>   0.1200 
 22 C       -6.2130     2.1170     0.5160 C.3   1 <1>  -0.2400 
 23 H        1.5120     2.4730    -1.9880 H     1 <1>   0.0800 
 24 H        2.6550     1.1650    -1.9430 H     1 <1>   0.0800 
 25 H        2.5280    -0.4320     0.1480 H     1 <1>   0.0800 
 26 H        1.3160    -0.0380     1.3310 H     1 <1>   0.0800 
 27 H       -2.4310     1.1310    -0.6840 H     1 <1>   0.1500 
 28 H        2.5350     3.5640    -0.1070 H     1 <1>   0.0800 
 29 H        3.7570     3.2410    -1.3070 H     1 <1>   0.0800 
 30 H        3.5650     0.6730     2.0450 H     1 <1>   0.0800 
 31 H        2.4200     1.9830     1.9610 H     1 <1>   0.0800 
 32 H       -1.7410    -2.6770     2.3350 H     1 <1>   0.1500 
 33 H        4.4770     1.3360    -0.0600 H     1 <1>   0.4500 
 34 H       -0.3730    -4.0330     1.3380 H     1 <1>   0.0800 
 35 H        1.2270    -3.9590     0.6410 H     1 <1>   0.0800 
 36 H       -3.8390    -1.4090     2.4280 H     1 <1>   0.1500 
 37 H        4.2370     3.6900     1.7290 H     1 <1>   0.0800 
 38 H        5.4810     3.4570     0.5180 H     1 <1>   0.0800 
 39 H        5.4020     2.3940     1.9060 H     1 <1>   0.0800 
 40 H       -1.3600    -3.6450    -0.9280 H     1 <1>   0.0800 
 41 H       -0.3160    -5.0380    -0.9520 H     1 <1>   0.0800 
 42 H        0.2580    -3.5270    -1.6030 H     1 <1>   0.0800 
 43 H       -4.7820     1.2960    -0.8710 H     1 <1>   0.0800 
 44 H       -4.0960     2.4430     0.2860 H     1 <1>   0.0800 
 45 H       -6.9150     1.3130     0.3870 H     1 <1>   0.0800 
 46 H       -6.5040     2.9330    -0.1200 H     1 <1>   0.0800 
 47 H       -6.2330     2.4530     1.5370 H     1 <1>   0.0800 
@<TRIPOS>BOND
  1   1   2  2   
  2   1   3  2   
  3   1   4  am  
  4   1   5  1   
  5   4   6  1   
  6   4   7  1   
  7   5   8  ar  
  8   5   9  ar  
  9   6  10  1   
 10   6  23  1   
 11   6  24  1   
 12   7  11  1   
 13   7  25  1   
 14   7  26  1   
 15   8  12  1   
 16   8  13  ar  
 17   9  14  ar  
 18   9  27  1   
 19  10  15  1   
 20  10  28  1   
 21  10  29  1   
 22  11  15  1   
 23  11  30  1   
 24  11  31  1   
 25  12  16  1   
 26  13  17  ar  
 27  13  32  1   
 28  14  17  ar  
 29  14  18  1   
 30  15  19  1   
 31  15  33  1   
 32  16  20  1   
 33  16  34  1   
 34  16  35  1   
 35  17  36  1   
 36  18  21  1   
 37  19  37  1   
 38  19  38  1   
 39  19  39  1   
 40  20  40  1   
 41  20  41  1   
 42  20  42  1   
 43  21  22  1   
 44  21  43  1   
 45  21  44  1   
 46  22  45  1   
 47  22  46  1   
 48  22  47  1   
@<TRIPOS>SUBSTRUCTURE
  1 ****   5 GROUP 4 **** **** 0

# MOE 2024.06 (io_trps.svl 2023.06)
