@<TRIPOS>MOLECULE
NONAME
46 48 1 0 0 
SMALL
USER_CHARGES


@<TRIPOS>ATOM
  1 S       -0.7090     0.3650    -0.0400 S.3   1 <1>  -0.3320 
  2 C        0.9960     0.3970     0.4780 C.ar  1 <1>   0.7220 
  3 C       -0.8110     1.7040    -1.3200 C.3   1 <1>   0.1310 
  4 N        1.7610     1.2990    -0.1190 N.ar  1 <1>  -0.6200 
  5 N        1.3100    -0.4890     1.4060 N.ar  1 <1>  -0.6200 
  6 C       -2.2270     1.8300    -1.8390 C.2   1 <1>   0.6590 
  7 C        3.0130     1.3030     0.2770 C.ar  1 <1>   0.1660 
  8 C        2.5690    -0.4580     1.7780 C.ar  1 <1>   0.1600 
  9 O       -2.5080     1.5650    -2.9810 O.2   1 <1>  -0.5700 
 10 O       -3.1280     2.2610    -0.9670 O.3   1 <1>  -0.4300 
 11 C        3.4700     0.4290     1.2380 C.ar  1 <1>  -0.1500 
 12 C        3.9360     2.3120    -0.3720 C.3   1 <1>  -0.0970 
 13 C       -4.4990     2.3690    -1.2920 C.3   1 <1>   0.2000 
 14 C       -5.2770     3.2030    -0.2370 C.3   1 <1>   0.0000 
 15 C       -5.1900     0.9920    -1.2220 C.3   1 <1>  -0.1600 
 16 C       -5.6820     2.1630     0.8370 C.3   1 <1>   0.0000 
 17 C       -6.6290     3.5140    -0.9230 C.3   1 <1>  -0.1600 
 18 C       -4.5590     4.4710     0.2540 C.3   1 <1>  -0.2400 
 19 C       -6.3260     1.2290    -0.2010 C.3   1 <1>  -0.0800 
 20 C       -6.6650     2.6790     1.9230 C.3   1 <1>  -0.2400 
 21 C       -4.5250     1.5110     1.6380 C.3   1 <1>  -0.2400 
 22 C       -7.3460     2.1480    -0.9090 C.3   1 <1>  -0.1600 
 23 H       -0.1390     1.4390    -2.1150 H     1 <1>   0.0800 
 24 H       -0.4980     2.6200    -0.8550 H     1 <1>   0.0800 
 25 H        2.8880    -1.1570     2.5330 H     1 <1>   0.1500 
 26 H        4.4940     0.4340     1.5600 H     1 <1>   0.1500 
 27 H        3.5670     3.3060    -0.1920 H     1 <1>   0.0800 
 28 H        3.9670     2.1430    -1.4330 H     1 <1>   0.0800 
 29 H        4.9320     2.2350     0.0210 H     1 <1>   0.0800 
 30 H       -4.5770     2.8080    -2.2720 H     1 <1>   0.0800 
 31 H       -4.5160     0.2260    -0.8840 H     1 <1>   0.0800 
 32 H       -5.5750     0.7060    -2.1840 H     1 <1>   0.0800 
 33 H       -6.4990     3.8840    -1.9250 H     1 <1>   0.0800 
 34 H       -7.1920     4.2460    -0.3700 H     1 <1>   0.0800 
 35 H       -3.6430     4.2120     0.7540 H     1 <1>   0.0800 
 36 H       -5.1810     5.0140     0.9410 H     1 <1>   0.0800 
 37 H       -4.3250     5.1090    -0.5790 H     1 <1>   0.0800 
 38 H       -6.7520     0.3240     0.1960 H     1 <1>   0.0800 
 39 H       -6.1590     3.3670     2.5760 H     1 <1>   0.0800 
 40 H       -7.0170     1.8540     2.5160 H     1 <1>   0.0800 
 41 H       -7.5290     3.1830     1.5380 H     1 <1>   0.0800 
 42 H       -4.0300     2.2520     2.2390 H     1 <1>   0.0800 
 43 H       -3.7770     1.0380     1.0350 H     1 <1>   0.0800 
 44 H       -4.9150     0.7550     2.2950 H     1 <1>   0.0800 
 45 H       -7.5750     1.8060    -1.9040 H     1 <1>   0.0800 
 46 H       -8.2660     2.2020    -0.3530 H     1 <1>   0.0800 
@<TRIPOS>BOND
  1   1   2  1   
  2   1   3  1   
  3   2   4  ar  
  4   2   5  ar  
  5   3   6  1   
  6   3  23  1   
  7   3  24  1   
  8   4   7  ar  
  9   5   8  ar  
 10   6   9  2   
 11   6  10  1   
 12   7  11  ar  
 13   7  12  1   
 14   8  11  ar  
 15   8  25  1   
 16  10  13  1   
 17  11  26  1   
 18  12  27  1   
 19  12  28  1   
 20  12  29  1   
 21  13  14  1   
 22  13  15  1   
 23  13  30  1   
 24  14  16  1   
 25  14  17  1   
 26  14  18  1   
 27  15  19  1   
 28  15  31  1   
 29  15  32  1   
 30  16  19  1   
 31  16  20  1   
 32  16  21  1   
 33  17  22  1   
 34  17  33  1   
 35  17  34  1   
 36  18  35  1   
 37  18  36  1   
 38  18  37  1   
 39  19  22  1   
 40  19  38  1   
 41  20  39  1   
 42  20  40  1   
 43  20  41  1   
 44  21  42  1   
 45  21  43  1   
 46  21  44  1   
 47  22  45  1   
 48  22  46  1   
@<TRIPOS>SUBSTRUCTURE
  1 ****  10 GROUP 4 **** **** 0

# MOE 2024.06 (io_trps.svl 2023.06)
