@<TRIPOS>MOLECULE
NONAME
33 33 1 0 0 
SMALL
USER_CHARGES


@<TRIPOS>ATOM
  1 O       -0.4920    -0.4350    -0.9970 O.co2 1 <1>  -0.9000 
  2 C       -1.4470    -0.7180    -0.2510 C.2   1 <1>   0.9790 
  3 O       -1.2980    -1.6370     0.5760 O.co2 1 <1>  -0.9000 
  4 C       -2.6950     0.0380    -0.3360 C.ar  1 <1>  -0.1790 
  5 C       -3.9780    -0.5270    -0.2440 C.ar  1 <1>  -0.1440 
  6 C       -2.6070     1.4190    -0.5150 C.ar  1 <1>  -0.1500 
  7 C       -5.1210     0.2810    -0.2650 C.ar  1 <1>   0.1170 
  8 C       -4.1050    -2.0490    -0.1280 C.3   1 <1>  -0.0970 
  9 C       -3.7290     2.2200    -0.5670 C.ar  1 <1>  -0.1500 
 10 N       -6.3870    -0.3000    -0.0800 N.am  1 <1>  -0.5470 
 11 C       -4.9790     1.6540    -0.4330 C.ar  1 <1>  -0.1500 
 12 C       -7.6580     0.0950    -0.4010 C.2   1 <1>   0.5690 
 13 O       -7.8980     1.1320    -0.9750 O.2   1 <1>  -0.5700 
 14 C       -8.8430    -0.8310    -0.0180 C.3   1 <1>   0.0610 
 15 C       -8.3970    -2.1480     0.6560 C.3   1 <1>  -0.2400 
 16 C       -9.7780    -0.0960     0.9600 C.3   1 <1>  -0.2400 
 17 C       -9.6470    -1.2000    -1.2800 C.3   1 <1>  -0.2400 
 18 H       -1.6290     1.8580    -0.6140 H     1 <1>   0.1500 
 19 H       -3.3370    -2.5300    -0.7070 H     1 <1>   0.0800 
 20 H       -5.0420    -2.4160    -0.5000 H     1 <1>   0.0800 
 21 H       -3.9800    -2.3440     0.8980 H     1 <1>   0.0800 
 22 H       -3.6260     3.2810    -0.7060 H     1 <1>   0.1500 
 23 H       -6.3300    -1.2160     0.3550 H     1 <1>   0.3700 
 24 H       -5.8430     2.2890    -0.4560 H     1 <1>   0.1500 
 25 H       -7.8630    -1.9490     1.5680 H     1 <1>   0.0800 
 26 H       -7.7660    -2.7180    -0.0040 H     1 <1>   0.0800 
 27 H       -9.2530    -2.7530     0.8990 H     1 <1>   0.0800 
 28 H       -9.2450     0.1740     1.8550 H     1 <1>   0.0800 
 29 H      -10.6170    -0.7130     1.2300 H     1 <1>   0.0800 
 30 H      -10.1530     0.8070     0.5100 H     1 <1>   0.0800 
 31 H       -9.0170    -1.7110    -1.9870 H     1 <1>   0.0800 
 32 H      -10.0270    -0.3110    -1.7530 H     1 <1>   0.0800 
 33 H      -10.4800    -1.8360    -1.0360 H     1 <1>   0.0800 
@<TRIPOS>BOND
  1   1   2  ar  
  2   2   3  ar  
  3   2   4  1   
  4   4   5  ar  
  5   4   6  ar  
  6   5   7  ar  
  7   5   8  1   
  8   6   9  ar  
  9   6  18  1   
 10   7  10  1   
 11   7  11  ar  
 12   8  19  1   
 13   8  20  1   
 14   8  21  1   
 15   9  11  ar  
 16   9  22  1   
 17  10  12  am  
 18  10  23  1   
 19  11  24  1   
 20  12  13  2   
 21  12  14  1   
 22  14  15  1   
 23  14  16  1   
 24  14  17  1   
 25  15  25  1   
 26  15  26  1   
 27  15  27  1   
 28  16  28  1   
 29  16  29  1   
 30  16  30  1   
 31  17  31  1   
 32  17  32  1   
 33  17  33  1   
@<TRIPOS>SUBSTRUCTURE
  1 ****   7 GROUP 4 **** **** 0

# MOE 2024.06 (io_trps.svl 2023.06)
