@<TRIPOS>MOLECULE
NONAME
43 44 1 0 0 
SMALL
USER_CHARGES


@<TRIPOS>ATOM
  1 O       -2.0740     1.8570     1.0400 O.3   1 <1>  -0.5600 
  2 C       -2.0860     1.3740    -0.2720 C.3   1 <1>   0.1200 
  3 C       -3.1380     2.7020     1.3690 C.3   1 <1>   0.1200 
  4 C       -3.3780     0.5760    -0.5320 C.3   1 <1>   0.3430 
  5 C       -4.4790     1.9660     1.1830 C.3   1 <1>   0.3430 
  6 N       -4.6070     1.3830    -0.2020 N.4   1 <1>  -0.9590 
  7 C       -5.8380     0.5380    -0.3590 C.3   1 <1>   0.3430 
  8 C       -7.1370     1.3460    -0.2760 C.3   1 <1>   0.1200 
  9 O       -8.1960     0.4420    -0.4630 O.3   1 <1>  -0.3630 
 10 C       -9.4910     0.8560    -0.4350 C.ar  1 <1>   0.0820 
 11 C       -9.8810     2.1820    -0.2650 C.ar  1 <1>  -0.1500 
 12 C      -10.4580    -0.1250    -0.5870 C.ar  1 <1>  -0.1500 
 13 C      -11.2250     2.5140    -0.2470 C.ar  1 <1>  -0.1500 
 14 C      -11.8000     0.2090    -0.5690 C.ar  1 <1>  -0.1500 
 15 C      -12.1950     1.5260    -0.3980 C.ar  1 <1>   0.0820 
 16 O      -13.5350     1.7560    -0.3950 O.3   1 <1>  -0.3620 
 17 C      -14.1020     3.0260    -0.1550 C.3   1 <1>   0.2000 
 18 C      -14.0970     3.2950     1.3510 C.3   1 <1>  -0.2400 
 19 C      -15.5270     2.9870    -0.7000 C.3   1 <1>  -0.2400 
 20 H       -1.2260     0.7370    -0.3920 H     1 <1>   0.0800 
 21 H       -1.9940     2.2040    -0.9500 H     1 <1>   0.0800 
 22 H       -3.0860     3.5830     0.7530 H     1 <1>   0.0800 
 23 H       -3.0150     2.9950     2.3970 H     1 <1>   0.0800 
 24 H       -3.3520    -0.3140     0.0760 H     1 <1>   0.0800 
 25 H       -3.4030     0.2680    -1.5650 H     1 <1>   0.0800 
 26 H       -5.2870     2.6520     1.3750 H     1 <1>   0.0800 
 27 H       -4.5340     1.1770     1.9170 H     1 <1>   0.0800 
 28 H       -4.6460     2.1610    -0.8740 H     1 <1>   0.4500 
 29 H       -5.8540    -0.2220     0.4050 H     1 <1>   0.0800 
 30 H       -5.8140     0.0480    -1.3190 H     1 <1>   0.0800 
 31 H       -7.1850     2.0810    -1.0600 H     1 <1>   0.0800 
 32 H       -7.2580     1.8000     0.6910 H     1 <1>   0.0800 
 33 H       -9.1650     2.9710    -0.1460 H     1 <1>   0.1500 
 34 H      -10.1610    -1.1490    -0.7200 H     1 <1>   0.1500 
 35 H      -11.4990     3.5430    -0.1150 H     1 <1>   0.1500 
 36 H      -12.5520    -0.5500    -0.6870 H     1 <1>   0.1500 
 37 H      -13.5410     3.7680    -0.6950 H     1 <1>   0.0800 
 38 H      -14.6530     2.5330     1.8660 H     1 <1>   0.0800 
 39 H      -14.5520     4.2480     1.5540 H     1 <1>   0.0800 
 40 H      -13.0930     3.3140     1.7320 H     1 <1>   0.0800 
 41 H      -16.1000     2.2270    -0.1990 H     1 <1>   0.0800 
 42 H      -15.5090     2.7810    -1.7550 H     1 <1>   0.0800 
 43 H      -16.0060     3.9370    -0.5470 H     1 <1>   0.0800 
@<TRIPOS>BOND
  1   1   2  1   
  2   1   3  1   
  3   2   4  1   
  4   2  20  1   
  5   2  21  1   
  6   3   5  1   
  7   3  22  1   
  8   3  23  1   
  9   4   6  1   
 10   4  24  1   
 11   4  25  1   
 12   5   6  1   
 13   5  26  1   
 14   5  27  1   
 15   6   7  1   
 16   6  28  1   
 17   7   8  1   
 18   7  29  1   
 19   7  30  1   
 20   8   9  1   
 21   8  31  1   
 22   8  32  1   
 23   9  10  1   
 24  10  11  ar  
 25  10  12  ar  
 26  11  13  ar  
 27  11  33  1   
 28  12  14  ar  
 29  12  34  1   
 30  13  15  ar  
 31  13  35  1   
 32  14  15  ar  
 33  14  36  1   
 34  15  16  1   
 35  16  17  1   
 36  17  18  1   
 37  17  19  1   
 38  17  37  1   
 39  18  38  1   
 40  18  39  1   
 41  18  40  1   
 42  19  41  1   
 43  19  42  1   
 44  19  43  1   
@<TRIPOS>SUBSTRUCTURE
  1 ****  10 GROUP 4 **** **** 0

# MOE 2024.06 (io_trps.svl 2023.06)
