@<TRIPOS>MOLECULE
NONAME
38 38 1 0 0 
SMALL
USER_CHARGES


@<TRIPOS>ATOM
  1 S        0.4400    -0.1230     0.6620 S.o2  1 <1>   1.3330 
  2 O        1.6730    -0.4650     1.3280 O.2   1 <1>  -0.6500 
  3 O        0.2390    -0.4210    -0.7340 O.2   1 <1>  -0.6500 
  4 N        0.2440     1.5830     0.8670 N.am  1 <1>  -0.6930 
  5 C       -0.9080    -0.7800     1.6200 C.3   1 <1>  -0.1350 
  6 C       -0.9690     2.1970     0.5850 C.ar  1 <1>   0.1990 
  7 C        1.4800     2.3870     0.6190 C.3   1 <1>   0.2570 
  8 C       -1.6980     2.7830     1.6100 C.ar  1 <1>  -0.1500 
  9 C       -1.4820     2.2420    -0.7050 C.ar  1 <1>  -0.1500 
 10 C        2.0180     2.2970    -0.8110 C.2   1 <1>   0.6590 
 11 C       -2.9140     3.3910     1.3580 C.ar  1 <1>  -0.1500 
 12 C       -2.6980     2.8500    -0.9590 C.ar  1 <1>  -0.1500 
 13 O        1.6750     3.0710    -1.6690 O.2   1 <1>  -0.5700 
 14 O        2.8910     1.3250    -1.0520 O.3   1 <1>  -0.4300 
 15 C       -3.4280     3.4300     0.0690 C.ar  1 <1>  -0.1430 
 16 C        3.3790     1.0650    -2.3500 C.3   1 <1>   0.0400 
 17 C       -4.7720     4.1060    -0.1960 C.3   1 <1>   0.0630 
 18 C       -5.7890     3.1030    -0.7520 C.3   1 <1>  -0.2400 
 19 C       -4.6070     5.2960    -1.1460 C.3   1 <1>  -0.2400 
 20 H       -0.8810    -1.8520     1.6030 H     1 <1>   0.0800 
 21 H       -1.8460    -0.4540     1.2130 H     1 <1>   0.0800 
 22 H       -0.8360    -0.4480     2.6360 H     1 <1>   0.0800 
 23 H        2.2520     2.0640     1.2940 H     1 <1>   0.0800 
 24 H        1.2720     3.4200     0.8280 H     1 <1>   0.0800 
 25 H       -1.3060     2.7590     2.6100 H     1 <1>   0.1500 
 26 H       -0.9250     1.8020    -1.5140 H     1 <1>   0.1500 
 27 H       -3.4590     3.8370     2.1710 H     1 <1>   0.1500 
 28 H       -3.0710     2.8700    -1.9680 H     1 <1>   0.1500 
 29 H        4.0640     0.2380    -2.2950 H     1 <1>   0.0800 
 30 H        3.8810     1.9430    -2.7180 H     1 <1>   0.0800 
 31 H        2.5470     0.8140    -2.9860 H     1 <1>   0.0800 
 32 H       -5.1600     4.4820     0.7350 H     1 <1>   0.0800 
 33 H       -5.4740     2.7290    -1.7090 H     1 <1>   0.0800 
 34 H       -6.7500     3.5720    -0.8650 H     1 <1>   0.0800 
 35 H       -5.8900     2.2730    -0.0760 H     1 <1>   0.0800 
 36 H       -4.2680     4.9710    -2.1130 H     1 <1>   0.0800 
 37 H       -3.8860     5.9860    -0.7450 H     1 <1>   0.0800 
 38 H       -5.5440     5.8110    -1.2660 H     1 <1>   0.0800 
@<TRIPOS>BOND
  1   1   2  2   
  2   1   3  2   
  3   1   4  am  
  4   1   5  1   
  5   4   6  1   
  6   4   7  1   
  7   5  20  1   
  8   5  21  1   
  9   5  22  1   
 10   6   8  ar  
 11   6   9  ar  
 12   7  10  1   
 13   7  23  1   
 14   7  24  1   
 15   8  11  ar  
 16   8  25  1   
 17   9  12  ar  
 18   9  26  1   
 19  10  13  2   
 20  10  14  1   
 21  11  15  ar  
 22  11  27  1   
 23  12  15  ar  
 24  12  28  1   
 25  14  16  1   
 26  15  17  1   
 27  16  29  1   
 28  16  30  1   
 29  16  31  1   
 30  17  18  1   
 31  17  19  1   
 32  17  32  1   
 33  18  33  1   
 34  18  34  1   
 35  18  35  1   
 36  19  36  1   
 37  19  37  1   
 38  19  38  1   
@<TRIPOS>SUBSTRUCTURE
  1 ****   6 GROUP 4 **** **** 0

# MOE 2024.06 (io_trps.svl 2023.06)
