@<TRIPOS>MOLECULE
NONAME
36 36 1 0 0 
SMALL
USER_CHARGES


@<TRIPOS>ATOM
  1 CL       0.1300    -0.3090     1.0740 Cl    1 <1>  -0.1770 
  2 C        1.7780    -0.8120     0.7960 C.ar  1 <1>   0.1770 
  3 C        2.1920    -1.0900    -0.4950 C.ar  1 <1>  -0.1500 
  4 C        2.6440    -0.9190     1.8700 C.ar  1 <1>  -0.1500 
  5 C        3.4990    -1.4930    -0.7130 C.ar  1 <1>  -0.1500 
  6 C        3.9500    -1.3220     1.6480 C.ar  1 <1>  -0.1500 
  7 C        4.3720    -1.6240     0.3590 C.ar  1 <1>   0.0830 
  8 O        5.6530    -1.9990     0.1400 O.3   1 <1>  -0.3630 
  9 C        6.0630    -3.3750     0.1670 C.3   1 <1>   0.3410 
 10 C        7.5810    -3.4340    -0.1570 C.2   1 <1>   0.5690 
 11 C        5.2680    -4.1610    -0.8910 C.3   1 <1>  -0.2400 
 12 C        5.7960    -3.9500     1.5700 C.3   1 <1>  -0.2400 
 13 O        8.1550    -4.5010    -0.1530 O.2   1 <1>  -0.5700 
 14 N        8.2580    -2.2840    -0.4400 N.am  1 <1>  -0.7300 
 15 C        9.6910    -2.1950    -0.8150 C.3   1 <1>   0.1400 
 16 C       10.5770    -2.3380     0.4220 C.3   1 <1>   0.1200 
 17 O       11.8940    -2.0600     0.0580 O.3   1 <1>  -0.5600 
 18 C       12.8100    -2.2410     1.0880 C.3   1 <1>   0.0400 
 19 H        1.5000    -0.9890    -1.3120 H     1 <1>   0.1500 
 20 H        2.2960    -0.6880     2.8610 H     1 <1>   0.1500 
 21 H        3.8450    -1.7020    -1.7100 H     1 <1>   0.1500 
 22 H        4.6410    -1.3990     2.4670 H     1 <1>   0.1500 
 23 H        5.6230    -5.1760    -0.9260 H     1 <1>   0.0800 
 24 H        5.4120    -3.7240    -1.8620 H     1 <1>   0.0800 
 25 H        4.2200    -4.1870    -0.6530 H     1 <1>   0.0800 
 26 H        6.1700    -4.9580     1.6230 H     1 <1>   0.0800 
 27 H        4.7450    -3.9780     1.7870 H     1 <1>   0.0800 
 28 H        6.3080    -3.3650     2.3120 H     1 <1>   0.0800 
 29 H        7.7290    -1.4070    -0.4150 H     1 <1>   0.3700 
 30 H        9.8760    -1.2450    -1.2840 H     1 <1>   0.0800 
 31 H        9.9270    -2.9820    -1.5110 H     1 <1>   0.0800 
 32 H       10.5230    -3.3460     0.7970 H     1 <1>   0.0800 
 33 H       10.2800    -1.6370     1.1810 H     1 <1>   0.0800 
 34 H       13.7880    -1.9960     0.7120 H     1 <1>   0.0800 
 35 H       12.7900    -3.2690     1.4040 H     1 <1>   0.0800 
 36 H       12.5600    -1.5870     1.9050 H     1 <1>   0.0800 
@<TRIPOS>BOND
  1   1   2  1   
  2   2   3  ar  
  3   2   4  ar  
  4   3   5  ar  
  5   3  19  1   
  6   4   6  ar  
  7   4  20  1   
  8   5   7  ar  
  9   5  21  1   
 10   6   7  ar  
 11   6  22  1   
 12   7   8  1   
 13   8   9  1   
 14   9  10  1   
 15   9  11  1   
 16   9  12  1   
 17  10  13  2   
 18  10  14  am  
 19  11  23  1   
 20  11  24  1   
 21  11  25  1   
 22  12  26  1   
 23  12  27  1   
 24  12  28  1   
 25  14  15  1   
 26  14  29  1   
 27  15  16  1   
 28  15  30  1   
 29  15  31  1   
 30  16  17  1   
 31  16  32  1   
 32  16  33  1   
 33  17  18  1   
 34  18  34  1   
 35  18  35  1   
 36  18  36  1   
@<TRIPOS>SUBSTRUCTURE
  1 ****   8 GROUP 4 **** **** 0

# MOE 2024.06 (io_trps.svl 2023.06)
