@<TRIPOS>MOLECULE
NONAME
30 31 1 0 0 
SMALL
USER_CHARGES


@<TRIPOS>ATOM
  1 O       -2.0820     0.9870     0.9150 O.co2 1 <1>  -0.9000 
  2 C       -3.1410     0.3940     1.2060 C.2   1 <1>   1.0320 
  3 O       -3.0550    -0.6010     1.9540 O.co2 1 <1>  -0.9000 
  4 C       -4.4270     0.8500     0.6790 C.2   1 <1>  -0.0920 
  5 O       -5.5700     0.3380     1.1390 O.3   1 <1>  -0.2800 
  6 C       -4.7440     1.7800    -0.2730 C.2   1 <1>  -0.1810 
  7 C       -6.5850     0.8980     0.5170 C.2   1 <1>  -0.0400 
  8 C       -6.1370     1.8080    -0.3710 C.2   1 <1>  -0.1500 
  9 C       -3.8280     2.6520    -1.1110 C.3   1 <1>  -0.0590 
 10 C       -7.9990     0.4730     0.8830 C.3   1 <1>   0.2900 
 11 N       -8.4760    -0.6840     0.0950 N.3   1 <1>  -0.8100 
 12 C       -9.8470    -1.0520     0.4830 C.3   1 <1>   0.1100 
 13 C       -7.5830    -1.8520     0.2660 C.3   1 <1>   0.1100 
 14 C      -10.3220    -2.2970    -0.2860 C.3   1 <1>   0.1200 
 15 C       -8.1310    -3.0910    -0.4640 C.3   1 <1>   0.1200 
 16 O       -9.4480    -3.3680    -0.0710 O.3   1 <1>  -0.5600 
 17 H       -6.7080     2.4330    -1.0310 H     1 <1>   0.1500 
 18 H       -2.8070     2.3300    -1.0230 H     1 <1>   0.0800 
 19 H       -3.8950     3.6720    -0.7800 H     1 <1>   0.0800 
 20 H       -4.1130     2.5940    -2.1450 H     1 <1>   0.0800 
 21 H       -8.6550     1.3050     0.7020 H     1 <1>   0.0800 
 22 H       -8.0280     0.2430     1.9340 H     1 <1>   0.0800 
 23 H      -10.5110    -0.2330     0.2700 H     1 <1>   0.0800 
 24 H       -9.8900    -1.2590     1.5390 H     1 <1>   0.0800 
 25 H       -7.4630    -2.0800     1.3120 H     1 <1>   0.0800 
 26 H       -6.6080    -1.6280    -0.1350 H     1 <1>   0.0800 
 27 H      -10.3650    -2.0940    -1.3420 H     1 <1>   0.0800 
 28 H      -11.2970    -2.5970     0.0520 H     1 <1>   0.0800 
 29 H       -7.5290    -3.9520    -0.2340 H     1 <1>   0.0800 
 30 H       -8.1160    -2.9300    -1.5280 H     1 <1>   0.0800 
@<TRIPOS>BOND
  1   1   2  ar  
  2   2   3  ar  
  3   2   4  1   
  4   4   5  1   
  5   4   6  2   
  6   5   7  1   
  7   6   8  1   
  8   6   9  1   
  9   7   8  2   
 10   7  10  1   
 11   8  17  1   
 12   9  18  1   
 13   9  19  1   
 14   9  20  1   
 15  10  11  1   
 16  10  21  1   
 17  10  22  1   
 18  11  12  1   
 19  11  13  1   
 20  12  14  1   
 21  12  23  1   
 22  12  24  1   
 23  13  15  1   
 24  13  25  1   
 25  13  26  1   
 26  14  16  1   
 27  14  27  1   
 28  14  28  1   
 29  15  16  1   
 30  15  29  1   
 31  15  30  1   
@<TRIPOS>SUBSTRUCTURE
  1 ****   7 GROUP 4 **** **** 0

# MOE 2024.06 (io_trps.svl 2023.06)
