@<TRIPOS>MOLECULE
NONAME
35 36 1 0 0 
SMALL
USER_CHARGES


@<TRIPOS>ATOM
  1 CL      -0.6500    -0.8730     0.0050 Cl    1 <1>  -0.1770 
  2 C       -1.5140     0.6510     0.0810 C.ar  1 <1>   0.1770 
  3 C       -0.9700     1.8540    -0.3790 C.ar  1 <1>   0.0830 
  4 C       -2.7940     0.6080     0.6050 C.ar  1 <1>  -0.1500 
  5 O        0.2770     2.0100    -0.8950 O.3   1 <1>  -0.3630 
  6 C       -1.7490     3.0000    -0.3210 C.ar  1 <1>  -0.1500 
  7 C       -3.5550     1.7640     0.6670 C.ar  1 <1>  -0.1500 
  8 C        1.3850     1.3810    -0.2910 C.3   1 <1>   0.1200 
  9 C       -3.0320     2.9580     0.2000 C.ar  1 <1>  -0.1500 
 10 C        2.6170     2.2520    -0.5380 C.3   1 <1>  -0.1600 
 11 C        3.8730     1.6260     0.0830 C.3   1 <1>  -0.1600 
 12 C        5.1060     2.5040    -0.1700 C.3   1 <1>  -0.1600 
 13 C        6.3660     1.8850     0.4460 C.3   1 <1>   0.0960 
 14 N        7.5380     2.7450     0.1950 N.pl3 1 <1>   0.0480 
 15 C        8.0280     3.7290     0.9820 C.2   1 <1>   0.0360 
 16 C        8.3540     2.7260    -0.8740 C.2   1 <1>  -0.3020 
 17 N        9.0720     4.3200     0.4990 N.2   1 <1>  -0.5650 
 18 C        9.2800     3.6890    -0.6710 C.2   1 <1>   0.0770 
 19 H       -3.1930    -0.3270     0.9560 H     1 <1>   0.1500 
 20 H       -1.3430     3.9270    -0.6850 H     1 <1>   0.1500 
 21 H       -4.5510     1.7330     1.0740 H     1 <1>   0.1500 
 22 H        1.5120     0.4140    -0.7440 H     1 <1>   0.0800 
 23 H        1.1960     1.2780     0.7630 H     1 <1>   0.0800 
 24 H       -3.6230     3.8570     0.2420 H     1 <1>   0.1500 
 25 H        2.4480     3.2240    -0.1080 H     1 <1>   0.0800 
 26 H        2.7570     2.3640    -1.5990 H     1 <1>   0.0800 
 27 H        4.0330     0.6500    -0.3450 H     1 <1>   0.0800 
 28 H        3.7260     1.5090     1.1430 H     1 <1>   0.0800 
 29 H        4.9440     3.4790     0.2580 H     1 <1>   0.0800 
 30 H        5.2510     2.6180    -1.2320 H     1 <1>   0.0800 
 31 H        6.5540     0.9170     0.0160 H     1 <1>   0.0800 
 32 H        6.2440     1.7710     1.5080 H     1 <1>   0.0800 
 33 H        7.5740     3.9850     1.9230 H     1 <1>   0.1500 
 34 H        8.2380     2.0490    -1.7000 H     1 <1>   0.1500 
 35 H       10.0980     3.9660    -1.3160 H     1 <1>   0.1500 
@<TRIPOS>BOND
  1   1   2  1   
  2   2   3  ar  
  3   2   4  ar  
  4   3   5  1   
  5   3   6  ar  
  6   4   7  ar  
  7   4  19  1   
  8   5   8  1   
  9   6   9  ar  
 10   6  20  1   
 11   7   9  ar  
 12   7  21  1   
 13   8  10  1   
 14   8  22  1   
 15   8  23  1   
 16   9  24  1   
 17  10  11  1   
 18  10  25  1   
 19  10  26  1   
 20  11  12  1   
 21  11  27  1   
 22  11  28  1   
 23  12  13  1   
 24  12  29  1   
 25  12  30  1   
 26  13  14  1   
 27  13  31  1   
 28  13  32  1   
 29  14  15  1   
 30  14  16  1   
 31  15  17  2   
 32  15  33  1   
 33  16  18  2   
 34  16  34  1   
 35  17  18  1   
 36  18  35  1   
@<TRIPOS>SUBSTRUCTURE
  1 ****  10 GROUP 4 **** **** 0

# MOE 2024.06 (io_trps.svl 2023.06)
