@<TRIPOS>MOLECULE
NONAME
47 48 1 0 0 
SMALL
USER_CHARGES


@<TRIPOS>ATOM
  1 O       -0.3280     1.9090     1.6890 O.3   1 <1>  -0.6800 
  2 C       -1.2300     1.6440     0.6890 C.3   1 <1>   0.2000 
  3 C       -1.7930     2.9820     0.1970 C.3   1 <1>  -0.1600 
  4 C       -2.3150     0.7460     1.2900 C.3   1 <1>  -0.1600 
  5 C       -2.9880     2.7810    -0.7490 C.3   1 <1>  -0.1600 
  6 C       -3.5060     0.5640     0.3360 C.3   1 <1>  -0.1600 
  7 C       -4.0740     1.9260    -0.0870 C.3   1 <1>   0.4230 
  8 N       -5.1810     1.7470    -1.0560 N.4   1 <1>  -0.9060 
  9 C       -6.4200     1.1260    -0.5210 C.3   1 <1>   0.4230 
 10 C       -7.3580     0.8140    -1.6870 C.3   1 <1>  -0.1600 
 11 C       -7.1100     2.0590     0.4790 C.3   1 <1>  -0.1600 
 12 C       -8.6810     0.2290    -1.1880 C.3   1 <1>   0.3430 
 13 C       -8.4390     1.4700     0.9560 C.3   1 <1>   0.3430 
 14 N       -9.3170     1.1600    -0.2120 N.4   1 <1>  -0.9590 
 15 C      -10.6300     0.5940     0.2310 C.3   1 <1>   0.3430 
 16 C      -11.4890     1.6790     0.8860 C.3   1 <1>  -0.1600 
 17 C      -12.8790     1.1340     1.2310 C.3   1 <1>  -0.2400 
 18 H        0.4430     2.4010     1.3460 H     1 <1>   0.4000 
 19 H       -0.7120     1.1290    -0.1050 H     1 <1>   0.0800 
 20 H       -1.0190     3.5290    -0.3160 H     1 <1>   0.0800 
 21 H       -2.1090     3.5650     1.0460 H     1 <1>   0.0800 
 22 H       -2.6610     1.1830     2.2120 H     1 <1>   0.0800 
 23 H       -1.8850    -0.2150     1.5190 H     1 <1>   0.0800 
 24 H       -2.6360     2.3050    -1.6490 H     1 <1>   0.0800 
 25 H       -3.3830     3.7490    -1.0050 H     1 <1>   0.0800 
 26 H       -4.2500    -0.0190     0.8470 H     1 <1>   0.0800 
 27 H       -3.1700     0.0160    -0.5290 H     1 <1>   0.0800 
 28 H       -4.4270     2.4480     0.7890 H     1 <1>   0.0800 
 29 H       -4.8100     1.1770    -1.8260 H     1 <1>   0.4500 
 30 H       -5.3920     2.6660    -1.4620 H     1 <1>   0.4500 
 31 H       -6.1710     0.2000    -0.0250 H     1 <1>   0.0800 
 32 H       -6.8990     0.0920    -2.3400 H     1 <1>   0.0800 
 33 H       -7.5660     1.7020    -2.2600 H     1 <1>   0.0800 
 34 H       -7.2960     3.0230     0.0370 H     1 <1>   0.0800 
 35 H       -6.4880     2.2010     1.3450 H     1 <1>   0.0800 
 36 H       -8.5030    -0.7260    -0.7170 H     1 <1>   0.0800 
 37 H       -9.3430     0.0670    -2.0260 H     1 <1>   0.0800 
 38 H       -8.9270     2.1770     1.6090 H     1 <1>   0.0800 
 39 H       -8.2570     0.5690     1.5220 H     1 <1>   0.0800 
 40 H       -9.5490     2.0400    -0.6990 H     1 <1>   0.4500 
 41 H      -10.4760    -0.2190     0.9230 H     1 <1>   0.0800 
 42 H      -11.1650     0.2080    -0.6230 H     1 <1>   0.0800 
 43 H      -11.6080     2.5100     0.2130 H     1 <1>   0.0800 
 44 H      -11.0330     2.0290     1.7950 H     1 <1>   0.0800 
 45 H      -13.3920     0.7990     0.3450 H     1 <1>   0.0800 
 46 H      -13.4730     1.9070     1.6880 H     1 <1>   0.0800 
 47 H      -12.8110     0.3120     1.9230 H     1 <1>   0.0800 
@<TRIPOS>BOND
  1   1   2  1   
  2   1  18  1   
  3   2   3  1   
  4   2   4  1   
  5   2  19  1   
  6   3   5  1   
  7   3  20  1   
  8   3  21  1   
  9   4   6  1   
 10   4  22  1   
 11   4  23  1   
 12   5   7  1   
 13   5  24  1   
 14   5  25  1   
 15   6   7  1   
 16   6  26  1   
 17   6  27  1   
 18   7   8  1   
 19   7  28  1   
 20   8   9  1   
 21   8  29  1   
 22   8  30  1   
 23   9  10  1   
 24   9  11  1   
 25   9  31  1   
 26  10  12  1   
 27  10  32  1   
 28  10  33  1   
 29  11  13  1   
 30  11  34  1   
 31  11  35  1   
 32  12  14  1   
 33  12  36  1   
 34  12  37  1   
 35  13  14  1   
 36  13  38  1   
 37  13  39  1   
 38  14  15  1   
 39  14  40  1   
 40  15  16  1   
 41  15  41  1   
 42  15  42  1   
 43  16  17  1   
 44  16  43  1   
 45  16  44  1   
 46  17  45  1   
 47  17  46  1   
 48  17  47  1   
@<TRIPOS>SUBSTRUCTURE
  1 ****   9 GROUP 4 **** **** 0

# MOE 2024.06 (io_trps.svl 2023.06)
