@<TRIPOS>MOLECULE
NONAME
39 41 1 0 0 
SMALL
USER_CHARGES


@<TRIPOS>ATOM
  1 S        0.4860     0.4910     1.6320 S.3   1 <1>  -0.2860 
  2 C       -0.8910    -0.2640     0.7470 C.2   1 <1>   0.2420 
  3 C        1.4660    -0.9300     2.3320 C.3   1 <1>   0.1310 
  4 N       -1.0750    -1.5230     0.6670 N.2   1 <1>  -0.3380 
  5 N       -1.8310     0.4250     0.1030 N.pl3 1 <1>   0.5930 
  6 C        2.9030    -0.8760     1.8330 C.2   1 <1>   0.5690 
  7 N       -2.1810    -1.6500    -0.0590 N.2   1 <1>   0.0000 
  8 N       -2.6440    -0.4990    -0.4010 N.2   1 <1>  -0.4180 
  9 C       -2.0160     1.8280    -0.0610 C.ar  1 <1>  -0.0230 
 10 O        3.7460    -0.5440     2.6330 O.2   1 <1>  -0.5700 
 11 N        3.2330    -1.1980     0.5370 N.am  1 <1>  -0.6600 
 12 C       -3.2590     2.4040     0.1850 C.ar  1 <1>  -0.1500 
 13 C       -0.9730     2.6520    -0.4750 C.ar  1 <1>  -0.1500 
 14 C        2.2860    -1.6920    -0.5090 C.3   1 <1>   0.1400 
 15 C        4.6290    -1.0240     0.0290 C.3   1 <1>   0.1400 
 16 C       -3.4520     3.7650     0.0300 C.ar  1 <1>  -0.1500 
 17 C       -1.1680     4.0130    -0.6290 C.ar  1 <1>  -0.1500 
 18 C        2.8850    -2.8810    -1.2810 C.3   1 <1>   0.1200 
 19 C        5.0840    -2.2570    -0.7680 C.3   1 <1>   0.1200 
 20 C       -2.4070     4.5770    -0.3780 C.ar  1 <1>  -0.1430 
 21 O        4.1570    -2.5660    -1.7690 O.3   1 <1>  -0.5600 
 22 C       -2.6190     6.0710    -0.5450 C.3   1 <1>  -0.0970 
 23 H        0.9960    -1.8550     2.0670 H     1 <1>   0.0800 
 24 H        1.4460    -0.8170     3.4000 H     1 <1>   0.0800 
 25 H       -4.0840     1.7870     0.4990 H     1 <1>   0.1500 
 26 H       -0.0010     2.2400    -0.6820 H     1 <1>   0.1500 
 27 H        2.0750    -0.8950    -1.2000 H     1 <1>   0.0800 
 28 H        1.3610    -2.0090    -0.0720 H     1 <1>   0.0800 
 29 H        5.3140    -0.8610     0.8430 H     1 <1>   0.0800 
 30 H        4.6660    -0.1590    -0.6100 H     1 <1>   0.0800 
 31 H       -4.4210     4.1900     0.2280 H     1 <1>   0.1500 
 32 H       -0.3480     4.6340    -0.9450 H     1 <1>   0.1500 
 33 H        2.2620    -3.1270    -2.1230 H     1 <1>   0.0800 
 34 H        2.9640    -3.7450    -0.6450 H     1 <1>   0.0800 
 35 H        5.1910    -3.1090    -0.1180 H     1 <1>   0.0800 
 36 H        6.0290    -2.0640    -1.2430 H     1 <1>   0.0800 
 37 H       -3.6300     6.2750    -0.8510 H     1 <1>   0.0800 
 38 H       -1.9540     6.4650    -1.2930 H     1 <1>   0.0800 
 39 H       -2.4300     6.5720     0.3870 H     1 <1>   0.0800 
@<TRIPOS>BOND
  1   1   2  1   
  2   1   3  1   
  3   2   4  2   
  4   2   5  1   
  5   3   6  1   
  6   3  23  1   
  7   3  24  1   
  8   4   7  1   
  9   5   8  1   
 10   5   9  1   
 11   6  10  2   
 12   6  11  am  
 13   7   8  2   
 14   9  12  ar  
 15   9  13  ar  
 16  11  14  1   
 17  11  15  1   
 18  12  16  ar  
 19  12  25  1   
 20  13  17  ar  
 21  13  26  1   
 22  14  18  1   
 23  14  27  1   
 24  14  28  1   
 25  15  19  1   
 26  15  29  1   
 27  15  30  1   
 28  16  20  ar  
 29  16  31  1   
 30  17  20  ar  
 31  17  32  1   
 32  18  21  1   
 33  18  33  1   
 34  18  34  1   
 35  19  21  1   
 36  19  35  1   
 37  19  36  1   
 38  20  22  1   
 39  22  37  1   
 40  22  38  1   
 41  22  39  1   
@<TRIPOS>SUBSTRUCTURE
  1 ****   2 GROUP 4 **** **** 0

# MOE 2024.06 (io_trps.svl 2023.06)
