@<TRIPOS>MOLECULE
NONAME
40 42 1 0 0 
SMALL
USER_CHARGES


@<TRIPOS>ATOM
  1 N       -6.3790    -3.6080    -0.4240 N.pl3 1 <1>  -0.9130 
  2 C       -6.1760    -2.4860     0.1800 C.cat 1 <1>   1.2010 
  3 C       -5.4060    -4.4110    -0.7370 C.cat 1 <1>   1.2010 
  4 N       -4.9830    -2.1330     0.4920 N.pl3 1 <1>  -0.8400 
  5 N       -7.1860    -1.7380     0.4610 N.pl3 1 <1>  -0.9640 
  6 N       -4.1470    -4.1280    -0.4550 N.pl3 1 <1>  -0.7000 
  7 N       -5.7460    -5.5050    -1.3420 N.pl3 1 <1>  -0.9640 
  8 C       -3.7780    -2.8770     0.2350 C.3   1 <1>   0.6610 
  9 C       -3.1060    -5.0140    -0.8030 C.ar  1 <1>   0.3200 
 10 C       -2.8660    -1.9920    -0.6350 C.3   1 <1>  -0.1500 
 11 C       -3.1050    -3.1490     1.5930 C.3   1 <1>  -0.1500 
 12 C       -2.7140    -6.0230     0.0690 C.ar  1 <1>  -0.1400 
 13 C       -2.4880    -4.9250    -2.0460 C.ar  1 <1>  -0.1400 
 14 C       -2.4240    -0.6920     0.0690 C.3   1 <1>  -0.1500 
 15 C       -2.6660    -1.8640     2.3260 C.3   1 <1>  -0.1500 
 16 C       -1.7170    -6.9130    -0.2850 C.ar  1 <1>  -0.1400 
 17 C       -1.4900    -5.8140    -2.4020 C.ar  1 <1>  -0.1400 
 18 C       -1.7760    -0.9900     1.4300 C.3   1 <1>  -0.1500 
 19 C       -1.1030    -6.8080    -1.5210 C.ar  1 <1>  -0.1400 
 20 H       -7.3190    -3.8700    -0.6610 H     1 <1>   0.4570 
 21 H       -4.8060    -1.2540     0.9670 H     1 <1>   0.4570 
 22 H       -7.1000    -0.8400     0.9360 H     1 <1>   0.4570 
 23 H       -8.1530    -1.9690     0.2370 H     1 <1>   0.4570 
 24 H       -5.0420    -6.1900    -1.6220 H     1 <1>   0.4570 
 25 H       -6.6940    -5.7840    -1.5880 H     1 <1>   0.4570 
 26 H       -3.3540    -1.7510    -1.5630 H     1 <1>   0.0900 
 27 H       -1.9680    -2.5340    -0.8690 H     1 <1>   0.0900 
 28 H       -2.2140    -3.7310     1.4340 H     1 <1>   0.0900 
 29 H       -3.7610    -3.7200     2.2270 H     1 <1>   0.0900 
 30 H       -3.1840    -6.1230     1.0320 H     1 <1>   0.1600 
 31 H       -2.7790    -4.1610    -2.7450 H     1 <1>   0.1600 
 32 H       -3.2580    -0.0240     0.2000 H     1 <1>   0.0900 
 33 H       -1.7080    -0.1780    -0.5520 H     1 <1>   0.0900 
 34 H       -2.1110    -2.1330     3.2110 H     1 <1>   0.0900 
 35 H       -3.5210    -1.2990     2.6540 H     1 <1>   0.0900 
 36 H       -1.4110    -7.6920     0.3970 H     1 <1>   0.1600 
 37 H       -1.0080    -5.7380    -3.3650 H     1 <1>   0.1600 
 38 H       -1.5530    -0.0630     1.9350 H     1 <1>   0.0900 
 39 H       -0.8360    -1.4930     1.2690 H     1 <1>   0.0900 
 40 H       -0.3230    -7.5010    -1.7970 H     1 <1>   0.1600 
@<TRIPOS>BOND
  1   1   2  ar  
  2   1   3  ar  
  3   1  20  1   
  4   2   4  ar  
  5   2   5  ar  
  6   3   6  ar  
  7   3   7  ar  
  8   4   8  1   
  9   4  21  1   
 10   5  22  1   
 11   5  23  1   
 12   6   8  1   
 13   6   9  1   
 14   7  24  1   
 15   7  25  1   
 16   8  10  1   
 17   8  11  1   
 18   9  12  ar  
 19   9  13  ar  
 20  10  14  1   
 21  10  26  1   
 22  10  27  1   
 23  11  15  1   
 24  11  28  1   
 25  11  29  1   
 26  12  16  ar  
 27  12  30  1   
 28  13  17  ar  
 29  13  31  1   
 30  14  18  1   
 31  14  32  1   
 32  14  33  1   
 33  15  18  1   
 34  15  34  1   
 35  15  35  1   
 36  16  19  ar  
 37  16  36  1   
 38  17  19  ar  
 39  17  37  1   
 40  18  38  1   
 41  18  39  1   
 42  19  40  1   
@<TRIPOS>SUBSTRUCTURE
  1 ****   6 GROUP 4 **** **** 0

# MOE 2024.06 (io_trps.svl 2023.06)
