@<TRIPOS>MOLECULE
NONAME
40 41 1 0 0 
SMALL
USER_CHARGES


@<TRIPOS>ATOM
  1 BR      -4.9510     1.3600    -2.6090 Br    1 <1>  -0.1110 
  2 C       -3.5790     1.9670    -1.3930 C.ar  1 <1>   0.1110 
  3 C       -3.4310     1.3430    -0.1600 C.ar  1 <1>   0.0820 
  4 C       -2.7870     3.0280    -1.7870 C.ar  1 <1>  -0.1500 
  5 O       -4.2540     0.3080     0.1490 O.3   1 <1>  -0.3630 
  6 C       -2.4410     1.8130     0.6980 C.ar  1 <1>  -0.1500 
  7 C       -1.8090     3.4850    -0.9200 C.ar  1 <1>  -0.1500 
  8 C       -4.5060    -0.0360     1.5040 C.3   1 <1>   0.1810 
  9 C       -1.6390     2.8790     0.3160 C.ar  1 <1>  -0.1500 
 10 C       -5.6090    -1.0900     1.6290 C.2   1 <1>   0.5690 
 11 O       -5.4300    -1.9660     2.4420 O.2   1 <1>  -0.5700 
 12 N       -6.7710    -1.0620     0.8850 N.am  1 <1>  -0.6600 
 13 C       -7.6670    -2.2630     0.8450 C.3   1 <1>   0.1400 
 14 C       -7.1620     0.0460    -0.0450 C.3   1 <1>   0.1400 
 15 C       -9.1490    -1.8700     0.9660 C.3   1 <1>   0.3430 
 16 C       -8.6620     0.3850     0.0590 C.3   1 <1>   0.3430 
 17 N       -9.5370    -0.8340    -0.0510 N.4   1 <1>  -0.9590 
 18 C      -10.9760    -0.5050     0.0340 C.3   1 <1>   0.4810 
 19 C      -11.3530     0.1720    -1.2620 C.2   1 <1>  -0.2880 
 20 C      -12.0280    -0.4030    -2.2630 C.2   1 <1>  -0.3000 
 21 H       -2.9320     3.4850    -2.7500 H     1 <1>   0.1500 
 22 H       -2.2710     1.3630     1.6580 H     1 <1>   0.1500 
 23 H       -1.1790     4.3110    -1.2060 H     1 <1>   0.1500 
 24 H       -4.7920     0.8510     2.0370 H     1 <1>   0.0800 
 25 H       -3.5990    -0.4330     1.9210 H     1 <1>   0.0800 
 26 H       -0.8740     3.2390     0.9830 H     1 <1>   0.1500 
 27 H       -7.4270    -2.9430     1.6450 H     1 <1>   0.0800 
 28 H       -7.5050    -2.7900    -0.0800 H     1 <1>   0.0800 
 29 H       -6.9250    -0.2440    -1.0540 H     1 <1>   0.0800 
 30 H       -6.6060     0.9390     0.1770 H     1 <1>   0.0800 
 31 H       -9.3180    -1.4900     1.9600 H     1 <1>   0.0800 
 32 H       -9.7540    -2.7540     0.8420 H     1 <1>   0.0800 
 33 H       -8.9110     1.0890    -0.7180 H     1 <1>   0.0800 
 34 H       -8.8350     0.8680     1.0070 H     1 <1>   0.0800 
 35 H       -9.3950    -1.2310    -0.9890 H     1 <1>   0.4500 
 36 H      -11.1840     0.1320     0.8790 H     1 <1>   0.0800 
 37 H      -11.5510    -1.4120     0.1350 H     1 <1>   0.0800 
 38 H      -11.0310     1.1990    -1.3140 H     1 <1>   0.1500 
 39 H      -12.2910     0.1050    -3.1780 H     1 <1>   0.1500 
 40 H      -12.3840    -1.4210    -2.2690 H     1 <1>   0.1500 
@<TRIPOS>BOND
  1   1   2  1   
  2   2   3  ar  
  3   2   4  ar  
  4   3   5  1   
  5   3   6  ar  
  6   4   7  ar  
  7   4  21  1   
  8   5   8  1   
  9   6   9  ar  
 10   6  22  1   
 11   7   9  ar  
 12   7  23  1   
 13   8  10  1   
 14   8  24  1   
 15   8  25  1   
 16   9  26  1   
 17  10  11  2   
 18  10  12  am  
 19  12  13  1   
 20  12  14  1   
 21  13  15  1   
 22  13  27  1   
 23  13  28  1   
 24  14  16  1   
 25  14  29  1   
 26  14  30  1   
 27  15  17  1   
 28  15  31  1   
 29  15  32  1   
 30  16  17  1   
 31  16  33  1   
 32  16  34  1   
 33  17  18  1   
 34  17  35  1   
 35  18  19  1   
 36  18  36  1   
 37  18  37  1   
 38  19  20  2   
 39  19  38  1   
 40  20  39  1   
 41  20  40  1   
@<TRIPOS>SUBSTRUCTURE
  1 ****  14 GROUP 4 **** **** 0

# MOE 2024.06 (io_trps.svl 2023.06)
