@<TRIPOS>MOLECULE
NONAME
44 45 1 0 0 
SMALL
USER_CHARGES


@<TRIPOS>ATOM
  1 I       -0.1060    -1.8790    -0.2470 I     1 <1>  -0.0810 
  2 C       -1.8080    -0.6040    -0.1330 C.ar  1 <1>   0.0810 
  3 C       -2.2690    -0.0030    -1.2890 C.ar  1 <1>  -0.1500 
  4 C       -2.4110    -0.4090     1.0960 C.ar  1 <1>  -0.1500 
  5 C       -3.3750     0.8240    -1.2050 C.ar  1 <1>  -0.1500 
  6 C       -3.5160     0.4220     1.1590 C.ar  1 <1>  -0.1500 
  7 C       -4.0100     1.0490     0.0170 C.ar  1 <1>   0.1170 
  8 N       -5.1380     1.8710     0.1490 N.am  1 <1>  -0.5470 
  9 C       -5.6310     2.8840    -0.6310 C.2   1 <1>   0.5690 
 10 O       -5.0720     3.2710    -1.6280 O.2   1 <1>  -0.5700 
 11 C       -6.9290     3.5810    -0.2560 C.3   1 <1>   0.0420 
 12 C       -6.9920     3.8050     1.2560 C.2   1 <1>   0.6590 
 13 C       -8.1790     2.8800    -0.8550 C.3   1 <1>  -0.0800 
 14 O       -6.8780     2.8800     2.0190 O.2   1 <1>  -0.5700 
 15 O       -7.1840     5.0230     1.7590 O.3   1 <1>  -0.4300 
 16 C       -9.4540     3.7140    -0.6090 C.3   1 <1>  -0.1600 
 17 C       -8.3910     1.4300    -0.3680 C.3   1 <1>  -0.1600 
 18 C       -7.1830     6.2500     1.0680 C.3   1 <1>   0.1200 
 19 C      -10.6830     3.0730    -1.2650 C.3   1 <1>  -0.1600 
 20 C       -9.6230     0.7920    -1.0250 C.3   1 <1>  -0.1600 
 21 C       -7.3830     7.3610     2.0930 C.3   1 <1>  -0.2400 
 22 C      -10.8810     1.6330    -0.7800 C.3   1 <1>  -0.1600 
 23 H       -1.7790    -0.1740    -2.2310 H     1 <1>   0.1500 
 24 H       -2.0290    -0.8910     1.9780 H     1 <1>   0.1500 
 25 H       -3.7460     1.2920    -2.0980 H     1 <1>   0.1500 
 26 H       -3.9990     0.5890     2.1060 H     1 <1>   0.1500 
 27 H       -5.6540     1.7470     1.0310 H     1 <1>   0.3700 
 28 H       -6.8720     4.5340    -0.7410 H     1 <1>   0.0800 
 29 H       -8.0270     2.8360    -1.9210 H     1 <1>   0.0800 
 30 H       -9.3280     4.7050    -1.0110 H     1 <1>   0.0800 
 31 H       -9.6370     3.8040     0.4480 H     1 <1>   0.0800 
 32 H       -8.5270     1.4110     0.6990 H     1 <1>   0.0800 
 33 H       -7.5340     0.8260    -0.6060 H     1 <1>   0.0800 
 34 H       -7.9880     6.2490     0.3530 H     1 <1>   0.0800 
 35 H       -6.2360     6.3650     0.5670 H     1 <1>   0.0800 
 36 H      -10.5610     3.0740    -2.3350 H     1 <1>   0.0800 
 37 H      -11.5600     3.6530    -1.0340 H     1 <1>   0.0800 
 38 H       -9.7700    -0.1980    -0.6280 H     1 <1>   0.0800 
 39 H       -9.4560     0.7000    -2.0850 H     1 <1>   0.0800 
 40 H       -8.3220     7.2330     2.6000 H     1 <1>   0.0800 
 41 H       -7.3870     8.3160     1.6000 H     1 <1>   0.0800 
 42 H       -6.5830     7.3500     2.8120 H     1 <1>   0.0800 
 43 H      -11.7170     1.1890    -1.2930 H     1 <1>   0.0800 
 44 H      -11.1070     1.6380     0.2730 H     1 <1>   0.0800 
@<TRIPOS>BOND
  1   1   2  1   
  2   2   3  ar  
  3   2   4  ar  
  4   3   5  ar  
  5   3  23  1   
  6   4   6  ar  
  7   4  24  1   
  8   5   7  ar  
  9   5  25  1   
 10   6   7  ar  
 11   6  26  1   
 12   7   8  1   
 13   8   9  am  
 14   8  27  1   
 15   9  10  2   
 16   9  11  1   
 17  11  12  1   
 18  11  13  1   
 19  11  28  1   
 20  12  14  2   
 21  12  15  1   
 22  13  16  1   
 23  13  17  1   
 24  13  29  1   
 25  15  18  1   
 26  16  19  1   
 27  16  30  1   
 28  16  31  1   
 29  17  20  1   
 30  17  32  1   
 31  17  33  1   
 32  18  21  1   
 33  18  34  1   
 34  18  35  1   
 35  19  22  1   
 36  19  36  1   
 37  19  37  1   
 38  20  22  1   
 39  20  38  1   
 40  20  39  1   
 41  21  40  1   
 42  21  41  1   
 43  21  42  1   
 44  22  43  1   
 45  22  44  1   
@<TRIPOS>SUBSTRUCTURE
  1 ****   9 GROUP 4 **** **** 0

# MOE 2024.06 (io_trps.svl 2023.06)
