@<TRIPOS>MOLECULE
NONAME
41 42 1 0 0 
SMALL
USER_CHARGES


@<TRIPOS>ATOM
  1 O        1.2820    -0.0940    -0.8070 O.2   1 <1>  -0.5700 
  2 C        1.6330    -1.2490    -0.7360 C.2   1 <1>   0.6900 
  3 N        0.9450    -2.1290     0.0320 N.am  1 <1>  -0.5390 
  4 N        2.7190    -1.6800    -1.3930 N.am  1 <1>  -0.7300 
  5 C        1.2940    -3.4500     0.2110 C.2   1 <1>  -0.0290 
  6 C        3.3320    -3.0040    -1.1670 C.3   1 <1>   0.5020 
  7 C        2.4470    -3.9390    -0.3320 C.2   1 <1>  -0.1240 
  8 C        0.2690    -4.2360     1.0130 C.3   1 <1>  -0.1020 
  9 C        4.6800    -2.7920    -0.4780 C.ar  1 <1>  -0.1440 
 10 C        3.0060    -5.2520    -0.2450 C.2   1 <1>   0.4950 
 11 C        5.8100    -3.4390    -0.9590 C.ar  1 <1>  -0.1500 
 12 C        4.7970    -1.9780     0.6400 C.ar  1 <1>  -0.1500 
 13 O        3.6440    -5.7450    -1.1440 O.2   1 <1>  -0.5700 
 14 C        2.8780    -6.0910     1.0080 C.3   1 <1>  -0.1790 
 15 C        7.0490    -3.2870    -0.3430 C.ar  1 <1>   0.0830 
 16 C        6.0250    -1.8020     1.2500 C.ar  1 <1>  -0.1500 
 17 O        8.1400    -3.9700    -0.7940 O.3   1 <1>  -0.3620 
 18 C        7.1570    -2.4360     0.7680 C.ar  1 <1>   0.0830 
 19 C        7.9910    -5.1910    -1.4890 C.3   1 <1>   0.0400 
 20 O        8.3050    -2.1670     1.4490 O.3   1 <1>  -0.3630 
 21 C        9.5450    -2.1320     0.7800 C.3   1 <1>   0.3200 
 22 C       10.4900    -1.2970     1.5780 C.1   1 <1>  -0.2000 
 23 C       11.2420    -0.6310     2.2140 C.1   1 <1>  -0.1770 
 24 H        0.1090    -1.7270     0.4560 H     1 <1>   0.3700 
 25 H        3.3130    -0.9730    -1.8180 H     1 <1>   0.3700 
 26 H        3.4890    -3.4510    -2.1340 H     1 <1>   0.0800 
 27 H        0.3980    -4.0450     2.0630 H     1 <1>   0.0800 
 28 H        0.3460    -5.2900     0.8320 H     1 <1>   0.0800 
 29 H       -0.7260    -3.9400     0.7300 H     1 <1>   0.0800 
 30 H        5.7080    -4.0730    -1.8200 H     1 <1>   0.1500 
 31 H        3.9340    -1.4730     1.0410 H     1 <1>   0.1500 
 32 H        2.6370    -5.4800     1.8570 H     1 <1>   0.0800 
 33 H        3.8160    -6.5790     1.2020 H     1 <1>   0.0800 
 34 H        2.1250    -6.8440     0.8690 H     1 <1>   0.0800 
 35 H        6.1130    -1.1640     2.1110 H     1 <1>   0.1500 
 36 H        8.9520    -5.6690    -1.5370 H     1 <1>   0.0800 
 37 H        7.6370    -4.9880    -2.4840 H     1 <1>   0.0800 
 38 H        7.2970    -5.8170    -0.9550 H     1 <1>   0.0800 
 39 H        9.4010    -1.7040    -0.1960 H     1 <1>   0.0800 
 40 H        9.9150    -3.1370     0.6970 H     1 <1>   0.0800 
 41 H       11.9150    -0.0260     2.7960 H     1 <1>   0.1770 
@<TRIPOS>BOND
  1   1   2  2   
  2   2   3  am  
  3   2   4  am  
  4   3   5  1   
  5   3  24  1   
  6   4   6  1   
  7   4  25  1   
  8   5   7  2   
  9   5   8  1   
 10   6   7  1   
 11   6   9  1   
 12   6  26  1   
 13   7  10  1   
 14   8  27  1   
 15   8  28  1   
 16   8  29  1   
 17   9  11  ar  
 18   9  12  ar  
 19  10  13  2   
 20  10  14  1   
 21  11  15  ar  
 22  11  30  1   
 23  12  16  ar  
 24  12  31  1   
 25  14  32  1   
 26  14  33  1   
 27  14  34  1   
 28  15  17  1   
 29  15  18  ar  
 30  16  18  ar  
 31  16  35  1   
 32  17  19  1   
 33  18  20  1   
 34  19  36  1   
 35  19  37  1   
 36  19  38  1   
 37  20  21  1   
 38  21  22  1   
 39  21  39  1   
 40  21  40  1   
 41  22  23  3   
 42  23  41  1   
@<TRIPOS>SUBSTRUCTURE
  1 ****   9 GROUP 4 **** **** 0

# MOE 2024.06 (io_trps.svl 2023.06)
