@<TRIPOS>MOLECULE
NONAME
28 29 1 0 0 
SMALL
USER_CHARGES


@<TRIPOS>ATOM
  1 S        0.3730     0.4940     1.6230 S.3   1 <1>  -0.4600 
  2 C       -0.8280     1.2330     0.5200 C.3   1 <1>   0.7330 
  3 C        1.8480     1.3510     1.0400 C.3   1 <1>   0.0700 
  4 N       -0.0370     2.0480    -0.3780 N.4   1 <1>  -0.9060 
  5 C       -1.7810     2.1060     1.3400 C.3   1 <1>  -0.1600 
  6 C       -1.5620     0.1370    -0.2520 C.3   1 <1>  -0.1600 
  7 C        1.3170     2.4640     0.1420 C.3   1 <1>   0.3170 
  8 C       -2.9240     2.6820     0.4810 C.3   1 <1>  -0.1600 
  9 C       -2.6970     0.7070    -1.1230 C.3   1 <1>  -0.1600 
 10 C        2.2810     2.6610    -1.0280 C.2   1 <1>   0.9060 
 11 C       -3.6550     1.5700    -0.2870 C.3   1 <1>  -0.1600 
 12 O        1.9100     2.1610    -2.1010 O.co2 1 <1>  -0.9000 
 13 O        3.3270     3.2850    -0.8690 O.co2 1 <1>  -0.9000 
 14 H        2.4420     0.6420     0.4900 H     1 <1>   0.0800 
 15 H        2.4010     1.7310     1.8810 H     1 <1>   0.0800 
 16 H       -0.5630     2.8450    -0.7290 H     1 <1>   0.4500 
 17 H        0.2240     1.5150    -1.2280 H     1 <1>   0.4500 
 18 H       -1.2380     2.8990     1.8230 H     1 <1>   0.0800 
 19 H       -2.2140     1.4950     2.1120 H     1 <1>   0.0800 
 20 H       -1.9890    -0.5480     0.4590 H     1 <1>   0.0800 
 21 H       -0.8670    -0.4190    -0.8570 H     1 <1>   0.0800 
 22 H        1.2460     3.3810     0.6980 H     1 <1>   0.0800 
 23 H       -2.5390     3.4050    -0.2180 H     1 <1>   0.0800 
 24 H       -3.6260     3.1950     1.1170 H     1 <1>   0.0800 
 25 H       -3.2460    -0.1040    -1.5710 H     1 <1>   0.0800 
 26 H       -2.2870     1.2980    -1.9250 H     1 <1>   0.0800 
 27 H       -4.3980     2.0090    -0.9330 H     1 <1>   0.0800 
 28 H       -4.1760     0.9390     0.4150 H     1 <1>   0.0800 
@<TRIPOS>BOND
  1   1   2  1   
  2   1   3  1   
  3   2   4  1   
  4   2   5  1   
  5   2   6  1   
  6   3   7  1   
  7   3  14  1   
  8   3  15  1   
  9   4   7  1   
 10   4  16  1   
 11   4  17  1   
 12   5   8  1   
 13   5  18  1   
 14   5  19  1   
 15   6   9  1   
 16   6  20  1   
 17   6  21  1   
 18   7  10  1   
 19   7  22  1   
 20   8  11  1   
 21   8  23  1   
 22   8  24  1   
 23   9  11  1   
 24   9  25  1   
 25   9  26  1   
 26  10  12  ar  
 27  10  13  ar  
 28  11  27  1   
 29  11  28  1   
@<TRIPOS>SUBSTRUCTURE
  1 ****   4 GROUP 4 **** **** 0

# MOE 2024.06 (io_trps.svl 2023.06)
