@<TRIPOS>MOLECULE
NONAME
39 40 1 0 0 
SMALL
USER_CHARGES


@<TRIPOS>ATOM
  1 O       -0.7570    -0.8940    -1.4110 O.co2 1 <1>  -0.9000 
  2 C       -0.2690    -1.4050    -0.4020 C.2   1 <1>   0.9060 
  3 O        0.9540    -1.4160    -0.2230 O.co2 1 <1>  -0.9000 
  4 C       -1.1400    -2.0680     0.6610 C.3   1 <1>  -0.1860 
  5 C       -1.2080    -3.6160     0.5330 C.3   1 <1>  -0.0190 
  6 C       -2.5710    -1.4790     0.7010 C.3   1 <1>  -0.0220 
  7 C        0.0980    -4.3910     0.7220 C.2   1 <1>   0.5690 
  8 C       -1.9090    -4.0360    -0.7690 C.3   1 <1>  -0.0220 
  9 C       -3.5350    -2.1930    -0.2420 C.2   1 <1>  -0.2880 
 10 O        0.1140    -5.2620     1.5640 O.2   1 <1>  -0.5700 
 11 N        1.1840    -4.1020    -0.0490 N.am  1 <1>  -0.5470 
 12 C       -3.2410    -3.3160    -0.9040 C.2   1 <1>  -0.2880 
 13 C        2.4180    -4.7630    -0.1280 C.ar  1 <1>   0.1170 
 14 C        2.5540    -6.1180    -0.4550 C.ar  1 <1>   0.0830 
 15 C        3.5650    -4.0220     0.1150 C.ar  1 <1>  -0.1500 
 16 O        1.4650    -6.8680    -0.7590 O.3   1 <1>  -0.3630 
 17 C        3.8110    -6.7030    -0.5120 C.ar  1 <1>  -0.1500 
 18 C        4.8190    -4.6070     0.0610 C.ar  1 <1>  -0.1500 
 19 C        1.1400    -7.8910     0.1500 C.3   1 <1>   0.1200 
 20 C        4.9430    -5.9500    -0.2500 C.ar  1 <1>  -0.1500 
 21 C       -0.2720    -8.3720    -0.1660 C.3   1 <1>  -0.2400 
 22 H       -0.6710    -1.8350     1.5980 H     1 <1>   0.0800 
 23 H       -1.8480    -3.9460     1.3320 H     1 <1>   0.0800 
 24 H       -2.5330    -0.4330     0.4490 H     1 <1>   0.0800 
 25 H       -2.9580    -1.5610     1.7010 H     1 <1>   0.0800 
 26 H       -2.0730    -5.0990    -0.7500 H     1 <1>   0.0800 
 27 H       -1.2910    -3.8040    -1.6200 H     1 <1>   0.0800 
 28 H       -4.4800    -1.6870    -0.3380 H     1 <1>   0.1500 
 29 H        1.1990    -3.1190    -0.3850 H     1 <1>   0.3700 
 30 H       -3.9170    -3.7890    -1.5940 H     1 <1>   0.1500 
 31 H        3.4620    -2.9750     0.3490 H     1 <1>   0.1500 
 32 H        3.9020    -7.7400    -0.7730 H     1 <1>   0.1500 
 33 H        5.6930    -4.0130     0.2590 H     1 <1>   0.1500 
 34 H        1.1920    -7.4900     1.1490 H     1 <1>   0.0800 
 35 H        1.8540    -8.6860     0.0400 H     1 <1>   0.0800 
 36 H        5.9160    -6.4060    -0.2930 H     1 <1>   0.1500 
 37 H       -0.9640    -7.5570    -0.0470 H     1 <1>   0.0800 
 38 H       -0.5490    -9.1580     0.5120 H     1 <1>   0.0800 
 39 H       -0.3210    -8.7440    -1.1730 H     1 <1>   0.0800 
@<TRIPOS>BOND
  1   1   2  ar  
  2   2   3  ar  
  3   2   4  1   
  4   4   5  1   
  5   4   6  1   
  6   4  22  1   
  7   5   7  1   
  8   5   8  1   
  9   5  23  1   
 10   6   9  1   
 11   6  24  1   
 12   6  25  1   
 13   7  10  2   
 14   7  11  am  
 15   8  12  1   
 16   8  26  1   
 17   8  27  1   
 18   9  12  2   
 19   9  28  1   
 20  11  13  1   
 21  11  29  1   
 22  12  30  1   
 23  13  14  ar  
 24  13  15  ar  
 25  14  16  1   
 26  14  17  ar  
 27  15  18  ar  
 28  15  31  1   
 29  16  19  1   
 30  17  20  ar  
 31  17  32  1   
 32  18  20  ar  
 33  18  33  1   
 34  19  21  1   
 35  19  34  1   
 36  19  35  1   
 37  20  36  1   
 38  21  37  1   
 39  21  38  1   
 40  21  39  1   
@<TRIPOS>SUBSTRUCTURE
  1 ****  11 GROUP 4 **** **** 0

# MOE 2024.06 (io_trps.svl 2023.06)
