@<TRIPOS>MOLECULE
NONAME
35 35 1 0 0 
SMALL
USER_CHARGES


@<TRIPOS>ATOM
  1 O      -10.1990     2.9840    -0.1120 O.3   1 <1>  -0.3630 
  2 C       -8.8660     2.8270    -0.3520 C.ar  1 <1>   0.0830 
  3 C      -11.1810     2.1270    -0.6480 C.3   1 <1>   0.1200 
  4 C       -7.9420     3.7740     0.1260 C.ar  1 <1>   0.0830 
  5 C       -8.3890     1.7260    -1.0630 C.ar  1 <1>  -0.1500 
  6 C      -12.5470     2.6560    -0.2230 C.3   1 <1>  -0.2400 
  7 O       -8.2160     4.9070     0.8340 O.3   1 <1>  -0.3620 
  8 C       -6.5910     3.5870    -0.1150 C.ar  1 <1>  -0.1500 
  9 C       -7.0350     1.5560    -1.2920 C.ar  1 <1>  -0.1500 
 10 C       -9.5180     5.4250     0.9970 C.3   1 <1>   0.0400 
 11 C       -6.1260     2.4850    -0.8140 C.ar  1 <1>  -0.1430 
 12 C       -4.6420     2.3040    -1.0320 C.3   1 <1>   0.4860 
 13 N       -4.1070     1.7250     0.2170 N.4   1 <1>  -0.9060 
 14 C       -2.6460     1.5170     0.2020 C.3   1 <1>   0.3430 
 15 C       -2.2400     0.9270     1.5440 C.3   1 <1>  -0.2400 
 16 H      -11.0210     1.1360    -0.2570 H     1 <1>   0.0800 
 17 H      -11.0900     2.1290    -1.7200 H     1 <1>   0.0800 
 18 H       -9.0600     0.9820    -1.4490 H     1 <1>   0.1500 
 19 H      -12.6220     2.6670     0.8500 H     1 <1>   0.0800 
 20 H      -13.3220     2.0220    -0.6150 H     1 <1>   0.0800 
 21 H      -12.6930     3.6510    -0.6040 H     1 <1>   0.0800 
 22 H       -5.9140     4.3350     0.2580 H     1 <1>   0.1500 
 23 H       -6.7090     0.6920    -1.8470 H     1 <1>   0.1500 
 24 H       -9.4410     6.3870     1.4710 H     1 <1>   0.0800 
 25 H      -10.0840     4.7570     1.6220 H     1 <1>   0.0800 
 26 H       -9.9780     5.5280     0.0300 H     1 <1>   0.0800 
 27 H       -4.1830     3.2590    -1.2360 H     1 <1>   0.0800 
 28 H       -4.4660     1.6440    -1.8650 H     1 <1>   0.0800 
 29 H       -4.5980     0.8410     0.3940 H     1 <1>   0.4500 
 30 H       -4.3750     2.3460     0.9900 H     1 <1>   0.4500 
 31 H       -2.1360     2.4560     0.0470 H     1 <1>   0.0800 
 32 H       -2.3720     0.8400    -0.5920 H     1 <1>   0.0800 
 33 H       -2.4810     1.5980     2.3490 H     1 <1>   0.0800 
 34 H       -1.1760     0.7680     1.5540 H     1 <1>   0.0800 
 35 H       -2.7170    -0.0230     1.7080 H     1 <1>   0.0800 
@<TRIPOS>BOND
  1   1   2  1   
  2   1   3  1   
  3   2   4  ar  
  4   2   5  ar  
  5   3   6  1   
  6   3  16  1   
  7   3  17  1   
  8   4   7  1   
  9   4   8  ar  
 10   5   9  ar  
 11   5  18  1   
 12   6  19  1   
 13   6  20  1   
 14   6  21  1   
 15   7  10  1   
 16   8  11  ar  
 17   8  22  1   
 18   9  11  ar  
 19   9  23  1   
 20  10  24  1   
 21  10  25  1   
 22  10  26  1   
 23  11  12  1   
 24  12  13  1   
 25  12  27  1   
 26  12  28  1   
 27  13  14  1   
 28  13  29  1   
 29  13  30  1   
 30  14  15  1   
 31  14  31  1   
 32  14  32  1   
 33  15  33  1   
 34  15  34  1   
 35  15  35  1   
@<TRIPOS>SUBSTRUCTURE
  1 ****   8 GROUP 4 **** **** 0

# MOE 2024.06 (io_trps.svl 2023.06)
