@<TRIPOS>MOLECULE
NONAME
37 38 1 0 0 
SMALL
USER_CHARGES


@<TRIPOS>ATOM
  1 S       -1.8800    -0.2360     1.1290 S.3   1 <1>  -0.3310 
  2 C       -1.6160     1.2010     0.0650 C.ar  1 <1>   0.1020 
  3 C       -0.3150    -1.2170     1.1410 C.3   1 <1>  -0.0100 
  4 C       -2.5940     2.2000     0.0260 C.ar  1 <1>   0.0860 
  5 C       -0.4580     1.2970    -0.6930 C.ar  1 <1>  -0.1500 
  6 C       -3.8260     2.1340     0.7830 C.2   1 <1>   0.5440 
  7 C       -2.3510     3.3060    -0.7870 C.ar  1 <1>  -0.1500 
  8 C       -0.2500     2.4020    -1.4980 C.ar  1 <1>  -0.1500 
  9 O       -3.9900     2.8890     1.7230 O.2   1 <1>  -0.5700 
 10 N       -4.8490     1.2810     0.4310 N.am  1 <1>  -0.6600 
 11 C       -1.1970     3.4090    -1.5420 C.ar  1 <1>  -0.1500 
 12 C       -6.0560     1.1170     1.2940 C.3   1 <1>   0.1400 
 13 C       -4.8110     0.3990    -0.7730 C.3   1 <1>   0.1400 
 14 C       -6.6690    -0.2890     1.1300 C.3   1 <1>   0.2000 
 15 C       -6.2370     0.0180    -1.2240 C.3   1 <1>   0.2000 
 16 O       -6.9850    -0.5900    -0.2050 O.3   1 <1>  -0.5600 
 17 C       -7.9550    -0.4540     1.9360 C.3   1 <1>  -0.2400 
 18 C       -6.2270    -0.9520    -2.4020 C.3   1 <1>  -0.2400 
 19 H       -0.4430    -2.0210     1.8430 H     1 <1>   0.0800 
 20 H        0.4830    -0.5660     1.4510 H     1 <1>   0.0800 
 21 H       -0.1520    -1.5990     0.1500 H     1 <1>   0.0800 
 22 H        0.2890     0.5280    -0.6710 H     1 <1>   0.1500 
 23 H       -3.0830     4.0950    -0.8170 H     1 <1>   0.1500 
 24 H        0.6480     2.4820    -2.0870 H     1 <1>   0.1500 
 25 H       -1.0340     4.2740    -2.1630 H     1 <1>   0.1500 
 26 H       -6.7840     1.8650     1.0320 H     1 <1>   0.0800 
 27 H       -5.7830     1.2650     2.3250 H     1 <1>   0.0800 
 28 H       -4.2620    -0.4960    -0.5430 H     1 <1>   0.0800 
 29 H       -4.3100     0.9060    -1.5780 H     1 <1>   0.0800 
 30 H       -5.9480    -1.0180     1.4600 H     1 <1>   0.0800 
 31 H       -6.7600     0.9160    -1.5090 H     1 <1>   0.0800 
 32 H       -8.6970     0.2480     1.6000 H     1 <1>   0.0800 
 33 H       -7.7610    -0.2810     2.9790 H     1 <1>   0.0800 
 34 H       -8.3310    -1.4540     1.8200 H     1 <1>   0.0800 
 35 H       -5.7350    -1.8670    -2.1250 H     1 <1>   0.0800 
 36 H       -5.7070    -0.5170    -3.2360 H     1 <1>   0.0800 
 37 H       -7.2360    -1.1680    -2.7030 H     1 <1>   0.0800 
@<TRIPOS>BOND
  1   1   2  1   
  2   1   3  1   
  3   2   4  ar  
  4   2   5  ar  
  5   3  19  1   
  6   3  20  1   
  7   3  21  1   
  8   4   6  1   
  9   4   7  ar  
 10   5   8  ar  
 11   5  22  1   
 12   6   9  2   
 13   6  10  am  
 14   7  11  ar  
 15   7  23  1   
 16   8  11  ar  
 17   8  24  1   
 18  10  12  1   
 19  10  13  1   
 20  11  25  1   
 21  12  14  1   
 22  12  26  1   
 23  12  27  1   
 24  13  15  1   
 25  13  28  1   
 26  13  29  1   
 27  14  16  1   
 28  14  17  1   
 29  14  30  1   
 30  15  16  1   
 31  15  18  1   
 32  15  31  1   
 33  17  32  1   
 34  17  33  1   
 35  17  34  1   
 36  18  35  1   
 37  18  36  1   
 38  18  37  1   
@<TRIPOS>SUBSTRUCTURE
  1 ****  10 GROUP 4 **** **** 0

# MOE 2024.06 (io_trps.svl 2023.06)
