@<TRIPOS>MOLECULE
NONAME
35 35 1 0 0 
SMALL
USER_CHARGES


@<TRIPOS>ATOM
  1 O       -0.6190     1.5660     1.0160 O.2   1 <1>  -0.5700 
  2 C       -1.5240     1.4020     0.2230 C.2   1 <1>   0.7060 
  3 O       -2.2270     0.2710     0.2830 O.3   1 <1>  -0.4300 
  4 C       -1.8900     2.3660    -0.7790 C.2   1 <1>   0.0790 
  5 C       -2.0210    -0.7000     1.2810 C.3   1 <1>   0.1200 
  6 C       -0.7940     3.1380    -1.2660 C.1   1 <1>   0.4920 
  7 C       -3.1440     2.5710    -1.2650 C.2   1 <1>  -0.1780 
  8 C       -3.1010    -1.7640     1.1160 C.3   1 <1>  -0.2400 
  9 N        0.0470     3.7720    -1.7040 N.1   1 <1>  -0.5570 
 10 C       -4.3560     1.9140    -0.8580 C.ar  1 <1>   0.0280 
 11 C       -4.9580     2.2040     0.3720 C.ar  1 <1>  -0.1430 
 12 C       -4.9530     0.9570    -1.6850 C.ar  1 <1>  -0.1430 
 13 C       -6.1120     1.5430     0.7560 C.ar  1 <1>  -0.1500 
 14 C       -4.3700     3.2470     1.3160 C.3   1 <1>  -0.0970 
 15 C       -6.1080     0.3100    -1.2850 C.ar  1 <1>  -0.1500 
 16 C       -4.3350     0.5990    -3.0310 C.3   1 <1>  -0.0970 
 17 C       -6.6930     0.5940    -0.0650 C.ar  1 <1>  -0.1430 
 18 C       -7.9600    -0.1230     0.3660 C.3   1 <1>  -0.0970 
 19 H       -1.0360    -1.1170     1.1570 H     1 <1>   0.0800 
 20 H       -2.0970    -0.2230     2.2440 H     1 <1>   0.0800 
 21 H       -3.2980     3.2990    -2.0430 H     1 <1>   0.1500 
 22 H       -3.0170    -2.2310     0.1520 H     1 <1>   0.0800 
 23 H       -4.0760    -1.3180     1.2130 H     1 <1>   0.0800 
 24 H       -2.9900    -2.5170     1.8750 H     1 <1>   0.0800 
 25 H       -6.5690     1.7680     1.7030 H     1 <1>   0.1500 
 26 H       -5.0830     3.5220     2.0720 H     1 <1>   0.0800 
 27 H       -4.1030     4.1360     0.7750 H     1 <1>   0.0800 
 28 H       -3.4970     2.8530     1.8030 H     1 <1>   0.0800 
 29 H       -6.5620    -0.4260    -1.9260 H     1 <1>   0.1500 
 30 H       -4.9120    -0.1570    -3.5320 H     1 <1>   0.0800 
 31 H       -3.3390     0.2220    -2.8870 H     1 <1>   0.0800 
 32 H       -4.2960     1.4670    -3.6630 H     1 <1>   0.0800 
 33 H       -8.8200     0.4280     0.0320 H     1 <1>   0.0800 
 34 H       -7.9970    -0.2110     1.4370 H     1 <1>   0.0800 
 35 H       -7.9950    -1.1120    -0.0560 H     1 <1>   0.0800 
@<TRIPOS>BOND
  1   1   2  2   
  2   2   3  1   
  3   2   4  1   
  4   3   5  1   
  5   4   6  1   
  6   4   7  2   
  7   5   8  1   
  8   5  19  1   
  9   5  20  1   
 10   6   9  3   
 11   7  10  1   
 12   7  21  1   
 13   8  22  1   
 14   8  23  1   
 15   8  24  1   
 16  10  11  ar  
 17  10  12  ar  
 18  11  13  ar  
 19  11  14  1   
 20  12  15  ar  
 21  12  16  1   
 22  13  17  ar  
 23  13  25  1   
 24  14  26  1   
 25  14  27  1   
 26  14  28  1   
 27  15  17  ar  
 28  15  29  1   
 29  16  30  1   
 30  16  31  1   
 31  16  32  1   
 32  17  18  1   
 33  18  33  1   
 34  18  34  1   
 35  18  35  1   
@<TRIPOS>SUBSTRUCTURE
  1 ****  10 GROUP 4 **** **** 0

# MOE 2024.06 (io_trps.svl 2023.06)
