@<TRIPOS>MOLECULE
NONAME
51 53 1 0 0 
SMALL
USER_CHARGES


@<TRIPOS>ATOM
  1 O       -0.6470     1.1990    -0.8230 O.2   1 <1>  -0.5700 
  2 C       -0.2840     1.4640     0.3080 C.2   1 <1>   0.6900 
  3 N        1.0330     1.6980     0.5850 N.am  1 <1>  -0.6600 
  4 N       -1.1880     1.5200     1.3150 N.am  1 <1>  -0.7300 
  5 C        1.4990     2.6390     1.6530 C.3   1 <1>   0.1400 
  6 C        2.0980     1.3840    -0.4190 C.3   1 <1>   0.1400 
  7 C       -2.6170     1.1380     1.1800 C.3   1 <1>   0.1400 
  8 C        2.1070     3.9160     1.0430 C.3   1 <1>   0.2090 
  9 C        2.6910     2.6680    -1.0210 C.3   1 <1>   0.2090 
 10 C       -3.3800     2.1610     0.3380 C.3   1 <1>   0.1200 
 11 N        3.1750     3.5890     0.0530 N.pl3 1 <1>  -0.8380 
 12 O       -4.7610     1.8880     0.4460 O.3   1 <1>  -0.3630 
 13 C        3.9650     4.6540    -0.3610 C.ar  1 <1>   0.1000 
 14 C       -5.6780     2.6540    -0.2000 C.ar  1 <1>   0.0820 
 15 C        5.2880     4.7280     0.0510 C.ar  1 <1>  -0.1500 
 16 C        3.4630     5.6590    -1.1820 C.ar  1 <1>  -0.1500 
 17 C       -7.0120     2.3630     0.0400 C.ar  1 <1>  -0.1500 
 18 C       -5.3500     3.6920    -1.0690 C.ar  1 <1>  -0.1500 
 19 C        6.0960     5.7790    -0.3430 C.ar  1 <1>  -0.1500 
 20 C        4.2670     6.7130    -1.5790 C.ar  1 <1>  -0.1500 
 21 C       -8.0100     3.0970    -0.5760 C.ar  1 <1>  -0.1500 
 22 C       -6.3490     4.4270    -1.6850 C.ar  1 <1>  -0.1500 
 23 C        5.5860     6.7740    -1.1600 C.ar  1 <1>  -0.1500 
 24 C       -7.6880     4.1320    -1.4400 C.ar  1 <1>   0.0820 
 25 O       -8.7280     4.8030    -2.0020 O.3   1 <1>  -0.3630 
 26 C       -8.5060     5.8670    -2.9000 C.3   1 <1>   0.0400 
 27 H       -0.8000     1.4470     2.2520 H     1 <1>   0.3700 
 28 H        2.2470     2.1490     2.2500 H     1 <1>   0.0800 
 29 H        0.6860     2.9190     2.2980 H     1 <1>   0.0800 
 30 H        1.7030     0.7690    -1.2090 H     1 <1>   0.0800 
 31 H        2.8840     0.8310     0.0640 H     1 <1>   0.0800 
 32 H       -3.0580     1.0850     2.1600 H     1 <1>   0.0800 
 33 H       -2.6840     0.1700     0.7110 H     1 <1>   0.0800 
 34 H        2.5270     4.5230     1.8260 H     1 <1>   0.0800 
 35 H        1.3310     4.4830     0.5590 H     1 <1>   0.0800 
 36 H        1.9370     3.1600    -1.6110 H     1 <1>   0.0800 
 37 H        3.5120     2.4150    -1.6690 H     1 <1>   0.0800 
 38 H       -3.0950     2.0800    -0.6970 H     1 <1>   0.0800 
 39 H       -3.2050     3.1560     0.7060 H     1 <1>   0.0800 
 40 H        5.6720     3.9500     0.6840 H     1 <1>   0.1500 
 41 H        2.4410     5.6110    -1.5050 H     1 <1>   0.1500 
 42 H       -7.2610     1.5600     0.7090 H     1 <1>   0.1500 
 43 H       -4.3270     3.9390    -1.2790 H     1 <1>   0.1500 
 44 H        7.1200     5.8230    -0.0160 H     1 <1>   0.1500 
 45 H        3.8680     7.4850    -2.2140 H     1 <1>   0.1500 
 46 H       -9.0440     2.8720    -0.3900 H     1 <1>   0.1500 
 47 H       -6.0680     5.2200    -2.3500 H     1 <1>   0.1500 
 48 H        6.2120     7.5930    -1.4680 H     1 <1>   0.1500 
 49 H       -9.4630     6.2410    -3.2170 H     1 <1>   0.0800 
 50 H       -7.9590     5.4980    -3.7500 H     1 <1>   0.0800 
 51 H       -7.9600     6.6430    -2.3940 H     1 <1>   0.0800 
@<TRIPOS>BOND
  1   1   2  2   
  2   2   3  am  
  3   2   4  am  
  4   3   5  1   
  5   3   6  1   
  6   4   7  1   
  7   4  27  1   
  8   5   8  1   
  9   5  28  1   
 10   5  29  1   
 11   6   9  1   
 12   6  30  1   
 13   6  31  1   
 14   7  10  1   
 15   7  32  1   
 16   7  33  1   
 17   8  11  1   
 18   8  34  1   
 19   8  35  1   
 20   9  11  1   
 21   9  36  1   
 22   9  37  1   
 23  10  12  1   
 24  10  38  1   
 25  10  39  1   
 26  11  13  1   
 27  12  14  1   
 28  13  15  ar  
 29  13  16  ar  
 30  14  17  ar  
 31  14  18  ar  
 32  15  19  ar  
 33  15  40  1   
 34  16  20  ar  
 35  16  41  1   
 36  17  21  ar  
 37  17  42  1   
 38  18  22  ar  
 39  18  43  1   
 40  19  23  ar  
 41  19  44  1   
 42  20  23  ar  
 43  20  45  1   
 44  21  24  ar  
 45  21  46  1   
 46  22  24  ar  
 47  22  47  1   
 48  23  48  1   
 49  24  25  1   
 50  25  26  1   
 51  26  49  1   
 52  26  50  1   
 53  26  51  1   
@<TRIPOS>SUBSTRUCTURE
  1 ****   2 GROUP 4 **** **** 0

# MOE 2024.06 (io_trps.svl 2023.06)
