@<TRIPOS>MOLECULE
NONAME
35 36 1 0 0 
SMALL
USER_CHARGES


@<TRIPOS>ATOM
  1 O       -0.2060     0.7730    -1.8440 O.2   1 <1>  -0.5700 
  2 C       -0.0840     1.6060    -0.9660 C.2   1 <1>   0.5440 
  3 N        1.1390     1.7640    -0.3780 N.am  1 <1>  -0.7300 
  4 C       -1.2160     2.4080    -0.5330 C.ar  1 <1>   0.0860 
  5 C        2.3640     1.0200    -0.7140 C.3   1 <1>   0.2200 
  6 C       -2.5170     1.9140    -0.6210 C.ar  1 <1>  -0.1500 
  7 C       -1.0520     3.6940    -0.0140 C.ar  1 <1>  -0.1500 
  8 C        2.8230     0.2530     0.5190 C.3   1 <1>  -0.1600 
  9 C        3.4920     2.0170    -0.9480 C.3   1 <1>  -0.1600 
 10 C       -3.6070     2.6540    -0.1990 C.ar  1 <1>  -0.1430 
 11 C       -2.1310     4.4470     0.4160 C.ar  1 <1>  -0.1430 
 12 C        3.5750     1.2690     1.3870 C.3   1 <1>  -0.1600 
 13 C        4.0050     2.4010     0.4450 C.3   1 <1>  -0.1600 
 14 C       -3.4080     3.9200     0.3220 C.ar  1 <1>  -0.1500 
 15 C       -5.0130     2.0890    -0.3020 C.3   1 <1>  -0.0970 
 16 C       -1.9340     5.8420     0.9800 C.3   1 <1>  -0.0970 
 17 H        1.2300     2.3710     0.4340 H     1 <1>   0.3700 
 18 H        2.2030     0.3760    -1.5640 H     1 <1>   0.0800 
 19 H       -2.6610     0.9280    -1.0280 H     1 <1>   0.1500 
 20 H       -0.0640     4.1100     0.0450 H     1 <1>   0.1500 
 21 H        3.5090    -0.5130     0.2040 H     1 <1>   0.0800 
 22 H        2.0020    -0.2140     1.0350 H     1 <1>   0.0800 
 23 H        3.1700     2.8660    -1.5250 H     1 <1>   0.0800 
 24 H        4.2790     1.5170    -1.4840 H     1 <1>   0.0800 
 25 H        4.4240     0.8100     1.8640 H     1 <1>   0.0800 
 26 H        2.9190     1.6570     2.1470 H     1 <1>   0.0800 
 27 H        3.5530     3.3260     0.7600 H     1 <1>   0.0800 
 28 H        5.0750     2.5230     0.4390 H     1 <1>   0.0800 
 29 H       -4.2510     4.5000     0.6540 H     1 <1>   0.1500 
 30 H       -5.0330     1.2330    -0.9530 H     1 <1>   0.0800 
 31 H       -5.6810     2.8320    -0.6980 H     1 <1>   0.0800 
 32 H       -5.3580     1.7920     0.6710 H     1 <1>   0.0800 
 33 H       -0.8900     6.0560     1.1250 H     1 <1>   0.0800 
 34 H       -2.4340     5.9290     1.9280 H     1 <1>   0.0800 
 35 H       -2.3440     6.5690     0.3030 H     1 <1>   0.0800 
@<TRIPOS>BOND
  1   1   2  2   
  2   2   3  am  
  3   2   4  1   
  4   3   5  1   
  5   3  17  1   
  6   4   6  ar  
  7   4   7  ar  
  8   5   8  1   
  9   5   9  1   
 10   5  18  1   
 11   6  10  ar  
 12   6  19  1   
 13   7  11  ar  
 14   7  20  1   
 15   8  12  1   
 16   8  21  1   
 17   8  22  1   
 18   9  13  1   
 19   9  23  1   
 20   9  24  1   
 21  10  14  ar  
 22  10  15  1   
 23  11  14  ar  
 24  11  16  1   
 25  12  13  1   
 26  12  25  1   
 27  12  26  1   
 28  13  27  1   
 29  13  28  1   
 30  14  29  1   
 31  15  30  1   
 32  15  31  1   
 33  15  32  1   
 34  16  33  1   
 35  16  34  1   
 36  16  35  1   
@<TRIPOS>SUBSTRUCTURE
  1 ****   4 GROUP 4 **** **** 0

# MOE 2024.06 (io_trps.svl 2023.06)
