@<TRIPOS>MOLECULE
NONAME
49 52 1 0 0 
SMALL
USER_CHARGES


@<TRIPOS>ATOM
  1 O        0.2820    -1.0520    -0.3590 O.2   1 <1>  -0.5750 
  2 C        0.9210    -2.0150     0.0100 C.2   1 <1>   0.6860 
  3 N        0.2720    -3.1060     0.5800 N.am  1 <1>  -0.4260 
  4 N        2.3030    -2.0270    -0.1480 N.am  1 <1>  -0.4420 
  5 C        0.9730    -4.2390     0.9680 C.2   1 <1>   0.6990 
  6 C       -1.2110    -3.0500     0.7840 C.3   1 <1>   0.1330 
  7 C        2.9990    -3.1390     0.2830 C.2   1 <1>   0.4200 
  8 C        3.0170    -0.8610    -0.7510 C.3   1 <1>   0.0520 
  9 O        0.4010    -5.2210     1.4090 O.2   1 <1>  -0.5750 
 10 C        2.3940    -4.2240     0.8240 C.2   1 <1>   0.2700 
 11 C       -1.9490    -3.4860    -0.4820 C.3   1 <1>   0.1120 
 12 N        4.3510    -3.3580     0.2450 N.pl3 1 <1>  -0.7040 
 13 N        3.4270    -5.1200     1.1160 N.pl3 1 <1>  -0.7670 
 14 O       -3.3120    -3.4740    -0.2100 O.3   1 <1>  -0.5650 
 15 C        4.5570    -4.5660     0.7550 C.cat 1 <1>   1.0690 
 16 C        3.6210    -6.4790     1.6530 C.3   1 <1>   0.3480 
 17 C       -4.1050    -3.8270    -1.2960 C.3   1 <1>   0.0320 
 18 N        5.6230    -5.3370     0.9650 N.pl3 1 <1>  -0.5800 
 19 C        5.1580    -6.6410     1.5350 C.3   1 <1>   0.1600 
 20 C        6.9570    -5.0620     0.6560 C.ar  1 <1>   0.3050 
 21 C        7.6350    -5.8390    -0.2690 C.ar  1 <1>  -0.1580 
 22 C        7.6170    -3.9990     1.2630 C.ar  1 <1>  -0.1580 
 23 C        8.9480    -5.5610    -0.5980 C.ar  1 <1>   0.0750 
 24 C        8.9310    -3.7140     0.9390 C.ar  1 <1>  -0.1580 
 25 O        9.5240    -6.3740    -1.5170 O.3   1 <1>  -0.3690 
 26 C        9.5990    -4.4910     0.0090 C.ar  1 <1>  -0.1580 
 27 C       10.8690    -6.2030    -1.9070 C.3   1 <1>   0.0320 
 28 H       -1.5060    -2.0460     1.0360 H     1 <1>   0.0720 
 29 H       -1.4970    -3.6930     1.5980 H     1 <1>   0.0720 
 30 H        2.3400    -0.2620    -1.3370 H     1 <1>   0.0720 
 31 H        3.8060    -1.1990    -1.3990 H     1 <1>   0.0720 
 32 H        3.4300    -0.2450     0.0290 H     1 <1>   0.0720 
 33 H       -1.6680    -4.4870    -0.7590 H     1 <1>   0.0720 
 34 H       -1.7550    -2.7970    -1.2870 H     1 <1>   0.0720 
 35 H        5.0780    -2.7480    -0.1230 H     1 <1>   0.4450 
 36 H        3.0990    -7.2090     1.0570 H     1 <1>   0.0720 
 37 H        3.2940    -6.5390     2.6780 H     1 <1>   0.0720 
 38 H       -5.1340    -3.7860    -0.9860 H     1 <1>   0.0720 
 39 H       -3.8590    -4.8280    -1.6070 H     1 <1>   0.0720 
 40 H       -3.9400    -3.1280    -2.0980 H     1 <1>   0.0720 
 41 H        5.4070    -7.4550     0.8760 H     1 <1>   0.0720 
 42 H        5.6030    -6.8110     2.5000 H     1 <1>   0.0720 
 43 H        7.1500    -6.6670    -0.7510 H     1 <1>   0.1420 
 44 H        7.1140    -3.3970     1.9970 H     1 <1>   0.1420 
 45 H        9.4430    -2.8920     1.4120 H     1 <1>   0.1420 
 46 H       10.6200    -4.2520    -0.2280 H     1 <1>   0.1420 
 47 H       11.1060    -6.9640    -2.6290 H     1 <1>   0.0720 
 48 H       11.5000    -6.3100    -1.0430 H     1 <1>   0.0720 
 49 H       10.9840    -5.2300    -2.3510 H     1 <1>   0.0720 
@<TRIPOS>BOND
  1   1   2  2   
  2   2   3  am  
  3   2   4  am  
  4   3   5  am  
  5   3   6  1   
  6   4   7  1   
  7   4   8  1   
  8   5   9  2   
  9   5  10  1   
 10   6  11  1   
 11   6  28  1   
 12   6  29  1   
 13   7  10  2   
 14   7  12  1   
 15   8  30  1   
 16   8  31  1   
 17   8  32  1   
 18  10  13  1   
 19  11  14  1   
 20  11  33  1   
 21  11  34  1   
 22  12  15  ar  
 23  12  35  1   
 24  13  15  ar  
 25  13  16  1   
 26  14  17  1   
 27  15  18  ar  
 28  16  19  1   
 29  16  36  1   
 30  16  37  1   
 31  17  38  1   
 32  17  39  1   
 33  17  40  1   
 34  18  19  1   
 35  18  20  1   
 36  19  41  1   
 37  19  42  1   
 38  20  21  ar  
 39  20  22  ar  
 40  21  23  ar  
 41  21  43  1   
 42  22  24  ar  
 43  22  44  1   
 44  23  25  1   
 45  23  26  ar  
 46  24  26  ar  
 47  24  45  1   
 48  25  27  1   
 49  26  46  1   
 50  27  47  1   
 51  27  48  1   
 52  27  49  1   
@<TRIPOS>SUBSTRUCTURE
  1 ****  12 GROUP 4 **** **** 0

# MOE 2024.06 (io_trps.svl 2023.06)
