@<TRIPOS>MOLECULE
NONAME
42 44 1 0 0 
SMALL
USER_CHARGES


@<TRIPOS>ATOM
  1 S        0.3650     0.0520     0.1710 S.o2  1 <1>   1.5000 
  2 O        0.3380     0.3120     1.5940 O.2   1 <1>  -0.6500 
  3 O        0.5610     1.1610    -0.7380 O.2   1 <1>  -0.6500 
  4 N        1.6400    -1.0340    -0.0900 N.am  1 <1>  -0.8490 
  5 C       -1.1150    -0.8760    -0.3040 C.2   1 <1>  -0.0220 
  6 C        1.6470    -2.1370     0.8890 C.3   1 <1>   0.1960 
  7 C        2.9390    -0.3410    -0.0850 C.3   1 <1>   0.1960 
  8 S       -1.0700    -1.8130    -1.7980 S.3   1 <1>  -0.0800 
  9 C       -2.3320    -1.0050     0.2650 C.2   1 <1>  -0.1500 
 10 C        2.7620    -3.1520     0.5910 C.3   1 <1>   0.1400 
 11 C        4.1090    -1.2970    -0.3860 C.3   1 <1>   0.1400 
 12 C       -2.7240    -2.3550    -1.5830 C.2   1 <1>  -0.1100 
 13 C       -3.2430    -1.8430    -0.4540 C.2   1 <1>  -0.1500 
 14 N        4.0950    -2.4790     0.5320 N.am  1 <1>  -0.6600 
 15 C        5.1750    -2.9670     1.2290 C.2   1 <1>   0.5690 
 16 O        5.0650    -3.9080     1.9800 O.2   1 <1>  -0.5700 
 17 C        6.5560    -2.3290     1.1260 C.3   1 <1>   0.1310 
 18 S        7.2440    -2.4790    -0.5940 S.3   1 <1>  -0.3310 
 19 C        8.8090    -1.5880    -0.5990 C.ar  1 <1>   0.1010 
 20 C        9.3630    -1.0580     0.5570 C.ar  1 <1>  -0.1500 
 21 C        9.4470    -1.4500    -1.8190 C.ar  1 <1>  -0.1500 
 22 C       10.5670    -0.3770     0.4800 C.ar  1 <1>  -0.1500 
 23 C       10.6500    -0.7690    -1.8890 C.ar  1 <1>  -0.1500 
 24 C       11.2080    -0.2320    -0.7390 C.ar  1 <1>  -0.1500 
 25 H        0.7010    -2.6510     0.8620 H     1 <1>   0.0800 
 26 H        1.7870    -1.7520     1.8860 H     1 <1>   0.0800 
 27 H        3.1000     0.1270     0.8730 H     1 <1>   0.0800 
 28 H        2.9370     0.4330    -0.8340 H     1 <1>   0.0800 
 29 H       -2.6310    -0.5310     1.1850 H     1 <1>   0.1500 
 30 H        2.5660    -3.6280    -0.3540 H     1 <1>   0.0800 
 31 H        2.7550    -3.9140     1.3510 H     1 <1>   0.0800 
 32 H        5.0290    -0.7500    -0.2990 H     1 <1>   0.0800 
 33 H        4.0260    -1.6430    -1.4010 H     1 <1>   0.0800 
 34 H       -3.1350    -3.0060    -2.3350 H     1 <1>   0.1500 
 35 H       -4.2410    -2.0180    -0.0890 H     1 <1>   0.1500 
 36 H        7.2410    -2.8340     1.7820 H     1 <1>   0.0800 
 37 H        6.5090    -1.2860     1.3720 H     1 <1>   0.0800 
 38 H        8.8860    -1.1650     1.5100 H     1 <1>   0.1500 
 39 H        9.0050    -1.8720    -2.7030 H     1 <1>   0.1500 
 40 H       11.0080     0.0390     1.3690 H     1 <1>   0.1500 
 41 H       11.1520    -0.6570    -2.8340 H     1 <1>   0.1500 
 42 H       12.1430     0.2980    -0.7950 H     1 <1>   0.1500 
@<TRIPOS>BOND
  1   1   2  2   
  2   1   3  2   
  3   1   4  am  
  4   1   5  1   
  5   4   6  1   
  6   4   7  1   
  7   5   8  1   
  8   5   9  2   
  9   6  10  1   
 10   6  25  1   
 11   6  26  1   
 12   7  11  1   
 13   7  27  1   
 14   7  28  1   
 15   8  12  1   
 16   9  13  1   
 17   9  29  1   
 18  10  14  1   
 19  10  30  1   
 20  10  31  1   
 21  11  14  1   
 22  11  32  1   
 23  11  33  1   
 24  12  13  2   
 25  12  34  1   
 26  13  35  1   
 27  14  15  am  
 28  15  16  2   
 29  15  17  1   
 30  17  18  1   
 31  17  36  1   
 32  17  37  1   
 33  18  19  1   
 34  19  20  ar  
 35  19  21  ar  
 36  20  22  ar  
 37  20  38  1   
 38  21  23  ar  
 39  21  39  1   
 40  22  24  ar  
 41  22  40  1   
 42  23  24  ar  
 43  23  41  1   
 44  24  42  1   
@<TRIPOS>SUBSTRUCTURE
  1 ****  11 GROUP 4 **** **** 0

# MOE 2024.06 (io_trps.svl 2023.06)
