@<TRIPOS>MOLECULE
NONAME
37 38 1 0 0 
SMALL
USER_CHARGES


@<TRIPOS>ATOM
  1 N       -0.0770     0.2060     0.3170 N.pl3 1 <1>  -0.6530 
  2 C        0.0140     1.5050     0.5390 C.cat 1 <1>   0.6040 
  3 C       -1.0860    -0.6950    -0.0820 C.ar  1 <1>   0.3490 
  4 N        1.1580     2.0350     0.9160 N.pl3 1 <1>  -0.7940 
  5 C       -1.1330     2.5020     0.3890 C.3   1 <1>  -0.0550 
  6 C       -2.4560    -0.4740     0.0700 C.ar  1 <1>  -0.1430 
  7 C       -0.6600    -1.8940    -0.6410 C.ar  1 <1>  -0.1500 
  8 C        2.4720     1.4030     1.1900 C.3   1 <1>   0.3290 
  9 C       -2.4850     2.0090    -0.1400 C.3   1 <1>  -0.1600 
 10 C       -3.3580    -1.4500    -0.3290 C.ar  1 <1>  -0.1500 
 11 C       -3.0130     0.8140     0.6520 C.3   1 <1>  -0.0170 
 12 C       -1.5630    -2.8620    -1.0380 C.ar  1 <1>  -0.1500 
 13 C        3.3920     1.6320    -0.0090 C.3   1 <1>  -0.1600 
 14 C       -2.9170    -2.6390    -0.8800 C.ar  1 <1>  -0.1500 
 15 C        4.7680     0.9860     0.2070 C.3   1 <1>  -0.1600 
 16 C        5.6750     1.2170    -1.0050 C.3   1 <1>  -0.2400 
 17 H        0.7970    -0.2930     0.4390 H     1 <1>   0.4500 
 18 H        1.2000     3.0500     1.0540 H     1 <1>   0.4500 
 19 H       -0.8020     3.2940    -0.2590 H     1 <1>   0.0800 
 20 H       -1.3020     2.9410     1.3570 H     1 <1>   0.0800 
 21 H        0.3880    -2.0870    -0.7750 H     1 <1>   0.1500 
 22 H        2.3580     0.3480     1.3710 H     1 <1>   0.0800 
 23 H        2.9040     1.8450     2.0740 H     1 <1>   0.0800 
 24 H       -2.4100     1.7560    -1.1840 H     1 <1>   0.0800 
 25 H       -3.1930     2.8170    -0.0580 H     1 <1>   0.0800 
 26 H       -4.4180    -1.2980    -0.2180 H     1 <1>   0.1500 
 27 H       -2.7640     0.8930     1.6960 H     1 <1>   0.0800 
 28 H       -4.0870     0.8070     0.5800 H     1 <1>   0.0800 
 29 H       -1.2190    -3.7870    -1.4700 H     1 <1>   0.1500 
 30 H        3.5220     2.6890    -0.1630 H     1 <1>   0.0800 
 31 H        2.9410     1.2110    -0.8920 H     1 <1>   0.0800 
 32 H       -3.6270    -3.3890    -1.1860 H     1 <1>   0.1500 
 33 H        4.6600    -0.0740     0.3640 H     1 <1>   0.0800 
 34 H        5.2400     1.4070     1.0790 H     1 <1>   0.0800 
 35 H        5.2450     0.7840    -1.8920 H     1 <1>   0.0800 
 36 H        6.6350     0.7600    -0.8380 H     1 <1>   0.0800 
 37 H        5.8270     2.2690    -1.1720 H     1 <1>   0.0800 
@<TRIPOS>BOND
  1   1   2  ar  
  2   1   3  1   
  3   1  17  1   
  4   2   4  ar  
  5   2   5  1   
  6   3   6  ar  
  7   3   7  ar  
  8   4   8  1   
  9   4  18  1   
 10   5   9  1   
 11   5  19  1   
 12   5  20  1   
 13   6  10  ar  
 14   6  11  1   
 15   7  12  ar  
 16   7  21  1   
 17   8  13  1   
 18   8  22  1   
 19   8  23  1   
 20   9  11  1   
 21   9  24  1   
 22   9  25  1   
 23  10  14  ar  
 24  10  26  1   
 25  11  27  1   
 26  11  28  1   
 27  12  14  ar  
 28  12  29  1   
 29  13  15  1   
 30  13  30  1   
 31  13  31  1   
 32  14  32  1   
 33  15  16  1   
 34  15  33  1   
 35  15  34  1   
 36  16  35  1   
 37  16  36  1   
 38  16  37  1   
@<TRIPOS>SUBSTRUCTURE
  1 ****   1 GROUP 4 **** **** 0

# MOE 2024.06 (io_trps.svl 2023.06)
