@<TRIPOS>MOLECULE
NONAME
51 53 1 0 0 
SMALL
USER_CHARGES


@<TRIPOS>ATOM
  1 S        1.1530     1.2430     1.4660 S.o2  1 <1>   1.3330 
  2 O        1.2670     0.0460     0.6730 O.2   1 <1>  -0.6500 
  3 O        2.2930     1.7770     2.1710 O.2   1 <1>  -0.6500 
  4 N        0.6170     2.5140     0.4230 N.am  1 <1>  -0.6930 
  5 C       -0.2010     1.0930     2.6100 C.3   1 <1>  -0.1350 
  6 C       -0.4610     2.3290    -0.4320 C.ar  1 <1>   0.1990 
  7 C        1.6790     3.4710    -0.0190 C.3   1 <1>   0.2570 
  8 C       -1.6550     2.9930    -0.1870 C.ar  1 <1>  -0.1500 
  9 C       -0.3710     1.4920    -1.5420 C.ar  1 <1>  -0.1500 
 10 C        2.7870     2.8350    -0.8650 C.2   1 <1>   0.5690 
 11 C       -2.7170     2.7980    -1.0460 C.ar  1 <1>   0.1900 
 12 C       -1.4470     1.3100    -2.3950 C.ar  1 <1>  -0.1500 
 13 O        2.7070     2.9170    -2.0680 O.2   1 <1>  -0.5700 
 14 N        3.8410     2.2290    -0.2360 N.am  1 <1>  -0.5470 
 15 F       -3.8390     3.4230    -0.8070 F     1 <1>  -0.1900 
 16 C       -2.6410     1.9680    -2.1490 C.ar  1 <1>  -0.1500 
 17 C        4.9530     1.5740    -0.7800 C.ar  1 <1>   0.1170 
 18 C        6.2170     1.7250    -0.1920 C.ar  1 <1>   0.0860 
 19 C        4.8120     0.7510    -1.8940 C.ar  1 <1>  -0.1500 
 20 C        6.4100     2.6060     0.9380 C.2   1 <1>   0.5440 
 21 C        7.2930     1.0180    -0.7330 C.ar  1 <1>  -0.1500 
 22 C        5.8910     0.0720    -2.4220 C.ar  1 <1>  -0.1500 
 23 O        5.7700     2.4340     1.9600 O.2   1 <1>  -0.5700 
 24 N        7.2930     3.6600     0.8810 N.am  1 <1>  -0.6600 
 25 C        7.1380     0.2020    -1.8360 C.ar  1 <1>  -0.1500 
 26 C        7.4930     4.6000     2.0070 C.3   1 <1>   0.1400 
 27 C        7.8280     4.2240    -0.3800 C.3   1 <1>   0.1400 
 28 C        7.8940     5.9140     1.3480 C.3   1 <1>  -0.1600 
 29 C        8.5510     5.5010     0.0350 C.3   1 <1>  -0.1600 
 30 H        0.0230     0.3440     3.3440 H     1 <1>   0.0800 
 31 H       -1.0950     0.8090     2.0900 H     1 <1>   0.0800 
 32 H       -0.3690     2.0260     3.1090 H     1 <1>   0.0800 
 33 H        2.1230     3.9340     0.8440 H     1 <1>   0.0800 
 34 H        1.2230     4.2510    -0.6030 H     1 <1>   0.0800 
 35 H       -1.7530     3.6500     0.6560 H     1 <1>   0.1500 
 36 H        0.5570     0.9800    -1.7380 H     1 <1>   0.1500 
 37 H       -1.3540     0.6580    -3.2470 H     1 <1>   0.1500 
 38 H        3.8290     2.2460     0.7990 H     1 <1>   0.3700 
 39 H       -3.4910     1.8440    -2.7950 H     1 <1>   0.1500 
 40 H        3.8420     0.6390    -2.3460 H     1 <1>   0.1500 
 41 H        8.2600     1.1150    -0.2730 H     1 <1>   0.1500 
 42 H        5.7610    -0.5600    -3.2830 H     1 <1>   0.1500 
 43 H        7.9800    -0.3340    -2.2400 H     1 <1>   0.1500 
 44 H        8.2860     4.2290     2.6320 H     1 <1>   0.0800 
 45 H        6.5950     4.7090     2.5920 H     1 <1>   0.0800 
 46 H        7.0080     4.4520    -1.0410 H     1 <1>   0.0800 
 47 H        8.5010     3.5350    -0.8590 H     1 <1>   0.0800 
 48 H        8.5510     6.4900     1.9750 H     1 <1>   0.0800 
 49 H        7.0060     6.4880     1.1490 H     1 <1>   0.0800 
 50 H        8.4770     6.2650    -0.7190 H     1 <1>   0.0800 
 51 H        9.5900     5.2740     0.2030 H     1 <1>   0.0800 
@<TRIPOS>BOND
  1   1   2  2   
  2   1   3  2   
  3   1   4  am  
  4   1   5  1   
  5   4   6  1   
  6   4   7  1   
  7   5  30  1   
  8   5  31  1   
  9   5  32  1   
 10   6   8  ar  
 11   6   9  ar  
 12   7  10  1   
 13   7  33  1   
 14   7  34  1   
 15   8  11  ar  
 16   8  35  1   
 17   9  12  ar  
 18   9  36  1   
 19  10  13  2   
 20  10  14  am  
 21  11  15  1   
 22  11  16  ar  
 23  12  16  ar  
 24  12  37  1   
 25  14  17  1   
 26  14  38  1   
 27  16  39  1   
 28  17  18  ar  
 29  17  19  ar  
 30  18  20  1   
 31  18  21  ar  
 32  19  22  ar  
 33  19  40  1   
 34  20  23  2   
 35  20  24  am  
 36  21  25  ar  
 37  21  41  1   
 38  22  25  ar  
 39  22  42  1   
 40  24  26  1   
 41  24  27  1   
 42  25  43  1   
 43  26  28  1   
 44  26  44  1   
 45  26  45  1   
 46  27  29  1   
 47  27  46  1   
 48  27  47  1   
 49  28  29  1   
 50  28  48  1   
 51  28  49  1   
 52  29  50  1   
 53  29  51  1   
@<TRIPOS>SUBSTRUCTURE
  1 ****  14 GROUP 4 **** **** 0

# MOE 2024.06 (io_trps.svl 2023.06)
