@<TRIPOS>MOLECULE
NONAME
46 48 1 0 0 
SMALL
USER_CHARGES


@<TRIPOS>ATOM
  1 N       -0.0280     0.1770    -0.1290 N.pl3 1 <1>  -0.8380 
  2 C       -1.2250    -0.5000    -0.3260 C.ar  1 <1>   0.1000 
  3 C        1.2010    -0.5060    -0.6090 C.3   1 <1>   0.2090 
  4 C        0.1210     0.8880     1.1680 C.3   1 <1>   0.2090 
  5 C       -1.5400    -1.6470     0.3950 C.ar  1 <1>  -0.1500 
  6 C       -2.1340    -0.0280    -1.2630 C.ar  1 <1>  -0.1500 
  7 C        2.3710     0.4970    -0.6800 C.3   1 <1>   0.3430 
  8 C        1.2970     1.8850     1.0930 C.3   1 <1>   0.3430 
  9 C       -2.7380    -2.3060     0.1820 C.ar  1 <1>  -0.1500 
 10 C       -3.3320    -0.6840    -1.4790 C.ar  1 <1>  -0.1500 
 11 N        2.5960     1.2460     0.6280 N.4   1 <1>  -0.9590 
 12 C       -3.6360    -1.8250    -0.7550 C.ar  1 <1>  -0.1500 
 13 C        3.7280     2.2240     0.6260 C.3   1 <1>   0.4230 
 14 C        3.6040     3.2740    -0.4870 C.3   1 <1>  -0.1600 
 15 C        5.0680     1.4930     0.5160 C.3   1 <1>  -0.1600 
 16 C        4.7770     4.2550    -0.4350 C.3   1 <1>   0.3430 
 17 C        6.2310     2.4870     0.5600 C.3   1 <1>   0.3430 
 18 N        6.0700     3.5120    -0.5120 N.4   1 <1>  -0.9590 
 19 C        7.2190     4.4770    -0.4780 C.3   1 <1>   0.2630 
 20 H        1.0170    -0.9150    -1.5890 H     1 <1>   0.0800 
 21 H        1.4460    -1.3220     0.0480 H     1 <1>   0.0800 
 22 H        0.2840     0.1760     1.9590 H     1 <1>   0.0800 
 23 H       -0.7900     1.4210     1.3850 H     1 <1>   0.0800 
 24 H       -0.8500    -2.0270     1.1230 H     1 <1>   0.1500 
 25 H       -1.8970     0.8570    -1.8230 H     1 <1>   0.1500 
 26 H        2.1440     1.1990    -1.4640 H     1 <1>   0.0800 
 27 H        3.2630    -0.0370    -0.9610 H     1 <1>   0.0800 
 28 H        1.4310     2.3310     2.0640 H     1 <1>   0.0800 
 29 H        1.0120     2.6660     0.4080 H     1 <1>   0.0800 
 30 H       -2.9750    -3.1930     0.7430 H     1 <1>   0.1500 
 31 H       -4.0300    -0.3090    -2.2080 H     1 <1>   0.1500 
 32 H        2.8030     0.5220     1.3290 H     1 <1>   0.4500 
 33 H       -4.5680    -2.3360    -0.9220 H     1 <1>   0.1500 
 34 H        3.7190     2.7430     1.5730 H     1 <1>   0.0800 
 35 H        2.6960     3.8380    -0.3660 H     1 <1>   0.0800 
 36 H        3.5880     2.8160    -1.4590 H     1 <1>   0.0800 
 37 H        5.1330     0.9310    -0.3980 H     1 <1>   0.0800 
 38 H        5.1790     0.8110     1.3410 H     1 <1>   0.0800 
 39 H        4.7380     4.8220     0.4830 H     1 <1>   0.0800 
 40 H        4.7030     4.9500    -1.2580 H     1 <1>   0.0800 
 41 H        7.1630     1.9590     0.4260 H     1 <1>   0.0800 
 42 H        6.2610     2.9710     1.5240 H     1 <1>   0.0800 
 43 H        6.1190     3.0370    -1.4290 H     1 <1>   0.4500 
 44 H        7.2350     5.0160     0.4560 H     1 <1>   0.0800 
 45 H        7.1370     5.1910    -1.2830 H     1 <1>   0.0800 
 46 H        8.1560     3.9530    -0.5860 H     1 <1>   0.0800 
@<TRIPOS>BOND
  1   1   2  1   
  2   1   3  1   
  3   1   4  1   
  4   2   5  ar  
  5   2   6  ar  
  6   3   7  1   
  7   3  20  1   
  8   3  21  1   
  9   4   8  1   
 10   4  22  1   
 11   4  23  1   
 12   5   9  ar  
 13   5  24  1   
 14   6  10  ar  
 15   6  25  1   
 16   7  11  1   
 17   7  26  1   
 18   7  27  1   
 19   8  11  1   
 20   8  28  1   
 21   8  29  1   
 22   9  12  ar  
 23   9  30  1   
 24  10  12  ar  
 25  10  31  1   
 26  11  13  1   
 27  11  32  1   
 28  12  33  1   
 29  13  14  1   
 30  13  15  1   
 31  13  34  1   
 32  14  16  1   
 33  14  35  1   
 34  14  36  1   
 35  15  17  1   
 36  15  37  1   
 37  15  38  1   
 38  16  18  1   
 39  16  39  1   
 40  16  40  1   
 41  17  18  1   
 42  17  41  1   
 43  17  42  1   
 44  18  19  1   
 45  18  43  1   
 46  19  44  1   
 47  19  45  1   
 48  19  46  1   
@<TRIPOS>SUBSTRUCTURE
  1 ****   7 GROUP 4 **** **** 0

# MOE 2024.06 (io_trps.svl 2023.06)
