@<TRIPOS>MOLECULE
NONAME
65 68 1 0 0 
SMALL
USER_CHARGES


@<TRIPOS>ATOM
  1 O       -0.0670    -0.1770    -0.7090 O.2   1 <1>  -0.5700 
  2 C       -1.1330    -0.7210    -0.4850 C.2   1 <1>   0.5440 
  3 N       -2.2430     0.0600    -0.3410 N.am  1 <1>  -0.7300 
  4 C       -1.2250    -2.1630    -0.3370 C.ar  1 <1>   0.0860 
  5 C       -2.4100     1.4790    -0.8170 C.3   1 <1>   0.2810 
  6 C       -2.3820    -2.8650    -0.6800 C.ar  1 <1>  -0.1500 
  7 C       -0.1530    -2.9060     0.1580 C.ar  1 <1>  -0.1500 
  8 C       -1.3220     2.4270    -0.2640 C.2   1 <1>   0.5690 
  9 C       -3.8640     1.9690    -0.5390 C.3   1 <1>   0.0000 
 10 C       -2.4680    -4.2360    -0.5220 C.ar  1 <1>  -0.1500 
 11 C       -0.2340    -4.2770     0.3170 C.ar  1 <1>  -0.1500 
 12 O       -0.8900     3.3110    -0.9670 O.2   1 <1>  -0.5700 
 13 N       -0.8040     2.2200     0.9800 N.am  1 <1>  -0.7300 
 14 C       -4.1990     1.9830     0.9770 C.3   1 <1>  -0.1600 
 15 C       -4.8890     1.0470    -1.2580 C.3   1 <1>  -0.1600 
 16 C       -4.0700     3.4080    -1.0860 C.3   1 <1>  -0.1600 
 17 C       -1.3940    -4.9520    -0.0210 C.ar  1 <1>  -0.1430 
 18 C        0.3370     2.9750     1.5690 C.3   1 <1>   0.1400 
 19 C       -5.6440     2.4610     1.2180 C.3   1 <1>  -0.0800 
 20 C       -6.3330     1.5230    -1.0200 C.3   1 <1>  -0.0800 
 21 C       -5.5110     3.8960    -0.8510 C.3   1 <1>  -0.0800 
 22 C       -1.4880    -6.4570     0.1540 C.3   1 <1>  -0.0970 
 23 C        1.6790     2.2340     1.3780 C.3   1 <1>   0.3430 
 24 C       -6.6220     1.5200     0.4920 C.3   1 <1>  -0.1600 
 25 C       -5.8060     3.8870     0.6590 C.3   1 <1>  -0.1600 
 26 C       -6.4910     2.9520    -1.5670 C.3   1 <1>  -0.1600 
 27 N        1.8810     1.7500    -0.0250 N.4   1 <1>  -0.9590 
 28 C        2.9500     0.7180    -0.1260 C.3   1 <1>   0.2630 
 29 C        2.1000     2.8580    -1.0030 C.3   1 <1>   0.2630 
 30 H       -3.1280    -0.3930    -0.1060 H     1 <1>   0.3700 
 31 H       -2.2760     1.4690    -1.8840 H     1 <1>   0.0800 
 32 H       -3.2280    -2.3410    -1.0860 H     1 <1>   0.1500 
 33 H        0.7580    -2.4010     0.4230 H     1 <1>   0.1500 
 34 H       -3.3750    -4.7490    -0.7930 H     1 <1>   0.1500 
 35 H        0.6100    -4.8220     0.7060 H     1 <1>   0.1500 
 36 H       -1.1560     1.4090     1.5000 H     1 <1>   0.3700 
 37 H       -3.5290     2.6430     1.4990 H     1 <1>   0.0800 
 38 H       -4.0850     1.0010     1.3990 H     1 <1>   0.0800 
 39 H       -4.8100     0.0350    -0.9060 H     1 <1>   0.0800 
 40 H       -4.6910     1.0370    -2.3160 H     1 <1>   0.0800 
 41 H       -3.8520     3.4360    -2.1400 H     1 <1>   0.0800 
 42 H       -3.4000     4.0970    -0.6020 H     1 <1>   0.0800 
 43 H        0.1570     3.1280     2.6190 H     1 <1>   0.0800 
 44 H        0.3990     3.9470     1.1100 H     1 <1>   0.0800 
 45 H       -5.8560     2.4610     2.2730 H     1 <1>   0.0800 
 46 H       -7.0220     0.8650    -1.5230 H     1 <1>   0.0800 
 47 H       -5.6230     4.8960    -1.2370 H     1 <1>   0.0800 
 48 H       -2.1430    -6.8830    -0.5840 H     1 <1>   0.0800 
 49 H       -1.8700    -6.6880     1.1320 H     1 <1>   0.0800 
 50 H       -0.5190    -6.9110     0.0450 H     1 <1>   0.0800 
 51 H        1.6870     1.3880     2.0450 H     1 <1>   0.0800 
 52 H        2.4910     2.8820     1.6630 H     1 <1>   0.0800 
 53 H       -7.6340     1.8430     0.6680 H     1 <1>   0.0800 
 54 H       -6.5280     0.5220     0.8830 H     1 <1>   0.0800 
 55 H       -5.1350     4.5580     1.1670 H     1 <1>   0.0800 
 56 H       -6.8090     4.2350     0.8350 H     1 <1>   0.0800 
 57 H       -7.5010     3.2910    -1.4150 H     1 <1>   0.0800 
 58 H       -6.3000     2.9620    -2.6260 H     1 <1>   0.0800 
 59 H        0.9860     1.2760    -0.2970 H     1 <1>   0.4500 
 60 H        3.9060     1.1360     0.1410 H     1 <1>   0.0800 
 61 H        3.0030     0.3420    -1.1350 H     1 <1>   0.0800 
 62 H        2.7300    -0.1080     0.5300 H     1 <1>   0.0800 
 63 H        3.0520     3.3320    -0.8290 H     1 <1>   0.0800 
 64 H        1.3250     3.6000    -0.9140 H     1 <1>   0.0800 
 65 H        2.0810     2.4720    -2.0090 H     1 <1>   0.0800 
@<TRIPOS>BOND
  1   1   2  2   
  2   2   3  am  
  3   2   4  1   
  4   3   5  1   
  5   3  30  1   
  6   4   6  ar  
  7   4   7  ar  
  8   5   8  1   
  9   5   9  1   
 10   5  31  1   
 11   6  10  ar  
 12   6  32  1   
 13   7  11  ar  
 14   7  33  1   
 15   8  12  2   
 16   8  13  am  
 17   9  14  1   
 18   9  15  1   
 19   9  16  1   
 20  10  17  ar  
 21  10  34  1   
 22  11  17  ar  
 23  11  35  1   
 24  13  18  1   
 25  13  36  1   
 26  14  19  1   
 27  14  37  1   
 28  14  38  1   
 29  15  20  1   
 30  15  39  1   
 31  15  40  1   
 32  16  21  1   
 33  16  41  1   
 34  16  42  1   
 35  17  22  1   
 36  18  23  1   
 37  18  43  1   
 38  18  44  1   
 39  19  24  1   
 40  19  25  1   
 41  19  45  1   
 42  20  24  1   
 43  20  26  1   
 44  20  46  1   
 45  21  25  1   
 46  21  26  1   
 47  21  47  1   
 48  22  48  1   
 49  22  49  1   
 50  22  50  1   
 51  23  27  1   
 52  23  51  1   
 53  23  52  1   
 54  24  53  1   
 55  24  54  1   
 56  25  55  1   
 57  25  56  1   
 58  26  57  1   
 59  26  58  1   
 60  27  28  1   
 61  27  29  1   
 62  27  59  1   
 63  28  60  1   
 64  28  61  1   
 65  28  62  1   
 66  29  63  1   
 67  29  64  1   
 68  29  65  1   
@<TRIPOS>SUBSTRUCTURE
  1 ****   3 GROUP 4 **** **** 0

# MOE 2024.06 (io_trps.svl 2023.06)
