@<TRIPOS>MOLECULE
NONAME
33 33 1 0 0 
SMALL
USER_CHARGES


@<TRIPOS>ATOM
  1 O        0.0520     0.4260    -1.5380 O.2   1 <1>  -0.5700 
  2 C        0.1160     1.4450    -0.8970 C.2   1 <1>   0.5690 
  3 N        1.2390     1.8780    -0.2490 N.am  1 <1>  -0.5470 
  4 C       -1.1210     2.3200    -0.8080 C.3   1 <1>  -0.0990 
  5 C        2.5200     1.3150    -0.1280 C.ar  1 <1>   0.1170 
  6 C       -1.8020     2.2300     0.5670 C.3   1 <1>  -0.1600 
  7 C        2.7930    -0.0280    -0.3610 C.ar  1 <1>  -0.1500 
  8 C        3.5680     2.1390     0.2600 C.ar  1 <1>  -0.1500 
  9 C       -3.0500     3.1160     0.6310 C.3   1 <1>  -0.2400 
 10 C        4.0720    -0.5370    -0.2150 C.ar  1 <1>   0.0830 
 11 C        4.8530     1.6490     0.4110 C.ar  1 <1>   0.0830 
 12 O        4.2320    -1.8620    -0.4660 O.3   1 <1>  -0.3630 
 13 C        5.1110     0.3040     0.1720 C.ar  1 <1>  -0.1500 
 14 O        5.8000     2.5440     0.7940 O.3   1 <1>  -0.3630 
 15 C        5.4970    -2.4810    -0.3990 C.3   1 <1>   0.0400 
 16 C        7.1470     2.1640     0.9600 C.3   1 <1>   0.0400 
 17 H        1.1380     2.7820     0.2060 H     1 <1>   0.3700 
 18 H       -1.8130     2.0050    -1.5690 H     1 <1>   0.0800 
 19 H       -0.8450     3.3360    -1.0200 H     1 <1>   0.0800 
 20 H       -1.1130     2.5300     1.3390 H     1 <1>   0.0800 
 21 H       -2.0820     1.2060     0.7560 H     1 <1>   0.0800 
 22 H        2.0090    -0.7000    -0.6560 H     1 <1>   0.1500 
 23 H        3.3940     3.1810     0.4480 H     1 <1>   0.1500 
 24 H       -2.7920     4.1470     0.4660 H     1 <1>   0.0800 
 25 H       -3.5120     3.0300     1.5990 H     1 <1>   0.0800 
 26 H       -3.7650     2.8130    -0.1140 H     1 <1>   0.0800 
 27 H        6.1010    -0.0830     0.2870 H     1 <1>   0.1500 
 28 H        5.3740    -3.5180    -0.6560 H     1 <1>   0.0800 
 29 H        5.8740    -2.3960     0.6040 H     1 <1>   0.0800 
 30 H        6.1550    -2.0060    -1.1040 H     1 <1>   0.0800 
 31 H        7.7060     3.0340     1.2540 H     1 <1>   0.0800 
 32 H        7.5220     1.7890     0.0230 H     1 <1>   0.0800 
 33 H        7.2070     1.4140     1.7290 H     1 <1>   0.0800 
@<TRIPOS>BOND
  1   1   2  2   
  2   2   3  am  
  3   2   4  1   
  4   3   5  1   
  5   3  17  1   
  6   4   6  1   
  7   4  18  1   
  8   4  19  1   
  9   5   7  ar  
 10   5   8  ar  
 11   6   9  1   
 12   6  20  1   
 13   6  21  1   
 14   7  10  ar  
 15   7  22  1   
 16   8  11  ar  
 17   8  23  1   
 18   9  24  1   
 19   9  25  1   
 20   9  26  1   
 21  10  12  1   
 22  10  13  ar  
 23  11  13  ar  
 24  11  14  1   
 25  12  15  1   
 26  13  27  1   
 27  14  16  1   
 28  15  28  1   
 29  15  29  1   
 30  15  30  1   
 31  16  31  1   
 32  16  32  1   
 33  16  33  1   
@<TRIPOS>SUBSTRUCTURE
  1 ****   5 GROUP 4 **** **** 0

# MOE 2024.06 (io_trps.svl 2023.06)
