@<TRIPOS>MOLECULE
NONAME
44 46 1 0 0 
SMALL
USER_CHARGES


@<TRIPOS>ATOM
  1 O       -0.7050     3.6700    -1.9680 O.2   1 <1>  -0.5700 
  2 C       -0.7060     2.9890    -0.9640 C.2   1 <1>   0.5690 
  3 N        0.3150     2.0820    -0.7750 N.am  1 <1>  -0.6600 
  4 C       -1.8600     3.1800     0.0710 C.3   1 <1>   0.2040 
  5 C        0.3810     0.9800     0.2180 C.3   1 <1>   0.1400 
  6 C        1.4380     1.9730    -1.7360 C.3   1 <1>   0.1400 
  7 C       -2.5360     1.8140     0.3430 C.ar  1 <1>  -0.1440 
  8 C       -1.2890     3.8550     1.3440 C.3   1 <1>  -0.1600 
  9 C       -2.9750     4.1270    -0.4500 C.3   1 <1>  -0.1600 
 10 C        1.7670     0.3750     0.0400 C.3   1 <1>  -0.1600 
 11 C        2.1110     0.6420    -1.4210 C.3   1 <1>  -0.1600 
 12 C       -2.9800     1.0700    -0.7470 C.ar  1 <1>  -0.1500 
 13 C       -2.7190     1.2780     1.6150 C.ar  1 <1>  -0.1500 
 14 C       -0.8670     5.2990     1.0650 C.3   1 <1>   0.1200 
 15 C       -2.5340     5.5960    -0.5500 C.3   1 <1>   0.1200 
 16 C       -3.5780    -0.1660    -0.5810 C.ar  1 <1>  -0.1500 
 17 C       -3.3170     0.0420     1.7850 C.ar  1 <1>  -0.1500 
 18 O       -1.9950     6.0090     0.6670 O.3   1 <1>  -0.5600 
 19 C       -3.7490    -0.6900     0.6950 C.ar  1 <1>   0.0820 
 20 O       -4.3200    -1.8940     0.9500 O.3   1 <1>  -0.3620 
 21 C       -4.8170    -2.7040    -0.0920 C.3   1 <1>   0.0400 
 22 H       -0.3690     0.2450    -0.0190 H     1 <1>   0.0800 
 23 H        0.2380     1.3300     1.2230 H     1 <1>   0.0800 
 24 H        2.1190     2.7910    -1.5700 H     1 <1>   0.0800 
 25 H        1.0820     2.0040    -2.7520 H     1 <1>   0.0800 
 26 H       -0.4460     3.3130     1.7220 H     1 <1>   0.0800 
 27 H       -2.0370     3.8960     2.1150 H     1 <1>   0.0800 
 28 H       -3.8190     4.0800     0.2140 H     1 <1>   0.0800 
 29 H       -3.3120     3.8040    -1.4180 H     1 <1>   0.0800 
 30 H        1.7790    -0.6740     0.2800 H     1 <1>   0.0800 
 31 H        2.4610     0.8910     0.6800 H     1 <1>   0.0800 
 32 H        3.1720     0.6790    -1.5950 H     1 <1>   0.0800 
 33 H        1.6800    -0.1220    -2.0450 H     1 <1>   0.0800 
 34 H       -2.8550     1.4510    -1.7470 H     1 <1>   0.1500 
 35 H       -2.4030     1.7980     2.5000 H     1 <1>   0.1500 
 36 H       -0.1190     5.3640     0.2920 H     1 <1>   0.0800 
 37 H       -0.4900     5.7630     1.9600 H     1 <1>   0.0800 
 38 H       -3.3800     6.2260    -0.7620 H     1 <1>   0.0800 
 39 H       -1.7960     5.7470    -1.3190 H     1 <1>   0.0800 
 40 H       -3.9010    -0.7020    -1.4530 H     1 <1>   0.1500 
 41 H       -3.4540    -0.3640     2.7710 H     1 <1>   0.1500 
 42 H       -5.2290    -3.5950     0.3460 H     1 <1>   0.0800 
 43 H       -4.0070    -2.9610    -0.7500 H     1 <1>   0.0800 
 44 H       -5.5860    -2.1640    -0.6160 H     1 <1>   0.0800 
@<TRIPOS>BOND
  1   1   2  2   
  2   2   3  am  
  3   2   4  1   
  4   3   5  1   
  5   3   6  1   
  6   4   7  1   
  7   4   8  1   
  8   4   9  1   
  9   5  10  1   
 10   5  22  1   
 11   5  23  1   
 12   6  11  1   
 13   6  24  1   
 14   6  25  1   
 15   7  12  ar  
 16   7  13  ar  
 17   8  14  1   
 18   8  26  1   
 19   8  27  1   
 20   9  15  1   
 21   9  28  1   
 22   9  29  1   
 23  10  11  1   
 24  10  30  1   
 25  10  31  1   
 26  11  32  1   
 27  11  33  1   
 28  12  16  ar  
 29  12  34  1   
 30  13  17  ar  
 31  13  35  1   
 32  14  18  1   
 33  14  36  1   
 34  14  37  1   
 35  15  18  1   
 36  15  38  1   
 37  15  39  1   
 38  16  19  ar  
 39  16  40  1   
 40  17  19  ar  
 41  17  41  1   
 42  19  20  1   
 43  20  21  1   
 44  21  42  1   
 45  21  43  1   
 46  21  44  1   
@<TRIPOS>SUBSTRUCTURE
  1 ****   7 GROUP 4 **** **** 0

# MOE 2024.06 (io_trps.svl 2023.06)
