@<TRIPOS>MOLECULE
NONAME
33 33 1 0 0 
SMALL
USER_CHARGES


@<TRIPOS>ATOM
  1 I        0.5580    -0.4140    -2.5970 I     1 <1>  -0.0810 
  2 C        2.2260     0.7750    -2.0210 C.ar  1 <1>   0.0810 
  3 C        3.3700     0.1410    -1.5780 C.ar  1 <1>  -0.1500 
  4 C        2.1180     2.1490    -2.1060 C.ar  1 <1>  -0.1500 
  5 C        4.4730     0.9000    -1.1890 C.ar  1 <1>   0.0860 
  6 C        3.2110     2.9120    -1.7340 C.ar  1 <1>  -0.1500 
  7 C        5.6800     0.2600    -0.7030 C.2   1 <1>   0.5440 
  8 C        4.3680     2.2930    -1.2870 C.ar  1 <1>  -0.1500 
  9 O        6.0470    -0.8070    -1.1680 O.2   1 <1>  -0.5700 
 10 N        6.4070     0.8290     0.3040 N.am  1 <1>  -0.4300 
 11 N        7.7890     0.4620     0.6540 N.am  1 <1>  -0.4300 
 12 C        8.9110     1.0720     0.1970 C.2   1 <1>   0.7800 
 13 O        8.8810     2.1360    -0.3960 O.2   1 <1>  -0.5700 
 14 O       10.0590     0.4420     0.4590 O.3   1 <1>  -0.4300 
 15 C       11.3550     0.8480     0.0740 C.3   1 <1>   0.2800 
 16 C       12.2890    -0.2410     0.6060 C.3   1 <1>  -0.2400 
 17 C       11.7120     2.1850     0.7330 C.3   1 <1>  -0.2400 
 18 C       11.4630     0.9010    -1.4550 C.3   1 <1>  -0.2400 
 19 H        3.4170    -0.9330    -1.5320 H     1 <1>   0.1500 
 20 H        1.2110     2.6110    -2.4550 H     1 <1>   0.1500 
 21 H        3.1620     3.9860    -1.7970 H     1 <1>   0.1500 
 22 H        5.2130     2.9060    -1.0210 H     1 <1>   0.1500 
 23 H        6.0360     1.6600     0.7750 H     1 <1>   0.3700 
 24 H        7.9190    -0.4480     1.1020 H     1 <1>   0.3700 
 25 H       12.2100    -0.3100     1.6760 H     1 <1>   0.0800 
 26 H       13.3090    -0.0140     0.3560 H     1 <1>   0.0800 
 27 H       12.0370    -1.1920     0.1720 H     1 <1>   0.0800 
 28 H       11.5580     2.1320     1.7960 H     1 <1>   0.0800 
 29 H       11.1240     2.9880     0.3290 H     1 <1>   0.0800 
 30 H       12.7450     2.4190     0.5510 H     1 <1>   0.0800 
 31 H       11.1360    -0.0280    -1.8860 H     1 <1>   0.0800 
 32 H       12.4830     1.0700    -1.7450 H     1 <1>   0.0800 
 33 H       10.8740     1.7040    -1.8590 H     1 <1>   0.0800 
@<TRIPOS>BOND
  1   1   2  1   
  2   2   3  ar  
  3   2   4  ar  
  4   3   5  ar  
  5   3  19  1   
  6   4   6  ar  
  7   4  20  1   
  8   5   7  1   
  9   5   8  ar  
 10   6   8  ar  
 11   6  21  1   
 12   7   9  2   
 13   7  10  am  
 14   8  22  1   
 15  10  11  1   
 16  10  23  1   
 17  11  12  am  
 18  11  24  1   
 19  12  13  2   
 20  12  14  1   
 21  14  15  1   
 22  15  16  1   
 23  15  17  1   
 24  15  18  1   
 25  16  25  1   
 26  16  26  1   
 27  16  27  1   
 28  17  28  1   
 29  17  29  1   
 30  17  30  1   
 31  18  31  1   
 32  18  32  1   
 33  18  33  1   
@<TRIPOS>SUBSTRUCTURE
  1 ****  10 GROUP 4 **** **** 0

# MOE 2024.06 (io_trps.svl 2023.06)
