@<TRIPOS>MOLECULE
NONAME
44 44 1 0 0 
SMALL
USER_CHARGES


@<TRIPOS>ATOM
  1 CL      -2.5110    -0.7600     1.8540 Cl    1 <1>  -0.1770 
  2 C       -1.4670    -2.0400     1.2690 C.ar  1 <1>   0.1770 
  3 C       -1.7570    -2.7020     0.0760 C.ar  1 <1>   0.0820 
  4 C       -0.3540    -2.3690     2.0160 C.ar  1 <1>  -0.1500 
  5 O       -2.8500    -2.3680    -0.6490 O.3   1 <1>  -0.3630 
  6 C       -0.9050    -3.7020    -0.3870 C.ar  1 <1>  -0.1440 
  7 C        0.4750    -3.3710     1.5500 C.ar  1 <1>   0.1770 
  8 C       -4.0900    -2.8580    -0.1860 C.3   1 <1>   0.1200 
  9 C        0.2140    -4.0350     0.3640 C.ar  1 <1>  -0.1500 
 10 C       -1.1850    -4.4250    -1.6970 C.3   1 <1>  -0.0960 
 11 CL       1.8880    -3.8070     2.4790 Cl    1 <1>  -0.1770 
 12 C       -5.1880    -1.9550    -0.7390 C.3   1 <1>   0.1200 
 13 O       -6.4230    -2.4170    -0.2760 O.3   1 <1>  -0.5600 
 14 C       -7.5010    -1.6280    -0.6460 C.3   1 <1>   0.1200 
 15 C       -8.7540    -2.2590    -0.0320 C.3   1 <1>   0.3430 
 16 N       -9.9870    -1.4730    -0.3540 N.4   1 <1>  -0.9060 
 17 C      -11.2460    -1.9920     0.1870 C.3   1 <1>   0.5030 
 18 C      -12.3360    -1.0290    -0.2730 C.3   1 <1>  -0.2400 
 19 C      -11.1850    -2.0150     1.7130 C.3   1 <1>  -0.2400 
 20 C      -11.5160    -3.3870    -0.3750 C.3   1 <1>  -0.2400 
 21 H       -0.1370    -1.8590     2.9360 H     1 <1>   0.1500 
 22 H       -4.0990    -2.8380     0.8890 H     1 <1>   0.0800 
 23 H       -4.2030    -3.8660    -0.5410 H     1 <1>   0.0800 
 24 H        0.8910    -4.8050     0.0380 H     1 <1>   0.1500 
 25 H       -2.0730    -5.0230    -1.6030 H     1 <1>   0.0800 
 26 H       -0.3660    -5.0660    -1.9690 H     1 <1>   0.0800 
 27 H       -1.3320    -3.7090    -2.4860 H     1 <1>   0.0800 
 28 H       -5.1860    -1.9840    -1.8150 H     1 <1>   0.0800 
 29 H       -5.0370    -0.9480    -0.3880 H     1 <1>   0.0800 
 30 H       -7.5600    -1.6160    -1.7210 H     1 <1>   0.0800 
 31 H       -7.3430    -0.6350    -0.2600 H     1 <1>   0.0800 
 32 H       -8.6200    -2.3090     1.0360 H     1 <1>   0.0800 
 33 H       -8.8500    -3.2630    -0.4120 H     1 <1>   0.0800 
 34 H      -10.0990    -1.4120    -1.3700 H     1 <1>   0.4500 
 35 H       -9.8830    -0.5150    -0.0030 H     1 <1>   0.4500 
 36 H      -12.3970    -0.9920    -1.3460 H     1 <1>   0.0800 
 37 H      -12.1670    -0.0370     0.1080 H     1 <1>   0.0800 
 38 H      -13.2920    -1.3580     0.0950 H     1 <1>   0.0800 
 39 H      -10.9430    -1.0440     2.1090 H     1 <1>   0.0800 
 40 H      -10.4700    -2.7340     2.0720 H     1 <1>   0.0800 
 41 H      -12.1440    -2.3000     2.1090 H     1 <1>   0.0800 
 42 H      -12.4870    -3.7230    -0.0570 H     1 <1>   0.0800 
 43 H      -11.5090    -3.3820    -1.4510 H     1 <1>   0.0800 
 44 H      -10.8010    -4.1050    -0.0180 H     1 <1>   0.0800 
@<TRIPOS>BOND
  1   1   2  1   
  2   2   3  ar  
  3   2   4  ar  
  4   3   5  1   
  5   3   6  ar  
  6   4   7  ar  
  7   4  21  1   
  8   5   8  1   
  9   6   9  ar  
 10   6  10  1   
 11   7   9  ar  
 12   7  11  1   
 13   8  12  1   
 14   8  22  1   
 15   8  23  1   
 16   9  24  1   
 17  10  25  1   
 18  10  26  1   
 19  10  27  1   
 20  12  13  1   
 21  12  28  1   
 22  12  29  1   
 23  13  14  1   
 24  14  15  1   
 25  14  30  1   
 26  14  31  1   
 27  15  16  1   
 28  15  32  1   
 29  15  33  1   
 30  16  17  1   
 31  16  34  1   
 32  16  35  1   
 33  17  18  1   
 34  17  19  1   
 35  17  20  1   
 36  18  36  1   
 37  18  37  1   
 38  18  38  1   
 39  19  39  1   
 40  19  40  1   
 41  19  41  1   
 42  20  42  1   
 43  20  43  1   
 44  20  44  1   
@<TRIPOS>SUBSTRUCTURE
  1 ****   8 GROUP 4 **** **** 0

# MOE 2024.06 (io_trps.svl 2023.06)
