@<TRIPOS>MOLECULE
NONAME
48 49 1 0 0 
SMALL
USER_CHARGES


@<TRIPOS>ATOM
  1 O       -1.2510     2.8120     1.7190 O.2   1 <1>  -0.5700 
  2 C       -1.2850     2.4630     0.5510 C.2   1 <1>   0.6900 
  3 N       -2.4100     1.8480     0.0710 N.am  1 <1>  -0.6600 
  4 N       -0.2060     2.6960    -0.2700 N.am  1 <1>  -0.6600 
  5 C       -3.2840     1.0730     1.0020 C.3   1 <1>   0.1400 
  6 C       -3.1510     2.4400    -1.0830 C.3   1 <1>   0.1400 
  7 C        0.1170     1.8370    -1.4410 C.3   1 <1>   0.1400 
  8 C        0.7850     3.7480     0.0790 C.3   1 <1>   0.1400 
  9 C       -4.4900     1.9000     1.4780 C.3   1 <1>   0.2090 
 10 C       -4.3750     3.2580    -0.6290 C.3   1 <1>   0.2090 
 11 C        0.4900     0.4280    -0.9820 C.3   1 <1>  -0.2400 
 12 C        2.0170     3.1300     0.7360 C.3   1 <1>  -0.2400 
 13 N       -5.2340     2.5160     0.3390 N.pl3 1 <1>  -0.8380 
 14 C       -6.3910     1.8880    -0.1270 C.ar  1 <1>   0.1000 
 15 C       -7.6590     2.3990     0.1700 C.ar  1 <1>  -0.1440 
 16 C       -6.2860     0.7370    -0.8980 C.ar  1 <1>  -0.1500 
 17 C       -8.7970     1.7500    -0.3070 C.ar  1 <1>  -0.1440 
 18 C       -7.7380     3.6670     1.0200 C.3   1 <1>  -0.0970 
 19 C       -7.4120     0.0970    -1.3710 C.ar  1 <1>  -0.1500 
 20 C       -8.6630     0.6030    -1.0750 C.ar  1 <1>  -0.1500 
 21 C      -10.2060     2.2520    -0.0160 C.3   1 <1>  -0.0970 
 22 H       -2.7130     0.7590     1.8580 H     1 <1>   0.0800 
 23 H       -3.6350     0.1890     0.5020 H     1 <1>   0.0800 
 24 H       -3.4740     1.6500    -1.7360 H     1 <1>   0.0800 
 25 H       -2.5000     3.0870    -1.6430 H     1 <1>   0.0800 
 26 H        0.9390     2.2660    -1.9890 H     1 <1>   0.0800 
 27 H       -0.7290     1.7870    -2.1030 H     1 <1>   0.0800 
 28 H        0.3360     4.4510     0.7600 H     1 <1>   0.0800 
 29 H        1.0680     4.2860    -0.8100 H     1 <1>   0.0800 
 30 H       -4.1410     2.6820     2.1310 H     1 <1>   0.0800 
 31 H       -5.1570     1.2710     2.0420 H     1 <1>   0.0800 
 32 H       -4.9620     3.5330    -1.4880 H     1 <1>   0.0800 
 33 H       -4.0340     4.1640    -0.1600 H     1 <1>   0.0800 
 34 H        1.3230     0.4580    -0.3050 H     1 <1>   0.0800 
 35 H        0.7610    -0.1700    -1.8330 H     1 <1>   0.0800 
 36 H       -0.3460    -0.0390    -0.4920 H     1 <1>   0.0800 
 37 H        1.7210     2.5540     1.5960 H     1 <1>   0.0800 
 38 H        2.6810     3.9090     1.0610 H     1 <1>   0.0800 
 39 H        2.5450     2.5010     0.0440 H     1 <1>   0.0800 
 40 H       -5.3150     0.3450    -1.1250 H     1 <1>   0.1500 
 41 H       -7.3110     3.4720     1.9870 H     1 <1>   0.0800 
 42 H       -8.7380     4.0250     1.1580 H     1 <1>   0.0800 
 43 H       -7.1670     4.4470     0.5510 H     1 <1>   0.0800 
 44 H       -7.3180    -0.7940    -1.9670 H     1 <1>   0.1500 
 45 H       -9.5330     0.0940    -1.4500 H     1 <1>   0.1500 
 46 H      -10.3360     3.2360    -0.4290 H     1 <1>   0.0800 
 47 H      -10.3710     2.2860     1.0450 H     1 <1>   0.0800 
 48 H      -10.9460     1.6050    -0.4490 H     1 <1>   0.0800 
@<TRIPOS>BOND
  1   1   2  2   
  2   2   3  am  
  3   2   4  am  
  4   3   5  1   
  5   3   6  1   
  6   4   7  1   
  7   4   8  1   
  8   5   9  1   
  9   5  22  1   
 10   5  23  1   
 11   6  10  1   
 12   6  24  1   
 13   6  25  1   
 14   7  11  1   
 15   7  26  1   
 16   7  27  1   
 17   8  12  1   
 18   8  28  1   
 19   8  29  1   
 20   9  13  1   
 21   9  30  1   
 22   9  31  1   
 23  10  13  1   
 24  10  32  1   
 25  10  33  1   
 26  11  34  1   
 27  11  35  1   
 28  11  36  1   
 29  12  37  1   
 30  12  38  1   
 31  12  39  1   
 32  13  14  1   
 33  14  15  ar  
 34  14  16  ar  
 35  15  17  ar  
 36  15  18  1   
 37  16  19  ar  
 38  16  40  1   
 39  17  20  ar  
 40  17  21  1   
 41  18  41  1   
 42  18  42  1   
 43  18  43  1   
 44  19  20  ar  
 45  19  44  1   
 46  20  45  1   
 47  21  46  1   
 48  21  47  1   
 49  21  48  1   
@<TRIPOS>SUBSTRUCTURE
  1 ****  13 GROUP 4 **** **** 0

# MOE 2024.06 (io_trps.svl 2023.06)
