@<TRIPOS>MOLECULE
NONAME
51 54 1 0 0 
SMALL
USER_CHARGES


@<TRIPOS>ATOM
  1 S       -0.4560     0.5560     1.8190 S.o2  1 <1>   1.4470 
  2 O       -0.3780    -0.5270     2.7700 O.2   1 <1>  -0.6500 
  3 O       -0.8270     1.8940     2.2270 O.2   1 <1>  -0.6500 
  4 N       -1.6660     0.0570     0.6880 N.am  1 <1>  -0.6400 
  5 C        1.0310     0.6060     0.7840 C.ar  1 <1>  -0.0090 
  6 N       -2.9870     0.7320     0.8360 N.am  1 <1>  -0.3480 
  7 C        1.9190    -0.4630     0.7440 C.ar  1 <1>  -0.1500 
  8 C        1.3090     1.7080    -0.0170 C.ar  1 <1>  -0.1500 
  9 C       -4.0490     0.1890     1.4840 C.2   1 <1>   0.5690 
 10 C        3.0430    -0.4340    -0.0630 C.ar  1 <1>  -0.1500 
 11 C        2.4310     1.7430    -0.8270 C.ar  1 <1>  -0.1500 
 12 O       -4.0210    -0.9530     1.8960 O.2   1 <1>  -0.5700 
 13 C       -5.2900     1.0290     1.7170 C.3   1 <1>  -0.0990 
 14 C        3.3040     0.6710    -0.8550 C.ar  1 <1>  -0.1430 
 15 C       -6.3140     1.0220     0.5590 C.3   1 <1>   0.0000 
 16 C        4.5360     0.7070    -1.7410 C.3   1 <1>  -0.0970 
 17 C       -7.5290     1.8890     0.9670 C.3   1 <1>  -0.1600 
 18 C       -5.7170     1.6060    -0.7450 C.3   1 <1>  -0.1600 
 19 C       -6.8180    -0.4120     0.2680 C.3   1 <1>  -0.1600 
 20 C       -8.5910     1.9110    -0.1470 C.3   1 <1>  -0.0800 
 21 C       -6.7710     1.6260    -1.8670 C.3   1 <1>  -0.0800 
 22 C       -7.8760    -0.4030    -0.8510 C.3   1 <1>  -0.0800 
 23 C       -7.9670     2.4900    -1.4280 C.3   1 <1>  -0.1600 
 24 C       -9.0660     0.4710    -0.4170 C.3   1 <1>  -0.1600 
 25 C       -7.2550     0.1880    -2.1310 C.3   1 <1>  -0.1600 
 26 H       -1.7980    -0.9360     0.9170 H     1 <1>   0.4200 
 27 H       -3.0330     1.7080     0.5240 H     1 <1>   0.3700 
 28 H        1.7320    -1.3310     1.3540 H     1 <1>   0.1500 
 29 H        0.6390     2.5510    -0.0060 H     1 <1>   0.1500 
 30 H        3.7140    -1.2750    -0.0710 H     1 <1>   0.1500 
 31 H        2.6210     2.6120    -1.4340 H     1 <1>   0.1500 
 32 H       -4.9850     2.0390     1.9210 H     1 <1>   0.0800 
 33 H       -5.7670     0.6590     2.6070 H     1 <1>   0.0800 
 34 H        4.8010    -0.2850    -2.0590 H     1 <1>   0.0800 
 35 H        5.3620     1.1290    -1.1970 H     1 <1>   0.0800 
 36 H        4.3550     1.3050    -2.6150 H     1 <1>   0.0800 
 37 H       -7.2100     2.8970     1.1710 H     1 <1>   0.0800 
 38 H       -7.9710     1.5000     1.8680 H     1 <1>   0.0800 
 39 H       -5.3620     2.6070    -0.5730 H     1 <1>   0.0800 
 40 H       -4.8860     1.0090    -1.0760 H     1 <1>   0.0800 
 41 H       -7.2420    -0.8400     1.1590 H     1 <1>   0.0800 
 42 H       -5.9990    -1.0430    -0.0320 H     1 <1>   0.0800 
 43 H       -9.4270     2.5180     0.1580 H     1 <1>   0.0800 
 44 H       -6.3400     2.0330    -2.7660 H     1 <1>   0.0800 
 45 H       -8.2130    -1.4080    -1.0410 H     1 <1>   0.0800 
 46 H       -7.6430     3.5010    -1.2520 H     1 <1>   0.0800 
 47 H       -8.7040     2.5160    -2.2120 H     1 <1>   0.0800 
 48 H       -9.5140     0.0610     0.4720 H     1 <1>   0.0800 
 49 H       -9.8160     0.4740    -1.1890 H     1 <1>   0.0800 
 50 H       -6.4290    -0.4240    -2.4500 H     1 <1>   0.0800 
 51 H       -7.9850     0.1880    -2.9220 H     1 <1>   0.0800 
@<TRIPOS>BOND
  1   1   2  2   
  2   1   3  2   
  3   1   4  am  
  4   1   5  1   
  5   4   6  1   
  6   4  26  1   
  7   5   7  ar  
  8   5   8  ar  
  9   6   9  am  
 10   6  27  1   
 11   7  10  ar  
 12   7  28  1   
 13   8  11  ar  
 14   8  29  1   
 15   9  12  2   
 16   9  13  1   
 17  10  14  ar  
 18  10  30  1   
 19  11  14  ar  
 20  11  31  1   
 21  13  15  1   
 22  13  32  1   
 23  13  33  1   
 24  14  16  1   
 25  15  17  1   
 26  15  18  1   
 27  15  19  1   
 28  16  34  1   
 29  16  35  1   
 30  16  36  1   
 31  17  20  1   
 32  17  37  1   
 33  17  38  1   
 34  18  21  1   
 35  18  39  1   
 36  18  40  1   
 37  19  22  1   
 38  19  41  1   
 39  19  42  1   
 40  20  23  1   
 41  20  24  1   
 42  20  43  1   
 43  21  23  1   
 44  21  25  1   
 45  21  44  1   
 46  22  24  1   
 47  22  25  1   
 48  22  45  1   
 49  23  46  1   
 50  23  47  1   
 51  24  48  1   
 52  24  49  1   
 53  25  50  1   
 54  25  51  1   
@<TRIPOS>SUBSTRUCTURE
  1 ****   6 GROUP 4 **** **** 0

# MOE 2024.06 (io_trps.svl 2023.06)
