@<TRIPOS>MOLECULE
NONAME
29 29 1 0 0 
SMALL
USER_CHARGES


@<TRIPOS>ATOM
  1 CL       0.5470     0.8850     1.7790 Cl    1 <1>  -0.1770 
  2 C        1.8870     1.5050     0.8400 C.ar  1 <1>   0.1770 
  3 C        1.9220     2.8370     0.4470 C.ar  1 <1>   0.0820 
  4 C        2.9000     0.6220     0.5080 C.ar  1 <1>  -0.1500 
  5 O        0.8920     3.6540     0.7810 O.3   1 <1>  -0.3630 
  6 C        3.0280     3.2900    -0.2860 C.ar  1 <1>   0.0820 
  7 C        3.9850     1.0670    -0.2330 C.ar  1 <1>  -0.1440 
  8 C       -0.2030     3.6550    -0.1080 C.3   1 <1>   0.0400 
  9 O        3.2250     4.5670    -0.7140 O.3   1 <1>  -0.3630 
 10 C        4.0330     2.3970    -0.6270 C.ar  1 <1>  -0.1500 
 11 C        5.1100     0.1250    -0.5990 C.3   1 <1>   0.4860 
 12 C        2.7570     5.6680     0.0380 C.3   1 <1>   0.0400 
 13 N        6.1550     0.2910     0.4340 N.4   1 <1>  -0.9060 
 14 C        7.3610    -0.5580     0.2040 C.3   1 <1>   0.2630 
 15 H        2.8140    -0.4000     0.8350 H     1 <1>   0.1500 
 16 H       -0.9310     4.3590     0.2560 H     1 <1>   0.0800 
 17 H       -0.6320     2.6690    -0.1410 H     1 <1>   0.0800 
 18 H        0.1400     3.9500    -1.0840 H     1 <1>   0.0800 
 19 H        4.8550     2.7760    -1.2110 H     1 <1>   0.1500 
 20 H        5.4970     0.3770    -1.5740 H     1 <1>   0.0800 
 21 H        4.7520    -0.8920    -0.6180 H     1 <1>   0.0800 
 22 H        3.3130     6.5380    -0.2600 H     1 <1>   0.0800 
 23 H        2.9090     5.4740     1.0850 H     1 <1>   0.0800 
 24 H        1.7140     5.8180    -0.1730 H     1 <1>   0.0800 
 25 H        5.7320     0.0880     1.3490 H     1 <1>   0.4500 
 26 H        6.4100     1.2880     0.4640 H     1 <1>   0.4500 
 27 H        7.0920    -1.6020     0.2030 H     1 <1>   0.0800 
 28 H        8.0870    -0.3930     0.9850 H     1 <1>   0.0800 
 29 H        7.8170    -0.3160    -0.7430 H     1 <1>   0.0800 
@<TRIPOS>BOND
  1   1   2  1   
  2   2   3  ar  
  3   2   4  ar  
  4   3   5  1   
  5   3   6  ar  
  6   4   7  ar  
  7   4  15  1   
  8   5   8  1   
  9   6   9  1   
 10   6  10  ar  
 11   7  10  ar  
 12   7  11  1   
 13   8  16  1   
 14   8  17  1   
 15   8  18  1   
 16   9  12  1   
 17  10  19  1   
 18  11  13  1   
 19  11  20  1   
 20  11  21  1   
 21  12  22  1   
 22  12  23  1   
 23  12  24  1   
 24  13  14  1   
 25  13  25  1   
 26  13  26  1   
 27  14  27  1   
 28  14  28  1   
 29  14  29  1   
@<TRIPOS>SUBSTRUCTURE
  1 ****   6 GROUP 4 **** **** 0

# MOE 2024.06 (io_trps.svl 2023.06)
