@<TRIPOS>MOLECULE
NONAME
43 44 1 0 0 
SMALL
USER_CHARGES


@<TRIPOS>ATOM
  1 CL       0.4960     1.2450    -0.5050 Cl    1 <1>  -0.1770 
  2 C        1.6480    -0.0280    -0.1880 C.ar  1 <1>   0.1770 
  3 C        2.9930     0.2180    -0.3760 C.ar  1 <1>  -0.1500 
  4 C        1.1910    -1.2580     0.2450 C.ar  1 <1>  -0.1500 
  5 C        3.9250    -0.7830    -0.1280 C.ar  1 <1>   0.1170 
  6 C        2.1100    -2.2630     0.4920 C.ar  1 <1>  -0.1500 
  7 N        5.2830    -0.5080    -0.3410 N.am  1 <1>  -0.5470 
  8 C        3.4610    -2.0250     0.3050 C.ar  1 <1>  -0.1500 
  9 C        6.3960    -1.0710     0.2080 C.2   1 <1>   0.6900 
 10 O        6.3410    -1.8850     1.1080 O.2   1 <1>  -0.5700 
 11 N        7.6050    -0.6950    -0.2790 N.am  1 <1>  -0.7300 
 12 C        8.8750    -1.1930     0.2680 C.3   1 <1>   0.2200 
 13 C        9.9710    -0.1490     0.0770 C.3   1 <1>  -0.1600 
 14 C        9.2470    -2.5020    -0.4250 C.3   1 <1>  -0.1600 
 15 C       11.3050    -0.6900     0.5890 C.3   1 <1>   0.3430 
 16 C       10.5850    -3.0110     0.1000 C.3   1 <1>   0.3430 
 17 N       11.6400    -1.9730    -0.1050 N.4   1 <1>  -0.9590 
 18 C       12.9660    -2.5060     0.3190 C.3   1 <1>   0.3430 
 19 C       14.0970    -1.6460    -0.2480 C.3   1 <1>  -0.1600 
 20 C       15.4640    -2.2550     0.0840 C.3   1 <1>  -0.2400 
 21 H        3.3050     1.1890    -0.7110 H     1 <1>   0.1500 
 22 H        0.1380    -1.4220     0.3850 H     1 <1>   0.1500 
 23 H        1.7760    -3.2290     0.8310 H     1 <1>   0.1500 
 24 H        5.4690     0.3170    -0.9000 H     1 <1>   0.3700 
 25 H        4.1600    -2.8180     0.4970 H     1 <1>   0.1500 
 26 H        7.6440    -0.1770    -1.1540 H     1 <1>   0.3700 
 27 H        8.7480    -1.3780     1.3240 H     1 <1>   0.0800 
 28 H        9.7180     0.7350     0.6350 H     1 <1>   0.0800 
 29 H       10.0660     0.1190    -0.9600 H     1 <1>   0.0800 
 30 H        9.3000    -2.3690    -1.4910 H     1 <1>   0.0800 
 31 H        8.4910    -3.2390    -0.2140 H     1 <1>   0.0800 
 32 H       11.2390    -0.8590     1.6520 H     1 <1>   0.0800 
 33 H       12.0750     0.0430     0.4110 H     1 <1>   0.0800 
 34 H       10.8500    -3.9180    -0.4200 H     1 <1>   0.0800 
 35 H       10.4930    -3.2380     1.1510 H     1 <1>   0.0800 
 36 H       11.6940    -1.7840    -1.1150 H     1 <1>   0.4500 
 37 H       13.0840    -3.5130    -0.0500 H     1 <1>   0.0800 
 38 H       13.0300    -2.5360     1.3950 H     1 <1>   0.0800 
 39 H       14.0620    -0.6540     0.1670 H     1 <1>   0.0800 
 40 H       14.0050    -1.5790    -1.3180 H     1 <1>   0.0800 
 41 H       15.6080    -2.3200     1.1490 H     1 <1>   0.0800 
 42 H       16.2490    -1.6400    -0.3230 H     1 <1>   0.0800 
 43 H       15.5590    -3.2410    -0.3390 H     1 <1>   0.0800 
@<TRIPOS>BOND
  1   1   2  1   
  2   2   3  ar  
  3   2   4  ar  
  4   3   5  ar  
  5   3  21  1   
  6   4   6  ar  
  7   4  22  1   
  8   5   7  1   
  9   5   8  ar  
 10   6   8  ar  
 11   6  23  1   
 12   7   9  am  
 13   7  24  1   
 14   8  25  1   
 15   9  10  2   
 16   9  11  am  
 17  11  12  1   
 18  11  26  1   
 19  12  13  1   
 20  12  14  1   
 21  12  27  1   
 22  13  15  1   
 23  13  28  1   
 24  13  29  1   
 25  14  16  1   
 26  14  30  1   
 27  14  31  1   
 28  15  17  1   
 29  15  32  1   
 30  15  33  1   
 31  16  17  1   
 32  16  34  1   
 33  16  35  1   
 34  17  18  1   
 35  17  36  1   
 36  18  19  1   
 37  18  37  1   
 38  18  38  1   
 39  19  20  1   
 40  19  39  1   
 41  19  40  1   
 42  20  41  1   
 43  20  42  1   
 44  20  43  1   
@<TRIPOS>SUBSTRUCTURE
  1 ****  11 GROUP 4 **** **** 0

# MOE 2024.06 (io_trps.svl 2023.06)
