@<TRIPOS>MOLECULE
NONAME
47 48 1 0 0 
SMALL
USER_CHARGES


@<TRIPOS>ATOM
  1 S       -1.0210     1.4040     1.7900 S.o2  1 <1>   1.4470 
  2 O       -2.2570     2.1530     1.8750 O.2   1 <1>  -0.6500 
  3 O       -0.6600     0.4990     2.8590 O.2   1 <1>  -0.6500 
  4 N       -1.0870     0.5080     0.3480 N.am  1 <1>  -0.8490 
  5 C        0.3750     2.5260     1.4950 C.ar  1 <1>  -0.0090 
  6 C       -1.8810    -0.7180     0.5110 C.3   1 <1>   0.1960 
  7 C       -1.5540     1.3390    -0.7680 C.3   1 <1>   0.1960 
  8 C        1.6210     2.0270     1.1480 C.ar  1 <1>  -0.1500 
  9 C        0.2360     3.9020     1.5990 C.ar  1 <1>  -0.1500 
 10 C       -1.4070    -1.7920    -0.4720 C.3   1 <1>  -0.1600 
 11 C       -1.3790     0.6740    -2.1380 C.3   1 <1>  -0.1600 
 12 C        2.7220     2.8440     0.8930 C.ar  1 <1>   0.0860 
 13 C        1.3060     4.7430     1.3570 C.ar  1 <1>  -0.1500 
 14 C       -2.0990    -1.7850    -1.8450 C.3   1 <1>  -0.1600 
 15 C       -2.4350    -0.4040    -2.4230 C.3   1 <1>  -0.1600 
 16 C        2.5410     4.2290     1.0030 C.ar  1 <1>  -0.1440 
 17 C        3.9850     2.2310     0.5170 C.2   1 <1>   0.5440 
 18 C        3.6880     5.1970     0.7390 C.3   1 <1>  -0.0970 
 19 O        5.0250     2.5180     1.0780 O.2   1 <1>  -0.5700 
 20 N        4.0180     1.3040    -0.4820 N.am  1 <1>  -0.7300 
 21 C        5.2260     0.6270    -0.9700 C.3   1 <1>   0.2780 
 22 C        5.0520     0.4230    -2.4590 C.2   1 <1>  -0.2880 
 23 C        4.9580    -0.7600    -3.0740 C.2   1 <1>  -0.3000 
 24 H       -2.9340    -0.5160     0.4030 H     1 <1>   0.0800 
 25 H       -1.7310    -1.1190     1.4990 H     1 <1>   0.0800 
 26 H       -0.9830     2.2530    -0.7820 H     1 <1>   0.0800 
 27 H       -2.5870     1.6110    -0.6200 H     1 <1>   0.0800 
 28 H        1.7410     0.9580     1.0800 H     1 <1>   0.1500 
 29 H       -0.7190     4.3210     1.8740 H     1 <1>   0.1500 
 30 H       -1.5810    -2.7550    -0.0260 H     1 <1>   0.0800 
 31 H       -0.3420    -1.6990    -0.5980 H     1 <1>   0.0800 
 32 H       -0.3820     0.2830    -2.2430 H     1 <1>   0.0800 
 33 H       -1.4970     1.4440    -2.8790 H     1 <1>   0.0800 
 34 H        1.1660     5.8070     1.4490 H     1 <1>   0.1500 
 35 H       -3.0130    -2.3490    -1.7790 H     1 <1>   0.0800 
 36 H       -1.4600    -2.3050    -2.5380 H     1 <1>   0.0800 
 37 H       -2.5470    -0.5100    -3.4880 H     1 <1>   0.0800 
 38 H       -3.3880    -0.0780    -2.0420 H     1 <1>   0.0800 
 39 H        4.1630     4.9680    -0.1980 H     1 <1>   0.0800 
 40 H        4.4210     5.1170     1.5230 H     1 <1>   0.0800 
 41 H        3.3410     6.2140     0.7010 H     1 <1>   0.0800 
 42 H        3.1660     1.0600    -0.9870 H     1 <1>   0.3700 
 43 H        5.3320    -0.3180    -0.4660 H     1 <1>   0.0800 
 44 H        6.1000     1.2260    -0.7720 H     1 <1>   0.0800 
 45 H        5.0130     1.3580    -2.9910 H     1 <1>   0.1500 
 46 H        4.8380    -0.8750    -4.1390 H     1 <1>   0.1500 
 47 H        4.9940    -1.7120    -2.5720 H     1 <1>   0.1500 
@<TRIPOS>BOND
  1   1   2  2   
  2   1   3  2   
  3   1   4  am  
  4   1   5  1   
  5   4   6  1   
  6   4   7  1   
  7   5   8  ar  
  8   5   9  ar  
  9   6  10  1   
 10   6  24  1   
 11   6  25  1   
 12   7  11  1   
 13   7  26  1   
 14   7  27  1   
 15   8  12  ar  
 16   8  28  1   
 17   9  13  ar  
 18   9  29  1   
 19  10  14  1   
 20  10  30  1   
 21  10  31  1   
 22  11  15  1   
 23  11  32  1   
 24  11  33  1   
 25  12  16  ar  
 26  12  17  1   
 27  13  16  ar  
 28  13  34  1   
 29  14  15  1   
 30  14  35  1   
 31  14  36  1   
 32  15  37  1   
 33  15  38  1   
 34  16  18  1   
 35  17  19  2   
 36  17  20  am  
 37  18  39  1   
 38  18  40  1   
 39  18  41  1   
 40  20  21  1   
 41  20  42  1   
 42  21  22  1   
 43  21  43  1   
 44  21  44  1   
 45  22  23  2   
 46  22  45  1   
 47  23  46  1   
 48  23  47  1   
@<TRIPOS>SUBSTRUCTURE
  1 ****   8 GROUP 4 **** **** 0

# MOE 2024.06 (io_trps.svl 2023.06)
