@<TRIPOS>MOLECULE
NONAME
53 55 1 0 0 
SMALL
USER_CHARGES


@<TRIPOS>ATOM
  1 N        4.3270    -4.4710     0.0700 N.4   1 <1>  -0.9590 
  2 C        5.6020    -3.7290    -0.2360 C.3   1 <1>   0.4230 
  3 C        4.3330    -5.8290    -0.5540 C.3   1 <1>   0.3430 
  4 C        3.1120    -3.7060    -0.3390 C.3   1 <1>   0.3430 
  5 C        6.8240    -4.5640     0.2120 C.3   1 <1>  -0.1600 
  6 C        5.6300    -2.3430     0.4340 C.3   1 <1>  -0.1600 
  7 C        3.0850    -6.6150    -0.1510 C.3   1 <1>  -0.1600 
  8 C        1.8400    -4.4550     0.0620 C.3   1 <1>  -0.1600 
  9 C        8.0660    -3.7280     0.5820 C.3   1 <1>  -0.0800 
 10 C        6.8910    -1.5490     0.0400 C.3   1 <1>  -0.1600 
 11 C        1.7910    -5.8750    -0.5220 C.3   1 <1>   0.4230 
 12 C        8.1140    -2.4370    -0.2420 C.3   1 <1>  -0.1600 
 13 C        9.3500    -4.5450     0.3960 C.3   1 <1>  -0.2400 
 14 N        0.5880    -6.6190    -0.0110 N.4   1 <1>  -0.9590 
 15 C        0.5030    -8.0330    -0.5180 C.3   1 <1>   0.3430 
 16 C       -0.7120    -5.9200    -0.3010 C.3   1 <1>   0.3430 
 17 C       -0.6150    -8.7880     0.2010 C.3   1 <1>  -0.1600 
 18 C       -1.8630    -6.6190     0.4240 C.3   1 <1>  -0.1600 
 19 C       -1.9700    -8.0950     0.0280 C.3   1 <1>  -0.1600 
 20 H        4.3250    -4.5750     1.0950 H     1 <1>   0.4500 
 21 H        5.6770    -3.5720    -1.3010 H     1 <1>   0.0800 
 22 H        5.2050    -6.3800    -0.2390 H     1 <1>   0.0800 
 23 H        4.3740    -5.7330    -1.6280 H     1 <1>   0.0800 
 24 H        3.1250    -3.5470    -1.4060 H     1 <1>   0.0800 
 25 H        3.1000    -2.7400     0.1400 H     1 <1>   0.0800 
 26 H        7.0860    -5.2220    -0.5980 H     1 <1>   0.0800 
 27 H        6.5810    -5.1650     1.0710 H     1 <1>   0.0800 
 28 H        5.6240    -2.4690     1.5040 H     1 <1>   0.0800 
 29 H        4.7870    -1.7390     0.1600 H     1 <1>   0.0800 
 30 H        3.1210    -6.8060     0.9080 H     1 <1>   0.0800 
 31 H        3.1380    -7.5560    -0.6660 H     1 <1>   0.0800 
 32 H        1.0160    -3.8720    -0.3050 H     1 <1>   0.0800 
 33 H        1.7800    -4.4860     1.1350 H     1 <1>   0.0800 
 34 H        8.0030    -3.4520     1.6230 H     1 <1>   0.0800 
 35 H        7.1270    -0.8640     0.8370 H     1 <1>   0.0800 
 36 H        6.6930    -0.9550    -0.8370 H     1 <1>   0.0800 
 37 H        1.7280    -5.8050    -1.5980 H     1 <1>   0.0800 
 38 H        8.1500    -2.6840    -1.2900 H     1 <1>   0.0800 
 39 H        9.0110    -1.8840    -0.0130 H     1 <1>   0.0800 
 40 H        9.4900    -4.8170    -0.6360 H     1 <1>   0.0800 
 41 H        9.3150    -5.4420     0.9880 H     1 <1>   0.0800 
 42 H       10.2040    -3.9710     0.7120 H     1 <1>   0.0800 
 43 H        0.6500    -6.6880     1.0130 H     1 <1>   0.4500 
 44 H        1.4270    -8.5570    -0.3430 H     1 <1>   0.0800 
 45 H        0.3100    -8.0320    -1.5790 H     1 <1>   0.0800 
 46 H       -0.9040    -5.9230    -1.3620 H     1 <1>   0.0800 
 47 H       -0.6790    -4.8970     0.0350 H     1 <1>   0.0800 
 48 H       -0.3770    -8.8770     1.2470 H     1 <1>   0.0800 
 49 H       -0.6780    -9.7870    -0.1970 H     1 <1>   0.0800 
 50 H       -2.7870    -6.1220     0.1800 H     1 <1>   0.0800 
 51 H       -1.7260    -6.5330     1.4890 H     1 <1>   0.0800 
 52 H       -2.7140    -8.5860     0.6330 H     1 <1>   0.0800 
 53 H       -2.2850    -8.1700    -1.0000 H     1 <1>   0.0800 
@<TRIPOS>BOND
  1   1   2  1   
  2   1   3  1   
  3   1   4  1   
  4   1  20  1   
  5   2   5  1   
  6   2   6  1   
  7   2  21  1   
  8   3   7  1   
  9   3  22  1   
 10   3  23  1   
 11   4   8  1   
 12   4  24  1   
 13   4  25  1   
 14   5   9  1   
 15   5  26  1   
 16   5  27  1   
 17   6  10  1   
 18   6  28  1   
 19   6  29  1   
 20   7  11  1   
 21   7  30  1   
 22   7  31  1   
 23   8  11  1   
 24   8  32  1   
 25   8  33  1   
 26   9  12  1   
 27   9  13  1   
 28   9  34  1   
 29  10  12  1   
 30  10  35  1   
 31  10  36  1   
 32  11  14  1   
 33  11  37  1   
 34  12  38  1   
 35  12  39  1   
 36  13  40  1   
 37  13  41  1   
 38  13  42  1   
 39  14  15  1   
 40  14  16  1   
 41  14  43  1   
 42  15  17  1   
 43  15  44  1   
 44  15  45  1   
 45  16  18  1   
 46  16  46  1   
 47  16  47  1   
 48  17  19  1   
 49  17  48  1   
 50  17  49  1   
 51  18  19  1   
 52  18  50  1   
 53  18  51  1   
 54  19  52  1   
 55  19  53  1   
@<TRIPOS>SUBSTRUCTURE
  1 ****   1 GROUP 4 **** **** 0

# MOE 2024.06 (io_trps.svl 2023.06)
