@<TRIPOS>MOLECULE
NONAME
49 52 1 0 0 
SMALL
USER_CHARGES


@<TRIPOS>ATOM
  1 S        1.8470    -0.0730    -0.7100 S.3   1 <1>  -0.0800 
  2 C        2.6030    -1.6700    -0.7910 C.2   1 <1>  -0.0450 
  3 C        1.2540    -0.1890    -2.3520 C.2   1 <1>  -0.1100 
  4 C        3.3150    -2.1740     0.3540 C.2   1 <1>   0.7150 
  5 C        2.3720    -2.1940    -2.0220 C.2   1 <1>  -0.1500 
  6 C        1.6150    -1.3640    -2.8990 C.2   1 <1>  -0.1500 
  7 O        3.9570    -3.2060     0.2820 O.2   1 <1>  -0.5700 
  8 N        3.3150    -1.4910     1.5320 N.am  1 <1>  -0.7300 
  9 C        4.0520    -1.8600     2.7800 C.3   1 <1>   0.2010 
 10 C        5.5250    -1.4270     2.7530 C.2   1 <1>   0.5690 
 11 O        5.7480    -0.2550     2.9450 O.2   1 <1>  -0.5700 
 12 N        6.5630    -2.2980     2.4950 N.am  1 <1>  -0.6600 
 13 C        6.4240    -3.7020     2.0010 C.3   1 <1>   0.1400 
 14 C        7.9650    -1.7910     2.3810 C.3   1 <1>   0.1400 
 15 C        6.8790    -3.7900     0.5290 C.3   1 <1>   0.3430 
 16 C        8.4180    -1.8500     0.9110 C.3   1 <1>   0.3430 
 17 N        8.2640    -3.2330     0.3220 N.4   1 <1>  -0.9590 
 18 C        8.6300    -3.2470    -1.1200 C.3   1 <1>   0.4860 
 19 C       10.0930    -2.8730    -1.2460 C.ar  1 <1>  -0.1430 
 20 C       11.0760    -3.7780    -0.8540 C.ar  1 <1>  -0.1500 
 21 C       10.4560    -1.6200    -1.7460 C.ar  1 <1>  -0.1500 
 22 C       12.3960    -3.3900    -0.9600 C.ar  1 <1>   0.0830 
 23 C       11.7920    -1.2530    -1.8470 C.ar  1 <1>  -0.1500 
 24 O       13.4880    -4.0870    -0.6370 O.3   1 <1>  -0.3630 
 25 C       12.7450    -2.1640    -1.4420 C.ar  1 <1>   0.0830 
 26 C       14.6090    -3.2600    -0.9490 C.3   1 <1>   0.4000 
 27 O       14.0750    -2.0330    -1.4440 O.3   1 <1>  -0.3620 
 28 H        0.6910     0.6420    -2.7400 H     1 <1>   0.1500 
 29 H        2.7160    -3.1630    -2.3430 H     1 <1>   0.1500 
 30 H        1.3740    -1.6830    -3.8980 H     1 <1>   0.1500 
 31 H        2.9010    -0.5540     1.5320 H     1 <1>   0.3700 
 32 H        3.9640    -2.9150     2.9540 H     1 <1>   0.0800 
 33 H        3.5810    -1.3660     3.6100 H     1 <1>   0.0800 
 34 H        5.4120    -4.0520     2.0790 H     1 <1>   0.0800 
 35 H        7.0300    -4.3530     2.6070 H     1 <1>   0.0800 
 36 H        8.6170    -2.3890     2.9930 H     1 <1>   0.0800 
 37 H        8.0390    -0.7750     2.7320 H     1 <1>   0.0800 
 38 H        6.1790    -3.2350    -0.0730 H     1 <1>   0.0800 
 39 H        6.8400    -4.8180     0.2100 H     1 <1>   0.0800 
 40 H        9.4480    -1.5360     0.8490 H     1 <1>   0.0800 
 41 H        7.8250    -1.1470     0.3500 H     1 <1>   0.0800 
 42 H        8.9390    -3.8400     0.8030 H     1 <1>   0.4500 
 43 H        8.0190    -2.5480    -1.6670 H     1 <1>   0.0800 
 44 H        8.4780    -4.2310    -1.5340 H     1 <1>   0.0800 
 45 H       10.8520    -4.7610    -0.4790 H     1 <1>   0.1500 
 46 H        9.7060    -0.9140    -2.0640 H     1 <1>   0.1500 
 47 H       12.0920    -0.2930    -2.2300 H     1 <1>   0.1500 
 48 H       15.2030    -3.7290    -1.7140 H     1 <1>   0.0800 
 49 H       15.1820    -3.0720    -0.0590 H     1 <1>   0.0800 
@<TRIPOS>BOND
  1   1   2  1   
  2   1   3  1   
  3   2   4  1   
  4   2   5  2   
  5   3   6  2   
  6   3  28  1   
  7   4   7  2   
  8   4   8  am  
  9   5   6  1   
 10   5  29  1   
 11   6  30  1   
 12   8   9  1   
 13   8  31  1   
 14   9  10  1   
 15   9  32  1   
 16   9  33  1   
 17  10  11  2   
 18  10  12  am  
 19  12  13  1   
 20  12  14  1   
 21  13  15  1   
 22  13  34  1   
 23  13  35  1   
 24  14  16  1   
 25  14  36  1   
 26  14  37  1   
 27  15  17  1   
 28  15  38  1   
 29  15  39  1   
 30  16  17  1   
 31  16  40  1   
 32  16  41  1   
 33  17  18  1   
 34  17  42  1   
 35  18  19  1   
 36  18  43  1   
 37  18  44  1   
 38  19  20  ar  
 39  19  21  ar  
 40  20  22  ar  
 41  20  45  1   
 42  21  23  ar  
 43  21  46  1   
 44  22  24  1   
 45  22  25  ar  
 46  23  25  ar  
 47  23  47  1   
 48  24  26  1   
 49  25  27  1   
 50  26  27  1   
 51  26  48  1   
 52  26  49  1   
@<TRIPOS>SUBSTRUCTURE
  1 ****  17 GROUP 4 **** **** 0

# MOE 2024.06 (io_trps.svl 2023.06)
