@<TRIPOS>MOLECULE
NONAME
52 54 1 0 0 
SMALL
USER_CHARGES


@<TRIPOS>ATOM
  1 S        0.4020     0.0660    -0.2840 S.o2  1 <1>   1.5760 
  2 O        0.2790    -0.7340    -1.4810 O.2   1 <1>  -0.6500 
  3 O        0.5660    -0.5610     1.0080 O.2   1 <1>  -0.6500 
  4 N       -0.9060     1.1250    -0.2120 N.am  1 <1>  -0.8490 
  5 N        1.6580     1.1690    -0.4980 N.am  1 <1>  -0.8490 
  6 C       -2.1160     0.4350     0.2510 C.3   1 <1>   0.1960 
  7 C       -1.1750     1.7560    -1.5130 C.3   1 <1>   0.1960 
  8 C        1.8770     1.9830     0.7140 C.3   1 <1>   0.1960 
  9 C        2.8980     0.4730    -0.8760 C.3   1 <1>   0.1960 
 10 C       -3.3180     1.3970     0.2930 C.3   1 <1>   0.1200 
 11 C       -2.3930     2.6930    -1.4270 C.3   1 <1>   0.1200 
 12 C        3.0030     3.0130     0.5190 C.3   1 <1>   0.1400 
 13 C        4.0530     1.4580    -1.1200 C.3   1 <1>   0.1400 
 14 O       -3.5150     2.0000    -0.9550 O.3   1 <1>  -0.5600 
 15 N        4.2500     2.3400     0.0640 N.am  1 <1>  -0.6600 
 16 C        5.4820     2.7370     0.5110 C.2   1 <1>   0.6900 
 17 O        5.6090     3.8350     1.0230 O.2   1 <1>  -0.5700 
 18 N        6.5640     1.9020     0.4000 N.am  1 <1>  -0.6600 
 19 C        6.4920     0.5370     0.9800 C.3   1 <1>   0.1400 
 20 C        7.9220     2.4760     0.2140 C.3   1 <1>   0.1400 
 21 C        7.1520    -0.5170     0.0810 C.3   1 <1>  -0.1600 
 22 C        8.5230     1.9470    -1.0900 C.3   1 <1>  -0.1600 
 23 C        8.6840    -0.4090     0.0490 C.3   1 <1>  -0.1600 
 24 C        9.2360     0.5860    -0.9840 C.3   1 <1>  -0.1600 
 25 H       -1.9490     0.0400     1.2390 H     1 <1>   0.0800 
 26 H       -2.3470    -0.3890    -0.4040 H     1 <1>   0.0800 
 27 H       -1.3670     1.0060    -2.2630 H     1 <1>   0.0800 
 28 H       -0.3160     2.3240    -1.8250 H     1 <1>   0.0800 
 29 H        2.1320     1.3480     1.5470 H     1 <1>   0.0800 
 30 H        0.9720     2.5080     0.9660 H     1 <1>   0.0800 
 31 H        2.7330    -0.0900    -1.7790 H     1 <1>   0.0800 
 32 H        3.1820    -0.2200    -0.1010 H     1 <1>   0.0800 
 33 H       -3.1570     2.1680     1.0260 H     1 <1>   0.0800 
 34 H       -4.2150     0.8610     0.5450 H     1 <1>   0.0800 
 35 H       -2.6340     3.0830    -2.4000 H     1 <1>   0.0800 
 36 H       -2.1900     3.5140    -0.7620 H     1 <1>   0.0800 
 37 H        3.1800     3.5270     1.4480 H     1 <1>   0.0800 
 38 H        2.7040     3.7400    -0.2140 H     1 <1>   0.0800 
 39 H        3.8180     2.0690    -1.9730 H     1 <1>   0.0800 
 40 H        4.9530     0.9170    -1.3440 H     1 <1>   0.0800 
 41 H        5.4610     0.2700     1.1340 H     1 <1>   0.0800 
 42 H        6.9680     0.5440     1.9450 H     1 <1>   0.0800 
 43 H        8.5500     2.2440     1.0570 H     1 <1>   0.0800 
 44 H        7.8500     3.5490     0.1460 H     1 <1>   0.0800 
 45 H        6.7450    -0.4770    -0.9140 H     1 <1>   0.0800 
 46 H        6.9000    -1.4800     0.4890 H     1 <1>   0.0800 
 47 H        9.2380     2.6660    -1.4490 H     1 <1>   0.0800 
 48 H        7.7420     1.8920    -1.8290 H     1 <1>   0.0800 
 49 H        9.0920    -1.3780    -0.1810 H     1 <1>   0.0800 
 50 H        9.0440    -0.1470     1.0300 H     1 <1>   0.0800 
 51 H       10.2720     0.7610    -0.7450 H     1 <1>   0.0800 
 52 H        9.2160     0.1250    -1.9560 H     1 <1>   0.0800 
@<TRIPOS>BOND
  1   1   2  2   
  2   1   3  2   
  3   1   4  am  
  4   1   5  am  
  5   4   6  1   
  6   4   7  1   
  7   5   8  1   
  8   5   9  1   
  9   6  10  1   
 10   6  25  1   
 11   6  26  1   
 12   7  11  1   
 13   7  27  1   
 14   7  28  1   
 15   8  12  1   
 16   8  29  1   
 17   8  30  1   
 18   9  13  1   
 19   9  31  1   
 20   9  32  1   
 21  10  14  1   
 22  10  33  1   
 23  10  34  1   
 24  11  14  1   
 25  11  35  1   
 26  11  36  1   
 27  12  15  1   
 28  12  37  1   
 29  12  38  1   
 30  13  15  1   
 31  13  39  1   
 32  13  40  1   
 33  15  16  am  
 34  16  17  2   
 35  16  18  am  
 36  18  19  1   
 37  18  20  1   
 38  19  21  1   
 39  19  41  1   
 40  19  42  1   
 41  20  22  1   
 42  20  43  1   
 43  20  44  1   
 44  21  23  1   
 45  21  45  1   
 46  21  46  1   
 47  22  24  1   
 48  22  47  1   
 49  22  48  1   
 50  23  24  1   
 51  23  49  1   
 52  23  50  1   
 53  24  51  1   
 54  24  52  1   
@<TRIPOS>SUBSTRUCTURE
  1 ****   9 GROUP 4 **** **** 0

# MOE 2024.06 (io_trps.svl 2023.06)
