@<TRIPOS>MOLECULE
NONAME
54 55 1 0 0 
SMALL
USER_CHARGES


@<TRIPOS>ATOM
  1 O        0.1530    -1.5610    -1.4120 O.2   1 <1>  -0.5700 
  2 C        0.6080    -1.5220    -0.2840 C.2   1 <1>   0.5440 
  3 N       -0.2280    -1.7860     0.7730 N.am  1 <1>  -0.7300 
  4 C        2.0120    -1.2230    -0.0620 C.ar  1 <1>   0.0860 
  5 C       -1.6760    -2.0950     0.7500 C.3   1 <1>   0.2200 
  6 C        2.9700    -1.5170    -1.0340 C.ar  1 <1>  -0.1500 
  7 C        2.4680    -0.6320     1.1200 C.ar  1 <1>  -0.1500 
  8 C       -1.9300    -3.3950    -0.0180 C.3   1 <1>  -0.1600 
  9 C       -2.4590    -0.9320     0.1350 C.3   1 <1>  -0.1600 
 10 C        4.3130    -1.2550    -0.8400 C.ar  1 <1>  -0.1500 
 11 C        3.8100    -0.3680     1.3220 C.ar  1 <1>  -0.1500 
 12 C       -3.4200    -3.7290    -0.1470 C.3   1 <1>   0.5030 
 13 C       -3.9580    -1.2240     0.0110 C.3   1 <1>   0.5030 
 14 C        4.7460    -0.6770     0.3500 C.ar  1 <1>   0.0830 
 15 N       -4.1850    -2.5510    -0.5820 N.4   1 <1>  -0.9060 
 16 C       -3.9980    -4.3000     1.1520 C.3   1 <1>  -0.2400 
 17 C       -3.6170    -4.7700    -1.2480 C.3   1 <1>  -0.2400 
 18 C       -4.5930    -0.2310    -0.9620 C.3   1 <1>  -0.2400 
 19 C       -4.6850    -1.1000     1.3530 C.3   1 <1>  -0.2400 
 20 O        6.0370    -0.3870     0.6360 O.3   1 <1>  -0.3620 
 21 C        7.1040    -0.5880    -0.2630 C.3   1 <1>   0.2000 
 22 C        8.3850    -0.6360     0.5660 C.3   1 <1>  -0.2400 
 23 C        7.1370     0.5730    -1.2600 C.3   1 <1>  -0.2400 
 24 H        0.2090    -1.8570     1.6950 H     1 <1>   0.3700 
 25 H       -1.9930    -2.2260     1.7710 H     1 <1>   0.0800 
 26 H        2.6480    -1.9620    -1.9610 H     1 <1>   0.1500 
 27 H        1.7690    -0.3650     1.8910 H     1 <1>   0.1500 
 28 H       -1.4200    -4.2050     0.4720 H     1 <1>   0.0800 
 29 H       -1.5160    -3.3130    -1.0060 H     1 <1>   0.0800 
 30 H       -2.0750    -0.7180    -0.8450 H     1 <1>   0.0800 
 31 H       -2.3130    -0.0490     0.7320 H     1 <1>   0.0800 
 32 H        5.0040    -1.5040    -1.6220 H     1 <1>   0.1500 
 33 H        4.1470     0.0850     2.2370 H     1 <1>   0.1500 
 34 H       -5.1810    -2.7680    -0.5260 H     1 <1>   0.4500 
 35 H       -3.9670    -2.4410    -1.5750 H     1 <1>   0.4500 
 36 H       -3.7400    -3.7120     2.0090 H     1 <1>   0.0800 
 37 H       -3.5890    -5.2800     1.3270 H     1 <1>   0.0800 
 38 H       -5.0670    -4.3990     1.0930 H     1 <1>   0.0800 
 39 H       -3.2540    -4.4130    -2.1960 H     1 <1>   0.0800 
 40 H       -4.6530    -5.0430    -1.3470 H     1 <1>   0.0800 
 41 H       -3.0660    -5.6640    -1.0100 H     1 <1>   0.0800 
 42 H       -4.1400    -0.2930    -1.9370 H     1 <1>   0.0800 
 43 H       -4.4510     0.7740    -0.6050 H     1 <1>   0.0800 
 44 H       -5.6520    -0.3970    -1.0550 H     1 <1>   0.0800 
 45 H       -4.1870    -1.6290     2.1400 H     1 <1>   0.0800 
 46 H       -5.7020    -1.4400     1.2790 H     1 <1>   0.0800 
 47 H       -4.7090    -0.0670     1.6550 H     1 <1>   0.0800 
 48 H        6.9700    -1.5330    -0.7600 H     1 <1>   0.0800 
 49 H        8.5220     0.2880     1.0990 H     1 <1>   0.0800 
 50 H        9.2340    -0.7940    -0.0740 H     1 <1>   0.0800 
 51 H        8.3330    -1.4470     1.2700 H     1 <1>   0.0800 
 52 H        7.2570     1.5060    -0.7390 H     1 <1>   0.0800 
 53 H        6.2310     0.6060    -1.8360 H     1 <1>   0.0800 
 54 H        7.9620     0.4510    -1.9380 H     1 <1>   0.0800 
@<TRIPOS>BOND
  1   1   2  2   
  2   2   3  am  
  3   2   4  1   
  4   3   5  1   
  5   3  24  1   
  6   4   6  ar  
  7   4   7  ar  
  8   5   8  1   
  9   5   9  1   
 10   5  25  1   
 11   6  10  ar  
 12   6  26  1   
 13   7  11  ar  
 14   7  27  1   
 15   8  12  1   
 16   8  28  1   
 17   8  29  1   
 18   9  13  1   
 19   9  30  1   
 20   9  31  1   
 21  10  14  ar  
 22  10  32  1   
 23  11  14  ar  
 24  11  33  1   
 25  12  15  1   
 26  12  16  1   
 27  12  17  1   
 28  13  15  1   
 29  13  18  1   
 30  13  19  1   
 31  14  20  1   
 32  15  34  1   
 33  15  35  1   
 34  16  36  1   
 35  16  37  1   
 36  16  38  1   
 37  17  39  1   
 38  17  40  1   
 39  17  41  1   
 40  18  42  1   
 41  18  43  1   
 42  18  44  1   
 43  19  45  1   
 44  19  46  1   
 45  19  47  1   
 46  20  21  1   
 47  21  22  1   
 48  21  23  1   
 49  21  48  1   
 50  22  49  1   
 51  22  50  1   
 52  22  51  1   
 53  23  52  1   
 54  23  53  1   
 55  23  54  1   
@<TRIPOS>SUBSTRUCTURE
  1 ****   2 GROUP 4 **** **** 0

# MOE 2024.06 (io_trps.svl 2023.06)
