@<TRIPOS>MOLECULE
NONAME
30 31 1 0 0 
SMALL
USER_CHARGES


@<TRIPOS>ATOM
  1 O       -1.6100    -4.1960     1.5830 O.2   1 <1>  -0.5700 
  2 C       -1.2040    -3.3050     0.8630 C.2   1 <1>   0.6340 
  3 O       -2.0510    -2.3390     0.4930 O.3   1 <1>  -0.4300 
  4 C        0.1600    -3.2330     0.3830 C.ar  1 <1>   0.0860 
  5 C       -3.4080    -2.3250     0.8910 C.3   1 <1>   0.2000 
  6 C        1.1090    -4.1900     0.7580 C.ar  1 <1>  -0.1500 
  7 C        0.5990    -2.2140    -0.4710 C.ar  1 <1>  -0.1500 
  8 C       -4.2210    -3.1820    -0.0760 C.3   1 <1>  -0.1600 
  9 C       -3.9470    -0.9190     0.6580 C.3   1 <1>  -0.1600 
 10 C        2.4140    -4.1350     0.3090 C.ar  1 <1>  -0.1500 
 11 C        1.9030    -2.1570    -0.9210 C.ar  1 <1>  -0.1500 
 12 C       -4.4490    -2.3010    -1.3090 C.3   1 <1>  -0.1600 
 13 C       -4.2880    -0.8500    -0.8350 C.3   1 <1>  -0.1600 
 14 C        2.8300    -3.1180    -0.5390 C.ar  1 <1>   0.1000 
 15 N        4.1280    -3.0640    -0.9910 N.pl3 1 <1>  -0.9000 
 16 H       -3.4880    -2.6370     1.9190 H     1 <1>   0.0800 
 17 H        0.8100    -4.9880     1.4150 H     1 <1>   0.1500 
 18 H       -0.0950    -1.4550    -0.7860 H     1 <1>   0.1500 
 19 H       -5.1700    -3.4000     0.3790 H     1 <1>   0.0800 
 20 H       -3.7310    -4.1100    -0.3120 H     1 <1>   0.0800 
 21 H       -3.2440    -0.1620     0.9600 H     1 <1>   0.0800 
 22 H       -4.8510    -0.8010     1.2290 H     1 <1>   0.0800 
 23 H        3.1210    -4.8820     0.6190 H     1 <1>   0.1500 
 24 H        2.2140    -1.3610    -1.5730 H     1 <1>   0.1500 
 25 H       -5.4230    -2.4740    -1.7330 H     1 <1>   0.0800 
 26 H       -3.7000    -2.5190    -2.0510 H     1 <1>   0.0800 
 27 H       -3.4770    -0.3860    -1.3710 H     1 <1>   0.0800 
 28 H       -5.1850    -0.2780    -0.9990 H     1 <1>   0.0800 
 29 H        4.3490    -2.4820    -1.8040 H     1 <1>   0.4000 
 30 H        4.7190    -3.8970    -0.9110 H     1 <1>   0.4000 
@<TRIPOS>BOND
  1   1   2  2   
  2   2   3  1   
  3   2   4  1   
  4   3   5  1   
  5   4   6  ar  
  6   4   7  ar  
  7   5   8  1   
  8   5   9  1   
  9   5  16  1   
 10   6  10  ar  
 11   6  17  1   
 12   7  11  ar  
 13   7  18  1   
 14   8  12  1   
 15   8  19  1   
 16   8  20  1   
 17   9  13  1   
 18   9  21  1   
 19   9  22  1   
 20  10  14  ar  
 21  10  23  1   
 22  11  14  ar  
 23  11  24  1   
 24  12  13  1   
 25  12  25  1   
 26  12  26  1   
 27  13  27  1   
 28  13  28  1   
 29  14  15  1   
 30  15  29  1   
 31  15  30  1   
@<TRIPOS>SUBSTRUCTURE
  1 ****   2 GROUP 4 **** **** 0

# MOE 2024.06 (io_trps.svl 2023.06)
