@<TRIPOS>MOLECULE
NONAME
49 53 1 0 0 
SMALL
USER_CHARGES


@<TRIPOS>ATOM
  1 S        0.3660    -0.0340    -1.4330 S.3   1 <1>  -0.0800 
  2 C        1.7160     0.9010    -0.7720 C.ar  1 <1>   0.2970 
  3 C       -0.7630     1.3080    -1.1720 C.2   1 <1>  -0.0450 
  4 N        2.9190     0.3730    -0.6870 N.ar  1 <1>  -0.5670 
  5 C        1.2940     2.1750    -0.3980 C.ar  1 <1>   0.0000 
  6 C       -2.1480     1.3310    -1.4610 C.2   1 <1>   0.8660 
  7 C       -0.1160     2.3610    -0.6230 C.2   1 <1>   0.0830 
  8 C        3.8230     1.1910    -0.1690 C.ar  1 <1>   0.4100 
  9 C        2.2730     3.0250     0.1160 C.ar  1 <1>  -0.1430 
 10 O       -2.7340     0.3830    -1.9640 O.2   1 <1>  -0.5700 
 11 N       -2.8640     2.4650    -1.1620 N.2   1 <1>  -0.6610 
 12 N       -0.9040     3.4540    -0.3430 N.pl3 1 <1>  -0.5330 
 13 N        5.0960     0.6830    -0.0420 N.pl3 1 <1>  -0.8380 
 14 C        3.5440     2.5050     0.2400 C.ar  1 <1>  -0.1430 
 15 C        2.0030     4.4620     0.5400 C.3   1 <1>  -0.0170 
 16 C       -2.2400     3.4530    -0.6290 C.2   1 <1>   0.4390 
 17 C        5.7410     0.1500    -1.2770 C.3   1 <1>   0.2090 
 18 C        5.3230    -0.2320     1.1120 C.3   1 <1>   0.2090 
 19 C        4.6850     3.3470     0.8060 C.3   1 <1>   0.2630 
 20 C        3.2960     5.2900     0.6650 C.3   1 <1>   0.2800 
 21 C       -3.0000     4.7090    -0.2820 C.3   1 <1>  -0.1790 
 22 C        7.2220    -0.1830    -1.0170 C.3   1 <1>   0.1200 
 23 C        6.8220    -0.5490     1.2690 C.3   1 <1>   0.1200 
 24 O        4.2350     4.5480     1.3750 O.3   1 <1>  -0.5600 
 25 C        3.8740     5.6990    -0.7000 C.3   1 <1>  -0.2400 
 26 C        3.0480     6.5470     1.5000 C.3   1 <1>  -0.2400 
 27 O        7.3610    -1.0510     0.0760 O.3   1 <1>  -0.5600 
 28 H       -0.4940     4.2740     0.1050 H     1 <1>   0.4000 
 29 H        1.4990     4.4450     1.4890 H     1 <1>   0.0800 
 30 H        1.3640     4.9440    -0.1750 H     1 <1>   0.0800 
 31 H        5.6660     0.8790    -2.0640 H     1 <1>   0.0800 
 32 H        5.2290    -0.7420    -1.5970 H     1 <1>   0.0800 
 33 H        4.7790    -1.1480     0.9550 H     1 <1>   0.0800 
 34 H        4.9530     0.2250     2.0130 H     1 <1>   0.0800 
 35 H        5.3970     3.5780     0.0340 H     1 <1>   0.0800 
 36 H        5.1950     2.8030     1.5810 H     1 <1>   0.0800 
 37 H       -2.9380     4.8970     0.7730 H     1 <1>   0.0800 
 38 H       -4.0360     4.5980    -0.5500 H     1 <1>   0.0800 
 39 H       -2.5960     5.5450    -0.8220 H     1 <1>   0.0800 
 40 H        7.7760     0.7160    -0.8130 H     1 <1>   0.0800 
 41 H        7.6490    -0.6670    -1.8760 H     1 <1>   0.0800 
 42 H        6.9640    -1.2940     2.0320 H     1 <1>   0.0800 
 43 H        7.3640     0.3380     1.5440 H     1 <1>   0.0800 
 44 H        3.9800     4.8530    -1.3530 H     1 <1>   0.0800 
 45 H        4.8310     6.1730    -0.5710 H     1 <1>   0.0800 
 46 H        3.2150     6.3980    -1.1830 H     1 <1>   0.0800 
 47 H        2.7010     6.2820     2.4820 H     1 <1>   0.0800 
 48 H        2.3110     7.1730     1.0310 H     1 <1>   0.0800 
 49 H        3.9590     7.1100     1.5980 H     1 <1>   0.0800 
@<TRIPOS>BOND
  1   1   2  1   
  2   1   3  1   
  3   2   4  ar  
  4   2   5  ar  
  5   3   6  1   
  6   3   7  2   
  7   4   8  ar  
  8   5   7  1   
  9   5   9  ar  
 10   6  10  2   
 11   6  11  1   
 12   7  12  1   
 13   8  13  1   
 14   8  14  ar  
 15   9  14  ar  
 16   9  15  1   
 17  11  16  2   
 18  12  16  1   
 19  12  28  1   
 20  13  17  1   
 21  13  18  1   
 22  14  19  1   
 23  15  20  1   
 24  15  29  1   
 25  15  30  1   
 26  16  21  1   
 27  17  22  1   
 28  17  31  1   
 29  17  32  1   
 30  18  23  1   
 31  18  33  1   
 32  18  34  1   
 33  19  24  1   
 34  19  35  1   
 35  19  36  1   
 36  20  24  1   
 37  20  25  1   
 38  20  26  1   
 39  21  37  1   
 40  21  38  1   
 41  21  39  1   
 42  22  27  1   
 43  22  40  1   
 44  22  41  1   
 45  23  27  1   
 46  23  42  1   
 47  23  43  1   
 48  25  44  1   
 49  25  45  1   
 50  25  46  1   
 51  26  47  1   
 52  26  48  1   
 53  26  49  1   
@<TRIPOS>SUBSTRUCTURE
  1 ****   9 GROUP 4 **** **** 0

# MOE 2024.06 (io_trps.svl 2023.06)
