@<TRIPOS>MOLECULE
NONAME
32 32 1 0 0 
SMALL
USER_CHARGES


@<TRIPOS>ATOM
  1 O       -0.2650    -0.3490    -0.3010 O.3   1 <1>  -0.3630 
  2 C       -1.5940    -0.1040    -0.1810 C.ar  1 <1>   0.0830 
  3 C        0.3720    -1.3440     0.4710 C.3   1 <1>   0.1200 
  4 C       -2.1240     0.8730    -1.0080 C.ar  1 <1>  -0.1500 
  5 C       -2.4290    -0.7720     0.7120 C.ar  1 <1>  -0.1500 
  6 C        1.8600    -1.3760     0.0930 C.3   1 <1>   0.2000 
  7 C       -3.4700     1.1850    -0.9540 C.ar  1 <1>  -0.1500 
  8 C       -3.7770    -0.4580     0.7650 C.ar  1 <1>  -0.1500 
  9 O        1.9710    -1.4460    -1.2980 O.3   1 <1>  -0.6800 
 10 C        2.6170    -2.5750     0.7010 C.3   1 <1>   0.3430 
 11 C       -4.2980     0.5190    -0.0660 C.ar  1 <1>  -0.1500 
 12 N        2.4920    -3.7700    -0.1870 N.4   1 <1>  -0.9060 
 13 C        3.5690    -4.7650    -0.0260 C.3   1 <1>   0.3430 
 14 C        3.3410    -5.8740    -1.0420 C.3   1 <1>  -0.2400 
 15 H       -0.1010    -2.2870     0.2610 H     1 <1>   0.0800 
 16 H        0.2500    -1.0950     1.5110 H     1 <1>   0.0800 
 17 H       -1.4800     1.3910    -1.6960 H     1 <1>   0.1500 
 18 H       -2.0600    -1.5310     1.3730 H     1 <1>   0.1500 
 19 H        2.3180    -0.4580     0.4210 H     1 <1>   0.0800 
 20 H       -3.8750     1.9450    -1.6000 H     1 <1>   0.1500 
 21 H       -4.4250    -0.9720     1.4540 H     1 <1>   0.1500 
 22 H        1.3900    -0.7520    -1.6920 H     1 <1>   0.4000 
 23 H        2.2570    -2.7900     1.6940 H     1 <1>   0.0800 
 24 H        3.6560    -2.2990     0.7790 H     1 <1>   0.0800 
 25 H       -5.3460     0.7610    -0.0230 H     1 <1>   0.1500 
 26 H        2.5170    -3.3690    -1.1450 H     1 <1>   0.4500 
 27 H        1.5700    -4.2100    -0.1030 H     1 <1>   0.4500 
 28 H        3.5540    -5.1750     0.9720 H     1 <1>   0.0800 
 29 H        4.5300    -4.3050    -0.1980 H     1 <1>   0.0800 
 30 H        2.4000    -6.3660    -0.8730 H     1 <1>   0.0800 
 31 H        4.1210    -6.6090    -0.9460 H     1 <1>   0.0800 
 32 H        3.3730    -5.4870    -2.0460 H     1 <1>   0.0800 
@<TRIPOS>BOND
  1   1   2  1   
  2   1   3  1   
  3   2   4  ar  
  4   2   5  ar  
  5   3   6  1   
  6   3  15  1   
  7   3  16  1   
  8   4   7  ar  
  9   4  17  1   
 10   5   8  ar  
 11   5  18  1   
 12   6   9  1   
 13   6  10  1   
 14   6  19  1   
 15   7  11  ar  
 16   7  20  1   
 17   8  11  ar  
 18   8  21  1   
 19   9  22  1   
 20  10  12  1   
 21  10  23  1   
 22  10  24  1   
 23  11  25  1   
 24  12  13  1   
 25  12  26  1   
 26  12  27  1   
 27  13  14  1   
 28  13  28  1   
 29  13  29  1   
 30  14  30  1   
 31  14  31  1   
 32  14  32  1   
@<TRIPOS>SUBSTRUCTURE
  1 ****   3 GROUP 4 **** **** 0

# MOE 2024.06 (io_trps.svl 2023.06)
