@<TRIPOS>MOLECULE
NONAME
44 46 1 0 0 
SMALL
USER_CHARGES


@<TRIPOS>ATOM
  1 O       -0.7980     0.6500     1.1760 O.2   1 <1>  -0.5700 
  2 C       -1.2470     1.6260     0.6040 C.2   1 <1>   0.6900 
  3 N       -2.5940     1.8600     0.5690 N.am  1 <1>  -0.6600 
  4 N       -0.4160     2.5090     0.0030 N.am  1 <1>  -0.7300 
  5 C       -3.5290     1.0800     1.4420 C.3   1 <1>   0.1400 
  6 C       -3.2770     2.5310    -0.5840 C.3   1 <1>   0.1400 
  7 C        1.0510     2.4140    -0.0190 C.3   1 <1>   0.2200 
  8 C       -4.3720     0.0900     0.6200 C.3   1 <1>   0.2090 
  9 C       -4.1160     1.5240    -1.3900 C.3   1 <1>   0.2090 
 10 C        1.6300     3.4310     0.9700 C.3   1 <1>  -0.1600 
 11 C        1.5420     2.6810    -1.4450 C.3   1 <1>  -0.1600 
 12 N       -5.0730     0.8050    -0.4940 N.pl3 1 <1>  -0.8380 
 13 C        3.1650     3.4510     0.9100 C.3   1 <1>  -0.1600 
 14 C        3.0760     2.6990    -1.5090 C.3   1 <1>  -0.1600 
 15 C       -6.4070     1.1470    -0.4110 C.ar  1 <1>   0.7200 
 16 C        3.6610     3.7140    -0.5180 C.3   1 <1>  -0.1600 
 17 N       -6.8090     2.2130    -1.1050 N.ar  1 <1>  -0.6200 
 18 N       -7.1800     0.3860     0.3620 N.ar  1 <1>  -0.6200 
 19 C       -8.0800     2.5190    -1.0190 C.ar  1 <1>   0.1600 
 20 C       -8.4460     0.7150     0.4280 C.ar  1 <1>   0.1600 
 21 C       -8.9570     1.7910    -0.2550 C.ar  1 <1>  -0.1500 
 22 H       -0.8020     3.4190    -0.2230 H     1 <1>   0.3700 
 23 H       -4.1890     1.7630     1.9460 H     1 <1>   0.0800 
 24 H       -2.9820     0.5400     2.1950 H     1 <1>   0.0800 
 25 H       -2.5600     2.9860    -1.2420 H     1 <1>   0.0800 
 26 H       -3.9260     3.3030    -0.2100 H     1 <1>   0.0800 
 27 H        1.3550     1.4220     0.2760 H     1 <1>   0.0800 
 28 H       -5.0690    -0.4060     1.2710 H     1 <1>   0.0800 
 29 H       -3.7250    -0.6630     0.2060 H     1 <1>   0.0800 
 30 H       -3.4580     0.8040    -1.8460 H     1 <1>   0.0800 
 31 H       -4.6310     2.0320    -2.1850 H     1 <1>   0.0800 
 32 H        1.3170     3.1710     1.9660 H     1 <1>   0.0800 
 33 H        1.2580     4.4130     0.7380 H     1 <1>   0.0800 
 34 H        1.1670     3.6310    -1.7830 H     1 <1>   0.0800 
 35 H        1.1670     1.9120    -2.0980 H     1 <1>   0.0800 
 36 H        3.5450     2.5020     1.2500 H     1 <1>   0.0800 
 37 H        3.5420     4.2120     1.5710 H     1 <1>   0.0800 
 38 H        3.3940     2.9440    -2.5080 H     1 <1>   0.0800 
 39 H        3.4530     1.7170    -1.2760 H     1 <1>   0.0800 
 40 H        4.7360     3.6610    -0.5410 H     1 <1>   0.0800 
 41 H        3.3760     4.7090    -0.8160 H     1 <1>   0.0800 
 42 H       -8.4310     3.3730    -1.5730 H     1 <1>   0.1500 
 43 H       -9.0920     0.1110     1.0420 H     1 <1>   0.1500 
 44 H       -9.9970     2.0500    -0.1940 H     1 <1>   0.1500 
@<TRIPOS>BOND
  1   1   2  2   
  2   2   3  am  
  3   2   4  am  
  4   3   5  1   
  5   3   6  1   
  6   4   7  1   
  7   4  22  1   
  8   5   8  1   
  9   5  23  1   
 10   5  24  1   
 11   6   9  1   
 12   6  25  1   
 13   6  26  1   
 14   7  10  1   
 15   7  11  1   
 16   7  27  1   
 17   8  12  1   
 18   8  28  1   
 19   8  29  1   
 20   9  12  1   
 21   9  30  1   
 22   9  31  1   
 23  10  13  1   
 24  10  32  1   
 25  10  33  1   
 26  11  14  1   
 27  11  34  1   
 28  11  35  1   
 29  12  15  1   
 30  13  16  1   
 31  13  36  1   
 32  13  37  1   
 33  14  16  1   
 34  14  38  1   
 35  14  39  1   
 36  15  17  ar  
 37  15  18  ar  
 38  16  40  1   
 39  16  41  1   
 40  17  19  ar  
 41  18  20  ar  
 42  19  21  ar  
 43  19  42  1   
 44  20  21  ar  
 45  20  43  1   
 46  21  44  1   
@<TRIPOS>SUBSTRUCTURE
  1 ****   3 GROUP 4 **** **** 0

# MOE 2024.06 (io_trps.svl 2023.06)
