@<TRIPOS>MOLECULE
NONAME
33 34 1 0 0 
SMALL
USER_CHARGES


@<TRIPOS>ATOM
  1 CL       1.0540     0.2190     2.3390 Cl    1 <1>  -0.1770 
  2 C        2.0250    -0.6630     1.1810 C.ar  1 <1>   0.1770 
  3 C        1.7510    -1.9860     0.8790 C.ar  1 <1>   0.1900 
  4 C        3.0800    -0.0220     0.5620 C.ar  1 <1>  -0.1500 
  5 F        0.7520    -2.6000     1.4650 F     1 <1>  -0.1900 
  6 C        2.5130    -2.6870    -0.0370 C.ar  1 <1>  -0.1500 
  7 C        3.8710    -0.7100    -0.3550 C.ar  1 <1>   0.1000 
  8 C        3.5720    -2.0390    -0.6520 C.ar  1 <1>  -0.1500 
  9 N        4.9420    -0.0920    -0.9870 N.pl3 1 <1>  -0.8690 
 10 C        5.9680     0.5800    -0.1800 C.3   1 <1>   0.2890 
 11 C        6.0250     2.0440    -0.6040 C.3   1 <1>  -0.1600 
 12 C        7.3100    -0.1070    -0.4100 C.3   1 <1>  -0.1600 
 13 C        7.1590     2.7700     0.1110 C.3   1 <1>   0.3430 
 14 C        8.4260     0.6470     0.3080 C.3   1 <1>   0.3430 
 15 N        8.4520     2.0690    -0.1470 N.4   1 <1>  -0.9590 
 16 C        9.5900     2.8080     0.4820 C.3   1 <1>   0.2630 
 17 H        3.2770     1.0080     0.7860 H     1 <1>   0.1500 
 18 H        2.2780    -3.7130    -0.2600 H     1 <1>   0.1500 
 19 H        4.1710    -2.5700    -1.3700 H     1 <1>   0.1500 
 20 H        5.3350    -0.6370    -1.7620 H     1 <1>   0.4000 
 21 H        5.7100     0.5170     0.8660 H     1 <1>   0.0800 
 22 H        5.0930     2.5200    -0.3570 H     1 <1>   0.0800 
 23 H        6.1630     2.1190    -1.6680 H     1 <1>   0.0800 
 24 H        7.5340    -0.1570    -1.4610 H     1 <1>   0.0800 
 25 H        7.2640    -1.1110    -0.0250 H     1 <1>   0.0800 
 26 H        6.9610     2.7920     1.1710 H     1 <1>   0.0800 
 27 H        7.2120     3.7880    -0.2430 H     1 <1>   0.0800 
 28 H        9.3720     0.1740     0.0970 H     1 <1>   0.0800 
 29 H        8.2600     0.6080     1.3730 H     1 <1>   0.0800 
 30 H        8.6000     2.0650    -1.1680 H     1 <1>   0.4500 
 31 H        9.4730     2.8370     1.5530 H     1 <1>   0.0800 
 32 H        9.6310     3.8200     0.1120 H     1 <1>   0.0800 
 33 H       10.5260     2.3230     0.2510 H     1 <1>   0.0800 
@<TRIPOS>BOND
  1   1   2  1   
  2   2   3  ar  
  3   2   4  ar  
  4   3   5  1   
  5   3   6  ar  
  6   4   7  ar  
  7   4  17  1   
  8   6   8  ar  
  9   6  18  1   
 10   7   8  ar  
 11   7   9  1   
 12   8  19  1   
 13   9  10  1   
 14   9  20  1   
 15  10  11  1   
 16  10  12  1   
 17  10  21  1   
 18  11  13  1   
 19  11  22  1   
 20  11  23  1   
 21  12  14  1   
 22  12  24  1   
 23  12  25  1   
 24  13  15  1   
 25  13  26  1   
 26  13  27  1   
 27  14  15  1   
 28  14  28  1   
 29  14  29  1   
 30  15  16  1   
 31  15  30  1   
 32  16  31  1   
 33  16  32  1   
 34  16  33  1   
@<TRIPOS>SUBSTRUCTURE
  1 ****   9 GROUP 4 **** **** 0

# MOE 2024.06 (io_trps.svl 2023.06)
