@<TRIPOS>MOLECULE
NONAME
26 27 1 0 0 
SMALL
USER_CHARGES


@<TRIPOS>ATOM
  1 CL       1.3240    -1.0490     1.9450 Cl    1 <1>  -0.1770 
  2 C        0.6020    -2.1160     0.7660 C.ar  1 <1>   0.1770 
  3 C        1.2030    -2.2950    -0.4820 C.ar  1 <1>   0.0860 
  4 C       -0.5690    -2.7610     1.1190 C.ar  1 <1>  -0.1500 
  5 C        2.4270    -1.6220    -0.8440 C.2   1 <1>   0.5440 
  6 C        0.5720    -3.1510    -1.3900 C.ar  1 <1>  -0.1500 
  7 C       -1.1500    -3.6020     0.1920 C.ar  1 <1>   0.1900 
  8 O        2.3910    -0.7090    -1.6460 O.2   1 <1>  -0.5700 
  9 N        3.6420    -2.0160    -0.3360 N.am  1 <1>  -0.6600 
 10 C       -0.6010    -3.8090    -1.0610 C.ar  1 <1>  -0.1500 
 11 F       -2.2520    -4.2220     0.5060 F     1 <1>  -0.1900 
 12 C        3.8740    -3.1630     0.5680 C.3   1 <1>   0.1400 
 13 C        4.9090    -1.3320    -0.6710 C.3   1 <1>   0.1400 
 14 C        5.3330    -3.0320     0.9910 C.3   1 <1>  -0.1600 
 15 C        5.9990    -2.2580    -0.1440 C.3   1 <1>  -0.1600 
 16 H       -1.0160    -2.6120     2.0840 H     1 <1>   0.1500 
 17 H        1.0140    -3.2890    -2.3630 H     1 <1>   0.1500 
 18 H       -1.0860    -4.4680    -1.7590 H     1 <1>   0.1500 
 19 H        3.7230    -4.0790     0.0220 H     1 <1>   0.0800 
 20 H        3.2180    -3.1310     1.4200 H     1 <1>   0.0800 
 21 H        4.9360    -0.3830    -0.1640 H     1 <1>   0.0800 
 22 H        4.9930    -1.1760    -1.7330 H     1 <1>   0.0800 
 23 H        5.7900    -3.9910     1.1590 H     1 <1>   0.0800 
 24 H        5.3810    -2.4570     1.9000 H     1 <1>   0.0800 
 25 H        6.8640    -1.7090     0.1840 H     1 <1>   0.0800 
 26 H        6.2890    -2.9350    -0.9280 H     1 <1>   0.0800 
@<TRIPOS>BOND
  1   1   2  1   
  2   2   3  ar  
  3   2   4  ar  
  4   3   5  1   
  5   3   6  ar  
  6   4   7  ar  
  7   4  16  1   
  8   5   8  2   
  9   5   9  am  
 10   6  10  ar  
 11   6  17  1   
 12   7  10  ar  
 13   7  11  1   
 14   9  12  1   
 15   9  13  1   
 16  10  18  1   
 17  12  14  1   
 18  12  19  1   
 19  12  20  1   
 20  13  15  1   
 21  13  21  1   
 22  13  22  1   
 23  14  15  1   
 24  14  23  1   
 25  14  24  1   
 26  15  25  1   
 27  15  26  1   
@<TRIPOS>SUBSTRUCTURE
  1 ****   3 GROUP 4 **** **** 0

# MOE 2024.06 (io_trps.svl 2023.06)
