@<TRIPOS>MOLECULE
NONAME
31 31 1 0 0 
SMALL
USER_CHARGES


@<TRIPOS>ATOM
  1 O        1.9790     2.5310     3.1610 O.2   1 <1>  -0.5700 
  2 C        2.5880     2.3270     2.1330 C.2   1 <1>   0.6900 
  3 N        3.6400     1.4460     2.0790 N.am  1 <1>  -0.3680 
  4 N        2.2490     2.9640     0.9880 N.am  1 <1>  -0.4900 
  5 N        4.4010     1.1490     0.9460 N.2   1 <1>  -0.5120 
  6 C        2.9410     2.7290    -0.1650 C.2   1 <1>   0.6300 
  7 C        4.0560     1.7780    -0.1350 C.2   1 <1>   0.5000 
  8 O        2.5910     3.3340    -1.1660 O.2   1 <1>  -0.5700 
  9 N        4.7930     1.5380    -1.3040 N.pl3 1 <1>  -0.8190 
 10 C        6.2760     1.4360    -1.1420 C.3   1 <1>   0.3500 
 11 C        6.9300     2.6720    -0.4840 C.2   1 <1>   0.6590 
 12 C        6.8580     1.1670    -2.5320 C.3   1 <1>  -0.2400 
 13 O        6.4350     3.7730    -0.5430 O.2   1 <1>  -0.5700 
 14 O        8.0800     2.4560     0.1440 O.3   1 <1>  -0.4300 
 15 C        8.7750     3.5010     0.7890 C.3   1 <1>   0.1200 
 16 C       10.0640     2.9450     1.4010 C.3   1 <1>  -0.1600 
 17 C       11.0110     2.3490     0.3500 C.3   1 <1>  -0.2400 
 18 H        3.8590     0.9770     2.9640 H     1 <1>   0.3700 
 19 H        1.4830     3.6270     0.9920 H     1 <1>   0.3700 
 20 H        4.5640     2.2650    -1.9930 H     1 <1>   0.4000 
 21 H        6.4910     0.5850    -0.5170 H     1 <1>   0.0800 
 22 H        6.6760     2.0020    -3.1830 H     1 <1>   0.0800 
 23 H        6.4170     0.2800    -2.9510 H     1 <1>   0.0800 
 24 H        7.9200     1.0160    -2.4570 H     1 <1>   0.0800 
 25 H        8.1360     3.9100     1.5540 H     1 <1>   0.0800 
 26 H        8.9940     4.2650     0.0620 H     1 <1>   0.0800 
 27 H        9.8140     2.1970     2.1340 H     1 <1>   0.0800 
 28 H       10.5710     3.7440     1.9130 H     1 <1>   0.0800 
 29 H       10.5490     1.5140    -0.1460 H     1 <1>   0.0800 
 30 H       11.9150     2.0060     0.8210 H     1 <1>   0.0800 
 31 H       11.2690     3.0890    -0.3870 H     1 <1>   0.0800 
@<TRIPOS>BOND
  1   1   2  2   
  2   2   3  am  
  3   2   4  am  
  4   3   5  1   
  5   3  18  1   
  6   4   6  am  
  7   4  19  1   
  8   5   7  2   
  9   6   7  1   
 10   6   8  2   
 11   7   9  1   
 12   9  10  1   
 13   9  20  1   
 14  10  11  1   
 15  10  12  1   
 16  10  21  1   
 17  11  13  2   
 18  11  14  1   
 19  12  22  1   
 20  12  23  1   
 21  12  24  1   
 22  14  15  1   
 23  15  16  1   
 24  15  25  1   
 25  15  26  1   
 26  16  17  1   
 27  16  27  1   
 28  16  28  1   
 29  17  29  1   
 30  17  30  1   
 31  17  31  1   
@<TRIPOS>SUBSTRUCTURE
  1 ****   7 GROUP 4 **** **** 0

# MOE 2024.06 (io_trps.svl 2023.06)
