@<TRIPOS>MOLECULE
NONAME
59 62 1 0 0 
SMALL
USER_CHARGES


@<TRIPOS>ATOM
  1 O        0.6350    -0.0540    -1.3800 O.2   1 <1>  -0.5700 
  2 C        1.0770    -0.6720    -0.4300 C.2   1 <1>   0.6900 
  3 N        2.2670    -0.2980     0.1400 N.am  1 <1>  -0.6600 
  4 N        0.4200    -1.7610     0.0620 N.am  1 <1>  -0.5470 
  5 C        3.1770     0.6800    -0.5330 C.3   1 <1>   0.1400 
  6 C        2.7610    -0.7290     1.4860 C.3   1 <1>   0.1400 
  7 C       -0.8180    -2.2920    -0.3210 C.ar  1 <1>   0.1170 
  8 C        4.6190     0.1480    -0.5900 C.3   1 <1>   0.2090 
  9 C        4.2040    -1.2550     1.4030 C.3   1 <1>   0.2090 
 10 C       -2.0170    -1.5820    -0.2080 C.ar  1 <1>  -0.1440 
 11 C       -0.8490    -3.5940    -0.8060 C.ar  1 <1>  -0.1500 
 12 N        5.1140    -0.2550     0.7630 N.pl3 1 <1>  -0.8380 
 13 C       -3.2050    -2.1850    -0.5890 C.ar  1 <1>  -0.1500 
 14 C       -2.0620    -0.1570     0.3290 C.3   1 <1>  -0.0970 
 15 C       -2.0370    -4.1950    -1.1830 C.ar  1 <1>  -0.1430 
 16 C        6.4590    -0.6040     0.7850 C.ar  1 <1>   0.4100 
 17 C       -3.2170    -3.4820    -1.0720 C.ar  1 <1>  -0.1500 
 18 C       -2.0610    -5.6150    -1.7170 C.3   1 <1>  -0.0970 
 19 N        6.8180    -1.7810     0.2700 N.ar  1 <1>  -0.3100 
 20 C        7.3750     0.2730     1.3310 C.ar  1 <1>  -0.1500 
 21 N        8.0850    -2.1400     0.2690 N.ar  1 <1>  -0.3100 
 22 C        8.6940    -0.1010     1.3290 C.ar  1 <1>  -0.1500 
 23 C        9.0190    -1.3290     0.7770 C.ar  1 <1>   0.4100 
 24 N       10.3560    -1.7320     0.7490 N.pl3 1 <1>  -0.8380 
 25 C       11.3060    -0.9320    -0.0690 C.3   1 <1>   0.2090 
 26 C       10.6800    -3.1850     0.8430 C.3   1 <1>   0.2090 
 27 C       11.4450    -1.5390    -1.4690 C.3   1 <1>  -0.1600 
 28 C       10.8520    -3.8010    -0.5520 C.3   1 <1>  -0.1600 
 29 C       11.8540    -3.0160    -1.4080 C.3   1 <1>  -0.1600 
 30 H        1.0220    -2.3930     0.5720 H     1 <1>   0.3700 
 31 H        3.1620     1.6070     0.0130 H     1 <1>   0.0800 
 32 H        2.8410     0.8820    -1.5350 H     1 <1>   0.0800 
 33 H        2.1280    -1.4870     1.9080 H     1 <1>   0.0800 
 34 H        2.7410     0.1190     2.1490 H     1 <1>   0.0800 
 35 H        5.2630     0.9110    -0.9920 H     1 <1>   0.0800 
 36 H        4.6560    -0.7000    -1.2540 H     1 <1>   0.0800 
 37 H        4.2160    -2.1700     0.8360 H     1 <1>   0.0800 
 38 H        4.5630    -1.4740     2.3940 H     1 <1>   0.0800 
 39 H        0.0740    -4.1360    -0.8960 H     1 <1>   0.1500 
 40 H       -4.1330    -1.6470    -0.5130 H     1 <1>   0.1500 
 41 H       -1.3920    -0.0460     1.1620 H     1 <1>   0.0800 
 42 H       -3.0520     0.0980     0.6580 H     1 <1>   0.0800 
 43 H       -1.7700     0.5300    -0.4450 H     1 <1>   0.0800 
 44 H       -4.1500    -3.9320    -1.3620 H     1 <1>   0.1500 
 45 H       -1.0630    -5.9950    -1.8450 H     1 <1>   0.0800 
 46 H       -2.5600    -5.6390    -2.6690 H     1 <1>   0.0800 
 47 H       -2.5880    -6.2540    -1.0310 H     1 <1>   0.0800 
 48 H        7.0450     1.2080     1.7400 H     1 <1>   0.1500 
 49 H        9.4620     0.5210     1.7430 H     1 <1>   0.1500 
 50 H       12.2650    -0.9220     0.4210 H     1 <1>   0.0800 
 51 H       10.9610     0.0840    -0.1520 H     1 <1>   0.0800 
 52 H        9.8980    -3.7000     1.3750 H     1 <1>   0.0800 
 53 H       11.5910    -3.2990     1.4040 H     1 <1>   0.0800 
 54 H       12.1770    -0.9830    -2.0260 H     1 <1>   0.0800 
 55 H       10.5010    -1.4460    -1.9790 H     1 <1>   0.0800 
 56 H        9.8940    -3.8160    -1.0410 H     1 <1>   0.0800 
 57 H       11.1790    -4.8190    -0.4500 H     1 <1>   0.0800 
 58 H       12.8370    -3.1000    -0.9780 H     1 <1>   0.0800 
 59 H       11.8840    -3.4280    -2.4010 H     1 <1>   0.0800 
@<TRIPOS>BOND
  1   1   2  2   
  2   2   3  am  
  3   2   4  am  
  4   3   5  1   
  5   3   6  1   
  6   4   7  1   
  7   4  30  1   
  8   5   8  1   
  9   5  31  1   
 10   5  32  1   
 11   6   9  1   
 12   6  33  1   
 13   6  34  1   
 14   7  10  ar  
 15   7  11  ar  
 16   8  12  1   
 17   8  35  1   
 18   8  36  1   
 19   9  12  1   
 20   9  37  1   
 21   9  38  1   
 22  10  13  ar  
 23  10  14  1   
 24  11  15  ar  
 25  11  39  1   
 26  12  16  1   
 27  13  17  ar  
 28  13  40  1   
 29  14  41  1   
 30  14  42  1   
 31  14  43  1   
 32  15  17  ar  
 33  15  18  1   
 34  16  19  ar  
 35  16  20  ar  
 36  17  44  1   
 37  18  45  1   
 38  18  46  1   
 39  18  47  1   
 40  19  21  ar  
 41  20  22  ar  
 42  20  48  1   
 43  21  23  ar  
 44  22  23  ar  
 45  22  49  1   
 46  23  24  1   
 47  24  25  1   
 48  24  26  1   
 49  25  27  1   
 50  25  50  1   
 51  25  51  1   
 52  26  28  1   
 53  26  52  1   
 54  26  53  1   
 55  27  29  1   
 56  27  54  1   
 57  27  55  1   
 58  28  29  1   
 59  28  56  1   
 60  28  57  1   
 61  29  58  1   
 62  29  59  1   
@<TRIPOS>SUBSTRUCTURE
  1 ****   9 GROUP 4 **** **** 0

# MOE 2024.06 (io_trps.svl 2023.06)
