@<TRIPOS>MOLECULE
NONAME
43 44 1 0 0 
SMALL
USER_CHARGES


@<TRIPOS>ATOM
  1 CL       0.5070    -0.2060    -1.5950 Cl    1 <1>  -0.1770 
  2 C        1.7790     0.7970    -0.9510 C.ar  1 <1>   0.1770 
  3 C        2.3850     0.4440     0.2390 C.ar  1 <1>  -0.1500 
  4 C        2.1630     1.9320    -1.6390 C.ar  1 <1>  -0.1500 
  5 C        3.3980     1.2400     0.7480 C.ar  1 <1>  -0.1500 
  6 C        3.1750     2.7270    -1.1290 C.ar  1 <1>  -0.1500 
  7 C        3.8000     2.3820     0.0640 C.ar  1 <1>  -0.1430 
  8 C        4.9170     3.2400     0.6130 C.3   1 <1>   0.4870 
  9 N        6.1750     2.7040     0.0380 N.4   1 <1>  -0.9060 
 10 C        7.4250     3.3580     0.4910 C.3   1 <1>   0.4230 
 11 C        7.5390     4.7730    -0.0870 C.3   1 <1>  -0.1600 
 12 C        8.6150     2.5080     0.0410 C.3   1 <1>  -0.1600 
 13 C        8.8800     5.4160     0.2800 C.3   1 <1>   0.3430 
 14 C        9.9440     3.1690     0.4110 C.3   1 <1>   0.3430 
 15 N       10.0070     4.5470    -0.1640 N.4   1 <1>  -0.9590 
 16 C       11.3080     5.2120     0.1630 C.3   1 <1>   0.3430 
 17 C       12.4510     4.5770    -0.6320 C.3   1 <1>  -0.1600 
 18 C       13.7630     5.3330    -0.3930 C.3   1 <1>  -0.2400 
 19 H        2.0590    -0.4430     0.7550 H     1 <1>   0.1500 
 20 H        1.6660     2.1840    -2.5610 H     1 <1>   0.1500 
 21 H        3.8530     0.9540     1.6820 H     1 <1>   0.1500 
 22 H        3.4540     3.6130    -1.6760 H     1 <1>   0.1500 
 23 H        4.9300     3.1790     1.6900 H     1 <1>   0.0800 
 24 H        4.7660     4.2670     0.3220 H     1 <1>   0.0800 
 25 H        6.0780     2.7310    -0.9850 H     1 <1>   0.4500 
 26 H        6.1850     1.7020     0.2720 H     1 <1>   0.4500 
 27 H        7.4290     3.4140     1.5700 H     1 <1>   0.0800 
 28 H        6.7570     5.3980     0.3070 H     1 <1>   0.0800 
 29 H        7.4470     4.7560    -1.1590 H     1 <1>   0.0800 
 30 H        8.5920     2.3510    -1.0240 H     1 <1>   0.0800 
 31 H        8.5760     1.5460     0.5220 H     1 <1>   0.0800 
 32 H        8.9340     5.5620     1.3480 H     1 <1>   0.0800 
 33 H        8.9560     6.3840    -0.1910 H     1 <1>   0.0800 
 34 H       10.7570     2.5710     0.0300 H     1 <1>   0.0800 
 35 H       10.0440     3.2180     1.4840 H     1 <1>   0.0800 
 36 H        9.9860     4.4790    -1.1930 H     1 <1>   0.4500 
 37 H       11.5140     5.1410     1.2200 H     1 <1>   0.0800 
 38 H       11.2560     6.2580    -0.0960 H     1 <1>   0.0800 
 39 H       12.2300     4.6090    -1.6850 H     1 <1>   0.0800 
 40 H       12.5990     3.5530    -0.3380 H     1 <1>   0.0800 
 41 H       13.6780     6.3610    -0.7030 H     1 <1>   0.0800 
 42 H       14.5580     4.8790    -0.9600 H     1 <1>   0.0800 
 43 H       14.0390     5.3070     0.6480 H     1 <1>   0.0800 
@<TRIPOS>BOND
  1   1   2  1   
  2   2   3  ar  
  3   2   4  ar  
  4   3   5  ar  
  5   3  19  1   
  6   4   6  ar  
  7   4  20  1   
  8   5   7  ar  
  9   5  21  1   
 10   6   7  ar  
 11   6  22  1   
 12   7   8  1   
 13   8   9  1   
 14   8  23  1   
 15   8  24  1   
 16   9  10  1   
 17   9  25  1   
 18   9  26  1   
 19  10  11  1   
 20  10  12  1   
 21  10  27  1   
 22  11  13  1   
 23  11  28  1   
 24  11  29  1   
 25  12  14  1   
 26  12  30  1   
 27  12  31  1   
 28  13  15  1   
 29  13  32  1   
 30  13  33  1   
 31  14  15  1   
 32  14  34  1   
 33  14  35  1   
 34  15  16  1   
 35  15  36  1   
 36  16  17  1   
 37  16  37  1   
 38  16  38  1   
 39  17  18  1   
 40  17  39  1   
 41  17  40  1   
 42  18  41  1   
 43  18  42  1   
 44  18  43  1   
@<TRIPOS>SUBSTRUCTURE
  1 ****   9 GROUP 4 **** **** 0

# MOE 2024.06 (io_trps.svl 2023.06)
