@<TRIPOS>MOLECULE
NONAME
46 47 1 0 0 
SMALL
USER_CHARGES


@<TRIPOS>ATOM
  1 O      -17.5230     0.6100     0.6580 O.3   1 <1>  -0.5600 
  2 C      -16.8650     0.2180    -0.5170 C.3   1 <1>   0.1200 
  3 C      -18.0760     1.8980     0.6030 C.3   1 <1>   0.1200 
  4 C      -15.7130     1.1910    -0.8630 C.3   1 <1>   0.3430 
  5 C      -16.9990     2.9590     0.2780 C.3   1 <1>   0.3430 
  6 N      -15.6420     2.3340     0.1150 N.4   1 <1>  -0.9590 
  7 C      -14.5800     3.3340    -0.1790 C.3   1 <1>   0.3430 
  8 C      -13.1990     2.7080    -0.0080 C.3   1 <1>  -0.1600 
  9 C      -12.1010     3.7550    -0.1850 C.3   1 <1>   0.1200 
 10 O      -10.8730     3.0920    -0.0340 O.3   1 <1>  -0.3630 
 11 C       -9.6930     3.7540    -0.1350 C.ar  1 <1>   0.0820 
 12 C       -8.5420     3.0040     0.0370 C.ar  1 <1>  -0.1500 
 13 C       -9.5890     5.1180    -0.3960 C.ar  1 <1>  -0.1500 
 14 C       -7.2920     3.5930    -0.0480 C.ar  1 <1>   0.0820 
 15 C       -8.3410     5.7120    -0.4820 C.ar  1 <1>  -0.1500 
 16 O       -6.2220     2.7800     0.1330 O.3   1 <1>  -0.3630 
 17 C       -7.1940     4.9570    -0.3100 C.ar  1 <1>  -0.1500 
 18 C       -4.9050     3.2760     0.0670 C.3   1 <1>   0.1200 
 19 C       -3.9420     2.1140     0.3140 C.3   1 <1>  -0.1600 
 20 C       -2.4820     2.5760     0.2580 C.3   1 <1>  -0.2400 
 21 H      -17.5840     0.1760    -1.3180 H     1 <1>   0.0800 
 22 H      -16.4780    -0.7740    -0.3610 H     1 <1>   0.0800 
 23 H      -18.5210     2.1030     1.5620 H     1 <1>   0.0800 
 24 H      -18.8580     1.9060    -0.1370 H     1 <1>   0.0800 
 25 H      -15.8610     1.5670    -1.8620 H     1 <1>   0.0800 
 26 H      -14.7850     0.6420    -0.8570 H     1 <1>   0.0800 
 27 H      -16.9770     3.6890     1.0710 H     1 <1>   0.0800 
 28 H      -17.2790     3.4730    -0.6270 H     1 <1>   0.0800 
 29 H      -15.4490     1.8880     1.0260 H     1 <1>   0.4500 
 30 H      -14.6710     4.1640     0.5040 H     1 <1>   0.0800 
 31 H      -14.6920     3.7100    -1.1840 H     1 <1>   0.0800 
 32 H      -13.0450     1.9380    -0.7420 H     1 <1>   0.0800 
 33 H      -13.1100     2.2880     0.9790 H     1 <1>   0.0800 
 34 H      -12.1640     4.5220     0.5690 H     1 <1>   0.0800 
 35 H      -12.1280     4.1900    -1.1700 H     1 <1>   0.0800 
 36 H       -8.6150     1.9530     0.2390 H     1 <1>   0.1500 
 37 H      -10.4560     5.7340    -0.5340 H     1 <1>   0.1500 
 38 H       -8.2620     6.7670    -0.6840 H     1 <1>   0.1500 
 39 H       -6.2410     5.4450    -0.3820 H     1 <1>   0.1500 
 40 H       -4.7900     4.0330     0.8240 H     1 <1>   0.0800 
 41 H       -4.7500     3.6970    -0.9110 H     1 <1>   0.0800 
 42 H       -4.1040     1.3580    -0.4340 H     1 <1>   0.0800 
 43 H       -4.1440     1.6890     1.2820 H     1 <1>   0.0800 
 44 H       -2.2540     2.9900    -0.7080 H     1 <1>   0.0800 
 45 H       -1.8260     1.7410     0.4350 H     1 <1>   0.0800 
 46 H       -2.2940     3.3230     1.0100 H     1 <1>   0.0800 
@<TRIPOS>BOND
  1   1   2  1   
  2   1   3  1   
  3   2   4  1   
  4   2  21  1   
  5   2  22  1   
  6   3   5  1   
  7   3  23  1   
  8   3  24  1   
  9   4   6  1   
 10   4  25  1   
 11   4  26  1   
 12   5   6  1   
 13   5  27  1   
 14   5  28  1   
 15   6   7  1   
 16   6  29  1   
 17   7   8  1   
 18   7  30  1   
 19   7  31  1   
 20   8   9  1   
 21   8  32  1   
 22   8  33  1   
 23   9  10  1   
 24   9  34  1   
 25   9  35  1   
 26  10  11  1   
 27  11  12  ar  
 28  11  13  ar  
 29  12  14  ar  
 30  12  36  1   
 31  13  15  ar  
 32  13  37  1   
 33  14  16  1   
 34  14  17  ar  
 35  15  17  ar  
 36  15  38  1   
 37  16  18  1   
 38  17  39  1   
 39  18  19  1   
 40  18  40  1   
 41  18  41  1   
 42  19  20  1   
 43  19  42  1   
 44  19  43  1   
 45  20  44  1   
 46  20  45  1   
 47  20  46  1   
@<TRIPOS>SUBSTRUCTURE
  1 ****  10 GROUP 4 **** **** 0

# MOE 2024.06 (io_trps.svl 2023.06)
