@<TRIPOS>MOLECULE
NONAME
54 57 1 0 0 
SMALL
USER_CHARGES


@<TRIPOS>ATOM
  1 S        0.1970     0.0760     0.8380 S.3   1 <1>  -0.3320 
  2 C        0.9720     1.6880     0.7900 C.ar  1 <1>   0.7220 
  3 C       -1.6220     0.3860     0.9670 C.3   1 <1>   0.0700 
  4 N        0.1750     2.7440     0.9280 N.ar  1 <1>  -0.3100 
  5 N        2.2670     1.6760     0.6270 N.ar  1 <1>  -0.6200 
  6 C       -2.1670     0.6780    -0.4340 C.3   1 <1>  -0.1600 
  7 N        0.7000     3.9350     0.8950 N.ar  1 <1>  -0.3100 
  8 C        2.7960     2.8850     0.5890 C.ar  1 <1>   0.3930 
  9 C       -3.6790     0.9310    -0.3970 C.3   1 <1>  -0.1600 
 10 C        2.0240     4.0640     0.7260 C.ar  1 <1>   0.3100 
 11 O        4.1270     2.8110     0.4160 O.3   1 <1>  -0.3620 
 12 C       -4.2210     1.2230    -1.7990 C.3   1 <1>  -0.2400 
 13 C        2.5040     5.4440     0.6960 C.ar  1 <1>   0.0000 
 14 C        4.9810     3.9020     0.5090 C.3   1 <1>   0.7130 
 15 C        3.6840     5.8210     0.0370 C.ar  1 <1>   0.1000 
 16 C        1.7720     6.4740     1.3020 C.ar  1 <1>  -0.1500 
 17 N        4.5270     4.8670    -0.4770 N.pl3 1 <1>  -0.8690 
 18 C        6.4110     3.4990     0.1810 C.ar  1 <1>  -0.1440 
 19 C        4.0540     7.1570    -0.0660 C.ar  1 <1>  -0.1500 
 20 C        2.1540     7.7990     1.2200 C.ar  1 <1>  -0.1500 
 21 C        7.4640     4.0040     0.9330 C.ar  1 <1>  -0.1500 
 22 C        6.6920     2.6430    -0.8770 C.ar  1 <1>  -0.1500 
 23 C        3.2960     8.1460     0.5220 C.ar  1 <1>  -0.1500 
 24 C        8.7680     3.6580     0.6310 C.ar  1 <1>  -0.1500 
 25 C        7.9980     2.2990    -1.1740 C.ar  1 <1>  -0.1500 
 26 C        9.0540     2.8050    -0.4250 C.ar  1 <1>   0.1000 
 27 N       10.3770     2.4730    -0.6990 N.pl3 1 <1>  -0.8380 
 28 C       10.9250     1.3090     0.0420 C.3   1 <1>   0.1290 
 29 C       10.8520     2.5920    -2.1020 C.3   1 <1>   0.1290 
 30 H       -1.7770     1.2070     1.6440 H     1 <1>   0.0800 
 31 H       -2.0610    -0.5070     1.3750 H     1 <1>   0.0800 
 32 H       -1.9560    -0.1600    -1.0750 H     1 <1>   0.0800 
 33 H       -1.6710     1.5450    -0.8380 H     1 <1>   0.0800 
 34 H       -3.8880     1.7700     0.2440 H     1 <1>   0.0800 
 35 H       -4.1820     0.0680     0.0050 H     1 <1>   0.0800 
 36 H       -3.7460     2.0960    -2.2110 H     1 <1>   0.0800 
 37 H       -5.2810     1.4000    -1.7540 H     1 <1>   0.0800 
 38 H       -4.0410     0.3880    -2.4540 H     1 <1>   0.0800 
 39 H        4.9150     4.2980     1.5100 H     1 <1>   0.0800 
 40 H        0.8720     6.2450     1.8470 H     1 <1>   0.1500 
 41 H        5.3450     5.2070    -0.9900 H     1 <1>   0.4000 
 42 H        4.9460     7.4210    -0.6030 H     1 <1>   0.1500 
 43 H        1.5600     8.5630     1.6920 H     1 <1>   0.1500 
 44 H        7.2780     4.6710     1.7570 H     1 <1>   0.1500 
 45 H        5.8880     2.2400    -1.4710 H     1 <1>   0.1500 
 46 H        3.5890     9.1790     0.4440 H     1 <1>   0.1500 
 47 H        9.5870     4.0480     1.2080 H     1 <1>   0.1500 
 48 H        8.2040     1.6300    -1.9870 H     1 <1>   0.1500 
 49 H       10.4650     1.2420     1.0130 H     1 <1>   0.0800 
 50 H       11.9870     1.4270     0.1690 H     1 <1>   0.0800 
 51 H       10.7270     0.4000    -0.5000 H     1 <1>   0.0800 
 52 H       10.3210     3.3850    -2.6000 H     1 <1>   0.0800 
 53 H       10.6850     1.6700    -2.6310 H     1 <1>   0.0800 
 54 H       11.9020     2.8230    -2.1090 H     1 <1>   0.0800 
@<TRIPOS>BOND
  1   1   2  1   
  2   1   3  1   
  3   2   4  ar  
  4   2   5  ar  
  5   3   6  1   
  6   3  30  1   
  7   3  31  1   
  8   4   7  ar  
  9   5   8  ar  
 10   6   9  1   
 11   6  32  1   
 12   6  33  1   
 13   7  10  ar  
 14   8  10  ar  
 15   8  11  1   
 16   9  12  1   
 17   9  34  1   
 18   9  35  1   
 19  10  13  1   
 20  11  14  1   
 21  12  36  1   
 22  12  37  1   
 23  12  38  1   
 24  13  15  ar  
 25  13  16  ar  
 26  14  17  1   
 27  14  18  1   
 28  14  39  1   
 29  15  17  1   
 30  15  19  ar  
 31  16  20  ar  
 32  16  40  1   
 33  17  41  1   
 34  18  21  ar  
 35  18  22  ar  
 36  19  23  ar  
 37  19  42  1   
 38  20  23  ar  
 39  20  43  1   
 40  21  24  ar  
 41  21  44  1   
 42  22  25  ar  
 43  22  45  1   
 44  23  46  1   
 45  24  26  ar  
 46  24  47  1   
 47  25  26  ar  
 48  25  48  1   
 49  26  27  1   
 50  27  28  1   
 51  27  29  1   
 52  28  49  1   
 53  28  50  1   
 54  28  51  1   
 55  29  52  1   
 56  29  53  1   
 57  29  54  1   
@<TRIPOS>SUBSTRUCTURE
  1 ****  11 GROUP 4 **** **** 0

# MOE 2024.06 (io_trps.svl 2023.06)
