@<TRIPOS>MOLECULE
NONAME
41 42 1 0 0 
SMALL
USER_CHARGES


@<TRIPOS>ATOM
  1 O        0.6390    -0.6610    -1.4560 O.2   1 <1>  -0.5700 
  2 C        0.7860    -1.1490    -0.3530 C.2   1 <1>   0.5440 
  3 N        1.7400    -0.6210     0.4700 N.am  1 <1>  -0.7300 
  4 C        0.0030    -2.2960     0.0610 C.ar  1 <1>   0.0860 
  5 C        2.7820     0.3440     0.0430 C.3   1 <1>   0.1400 
  6 C       -0.6700    -3.0680    -0.8870 C.ar  1 <1>   0.1600 
  7 C       -0.1090    -2.6990     1.3880 C.ar  1 <1>  -0.1500 
  8 C        4.0680    -0.4070    -0.3140 C.3   1 <1>   0.1200 
  9 N       -1.3880    -4.1550    -0.6400 N.ar  1 <1>  -0.6200 
 10 C       -0.8530    -3.8250     1.6670 C.ar  1 <1>  -0.1500 
 11 O        4.4080    -1.2880     0.7400 O.3   1 <1>  -0.3630 
 12 C       -1.4630    -4.5100     0.6310 C.ar  1 <1>   0.1600 
 13 C        5.3210    -2.2340     0.4350 C.ar  1 <1>   0.0830 
 14 C        4.9280    -3.5390     0.1350 C.ar  1 <1>  -0.1430 
 15 C        6.6610    -1.8760     0.4290 C.ar  1 <1>  -0.1500 
 16 C        5.9130    -4.4610    -0.1960 C.ar  1 <1>  -0.1500 
 17 C        3.4550    -3.9600     0.1540 C.3   1 <1>   0.0630 
 18 C        7.6270    -2.8090     0.1040 C.ar  1 <1>  -0.1500 
 19 C        7.2510    -4.1020    -0.2120 C.ar  1 <1>  -0.1500 
 20 C        3.2220    -5.1850     1.0470 C.3   1 <1>  -0.2400 
 21 C        2.9490    -4.2230    -1.2670 C.3   1 <1>  -0.2400 
 22 H        2.0270    -1.1600     1.2890 H     1 <1>   0.3700 
 23 H        2.9770     1.0360     0.8430 H     1 <1>   0.0800 
 24 H        2.4430     0.9060    -0.8100 H     1 <1>   0.0800 
 25 H       -0.6020    -2.7630    -1.9180 H     1 <1>   0.1500 
 26 H        0.3660    -2.1500     2.1810 H     1 <1>   0.1500 
 27 H        4.8830     0.2770    -0.4670 H     1 <1>   0.0800 
 28 H        3.9150    -0.9850    -1.2090 H     1 <1>   0.0800 
 29 H       -0.9640    -4.1730     2.6790 H     1 <1>   0.1500 
 30 H       -2.0420    -5.3890     0.8580 H     1 <1>   0.1500 
 31 H        6.9420    -0.8700     0.6810 H     1 <1>   0.1500 
 32 H        5.6460    -5.4710    -0.4480 H     1 <1>   0.1500 
 33 H        2.8640    -3.1660     0.5680 H     1 <1>   0.0800 
 34 H        8.6670    -2.5320     0.0970 H     1 <1>   0.1500 
 35 H        7.9990    -4.8310    -0.4700 H     1 <1>   0.1500 
 36 H        3.7040    -6.0560     0.6440 H     1 <1>   0.0800 
 37 H        2.1690    -5.3860     1.1290 H     1 <1>   0.0800 
 38 H        3.6140    -4.9980     2.0310 H     1 <1>   0.0800 
 39 H        3.5060    -5.0190    -1.7280 H     1 <1>   0.0800 
 40 H        3.0600    -3.3360    -1.8640 H     1 <1>   0.0800 
 41 H        1.9090    -4.4960    -1.2510 H     1 <1>   0.0800 
@<TRIPOS>BOND
  1   1   2  2   
  2   2   3  am  
  3   2   4  1   
  4   3   5  1   
  5   3  22  1   
  6   4   6  ar  
  7   4   7  ar  
  8   5   8  1   
  9   5  23  1   
 10   5  24  1   
 11   6   9  ar  
 12   6  25  1   
 13   7  10  ar  
 14   7  26  1   
 15   8  11  1   
 16   8  27  1   
 17   8  28  1   
 18   9  12  ar  
 19  10  12  ar  
 20  10  29  1   
 21  11  13  1   
 22  12  30  1   
 23  13  14  ar  
 24  13  15  ar  
 25  14  16  ar  
 26  14  17  1   
 27  15  18  ar  
 28  15  31  1   
 29  16  19  ar  
 30  16  32  1   
 31  17  20  1   
 32  17  21  1   
 33  17  33  1   
 34  18  19  ar  
 35  18  34  1   
 36  19  35  1   
 37  20  36  1   
 38  20  37  1   
 39  20  38  1   
 40  21  39  1   
 41  21  40  1   
 42  21  41  1   
@<TRIPOS>SUBSTRUCTURE
  1 ****  17 GROUP 4 **** **** 0

# MOE 2024.06 (io_trps.svl 2023.06)
