@<TRIPOS>MOLECULE
NONAME
48 50 1 0 0 
SMALL
USER_CHARGES


@<TRIPOS>ATOM
  1 O       -0.5350    -0.1730     0.2870 O.3   1 <1>  -0.3630 
  2 C       -1.7520    -0.6420    -0.0980 C.ar  1 <1>   0.0830 
  3 C        0.0500     0.9780    -0.2820 C.3   1 <1>   0.0400 
  4 C       -2.1870    -1.8620     0.4210 C.ar  1 <1>  -0.1440 
  5 C       -2.5560     0.0560    -0.9900 C.ar  1 <1>  -0.1500 
  6 C       -3.4180    -2.3900     0.0260 C.ar  1 <1>  -0.1430 
  7 C       -1.2880    -2.6100     1.4130 C.3   1 <1>  -0.0960 
  8 C       -3.7830    -0.4530    -1.3600 C.ar  1 <1>  -0.1500 
  9 C       -4.2250    -1.6650    -0.8530 C.ar  1 <1>  -0.1440 
 10 C       -3.8500    -3.7610     0.5550 C.3   1 <1>  -0.0970 
 11 C       -5.6030    -2.1360    -1.2820 C.3   1 <1>   0.4860 
 12 N       -6.5230    -1.9630    -0.1300 N.4   1 <1>  -0.9590 
 13 C       -7.8450    -2.6600    -0.3490 C.3   1 <1>   0.3430 
 14 C       -6.7050    -0.4980     0.2110 C.3   1 <1>   0.3430 
 15 C       -8.8420    -2.4300     0.8070 C.3   1 <1>   0.2090 
 16 C       -7.6980    -0.2840     1.3700 C.3   1 <1>   0.2090 
 17 N       -8.9880    -0.9690     1.0610 N.pl3 1 <1>  -0.8380 
 18 C      -10.0090    -0.2880     0.4390 C.ar  1 <1>   0.7200 
 19 N      -11.2140    -0.8410     0.5030 N.ar  1 <1>  -0.6200 
 20 N       -9.6810     0.8330    -0.2000 N.ar  1 <1>  -0.6200 
 21 C      -12.1830    -0.1790    -0.0810 C.ar  1 <1>   0.1600 
 22 C      -10.6720     1.4740    -0.7750 C.ar  1 <1>   0.1600 
 23 C      -11.9620     1.0050    -0.7420 C.ar  1 <1>  -0.1500 
 24 H        1.0260     1.1040     0.1500 H     1 <1>   0.0800 
 25 H       -0.5630     1.8320    -0.0540 H     1 <1>   0.0800 
 26 H        0.1380     0.8360    -1.3450 H     1 <1>   0.0800 
 27 H       -2.2430     0.9950    -1.4050 H     1 <1>   0.1500 
 28 H       -0.6140    -1.9450     1.9200 H     1 <1>   0.0800 
 29 H       -0.7030    -3.3430     0.8880 H     1 <1>   0.0800 
 30 H       -1.8630    -3.1000     2.1760 H     1 <1>   0.0800 
 31 H       -4.3840     0.1120    -2.0520 H     1 <1>   0.1500 
 32 H       -3.0240    -4.4490     0.5050 H     1 <1>   0.0800 
 33 H       -4.6440    -4.2040    -0.0130 H     1 <1>   0.0800 
 34 H       -4.1590    -3.6800     1.5820 H     1 <1>   0.0800 
 35 H       -5.5530    -3.1710    -1.5760 H     1 <1>   0.0800 
 36 H       -5.9470    -1.5600    -2.1250 H     1 <1>   0.0800 
 37 H       -6.0480    -2.3870     0.6760 H     1 <1>   0.4500 
 38 H       -7.6880    -3.7180    -0.4720 H     1 <1>   0.0800 
 39 H       -8.3000    -2.2870    -1.2520 H     1 <1>   0.0800 
 40 H       -7.0840     0.0300    -0.6490 H     1 <1>   0.0800 
 41 H       -5.7560    -0.0610     0.4760 H     1 <1>   0.0800 
 42 H       -8.4940    -2.9150     1.7020 H     1 <1>   0.0800 
 43 H       -9.7910    -2.8710     0.5510 H     1 <1>   0.0800 
 44 H       -7.8590     0.7700     1.5240 H     1 <1>   0.0800 
 45 H       -7.2900    -0.6810     2.2830 H     1 <1>   0.0800 
 46 H      -13.1790    -0.5890    -0.0310 H     1 <1>   0.1500 
 47 H      -10.4520     2.3960    -1.2870 H     1 <1>   0.1500 
 48 H      -12.7650     1.5390    -1.2140 H     1 <1>   0.1500 
@<TRIPOS>BOND
  1   1   2  1   
  2   1   3  1   
  3   2   4  ar  
  4   2   5  ar  
  5   3  24  1   
  6   3  25  1   
  7   3  26  1   
  8   4   6  ar  
  9   4   7  1   
 10   5   8  ar  
 11   5  27  1   
 12   6   9  ar  
 13   6  10  1   
 14   7  28  1   
 15   7  29  1   
 16   7  30  1   
 17   8   9  ar  
 18   8  31  1   
 19   9  11  1   
 20  10  32  1   
 21  10  33  1   
 22  10  34  1   
 23  11  12  1   
 24  11  35  1   
 25  11  36  1   
 26  12  13  1   
 27  12  14  1   
 28  12  37  1   
 29  13  15  1   
 30  13  38  1   
 31  13  39  1   
 32  14  16  1   
 33  14  40  1   
 34  14  41  1   
 35  15  17  1   
 36  15  42  1   
 37  15  43  1   
 38  16  17  1   
 39  16  44  1   
 40  16  45  1   
 41  17  18  1   
 42  18  19  ar  
 43  18  20  ar  
 44  19  21  ar  
 45  20  22  ar  
 46  21  23  ar  
 47  21  46  1   
 48  22  23  ar  
 49  22  47  1   
 50  23  48  1   
@<TRIPOS>SUBSTRUCTURE
  1 ****  14 GROUP 4 **** **** 0

# MOE 2024.06 (io_trps.svl 2023.06)
