@<TRIPOS>MOLECULE
NONAME
37 38 1 0 0 
SMALL
USER_CHARGES


@<TRIPOS>ATOM
  1 S        0.3770    -0.1290     0.0820 S.2   1 <1>  -0.3800 
  2 C        0.1450    -1.7220     0.3920 C.2   1 <1>   0.2790 
  3 C       -1.1490    -2.2940     0.1720 C.ar  1 <1>   0.0860 
  4 C        1.2010    -2.5410     0.8670 C.2   1 <1>  -0.1240 
  5 C       -1.3250    -3.6660     0.4280 C.ar  1 <1>   0.1000 
  6 C       -2.2710    -1.5790    -0.2860 C.ar  1 <1>  -0.1500 
  7 C        0.9810    -3.8810     1.0840 C.2   1 <1>  -0.0380 
  8 C        2.5800    -1.9220     1.1380 C.3   1 <1>  -0.0220 
  9 N       -0.2520    -4.4100     0.8760 N.pl3 1 <1>  -0.6000 
 10 C       -2.5660    -4.2720     0.2330 C.ar  1 <1>  -0.1500 
 11 C       -3.4940    -2.1800    -0.4780 C.ar  1 <1>   0.0830 
 12 C        2.0190    -4.8900     1.5550 C.3   1 <1>  -0.1020 
 13 C        3.4470    -1.9350    -0.1290 C.3   1 <1>  -0.1600 
 14 C       -3.6430    -3.5450    -0.2150 C.ar  1 <1>  -0.1500 
 15 O       -4.5060    -1.3910    -0.9230 O.3   1 <1>  -0.3630 
 16 C        4.8410    -1.3560     0.1380 C.3   1 <1>  -0.1600 
 17 C       -5.7980    -1.9100    -1.1500 C.3   1 <1>   0.0400 
 18 C        5.6970    -1.3750    -1.1310 C.3   1 <1>  -0.2400 
 19 H       -2.1890    -0.5290    -0.4970 H     1 <1>   0.1500 
 20 H        3.0800    -2.4570     1.9230 H     1 <1>   0.0800 
 21 H        2.4810    -0.9140     1.5000 H     1 <1>   0.0800 
 22 H       -0.4070    -5.4070     1.0510 H     1 <1>   0.4000 
 23 H       -2.6750    -5.3210     0.4360 H     1 <1>   0.1500 
 24 H        1.9320    -5.0290     2.6170 H     1 <1>   0.0800 
 25 H        3.0190    -4.5780     1.3250 H     1 <1>   0.0800 
 26 H        1.8620    -5.8360     1.0690 H     1 <1>   0.0800 
 27 H        2.9600    -1.3560    -0.8950 H     1 <1>   0.0800 
 28 H        3.5380    -2.9450    -0.4890 H     1 <1>   0.0800 
 29 H       -4.5860    -4.0380    -0.3560 H     1 <1>   0.1500 
 30 H        5.3330    -1.9300     0.9050 H     1 <1>   0.0800 
 31 H        4.7490    -0.3410     0.4870 H     1 <1>   0.0800 
 32 H       -6.4240    -1.1060    -1.4940 H     1 <1>   0.0800 
 33 H       -6.1840    -2.3030    -0.2260 H     1 <1>   0.0800 
 34 H       -5.7400    -2.6760    -1.9030 H     1 <1>   0.0800 
 35 H        5.8200    -2.3830    -1.4880 H     1 <1>   0.0800 
 36 H        6.6690    -0.9630    -0.9260 H     1 <1>   0.0800 
 37 H        5.2330    -0.7880    -1.9050 H     1 <1>   0.0800 
@<TRIPOS>BOND
  1   1   2  2   
  2   2   3  1   
  3   2   4  1   
  4   3   5  ar  
  5   3   6  ar  
  6   4   7  2   
  7   4   8  1   
  8   5   9  1   
  9   5  10  ar  
 10   6  11  ar  
 11   6  19  1   
 12   7   9  1   
 13   7  12  1   
 14   8  13  1   
 15   8  20  1   
 16   8  21  1   
 17   9  22  1   
 18  10  14  ar  
 19  10  23  1   
 20  11  14  ar  
 21  11  15  1   
 22  12  24  1   
 23  12  25  1   
 24  12  26  1   
 25  13  16  1   
 26  13  27  1   
 27  13  28  1   
 28  14  29  1   
 29  15  17  1   
 30  16  18  1   
 31  16  30  1   
 32  16  31  1   
 33  17  32  1   
 34  17  33  1   
 35  17  34  1   
 36  18  35  1   
 37  18  36  1   
 38  18  37  1   
@<TRIPOS>SUBSTRUCTURE
  1 ****   2 GROUP 4 **** **** 0

# MOE 2024.06 (io_trps.svl 2023.06)
