@<TRIPOS>MOLECULE
NONAME
32 32 1 0 0 
SMALL
USER_CHARGES


@<TRIPOS>ATOM
  1 CL      -0.3470    -0.1490     0.1520 Cl    1 <1>  -0.1770 
  2 C       -1.7290     0.9210     0.0100 C.ar  1 <1>   0.1770 
  3 C       -1.5490     2.2960    -0.0780 C.ar  1 <1>   0.0820 
  4 C       -2.9910     0.3590    -0.0190 C.ar  1 <1>  -0.1500 
  5 O       -0.2810     2.8030    -0.0630 O.3   1 <1>  -0.3630 
  6 C       -2.6770     3.1000    -0.1870 C.ar  1 <1>  -0.1500 
  7 C       -4.1090     1.1700    -0.1280 C.ar  1 <1>   0.0820 
  8 C       -0.0670     4.1850    -0.2810 C.3   1 <1>   0.0400 
  9 C       -3.9570     2.5660    -0.2120 C.ar  1 <1>   0.1170 
 10 O       -5.3060     0.5240    -0.1810 O.3   1 <1>  -0.3630 
 11 N       -4.9990     3.4930    -0.3650 N.am  1 <1>  -0.5470 
 12 C       -6.3030     0.8980     0.7420 C.3   1 <1>   0.0400 
 13 C       -5.6210     4.1690     0.6390 C.2   1 <1>   0.5690 
 14 O       -5.7180     3.7420     1.7660 O.2   1 <1>  -0.5700 
 15 C       -6.2260     5.5270     0.3150 C.3   1 <1>  -0.0990 
 16 C       -5.1690     6.6440     0.1370 C.3   1 <1>  -0.2660 
 17 C       -4.1340     6.3270    -0.9170 C.2   1 <1>   0.9060 
 18 O       -2.9570     6.6240    -0.7110 O.co2 1 <1>  -0.9000 
 19 O       -4.4920     5.6950    -1.9170 O.co2 1 <1>  -0.9000 
 20 H       -3.1060    -0.7060     0.0400 H     1 <1>   0.1500 
 21 H       -2.5860     4.1680    -0.2630 H     1 <1>   0.1500 
 22 H        0.9920     4.3660    -0.2890 H     1 <1>   0.0800 
 23 H       -0.5290     4.7450     0.5130 H     1 <1>   0.0800 
 24 H       -0.4940     4.4650    -1.2300 H     1 <1>   0.0800 
 25 H       -4.8730     4.1030    -1.2000 H     1 <1>   0.3700 
 26 H       -6.9710     0.0660     0.8710 H     1 <1>   0.0800 
 27 H       -6.8440     1.7380     0.3470 H     1 <1>   0.0800 
 28 H       -5.8430     1.1510     1.6810 H     1 <1>   0.0800 
 29 H       -6.9010     5.8020     1.1050 H     1 <1>   0.0800 
 30 H       -6.8000     5.4350    -0.5890 H     1 <1>   0.0800 
 31 H       -4.6530     6.8000     1.0660 H     1 <1>   0.0800 
 32 H       -5.6470     7.5620    -0.1430 H     1 <1>   0.0800 
@<TRIPOS>BOND
  1   1   2  1   
  2   2   3  ar  
  3   2   4  ar  
  4   3   5  1   
  5   3   6  ar  
  6   4   7  ar  
  7   4  20  1   
  8   5   8  1   
  9   6   9  ar  
 10   6  21  1   
 11   7   9  ar  
 12   7  10  1   
 13   8  22  1   
 14   8  23  1   
 15   8  24  1   
 16   9  11  1   
 17  10  12  1   
 18  11  13  am  
 19  11  25  1   
 20  12  26  1   
 21  12  27  1   
 22  12  28  1   
 23  13  14  2   
 24  13  15  1   
 25  15  16  1   
 26  15  29  1   
 27  15  30  1   
 28  16  17  1   
 29  16  31  1   
 30  16  32  1   
 31  17  18  ar  
 32  17  19  ar  
@<TRIPOS>SUBSTRUCTURE
  1 ****   9 GROUP 4 **** **** 0

# MOE 2024.06 (io_trps.svl 2023.06)
