@<TRIPOS>MOLECULE
NONAME
42 44 1 0 0 
SMALL
USER_CHARGES


@<TRIPOS>ATOM
  1 O       -8.4690     3.0860    -0.0610 O.3   1 <1>  -0.3620 
  2 C       -9.5450     3.9020    -0.1320 C.ar  1 <1>   0.0830 
  3 C       -7.1930     3.5720     0.3000 C.3   1 <1>   0.2640 
  4 C      -10.7330     3.3120    -0.5280 C.ar  1 <1>  -0.1500 
  5 C       -9.5190     5.2610     0.1650 C.ar  1 <1>  -0.1500 
  6 C       -6.2090     2.4150     0.2840 C.ar  1 <1>  -0.1440 
  7 C      -11.8980     4.0560    -0.6190 C.ar  1 <1>  -0.1440 
  8 C      -10.6790     6.0090     0.0660 C.ar  1 <1>  -0.1500 
  9 C       -5.7170     1.8880     1.4690 C.ar  1 <1>  -0.1500 
 10 C       -5.7900     1.8730    -0.9210 C.ar  1 <1>  -0.1500 
 11 C      -11.8660     5.4110    -0.3230 C.ar  1 <1>  -0.1500 
 12 C      -13.1870     3.3810    -1.0230 C.3   1 <1>   0.4860 
 13 C       -4.8160     0.8380     1.4470 C.ar  1 <1>  -0.1500 
 14 C       -4.8890     0.8230    -0.9430 C.ar  1 <1>  -0.1500 
 15 N      -13.7050     2.7220     0.1890 N.4   1 <1>  -0.7990 
 16 C       -4.3970     0.2990     0.2410 C.ar  1 <1>  -0.1430 
 17 C      -14.9110     1.9250    -0.0540 C.3   1 <1>   0.2960 
 18 C       -3.4080    -0.8520     0.2170 C.3   1 <1>  -0.0970 
 19 C      -15.1900     0.7970     0.8770 C.3   1 <1>  -0.2000 
 20 C      -14.7380     0.5240    -0.5290 C.3   1 <1>  -0.2000 
 21 H       -7.2580     4.0040     1.2820 H     1 <1>   0.0800 
 22 H       -6.8990     4.3220    -0.4140 H     1 <1>   0.0800 
 23 H      -10.7120     2.2610    -0.7620 H     1 <1>   0.1500 
 24 H       -8.6140     5.7520     0.4720 H     1 <1>   0.1500 
 25 H      -10.6550     7.0620     0.2930 H     1 <1>   0.1500 
 26 H       -6.0330     2.2900     2.4150 H     1 <1>   0.1500 
 27 H       -6.1680     2.2670    -1.8490 H     1 <1>   0.1500 
 28 H      -12.7520     6.0210    -0.3940 H     1 <1>   0.1500 
 29 H      -12.9950     2.6540    -1.7950 H     1 <1>   0.0800 
 30 H      -13.8930     4.1080    -1.3920 H     1 <1>   0.0800 
 31 H       -4.4420     0.4410     2.3740 H     1 <1>   0.1500 
 32 H       -4.5730     0.4160    -1.8860 H     1 <1>   0.1500 
 33 H      -13.8770     3.4370     0.9040 H     1 <1>   0.4500 
 34 H      -12.9610     2.1230     0.5620 H     1 <1>   0.4500 
 35 H      -15.7500     2.4980    -0.4240 H     1 <1>   0.1000 
 36 H       -3.5120    -1.4560     1.1010 H     1 <1>   0.0800 
 37 H       -2.4050    -0.4680     0.1740 H     1 <1>   0.0800 
 38 H       -3.5800    -1.4760    -0.6410 H     1 <1>   0.0800 
 39 H      -16.2120     0.5640     1.1250 H     1 <1>   0.1000 
 40 H      -14.5140     0.5750     1.6840 H     1 <1>   0.1000 
 41 H      -13.7550     0.1100    -0.6740 H     1 <1>   0.1000 
 42 H      -15.4610     0.1060    -1.2090 H     1 <1>   0.1000 
@<TRIPOS>BOND
  1   1   2  1   
  2   1   3  1   
  3   2   4  ar  
  4   2   5  ar  
  5   3   6  1   
  6   3  21  1   
  7   3  22  1   
  8   4   7  ar  
  9   4  23  1   
 10   5   8  ar  
 11   5  24  1   
 12   6   9  ar  
 13   6  10  ar  
 14   7  11  ar  
 15   7  12  1   
 16   8  11  ar  
 17   8  25  1   
 18   9  13  ar  
 19   9  26  1   
 20  10  14  ar  
 21  10  27  1   
 22  11  28  1   
 23  12  15  1   
 24  12  29  1   
 25  12  30  1   
 26  13  16  ar  
 27  13  31  1   
 28  14  16  ar  
 29  14  32  1   
 30  15  17  1   
 31  15  33  1   
 32  15  34  1   
 33  16  18  1   
 34  17  19  1   
 35  17  20  1   
 36  17  35  1   
 37  18  36  1   
 38  18  37  1   
 39  18  38  1   
 40  19  20  1   
 41  19  39  1   
 42  19  40  1   
 43  20  41  1   
 44  20  42  1   
@<TRIPOS>SUBSTRUCTURE
  1 ****   1 GROUP 4 **** **** 0

# MOE 2024.06 (io_trps.svl 2023.06)
