@<TRIPOS>MOLECULE
NONAME
51 53 1 0 0 
SMALL
USER_CHARGES


@<TRIPOS>ATOM
  1 O      -11.1740    -2.0830     1.8950 O.3   1 <1>  -0.3630 
  2 C      -10.4730    -1.2780     1.0890 C.ar  1 <1>   0.0830 
  3 C      -12.5070    -2.1050     1.3890 C.3   1 <1>   0.4000 
  4 C      -11.2780    -0.7800     0.1060 C.ar  1 <1>   0.0830 
  5 C       -9.1360    -0.9430     1.1650 C.ar  1 <1>  -0.1500 
  6 O      -12.5220    -1.2500     0.2480 O.3   1 <1>  -0.3630 
  7 C      -10.7900     0.0790    -0.8570 C.ar  1 <1>  -0.1500 
  8 C       -8.6190    -0.0750     0.2080 C.ar  1 <1>  -0.1440 
  9 C       -9.4460     0.4270    -0.7970 C.ar  1 <1>  -0.1500 
 10 C       -7.1540     0.3200     0.2670 C.3   1 <1>   0.2640 
 11 O       -6.3980    -0.7390    -0.2290 O.3   1 <1>  -0.5600 
 12 C       -5.0160    -0.5400    -0.1760 C.3   1 <1>   0.1200 
 13 C       -4.3170    -1.8170    -0.6620 C.3   1 <1>   0.2000 
 14 O       -4.9130    -2.8960    -0.0200 O.3   1 <1>  -0.6800 
 15 C       -2.7900    -1.7890    -0.4100 C.3   1 <1>   0.1100 
 16 N       -2.1380    -3.1130    -0.5200 N.3   1 <1>  -0.8100 
 17 C       -2.2640    -3.7600    -1.8490 C.3   1 <1>   0.1100 
 18 C       -0.7450    -3.1490    -0.0290 C.3   1 <1>   0.1100 
 19 C       -1.6680    -5.1890    -1.8450 C.3   1 <1>   0.3430 
 20 C       -0.2230    -4.6070     0.0550 C.3   1 <1>   0.3430 
 21 N       -1.2550    -5.5730    -0.4560 N.4   1 <1>  -0.9590 
 22 C       -0.9030    -7.0190    -0.3250 C.3   1 <1>   0.3430 
 23 C       -0.8470    -7.4770     1.1390 C.3   1 <1>   0.1200 
 24 O       -0.4970    -8.8150     1.1500 O.3   1 <1>  -0.6800 
 25 H      -13.1820    -1.7240     2.1350 H     1 <1>   0.0800 
 26 H      -12.7630    -3.1060     1.0920 H     1 <1>   0.0800 
 27 H       -8.5220    -1.3550     1.9450 H     1 <1>   0.1500 
 28 H      -11.4390     0.4570    -1.6260 H     1 <1>   0.1500 
 29 H       -9.0440     1.0910    -1.5420 H     1 <1>   0.1500 
 30 H       -6.8620     0.5100     1.2860 H     1 <1>   0.0800 
 31 H       -6.9660     1.1920    -0.3350 H     1 <1>   0.0800 
 32 H       -4.7350    -0.3300     0.8420 H     1 <1>   0.0800 
 33 H       -4.7580     0.2950    -0.8040 H     1 <1>   0.0800 
 34 H       -4.5050    -1.9250    -1.7160 H     1 <1>   0.0800 
 35 H       -5.8730    -2.6860     0.0410 H     1 <1>   0.4000 
 36 H       -2.6290    -1.4130     0.5860 H     1 <1>   0.0800 
 37 H       -2.3290    -1.0980    -1.0950 H     1 <1>   0.0800 
 38 H       -1.7740    -3.1640    -2.6010 H     1 <1>   0.0800 
 39 H       -3.3040    -3.8340    -2.1150 H     1 <1>   0.0800 
 40 H       -0.6970    -2.7070     0.9520 H     1 <1>   0.0800 
 41 H       -0.1110    -2.5720    -0.6800 H     1 <1>   0.0800 
 42 H       -0.8190    -5.2280    -2.5080 H     1 <1>   0.0800 
 43 H       -2.4100    -5.8770    -2.2150 H     1 <1>   0.0800 
 44 H        0.0120    -4.8290     1.0830 H     1 <1>   0.0800 
 45 H        0.6860    -4.6940    -0.5170 H     1 <1>   0.0800 
 46 H       -2.1020    -5.3410     0.0950 H     1 <1>   0.4500 
 47 H        0.0520    -7.2030    -0.7870 H     1 <1>   0.0800 
 48 H       -1.6460    -7.6130    -0.8310 H     1 <1>   0.0800 
 49 H       -1.8110    -7.3780     1.6090 H     1 <1>   0.0800 
 50 H       -0.1010    -6.9360     1.6930 H     1 <1>   0.0800 
 51 H       -0.4810    -9.1790     2.0620 H     1 <1>   0.4000 
@<TRIPOS>BOND
  1   1   2  1   
  2   1   3  1   
  3   2   4  ar  
  4   2   5  ar  
  5   3   6  1   
  6   3  25  1   
  7   3  26  1   
  8   4   6  1   
  9   4   7  ar  
 10   5   8  ar  
 11   5  27  1   
 12   7   9  ar  
 13   7  28  1   
 14   8   9  ar  
 15   8  10  1   
 16   9  29  1   
 17  10  11  1   
 18  10  30  1   
 19  10  31  1   
 20  11  12  1   
 21  12  13  1   
 22  12  32  1   
 23  12  33  1   
 24  13  14  1   
 25  13  15  1   
 26  13  34  1   
 27  14  35  1   
 28  15  16  1   
 29  15  36  1   
 30  15  37  1   
 31  16  17  1   
 32  16  18  1   
 33  17  19  1   
 34  17  38  1   
 35  17  39  1   
 36  18  20  1   
 37  18  40  1   
 38  18  41  1   
 39  19  21  1   
 40  19  42  1   
 41  19  43  1   
 42  20  21  1   
 43  20  44  1   
 44  20  45  1   
 45  21  22  1   
 46  21  46  1   
 47  22  23  1   
 48  22  47  1   
 49  22  48  1   
 50  23  24  1   
 51  23  49  1   
 52  23  50  1   
 53  24  51  1   
@<TRIPOS>SUBSTRUCTURE
  1 ****  14 GROUP 4 **** **** 0

# MOE 2024.06 (io_trps.svl 2023.06)
