@<TRIPOS>MOLECULE
NONAME
33 34 1 0 0 
SMALL
USER_CHARGES


@<TRIPOS>ATOM
  1 I        1.4290     1.4160     3.5810 I     1 <1>  -0.0810 
  2 C        2.1750     1.4530     1.5890 C.ar  1 <1>   0.0810 
  3 C        3.3780     0.8320     1.3210 C.ar  1 <1>  -0.1500 
  4 C        1.4340     2.0990     0.6180 C.ar  1 <1>  -0.1500 
  5 C        3.8860     0.8510     0.0240 C.ar  1 <1>   0.0860 
  6 C        1.9270     2.1140    -0.6760 C.ar  1 <1>  -0.1500 
  7 C        5.1520     0.2180    -0.2840 C.2   1 <1>   0.5440 
  8 C        3.1340     1.4960    -0.9630 C.ar  1 <1>  -0.1500 
  9 O        5.2520    -0.9860    -0.1440 O.2   1 <1>  -0.5700 
 10 N        6.2430     0.9420    -0.7270 N.am  1 <1>  -0.6600 
 11 C        6.3090     2.4310    -0.7080 C.3   1 <1>   0.1400 
 12 C        7.5070     0.2710    -1.1420 C.3   1 <1>   0.1400 
 13 C        7.4510     2.8860     0.2050 C.3   1 <1>  -0.1600 
 14 C        8.6530     0.7130    -0.2270 C.3   1 <1>  -0.1600 
 15 C        8.7930     2.2450    -0.1960 C.3   1 <1>  -0.0190 
 16 C        9.9290     2.6750     0.7300 C.2   1 <1>   0.5690 
 17 O        9.8010     2.6260     1.9260 O.2   1 <1>  -0.5700 
 18 N       11.0880     3.1110     0.2030 N.am  1 <1>  -0.8000 
 19 H        3.9270     0.3310     2.0990 H     1 <1>   0.1500 
 20 H        0.4990     2.5720     0.8610 H     1 <1>   0.1500 
 21 H        1.3700     2.6030    -1.4570 H     1 <1>   0.1500 
 22 H        3.5090     1.5040    -1.9710 H     1 <1>   0.1500 
 23 H        5.3880     2.8570    -0.3520 H     1 <1>   0.0800 
 24 H        6.4760     2.7850    -1.7110 H     1 <1>   0.0800 
 25 H        7.7250     0.5380    -2.1620 H     1 <1>   0.0800 
 26 H        7.4070    -0.8010    -1.0980 H     1 <1>   0.0800 
 27 H        7.2100     2.6180     1.2190 H     1 <1>   0.0800 
 28 H        7.5350     3.9570     0.1640 H     1 <1>   0.0800 
 29 H        9.5700     0.2690    -0.5690 H     1 <1>   0.0800 
 30 H        8.4630     0.3450     0.7670 H     1 <1>   0.0800 
 31 H        9.0330     2.5780    -1.1900 H     1 <1>   0.0800 
 32 H       11.8410     3.3900     0.8350 H     1 <1>   0.3700 
 33 H       11.2840     3.1720    -0.7950 H     1 <1>   0.3700 
@<TRIPOS>BOND
  1   1   2  1   
  2   2   3  ar  
  3   2   4  ar  
  4   3   5  ar  
  5   3  19  1   
  6   4   6  ar  
  7   4  20  1   
  8   5   7  1   
  9   5   8  ar  
 10   6   8  ar  
 11   6  21  1   
 12   7   9  2   
 13   7  10  am  
 14   8  22  1   
 15  10  11  1   
 16  10  12  1   
 17  11  13  1   
 18  11  23  1   
 19  11  24  1   
 20  12  14  1   
 21  12  25  1   
 22  12  26  1   
 23  13  15  1   
 24  13  27  1   
 25  13  28  1   
 26  14  15  1   
 27  14  29  1   
 28  14  30  1   
 29  15  16  1   
 30  15  31  1   
 31  16  17  2   
 32  16  18  am  
 33  18  32  1   
 34  18  33  1   
@<TRIPOS>SUBSTRUCTURE
  1 ****  10 GROUP 4 **** **** 0

# MOE 2024.06 (io_trps.svl 2023.06)
