@<TRIPOS>MOLECULE
NONAME
44 45 1 0 0 
SMALL
USER_CHARGES


@<TRIPOS>ATOM
  1 CL       0.6580     1.5020    -0.4850 Cl    1 <1>  -0.1770 
  2 C       -0.1630     2.7240     0.4570 C.ar  1 <1>   0.1770 
  3 C       -1.3630     3.2650     0.0170 C.ar  1 <1>  -0.1440 
  4 C        0.4250     3.1300     1.6450 C.ar  1 <1>  -0.1500 
  5 C       -1.9460     4.2330     0.8210 C.ar  1 <1>   0.1900 
  6 C       -2.0210     2.8220    -1.2790 C.3   1 <1>   0.2140 
  7 C       -0.1840     4.0990     2.4260 C.ar  1 <1>  -0.1500 
  8 F       -3.0750     4.7800     0.4540 F     1 <1>  -0.1900 
  9 C       -1.3820     4.6580     2.0110 C.ar  1 <1>  -0.1500 
 10 S       -3.1640     1.4670    -0.8780 S.3   1 <1>  -0.4600 
 11 C       -4.2680     1.3950    -2.3350 C.3   1 <1>   0.1310 
 12 C       -4.8690     2.7620    -2.6550 C.2   1 <1>   0.5690 
 13 O       -4.5410     3.2670    -3.7030 O.2   1 <1>  -0.5700 
 14 N       -5.7240     3.4000    -1.7900 N.am  1 <1>  -0.6600 
 15 C       -6.2140     4.7820    -2.1060 C.3   1 <1>   0.1400 
 16 C       -6.1190     2.8520    -0.4500 C.3   1 <1>   0.1400 
 17 C       -6.5520     5.5900    -0.8440 C.3   1 <1>   0.1400 
 18 C       -7.4820     3.3840     0.0220 C.3   1 <1>   0.1400 
 19 N       -7.5460     4.8760     0.0130 N.am  1 <1>  -0.6600 
 20 C       -8.4970     5.5620     0.7170 C.2   1 <1>   0.7800 
 21 O       -8.5600     6.7760     0.7250 O.2   1 <1>  -0.5700 
 22 O       -9.3820     4.8460     1.4130 O.3   1 <1>  -0.4300 
 23 C      -10.3950     5.4810     2.1580 C.3   1 <1>   0.1200 
 24 C      -11.2380     4.4000     2.8270 C.3   1 <1>  -0.2400 
 25 H        1.3550     2.6860     1.9520 H     1 <1>   0.1500 
 26 H       -1.3130     2.4490    -1.9980 H     1 <1>   0.0800 
 27 H       -2.5870     3.6230    -1.7190 H     1 <1>   0.0800 
 28 H        0.2700     4.4150     3.3500 H     1 <1>   0.1500 
 29 H       -1.8750     5.4110     2.5990 H     1 <1>   0.1500 
 30 H       -5.0370     0.6780    -2.1240 H     1 <1>   0.0800 
 31 H       -3.6730     1.0510    -3.1610 H     1 <1>   0.0800 
 32 H       -7.0920     4.7090    -2.7230 H     1 <1>   0.0800 
 33 H       -5.4630     5.3140    -2.6650 H     1 <1>   0.0800 
 34 H       -5.3700     3.1260     0.2740 H     1 <1>   0.0800 
 35 H       -6.1640     1.7780    -0.4870 H     1 <1>   0.0800 
 36 H       -6.9420     6.5500    -1.1360 H     1 <1>   0.0800 
 37 H       -5.6530     5.7570    -0.2770 H     1 <1>   0.0800 
 38 H       -7.6720     3.0220     1.0180 H     1 <1>   0.0800 
 39 H       -8.2530     2.9990    -0.6230 H     1 <1>   0.0800 
 40 H      -10.9910     6.0760     1.4860 H     1 <1>   0.0800 
 41 H       -9.9300     6.1190     2.8910 H     1 <1>   0.0800 
 42 H      -11.6860     3.7660     2.0830 H     1 <1>   0.0800 
 43 H      -12.0220     4.8570     3.4030 H     1 <1>   0.0800 
 44 H      -10.6280     3.8090     3.4860 H     1 <1>   0.0800 
@<TRIPOS>BOND
  1   1   2  1   
  2   2   3  ar  
  3   2   4  ar  
  4   3   5  ar  
  5   3   6  1   
  6   4   7  ar  
  7   4  25  1   
  8   5   8  1   
  9   5   9  ar  
 10   6  10  1   
 11   6  26  1   
 12   6  27  1   
 13   7   9  ar  
 14   7  28  1   
 15   9  29  1   
 16  10  11  1   
 17  11  12  1   
 18  11  30  1   
 19  11  31  1   
 20  12  13  2   
 21  12  14  am  
 22  14  15  1   
 23  14  16  1   
 24  15  17  1   
 25  15  32  1   
 26  15  33  1   
 27  16  18  1   
 28  16  34  1   
 29  16  35  1   
 30  17  19  1   
 31  17  36  1   
 32  17  37  1   
 33  18  19  1   
 34  18  38  1   
 35  18  39  1   
 36  19  20  am  
 37  20  21  2   
 38  20  22  1   
 39  22  23  1   
 40  23  24  1   
 41  23  40  1   
 42  23  41  1   
 43  24  42  1   
 44  24  43  1   
 45  24  44  1   
@<TRIPOS>SUBSTRUCTURE
  1 ****  16 GROUP 4 **** **** 0

# MOE 2024.06 (io_trps.svl 2023.06)
