@<TRIPOS>MOLECULE
NONAME
38 39 1 0 0 
SMALL
USER_CHARGES


@<TRIPOS>ATOM
  1 O       -0.0720    -1.1130    -0.0020 O.3   1 <1>  -0.3630 
  2 C       -1.3990    -1.2200     0.2800 C.ar  1 <1>   0.0830 
  3 C        0.7900    -0.3320     0.7820 C.3   1 <1>   0.1200 
  4 C       -2.1730    -2.0210    -0.5550 C.ar  1 <1>  -0.1440 
  5 C       -1.9980    -0.5660     1.3560 C.ar  1 <1>  -0.1500 
  6 C        2.1850    -0.4490     0.1690 C.3   1 <1>  -0.1600 
  7 C       -3.5300    -2.1600    -0.3080 C.ar  1 <1>  -0.1500 
  8 C       -1.5460    -2.7470    -1.7370 C.3   1 <1>  -0.0970 
  9 C       -3.3530    -0.7120     1.5920 C.ar  1 <1>  -0.1500 
 10 C        3.1940     0.3840     0.9540 C.3   1 <1>   0.3430 
 11 C       -4.1190    -1.5090     0.7610 C.ar  1 <1>  -0.1500 
 12 N        4.5600     0.1990     0.3910 N.4   1 <1>  -0.9590 
 13 C        5.6200     0.7980     1.2370 C.3   1 <1>   0.3430 
 14 C        4.7470     0.7820    -0.9630 C.3   1 <1>   0.3430 
 15 C        6.8220     0.9130     0.3100 C.3   1 <1>  -0.1600 
 16 C        6.2560     0.9170    -1.1130 C.3   1 <1>  -0.1600 
 17 H        0.7700    -0.7170     1.7880 H     1 <1>   0.0800 
 18 H        0.4360     0.6850     0.7600 H     1 <1>   0.0800 
 19 H       -1.4360     0.0580     2.0200 H     1 <1>   0.1500 
 20 H        2.1310    -0.1050    -0.8490 H     1 <1>   0.0800 
 21 H        2.4760    -1.4840     0.1850 H     1 <1>   0.0800 
 22 H       -4.1370    -2.7760    -0.9470 H     1 <1>   0.1500 
 23 H       -0.7750    -3.4100    -1.3890 H     1 <1>   0.0800 
 24 H       -1.1110    -2.0340    -2.4130 H     1 <1>   0.0800 
 25 H       -2.2780    -3.3250    -2.2720 H     1 <1>   0.0800 
 26 H       -3.8140    -0.2070     2.4230 H     1 <1>   0.1500 
 27 H        3.1850     0.0650     1.9850 H     1 <1>   0.0800 
 28 H        2.9190     1.4260     0.9200 H     1 <1>   0.0800 
 29 H       -5.1740    -1.6230     0.9450 H     1 <1>   0.1500 
 30 H        4.7580    -0.8090     0.3200 H     1 <1>   0.4500 
 31 H        5.8380     0.1890     2.1000 H     1 <1>   0.0800 
 32 H        5.3200     1.7830     1.5580 H     1 <1>   0.0800 
 33 H        4.2920     1.7580    -1.0060 H     1 <1>   0.0800 
 34 H        4.3240     0.1540    -1.7310 H     1 <1>   0.0800 
 35 H        7.4750     0.0680     0.4520 H     1 <1>   0.0800 
 36 H        7.3770     1.8110     0.5230 H     1 <1>   0.0800 
 37 H        6.5000     1.8250    -1.6380 H     1 <1>   0.0800 
 38 H        6.6440     0.0840    -1.6750 H     1 <1>   0.0800 
@<TRIPOS>BOND
  1   1   2  1   
  2   1   3  1   
  3   2   4  ar  
  4   2   5  ar  
  5   3   6  1   
  6   3  17  1   
  7   3  18  1   
  8   4   7  ar  
  9   4   8  1   
 10   5   9  ar  
 11   5  19  1   
 12   6  10  1   
 13   6  20  1   
 14   6  21  1   
 15   7  11  ar  
 16   7  22  1   
 17   8  23  1   
 18   8  24  1   
 19   8  25  1   
 20   9  11  ar  
 21   9  26  1   
 22  10  12  1   
 23  10  27  1   
 24  10  28  1   
 25  11  29  1   
 26  12  13  1   
 27  12  14  1   
 28  12  30  1   
 29  13  15  1   
 30  13  31  1   
 31  13  32  1   
 32  14  16  1   
 33  14  33  1   
 34  14  34  1   
 35  15  16  1   
 36  15  35  1   
 37  15  36  1   
 38  16  37  1   
 39  16  38  1   
@<TRIPOS>SUBSTRUCTURE
  1 ****   3 GROUP 4 **** **** 0

# MOE 2024.06 (io_trps.svl 2023.06)
