@<TRIPOS>MOLECULE
NONAME
45 46 1 0 0 
SMALL
USER_CHARGES


@<TRIPOS>ATOM
  1 O        8.1480    -3.1140    -2.5240 O.3   1 <1>  -0.3370 
  2 N        9.3000    -3.5300    -2.0360 N.2   1 <1>  -0.5130 
  3 C        9.3420    -4.1070    -0.9100 C.2   1 <1>   0.3280 
  4 C       10.6120    -4.6850    -0.3010 C.3   1 <1>  -0.0190 
  5 C        8.1420    -4.4150    -0.0380 C.3   1 <1>  -0.0990 
  6 C       10.4700    -6.2320    -0.3790 C.3   1 <1>   0.5030 
  7 C       11.8680    -4.0340    -0.9320 C.3   1 <1>   0.3440 
  8 C        7.9040    -5.9250    -0.0750 C.3   1 <1>   0.5030 
  9 N        9.1550    -6.6770     0.1570 N.4   1 <1>  -0.9060 
 10 C       10.6170    -6.7760    -1.8050 C.3   1 <1>  -0.2400 
 11 C       11.4600    -6.9850     0.5180 C.3   1 <1>  -0.2400 
 12 O       11.8830    -2.7070    -0.5490 O.3   1 <1>  -0.6800 
 13 C       13.2080    -4.6050    -0.4910 C.ar  1 <1>  -0.1430 
 14 C        6.9600    -6.3270     1.0570 C.3   1 <1>  -0.2400 
 15 C        7.2860    -6.3760    -1.4010 C.3   1 <1>  -0.2400 
 16 C       13.6370    -4.4940     0.8260 C.ar  1 <1>  -0.1500 
 17 C       14.0260    -5.2440    -1.4140 C.ar  1 <1>  -0.1500 
 18 C       14.8480    -5.0350     1.2190 C.ar  1 <1>  -0.1500 
 19 C       15.2370    -5.7850    -1.0210 C.ar  1 <1>  -0.1500 
 20 C       15.6480    -5.6840     0.2960 C.ar  1 <1>  -0.1500 
 21 H        8.2230    -2.5510    -3.3250 H     1 <1>   0.4000 
 22 H       10.6410    -4.4180     0.7390 H     1 <1>   0.0800 
 23 H        8.3330    -4.0780     0.9640 H     1 <1>   0.0800 
 24 H        7.2600    -3.9000    -0.3730 H     1 <1>   0.0800 
 25 H       11.8060    -4.0580    -2.0080 H     1 <1>   0.0800 
 26 H        8.9990    -7.6320    -0.1730 H     1 <1>   0.4500 
 27 H        9.2650    -6.7490     1.1710 H     1 <1>   0.4500 
 28 H       10.0140    -6.2360    -2.5090 H     1 <1>   0.0800 
 29 H       10.3700    -7.8210    -1.8550 H     1 <1>   0.0800 
 30 H       11.6360    -6.6740    -2.1340 H     1 <1>   0.0800 
 31 H       11.2030    -8.0270     0.6000 H     1 <1>   0.0800 
 32 H       11.5000    -6.5550     1.5040 H     1 <1>   0.0800 
 33 H       12.4540    -6.9590     0.1130 H     1 <1>   0.0800 
 34 H       12.7230    -2.3000    -0.8410 H     1 <1>   0.4000 
 35 H        7.3600    -6.0520     2.0170 H     1 <1>   0.0800 
 36 H        6.0170    -5.8200     0.9420 H     1 <1>   0.0800 
 37 H        6.7640    -7.3840     1.0450 H     1 <1>   0.0800 
 38 H        6.3050    -5.9450    -1.5060 H     1 <1>   0.0800 
 39 H        7.1780    -7.4450    -1.4440 H     1 <1>   0.0800 
 40 H        7.8550    -6.0430    -2.2480 H     1 <1>   0.0800 
 41 H       13.0330    -3.9790     1.5540 H     1 <1>   0.1500 
 42 H       13.7320    -5.3260    -2.4460 H     1 <1>   0.1500 
 43 H       15.1740    -4.9460     2.2410 H     1 <1>   0.1500 
 44 H       15.8660    -6.2820    -1.7410 H     1 <1>   0.1500 
 45 H       16.5920    -6.1040     0.6000 H     1 <1>   0.1500 
@<TRIPOS>BOND
  1   1   2  1   
  2   1  21  1   
  3   2   3  2   
  4   3   4  1   
  5   3   5  1   
  6   4   6  1   
  7   4   7  1   
  8   4  22  1   
  9   5   8  1   
 10   5  23  1   
 11   5  24  1   
 12   6   9  1   
 13   6  10  1   
 14   6  11  1   
 15   7  12  1   
 16   7  13  1   
 17   7  25  1   
 18   8   9  1   
 19   8  14  1   
 20   8  15  1   
 21   9  26  1   
 22   9  27  1   
 23  10  28  1   
 24  10  29  1   
 25  10  30  1   
 26  11  31  1   
 27  11  32  1   
 28  11  33  1   
 29  12  34  1   
 30  13  16  ar  
 31  13  17  ar  
 32  14  35  1   
 33  14  36  1   
 34  14  37  1   
 35  15  38  1   
 36  15  39  1   
 37  15  40  1   
 38  16  18  ar  
 39  16  41  1   
 40  17  19  ar  
 41  17  42  1   
 42  18  20  ar  
 43  18  43  1   
 44  19  20  ar  
 45  19  44  1   
 46  20  45  1   
@<TRIPOS>SUBSTRUCTURE
  1 ****   4 GROUP 4 **** **** 0

# MOE 2024.06 (io_trps.svl 2023.06)
