@<TRIPOS>MOLECULE
NONAME
43 44 1 0 0 
SMALL
USER_CHARGES


@<TRIPOS>ATOM
  1 F       -0.7950    -0.1560    -0.2570 F     1 <1>  -0.3400 
  2 C       -1.5930    -1.1430     0.1470 C.3   1 <1>   1.0200 
  3 F       -2.0010    -0.8110     1.3680 F     1 <1>  -0.3400 
  4 F       -2.6720    -1.0510    -0.6290 F     1 <1>  -0.3400 
  5 C       -0.9060    -2.5550     0.0470 C.3   1 <1>   0.6410 
  6 O       -1.6070    -3.6390     0.6390 O.3   1 <1>  -0.5600 
  7 N       -0.5290    -3.0250    -1.3110 N.am  1 <1>  -0.7300 
  8 C        0.4790    -2.4160     0.6840 C.2   1 <1>   0.5690 
  9 C       -2.8440    -4.0170     0.1110 C.3   1 <1>   0.1200 
 10 C        0.8090    -3.0660    -1.4210 C.2   1 <1>   0.6900 
 11 O        0.6840    -2.0480     1.8190 O.2   1 <1>  -0.5700 
 12 N        1.4430    -2.7490    -0.2400 N.am  1 <1>  -0.2370 
 13 C       -3.9230    -3.7320     1.1560 C.3   1 <1>  -0.1600 
 14 O        1.3480    -3.3140    -2.4750 O.2   1 <1>  -0.5700 
 15 C        2.8410    -2.7480    -0.0320 C.ar  1 <1>   0.1170 
 16 C       -5.3050    -4.1680     0.6570 C.3   1 <1>  -0.2400 
 17 C        3.6300    -3.7980    -0.4890 C.ar  1 <1>  -0.1500 
 18 C        3.4670    -1.7010     0.6350 C.ar  1 <1>  -0.1500 
 19 C        4.9980    -3.8020    -0.2840 C.ar  1 <1>  -0.1500 
 20 C        4.8350    -1.7040     0.8410 C.ar  1 <1>  -0.1500 
 21 C        5.6160    -2.7550     0.3840 C.ar  1 <1>  -0.1440 
 22 C        7.1250    -2.7430     0.6220 C.3   1 <1>   0.0630 
 23 C        7.8900    -2.7370    -0.7050 C.3   1 <1>  -0.2400 
 24 C        7.5500    -3.9330     1.4890 C.3   1 <1>  -0.2400 
 25 H       -1.1540    -3.0250    -2.1150 H     1 <1>   0.3700 
 26 H       -2.7970    -5.0750    -0.0870 H     1 <1>   0.0800 
 27 H       -3.0490    -3.5040    -0.8120 H     1 <1>   0.0800 
 28 H       -3.9520    -2.6800     1.3800 H     1 <1>   0.0800 
 29 H       -3.6900    -4.2680     2.0600 H     1 <1>   0.0800 
 30 H       -5.5720    -3.6310    -0.2370 H     1 <1>   0.0800 
 31 H       -6.0460    -3.9650     1.4090 H     1 <1>   0.0800 
 32 H       -5.3150    -5.2230     0.4460 H     1 <1>   0.0800 
 33 H        3.1760    -4.6200    -1.0120 H     1 <1>   0.1500 
 34 H        2.8850    -0.8740     1.0020 H     1 <1>   0.1500 
 35 H        5.5810    -4.6280    -0.6500 H     1 <1>   0.1500 
 36 H        5.2880    -0.8790     1.3630 H     1 <1>   0.1500 
 37 H        7.3840    -1.8420     1.1530 H     1 <1>   0.0800 
 38 H        7.7060    -3.6400    -1.2580 H     1 <1>   0.0800 
 39 H        8.9460    -2.6520    -0.5270 H     1 <1>   0.0800 
 40 H        7.5750    -1.9000    -1.3030 H     1 <1>   0.0800 
 41 H        7.3590    -4.8620     0.9840 H     1 <1>   0.0800 
 42 H        6.9980    -3.9260     2.4130 H     1 <1>   0.0800 
 43 H        8.5990    -3.8730     1.7170 H     1 <1>   0.0800 
@<TRIPOS>BOND
  1   1   2  1   
  2   2   3  1   
  3   2   4  1   
  4   2   5  1   
  5   5   6  1   
  6   5   7  1   
  7   5   8  1   
  8   6   9  1   
  9   7  10  am  
 10   7  25  1   
 11   8  11  2   
 12   8  12  am  
 13   9  13  1   
 14   9  26  1   
 15   9  27  1   
 16  10  12  am  
 17  10  14  2   
 18  12  15  1   
 19  13  16  1   
 20  13  28  1   
 21  13  29  1   
 22  15  17  ar  
 23  15  18  ar  
 24  16  30  1   
 25  16  31  1   
 26  16  32  1   
 27  17  19  ar  
 28  17  33  1   
 29  18  20  ar  
 30  18  34  1   
 31  19  21  ar  
 32  19  35  1   
 33  20  21  ar  
 34  20  36  1   
 35  21  22  1   
 36  22  23  1   
 37  22  24  1   
 38  22  37  1   
 39  23  38  1   
 40  23  39  1   
 41  23  40  1   
 42  24  41  1   
 43  24  42  1   
 44  24  43  1   
@<TRIPOS>SUBSTRUCTURE
  1 ****  12 GROUP 4 **** **** 0

# MOE 2024.06 (io_trps.svl 2023.06)
