@<TRIPOS>MOLECULE
NONAME
51 53 1 0 0 
SMALL
USER_CHARGES


@<TRIPOS>ATOM
  1 O       -0.4890    -1.7280     2.0220 O.2   1 <1>  -0.5700 
  2 C        0.1050    -1.6530     0.9720 C.2   1 <1>   0.5690 
  3 N       -0.4810    -1.2720    -0.1940 N.am  1 <1>  -0.7300 
  4 C        1.5960    -1.9990     0.9300 C.3   1 <1>   0.1710 
  5 C       -1.8710    -0.8430    -0.4460 C.3   1 <1>   0.2200 
  6 N        2.3530    -1.3180    -0.1630 N.3   1 <1>  -0.8100 
  7 C       -2.1850     0.4040     0.3950 C.3   1 <1>  -0.1600 
  8 C       -2.8130    -2.0350    -0.2300 C.3   1 <1>  -0.1600 
  9 C        3.6970    -1.9220    -0.3100 C.3   1 <1>   0.1100 
 10 C        2.5150     0.1250     0.1420 C.3   1 <1>   0.1100 
 11 C       -3.4280     1.1540    -0.1110 C.3   1 <1>  -0.1600 
 12 C       -4.3020    -1.7300    -0.4660 C.3   1 <1>  -0.1600 
 13 C        4.5360    -1.2350    -1.4080 C.3   1 <1>   0.2090 
 14 C        3.2950     0.8700    -0.9590 C.3   1 <1>   0.2090 
 15 C       -4.7640     0.6480     0.4560 C.3   1 <1>  -0.1600 
 16 C       -4.9050    -0.8690     0.6540 C.3   1 <1>  -0.1600 
 17 N        4.6260     0.2440    -1.2030 N.pl3 1 <1>  -0.8380 
 18 C        5.7000     0.7570    -0.5010 C.ar  1 <1>   0.4100 
 19 N        6.1650     0.0460     0.5210 N.ar  1 <1>  -0.6200 
 20 C        6.2320     1.9870    -0.8780 C.ar  1 <1>  -0.1500 
 21 C        7.1810     0.5770     1.1790 C.ar  1 <1>   0.1600 
 22 C        7.2890     2.5290    -0.1850 C.ar  1 <1>  -0.1500 
 23 C        7.7720     1.7920     0.8780 C.ar  1 <1>  -0.1500 
 24 H        0.1650    -1.1990    -0.9860 H     1 <1>   0.3700 
 25 H        1.6650    -3.0630     0.7950 H     1 <1>   0.0800 
 26 H        2.0340    -1.7600     1.8830 H     1 <1>   0.0800 
 27 H       -1.9300    -0.5640    -1.4840 H     1 <1>   0.0800 
 28 H       -1.3470     1.0730     0.3170 H     1 <1>   0.0800 
 29 H       -2.3000     0.1420     1.4330 H     1 <1>   0.0800 
 30 H       -2.6900    -2.4140     0.7690 H     1 <1>   0.0800 
 31 H       -2.5200    -2.8140    -0.9100 H     1 <1>   0.0800 
 32 H        3.5960    -2.9640    -0.5580 H     1 <1>   0.0800 
 33 H        4.2330    -1.8530     0.6220 H     1 <1>   0.0800 
 34 H        3.0440     0.2450     1.0730 H     1 <1>   0.0800 
 35 H        1.5480     0.5860     0.2480 H     1 <1>   0.0800 
 36 H       -3.4590     1.1120    -1.1860 H     1 <1>   0.0800 
 37 H       -3.3340     2.1930     0.1550 H     1 <1>   0.0800 
 38 H       -4.8260    -2.6700    -0.4750 H     1 <1>   0.0800 
 39 H       -4.4550    -1.2690    -1.4270 H     1 <1>   0.0800 
 40 H        4.0870    -1.4290    -2.3660 H     1 <1>   0.0800 
 41 H        5.5250    -1.6580    -1.4170 H     1 <1>   0.0800 
 42 H        3.4250     1.8970    -0.6660 H     1 <1>   0.0800 
 43 H        2.7250     0.8530    -1.8710 H     1 <1>   0.0800 
 44 H       -5.5500     0.9860    -0.1980 H     1 <1>   0.0800 
 45 H       -4.9310     1.1180     1.4100 H     1 <1>   0.0800 
 46 H       -4.4630    -1.1480     1.5950 H     1 <1>   0.0800 
 47 H       -5.9550    -1.0930     0.7310 H     1 <1>   0.0800 
 48 H        5.8050     2.4950    -1.7200 H     1 <1>   0.1500 
 49 H        7.5670     0.0110     2.0090 H     1 <1>   0.1500 
 50 H        7.7200     3.4770    -0.4560 H     1 <1>   0.1500 
 51 H        8.5960     2.1540     1.4640 H     1 <1>   0.1500 
@<TRIPOS>BOND
  1   1   2  2   
  2   2   3  am  
  3   2   4  1   
  4   3   5  1   
  5   3  24  1   
  6   4   6  1   
  7   4  25  1   
  8   4  26  1   
  9   5   7  1   
 10   5   8  1   
 11   5  27  1   
 12   6   9  1   
 13   6  10  1   
 14   7  11  1   
 15   7  28  1   
 16   7  29  1   
 17   8  12  1   
 18   8  30  1   
 19   8  31  1   
 20   9  13  1   
 21   9  32  1   
 22   9  33  1   
 23  10  14  1   
 24  10  34  1   
 25  10  35  1   
 26  11  15  1   
 27  11  36  1   
 28  11  37  1   
 29  12  16  1   
 30  12  38  1   
 31  12  39  1   
 32  13  17  1   
 33  13  40  1   
 34  13  41  1   
 35  14  17  1   
 36  14  42  1   
 37  14  43  1   
 38  15  16  1   
 39  15  44  1   
 40  15  45  1   
 41  16  46  1   
 42  16  47  1   
 43  17  18  1   
 44  18  19  ar  
 45  18  20  ar  
 46  19  21  ar  
 47  20  22  ar  
 48  20  48  1   
 49  21  23  ar  
 50  21  49  1   
 51  22  23  ar  
 52  22  50  1   
 53  23  51  1   
@<TRIPOS>SUBSTRUCTURE
  1 ****  10 GROUP 4 **** **** 0

# MOE 2024.06 (io_trps.svl 2023.06)
