@<TRIPOS>MOLECULE
NONAME
38 39 1 0 0 
SMALL
USER_CHARGES


@<TRIPOS>ATOM
  1 O       -0.3260    -0.4000     0.6780 O.3   1 <1>  -0.3630 
  2 C       -1.5080    -0.9770     0.3110 C.ar  1 <1>   0.0830 
  3 C        0.3200    -0.6740     1.9000 C.3   1 <1>   0.0400 
  4 C       -2.2810    -1.8840     1.0570 C.ar  1 <1>   0.0830 
  5 C       -1.9600    -0.6000    -0.9430 C.ar  1 <1>  -0.1500 
  6 O       -1.9350    -2.3270     2.2850 O.3   1 <1>  -0.5330 
  7 C       -3.4690    -2.3730     0.5350 C.ar  1 <1>  -0.1500 
  8 C       -3.1450    -1.0940    -1.4590 C.ar  1 <1>  -0.1500 
  9 C       -3.9110    -1.9810    -0.7190 C.ar  1 <1>  -0.1430 
 10 C       -5.2240    -2.5150    -1.2710 C.3   1 <1>   0.2530 
 11 N       -6.3640    -2.0200    -0.4720 N.3   1 <1>  -0.8100 
 12 C       -6.4340    -0.5330    -0.4630 C.3   1 <1>   0.1100 
 13 C       -7.6450    -2.5980    -0.9410 C.3   1 <1>   0.1100 
 14 C       -7.6680     0.0060     0.3010 C.3   1 <1>   0.3430 
 15 C       -8.8530    -2.1210    -0.0940 C.3   1 <1>   0.3430 
 16 N       -8.4380    -1.1120     0.9380 N.4   1 <1>  -0.9590 
 17 C       -9.5600    -0.6460     1.8010 C.3   1 <1>   0.2630 
 18 H        1.2310    -0.1040     1.9330 H     1 <1>   0.0800 
 19 H        0.5430    -1.7250     1.9470 H     1 <1>   0.0800 
 20 H       -0.3250    -0.3810     2.7080 H     1 <1>   0.0800 
 21 H       -1.3680     0.0890    -1.5190 H     1 <1>   0.1500 
 22 H       -2.5450    -3.0030     2.6290 H     1 <1>   0.4500 
 23 H       -4.0660    -3.0610     1.1040 H     1 <1>   0.1500 
 24 H       -3.4610    -0.7790    -2.4380 H     1 <1>   0.1500 
 25 H       -5.2000    -3.5910    -1.2350 H     1 <1>   0.0800 
 26 H       -5.3390    -2.2190    -2.3010 H     1 <1>   0.0800 
 27 H       -6.4520    -0.1580    -1.4720 H     1 <1>   0.0800 
 28 H       -5.5500    -0.1350     0.0090 H     1 <1>   0.0800 
 29 H       -7.5930    -3.6720    -0.8920 H     1 <1>   0.0800 
 30 H       -7.8110    -2.3290    -1.9710 H     1 <1>   0.0800 
 31 H       -8.3010     0.5430    -0.3860 H     1 <1>   0.0800 
 32 H       -7.3340     0.7010     1.0530 H     1 <1>   0.0800 
 33 H       -9.2960    -2.9750     0.3900 H     1 <1>   0.0800 
 34 H       -9.5960    -1.6950    -0.7490 H     1 <1>   0.0800 
 35 H       -7.7230    -1.6090     1.4970 H     1 <1>   0.4500 
 36 H      -10.2970    -0.1260     1.2100 H     1 <1>   0.0800 
 37 H       -9.1920     0.0240     2.5620 H     1 <1>   0.0800 
 38 H      -10.0340    -1.4850     2.2840 H     1 <1>   0.0800 
@<TRIPOS>BOND
  1   1   2  1   
  2   1   3  1   
  3   2   4  ar  
  4   2   5  ar  
  5   3  18  1   
  6   3  19  1   
  7   3  20  1   
  8   4   6  1   
  9   4   7  ar  
 10   5   8  ar  
 11   5  21  1   
 12   6  22  1   
 13   7   9  ar  
 14   7  23  1   
 15   8   9  ar  
 16   8  24  1   
 17   9  10  1   
 18  10  11  1   
 19  10  25  1   
 20  10  26  1   
 21  11  12  1   
 22  11  13  1   
 23  12  14  1   
 24  12  27  1   
 25  12  28  1   
 26  13  15  1   
 27  13  29  1   
 28  13  30  1   
 29  14  16  1   
 30  14  31  1   
 31  14  32  1   
 32  15  16  1   
 33  15  33  1   
 34  15  34  1   
 35  16  17  1   
 36  16  35  1   
 37  17  36  1   
 38  17  37  1   
 39  17  38  1   
@<TRIPOS>SUBSTRUCTURE
  1 ****   9 GROUP 4 **** **** 0

# MOE 2024.06 (io_trps.svl 2023.06)
