@<TRIPOS>MOLECULE
NONAME
50 52 1 0 0 
SMALL
USER_CHARGES


@<TRIPOS>ATOM
  1 O        0.4520     1.5250     0.0970 O.co2 1 <1>  -0.9000 
  2 C       -0.3080     1.9800    -0.7760 C.2   1 <1>   0.9790 
  3 O        0.0760     1.9850    -1.9600 O.co2 1 <1>  -0.9000 
  4 C       -1.6260     2.4930    -0.4220 C.ar  1 <1>  -0.1790 
  5 C       -2.4930     3.0060    -1.3880 C.ar  1 <1>  -0.1500 
  6 C       -2.0830     2.4940     0.8960 C.ar  1 <1>  -0.1500 
  7 C       -3.7470     3.4800    -1.0560 C.ar  1 <1>  -0.1500 
  8 C       -3.3380     2.9680     1.2280 C.ar  1 <1>  -0.1500 
  9 C       -4.2090     3.4590     0.2580 C.ar  1 <1>   0.0860 
 10 C       -5.5370     3.9290     0.6050 C.2   1 <1>   0.5440 
 11 O       -5.6950     4.6180     1.5960 O.2   1 <1>  -0.5700 
 12 N       -6.6360     3.6090    -0.1670 N.am  1 <1>  -0.6600 
 13 C       -7.0810     2.2000    -0.3830 C.3   1 <1>   0.2200 
 14 C       -7.6280     4.6370    -0.5940 C.3   1 <1>   0.2200 
 15 C       -6.6730     1.2590     0.7610 C.3   1 <1>  -0.1600 
 16 C       -6.5890     1.6680    -1.7350 C.3   1 <1>  -0.1600 
 17 C       -6.9440     5.9310    -1.0650 C.3   1 <1>  -0.1600 
 18 C       -8.6520     4.9200     0.5150 C.3   1 <1>  -0.1600 
 19 C       -7.2130    -0.1580     0.5160 C.3   1 <1>  -0.1600 
 20 C       -7.1240     0.2500    -1.9900 C.3   1 <1>  -0.1600 
 21 C       -7.9830     6.9600    -1.5340 C.3   1 <1>  -0.1600 
 22 C       -9.6910     5.9540     0.0530 C.3   1 <1>  -0.1600 
 23 C       -6.7440    -0.6980    -0.8430 C.3   1 <1>  -0.1600 
 24 C       -9.0130     7.2440    -0.4310 C.3   1 <1>  -0.1600 
 25 H       -2.1590     3.0270    -2.4130 H     1 <1>   0.1500 
 26 H       -1.4280     2.1140     1.6640 H     1 <1>   0.1500 
 27 H       -4.3850     3.8710    -1.8270 H     1 <1>   0.1500 
 28 H       -3.6570     2.9590     2.2550 H     1 <1>   0.1500 
 29 H       -8.1580     2.1980    -0.4090 H     1 <1>   0.0800 
 30 H       -8.1640     4.2450    -1.4420 H     1 <1>   0.0800 
 31 H       -7.0590     1.6360     1.6910 H     1 <1>   0.0800 
 32 H       -5.6020     1.2000     0.8300 H     1 <1>   0.0800 
 33 H       -5.5160     1.6280    -1.7390 H     1 <1>   0.0800 
 34 H       -6.9130     2.3210    -2.5250 H     1 <1>   0.0800 
 35 H       -6.2700     5.7080    -1.8720 H     1 <1>   0.0800 
 36 H       -6.3800     6.3610    -0.2560 H     1 <1>   0.0800 
 37 H       -8.1450     5.3030     1.3830 H     1 <1>   0.0800 
 38 H       -9.1520     4.0110     0.7920 H     1 <1>   0.0800 
 39 H       -8.2900    -0.1420     0.5440 H     1 <1>   0.0800 
 40 H       -6.8720    -0.8120     1.3000 H     1 <1>   0.0800 
 41 H       -6.7190    -0.1250    -2.9140 H     1 <1>   0.0800 
 42 H       -8.1950     0.2820    -2.0870 H     1 <1>   0.0800 
 43 H       -8.4880     6.5880    -2.4080 H     1 <1>   0.0800 
 44 H       -7.4840     7.8750    -1.8040 H     1 <1>   0.0800 
 45 H      -10.3560     6.1820     0.8690 H     1 <1>   0.0800 
 46 H      -10.2790     5.5370    -0.7460 H     1 <1>   0.0800 
 47 H       -7.1790    -1.6670    -1.0160 H     1 <1>   0.0800 
 48 H       -5.6730    -0.8180    -0.8240 H     1 <1>   0.0800 
 49 H       -9.7590     7.9270    -0.8000 H     1 <1>   0.0800 
 50 H       -8.5180     7.7150     0.4010 H     1 <1>   0.0800 
@<TRIPOS>BOND
  1   1   2  ar  
  2   2   3  ar  
  3   2   4  1   
  4   4   5  ar  
  5   4   6  ar  
  6   5   7  ar  
  7   5  25  1   
  8   6   8  ar  
  9   6  26  1   
 10   7   9  ar  
 11   7  27  1   
 12   8   9  ar  
 13   8  28  1   
 14   9  10  1   
 15  10  11  2   
 16  10  12  am  
 17  12  13  1   
 18  12  14  1   
 19  13  15  1   
 20  13  16  1   
 21  13  29  1   
 22  14  17  1   
 23  14  18  1   
 24  14  30  1   
 25  15  19  1   
 26  15  31  1   
 27  15  32  1   
 28  16  20  1   
 29  16  33  1   
 30  16  34  1   
 31  17  21  1   
 32  17  35  1   
 33  17  36  1   
 34  18  22  1   
 35  18  37  1   
 36  18  38  1   
 37  19  23  1   
 38  19  39  1   
 39  19  40  1   
 40  20  23  1   
 41  20  41  1   
 42  20  42  1   
 43  21  24  1   
 44  21  43  1   
 45  21  44  1   
 46  22  24  1   
 47  22  45  1   
 48  22  46  1   
 49  23  47  1   
 50  23  48  1   
 51  24  49  1   
 52  24  50  1   
@<TRIPOS>SUBSTRUCTURE
  1 ****  10 GROUP 4 **** **** 0

# MOE 2024.06 (io_trps.svl 2023.06)
