@<TRIPOS>MOLECULE
NONAME
49 51 1 0 0 
SMALL
USER_CHARGES


@<TRIPOS>ATOM
  1 O        0.8330    -1.5540    -1.4210 O.2   1 <1>  -0.5700 
  2 C        1.2080    -2.0110    -0.3570 C.2   1 <1>   0.5440 
  3 N        2.2940    -1.4310     0.2700 N.am  1 <1>  -0.6600 
  4 C        0.5140    -3.1540     0.2060 C.ar  1 <1>   0.0860 
  5 C        2.8180    -0.1160    -0.2150 C.3   1 <1>   0.1400 
  6 C        3.0630    -2.1130     1.3530 C.3   1 <1>   0.1400 
  7 C        0.3380    -4.3190    -0.5380 C.ar  1 <1>  -0.1500 
  8 C        0.0030    -3.1320     1.5040 C.ar  1 <1>  -0.1500 
  9 C        3.7930    -0.3030    -1.3840 C.3   1 <1>   0.1400 
 10 C        4.5830    -2.1270     1.1300 C.3   1 <1>  -0.1600 
 11 C       -0.3010    -5.4290    -0.0120 C.ar  1 <1>  -0.1440 
 12 C       -0.6360    -4.2340     2.0410 C.ar  1 <1>  -0.1500 
 13 N        5.0980    -0.8790    -0.9320 N.am  1 <1>  -0.6600 
 14 C        5.0180    -2.2410    -0.3360 C.3   1 <1>   0.1400 
 15 C       -0.7850    -5.3830     1.2840 C.ar  1 <1>  -0.1500 
 16 C       -0.4750    -6.6870    -0.8430 C.3   1 <1>  -0.0970 
 17 C        6.2270    -0.0910    -0.8370 C.2   1 <1>   0.5440 
 18 O        6.1150     1.1170    -0.9430 O.2   1 <1>  -0.5700 
 19 C        7.5360    -0.6600    -0.5810 C.ar  1 <1>   0.0860 
 20 C        8.2730    -0.2820     0.5390 C.ar  1 <1>  -0.1500 
 21 C        8.1010    -1.6010    -1.4420 C.ar  1 <1>  -0.1500 
 22 C        9.5160    -0.8300     0.8100 C.ar  1 <1>  -0.1430 
 23 C        9.3410    -2.1550    -1.1820 C.ar  1 <1>  -0.1500 
 24 C       10.0460    -1.7720    -0.0550 C.ar  1 <1>  -0.1500 
 25 C       10.2970    -0.4050     2.0400 C.3   1 <1>  -0.0970 
 26 H        3.3010     0.4190     0.5840 H     1 <1>   0.0800 
 27 H        1.9900     0.4840    -0.5540 H     1 <1>   0.0800 
 28 H        2.7380    -3.1360     1.4270 H     1 <1>   0.0800 
 29 H        2.8430    -1.6350     2.2920 H     1 <1>   0.0800 
 30 H        0.7130    -4.3390    -1.5470 H     1 <1>   0.1500 
 31 H        0.1090    -2.2370     2.0900 H     1 <1>   0.1500 
 32 H        3.9590     0.6520    -1.8490 H     1 <1>   0.0800 
 33 H        3.3500    -0.9450    -2.1250 H     1 <1>   0.0800 
 34 H        4.9770    -2.9700     1.6680 H     1 <1>   0.0800 
 35 H        5.0220    -1.2500     1.5720 H     1 <1>   0.0800 
 36 H       -1.0220    -4.2000     3.0450 H     1 <1>   0.1500 
 37 H        4.3260    -2.8490    -0.8940 H     1 <1>   0.0800 
 38 H        5.9800    -2.7190    -0.3810 H     1 <1>   0.0800 
 39 H       -1.2820    -6.2390     1.7070 H     1 <1>   0.1500 
 40 H       -0.3440    -6.4750    -1.8890 H     1 <1>   0.0800 
 41 H       -1.4620    -7.0910    -0.7010 H     1 <1>   0.0800 
 42 H        0.2480    -7.4240    -0.5450 H     1 <1>   0.0800 
 43 H        7.8520     0.4570     1.1990 H     1 <1>   0.1500 
 44 H        7.5560    -1.8930    -2.3220 H     1 <1>   0.1500 
 45 H        9.7600    -2.8820    -1.8560 H     1 <1>   0.1500 
 46 H       11.0100    -2.2070     0.1440 H     1 <1>   0.1500 
 47 H        9.9110     0.5160     2.4380 H     1 <1>   0.0800 
 48 H       11.3320    -0.2570     1.7890 H     1 <1>   0.0800 
 49 H       10.2280    -1.1650     2.7970 H     1 <1>   0.0800 
@<TRIPOS>BOND
  1   1   2  2   
  2   2   3  am  
  3   2   4  1   
  4   3   5  1   
  5   3   6  1   
  6   4   7  ar  
  7   4   8  ar  
  8   5   9  1   
  9   5  26  1   
 10   5  27  1   
 11   6  10  1   
 12   6  28  1   
 13   6  29  1   
 14   7  11  ar  
 15   7  30  1   
 16   8  12  ar  
 17   8  31  1   
 18   9  13  1   
 19   9  32  1   
 20   9  33  1   
 21  10  14  1   
 22  10  34  1   
 23  10  35  1   
 24  11  15  ar  
 25  11  16  1   
 26  12  15  ar  
 27  12  36  1   
 28  13  14  1   
 29  13  17  am  
 30  14  37  1   
 31  14  38  1   
 32  15  39  1   
 33  16  40  1   
 34  16  41  1   
 35  16  42  1   
 36  17  18  2   
 37  17  19  1   
 38  19  20  ar  
 39  19  21  ar  
 40  20  22  ar  
 41  20  43  1   
 42  21  23  ar  
 43  21  44  1   
 44  22  24  ar  
 45  22  25  1   
 46  23  24  ar  
 47  23  45  1   
 48  24  46  1   
 49  25  47  1   
 50  25  48  1   
 51  25  49  1   
@<TRIPOS>SUBSTRUCTURE
  1 ****  14 GROUP 4 **** **** 0

# MOE 2024.06 (io_trps.svl 2023.06)
