@<TRIPOS>MOLECULE
NONAME
33 33 1 0 0 
SMALL
USER_CHARGES


@<TRIPOS>ATOM
  1 O        3.6390     4.6320     0.5330 O.2   1 <1>  -0.5700 
  2 C        3.4330     3.5080     0.1210 C.2   1 <1>   0.8050 
  3 O        4.4760     2.7010    -0.1090 O.3   1 <1>  -0.4300 
  4 C        2.1170     2.9740    -0.1410 C.2   1 <1>   0.0550 
  5 C        5.8080     3.1240     0.1150 C.3   1 <1>   0.0400 
  6 O        1.0210     3.7020     0.0580 O.3   1 <1>  -0.2800 
  7 C        1.7270     1.7500    -0.5980 C.2   1 <1>  -0.1500 
  8 C       -0.0400     2.9960    -0.2510 C.2   1 <1>  -0.0400 
  9 C        0.3340     1.7640    -0.6700 C.2   1 <1>  -0.1500 
 10 C       -1.3860     3.6740    -0.0820 C.3   1 <1>   0.5230 
 11 N       -2.4740     2.7300    -0.4340 N.4   1 <1>  -0.9060 
 12 C       -3.8280     3.2750    -0.2530 C.3   1 <1>   0.4230 
 13 C       -4.8080     2.0940    -0.2670 C.3   1 <1>  -0.1600 
 14 C       -4.1080     4.2760    -1.3750 C.3   1 <1>  -0.2400 
 15 C       -6.2460     2.4940     0.0980 C.3   1 <1>  -0.2400 
 16 H        6.4700     2.3150    -0.1360 H     1 <1>   0.0800 
 17 H        5.9210     3.3860     1.1530 H     1 <1>   0.0800 
 18 H        6.0130     3.9780    -0.5080 H     1 <1>   0.0800 
 19 H        2.3640     0.9200    -0.8590 H     1 <1>   0.1500 
 20 H       -0.2570     0.9270    -1.0010 H     1 <1>   0.1500 
 21 H       -1.4200     4.5440    -0.7180 H     1 <1>   0.0800 
 22 H       -1.4890     3.9970     0.9410 H     1 <1>   0.0800 
 23 H       -2.3640     1.8960     0.1510 H     1 <1>   0.4500 
 24 H       -2.3530     2.4370    -1.4080 H     1 <1>   0.4500 
 25 H       -3.8960     3.7710     0.7030 H     1 <1>   0.0800 
 26 H       -4.4890     1.3600     0.4530 H     1 <1>   0.0800 
 27 H       -4.8180     1.6300    -1.2390 H     1 <1>   0.0800 
 28 H       -4.0790     3.7990    -2.3390 H     1 <1>   0.0800 
 29 H       -3.4100     5.0930    -1.3590 H     1 <1>   0.0800 
 30 H       -5.0870     4.7020    -1.2480 H     1 <1>   0.0800 
 31 H       -6.2770     2.9950     1.0510 H     1 <1>   0.0800 
 32 H       -6.8630     1.6140     0.1640 H     1 <1>   0.0800 
 33 H       -6.6770     3.1390    -0.6470 H     1 <1>   0.0800 
@<TRIPOS>BOND
  1   1   2  2   
  2   2   3  1   
  3   2   4  1   
  4   3   5  1   
  5   4   6  1   
  6   4   7  2   
  7   5  16  1   
  8   5  17  1   
  9   5  18  1   
 10   6   8  1   
 11   7   9  1   
 12   7  19  1   
 13   8   9  2   
 14   8  10  1   
 15   9  20  1   
 16  10  11  1   
 17  10  21  1   
 18  10  22  1   
 19  11  12  1   
 20  11  23  1   
 21  11  24  1   
 22  12  13  1   
 23  12  14  1   
 24  12  25  1   
 25  13  15  1   
 26  13  26  1   
 27  13  27  1   
 28  14  28  1   
 29  14  29  1   
 30  14  30  1   
 31  15  31  1   
 32  15  32  1   
 33  15  33  1   
@<TRIPOS>SUBSTRUCTURE
  1 ****   8 GROUP 4 **** **** 0

# MOE 2024.06 (io_trps.svl 2023.06)
