@<TRIPOS>MOLECULE
NONAME
29 29 1 0 0 
SMALL
USER_CHARGES


@<TRIPOS>ATOM
  1 CL      -1.5810    -1.4190    -1.1510 Cl    1 <1>  -0.1770 
  2 C       -2.4010     0.0800    -0.8000 C.ar  1 <1>   0.1770 
  3 C       -3.4150     0.0910     0.1370 C.ar  1 <1>  -0.1500 
  4 C       -2.0210     1.2310    -1.4650 C.ar  1 <1>  -0.1500 
  5 C       -4.0760     1.2780     0.4210 C.ar  1 <1>   0.1990 
  6 C       -2.6750     2.4190    -1.1840 C.ar  1 <1>  -0.1500 
  7 N       -5.0890     1.2890     1.3620 N.am  1 <1>  -0.7570 
  8 C       -3.6940     2.4380    -0.2460 C.ar  1 <1>  -0.1500 
  9 S       -6.7360     1.5950     0.9960 S.o2  1 <1>   1.3330 
 10 O       -7.3630     1.6910     2.2890 O.2   1 <1>  -0.6500 
 11 O       -6.7610     2.7060     0.0790 O.2   1 <1>  -0.6500 
 12 C       -7.2430     0.0770     0.1840 C.3   1 <1>  -0.0550 
 13 C       -8.7250     0.0640    -0.2270 C.3   1 <1>  -0.1600 
 14 C       -9.1000    -1.2540    -0.9150 C.3   1 <1>  -0.1600 
 15 C      -10.5760    -1.2580    -1.3210 C.3   1 <1>  -0.2400 
 16 H       -3.6890    -0.8150     0.6440 H     1 <1>   0.1500 
 17 H       -1.2270     1.1940    -2.1910 H     1 <1>   0.1500 
 18 H       -2.3940     3.3250    -1.6930 H     1 <1>   0.1500 
 19 H       -4.8800     1.7660     2.2360 H     1 <1>   0.4200 
 20 H       -4.2050     3.3610    -0.0330 H     1 <1>   0.1500 
 21 H       -7.0600    -0.7470     0.8450 H     1 <1>   0.0800 
 22 H       -6.6400    -0.0650    -0.6920 H     1 <1>   0.0800 
 23 H       -8.9130     0.8880    -0.8950 H     1 <1>   0.0800 
 24 H       -9.3360     0.2010     0.6500 H     1 <1>   0.0800 
 25 H       -8.9150    -2.0790    -0.2480 H     1 <1>   0.0800 
 26 H       -8.4920    -1.3910    -1.7950 H     1 <1>   0.0800 
 27 H      -11.2050    -1.1450    -0.4550 H     1 <1>   0.0800 
 28 H      -10.8230    -2.1880    -1.8020 H     1 <1>   0.0800 
 29 H      -10.7810    -0.4540    -2.0060 H     1 <1>   0.0800 
@<TRIPOS>BOND
  1   1   2  1   
  2   2   3  ar  
  3   2   4  ar  
  4   3   5  ar  
  5   3  16  1   
  6   4   6  ar  
  7   4  17  1   
  8   5   7  1   
  9   5   8  ar  
 10   6   8  ar  
 11   6  18  1   
 12   7   9  am  
 13   7  19  1   
 14   8  20  1   
 15   9  10  2   
 16   9  11  2   
 17   9  12  1   
 18  12  13  1   
 19  12  21  1   
 20  12  22  1   
 21  13  14  1   
 22  13  23  1   
 23  13  24  1   
 24  14  15  1   
 25  14  25  1   
 26  14  26  1   
 27  15  27  1   
 28  15  28  1   
 29  15  29  1   
@<TRIPOS>SUBSTRUCTURE
  1 ****   5 GROUP 4 **** **** 0

# MOE 2024.06 (io_trps.svl 2023.06)
