@<TRIPOS>MOLECULE
NONAME
48 48 1 0 0 
SMALL
USER_CHARGES


@<TRIPOS>ATOM
  1 N       -0.0950    -0.1820    -0.2410 N.4   1 <1>  -0.9590 
  2 C       -1.2340     0.7120     0.0990 C.3   1 <1>   0.3430 
  3 C       -0.1520    -1.4800     0.4890 C.3   1 <1>   0.3430 
  4 C        1.1950     0.5290     0.0180 C.3   1 <1>   0.3430 
  5 C       -2.5660     0.0180    -0.2080 C.3   1 <1>  -0.1600 
  6 C       -1.4670    -2.1980     0.1810 C.3   1 <1>  -0.1600 
  7 C        2.3290    -0.1790    -0.7150 C.3   1 <1>  -0.2400 
  8 C       -2.6940    -1.3320     0.5190 C.3   1 <1>   0.4230 
  9 N       -3.9650    -2.0620     0.1350 N.4   1 <1>  -0.9590 
 10 C       -5.2280    -1.2100     0.1940 C.3   1 <1>   0.3430 
 11 C       -4.1340    -3.3050     0.9590 C.3   1 <1>   0.3430 
 12 C       -6.5300    -1.9070    -0.3120 C.3   1 <1>   0.3430 
 13 C       -4.2410    -4.4960     0.0170 C.3   1 <1>  -0.2400 
 14 N       -7.7620    -1.0300    -0.3210 N.4   1 <1>  -0.9590 
 15 C       -8.2130    -0.5950     1.0470 C.3   1 <1>   0.2630 
 16 C       -8.9010    -1.7480    -0.9900 C.3   1 <1>   0.2630 
 17 H       -0.1040    -0.3680    -1.2550 H     1 <1>   0.4500 
 18 H       -1.1640     1.6260    -0.4720 H     1 <1>   0.0800 
 19 H       -1.1900     0.9720     1.1450 H     1 <1>   0.0800 
 20 H       -0.0680    -1.3050     1.5510 H     1 <1>   0.0800 
 21 H        0.6740    -2.1080     0.1910 H     1 <1>   0.0800 
 22 H        1.4030     0.5660     1.0760 H     1 <1>   0.0800 
 23 H        1.1320     1.5430    -0.3470 H     1 <1>   0.0800 
 24 H       -2.6480    -0.1140    -1.2730 H     1 <1>   0.0800 
 25 H       -3.3400     0.6910     0.1130 H     1 <1>   0.0800 
 26 H       -1.4670    -3.1030     0.7600 H     1 <1>   0.0800 
 27 H       -1.4720    -2.4710    -0.8600 H     1 <1>   0.0800 
 28 H        2.5060    -1.1640    -0.3220 H     1 <1>   0.0800 
 29 H        3.2350     0.3870    -0.5830 H     1 <1>   0.0800 
 30 H        2.1320    -0.2360    -1.7710 H     1 <1>   0.0800 
 31 H       -2.7030    -1.1450     1.5820 H     1 <1>   0.0800 
 32 H       -3.8260    -2.3820    -0.8360 H     1 <1>   0.4500 
 33 H       -5.0820    -0.3300    -0.4110 H     1 <1>   0.0800 
 34 H       -5.3830    -0.8910     1.2120 H     1 <1>   0.0800 
 35 H       -5.0170    -3.2430     1.5750 H     1 <1>   0.0800 
 36 H       -3.2920    -3.4490     1.6180 H     1 <1>   0.0800 
 37 H       -6.7280    -2.7690     0.3050 H     1 <1>   0.0800 
 38 H       -6.3560    -2.2550    -1.3170 H     1 <1>   0.0800 
 39 H       -5.0910    -4.4190    -0.6360 H     1 <1>   0.0800 
 40 H       -4.3590    -5.3940     0.6000 H     1 <1>   0.0800 
 41 H       -3.3450    -4.6110    -0.5680 H     1 <1>   0.0800 
 42 H       -7.5980    -0.1790    -0.8870 H     1 <1>   0.4500 
 43 H       -8.4350    -1.4520     1.6630 H     1 <1>   0.0800 
 44 H       -9.1060     0.0050     0.9700 H     1 <1>   0.0800 
 45 H       -7.4540    -0.0040     1.5330 H     1 <1>   0.0800 
 46 H       -9.1600    -2.6420    -0.4450 H     1 <1>   0.0800 
 47 H       -8.6370    -2.0240    -1.9990 H     1 <1>   0.0800 
 48 H       -9.7720    -1.1130    -1.0320 H     1 <1>   0.0800 
@<TRIPOS>BOND
  1   1   2  1   
  2   1   3  1   
  3   1   4  1   
  4   1  17  1   
  5   2   5  1   
  6   2  18  1   
  7   2  19  1   
  8   3   6  1   
  9   3  20  1   
 10   3  21  1   
 11   4   7  1   
 12   4  22  1   
 13   4  23  1   
 14   5   8  1   
 15   5  24  1   
 16   5  25  1   
 17   6   8  1   
 18   6  26  1   
 19   6  27  1   
 20   7  28  1   
 21   7  29  1   
 22   7  30  1   
 23   8   9  1   
 24   8  31  1   
 25   9  10  1   
 26   9  11  1   
 27   9  32  1   
 28  10  12  1   
 29  10  33  1   
 30  10  34  1   
 31  11  13  1   
 32  11  35  1   
 33  11  36  1   
 34  12  14  1   
 35  12  37  1   
 36  12  38  1   
 37  13  39  1   
 38  13  40  1   
 39  13  41  1   
 40  14  15  1   
 41  14  16  1   
 42  14  42  1   
 43  15  43  1   
 44  15  44  1   
 45  15  45  1   
 46  16  46  1   
 47  16  47  1   
 48  16  48  1   
@<TRIPOS>SUBSTRUCTURE
  1 ****   8 GROUP 4 **** **** 0

# MOE 2024.06 (io_trps.svl 2023.06)
