@<TRIPOS>MOLECULE
NONAME
43 44 1 0 0 
SMALL
USER_CHARGES


@<TRIPOS>ATOM
  1 O        0.0490    -1.6570     1.1770 O.2   1 <1>  -0.5700 
  2 C        0.1880    -1.3450     0.0170 C.2   1 <1>   0.5690 
  3 N       -0.8150    -0.8460    -0.7680 N.am  1 <1>  -0.5470 
  4 C        1.5980    -1.5040    -0.5760 C.3   1 <1>   0.4040 
  5 C       -2.1690    -0.5490    -0.5150 C.ar  1 <1>   0.1170 
  6 N        2.6910    -1.4630     0.4680 N.4   1 <1>  -0.9590 
  7 C       -2.8880     0.0780    -1.5370 C.ar  1 <1>   0.0830 
  8 C       -2.8190    -0.8450     0.6790 C.ar  1 <1>  -0.1500 
  9 C        2.8100    -0.1100     1.0890 C.3   1 <1>   0.3430 
 10 C        3.9920    -1.9860    -0.0350 C.3   1 <1>   0.3430 
 11 O       -2.2120     0.3460    -2.6970 O.3   1 <1>  -0.3630 
 12 C       -4.2270     0.4000    -1.3510 C.ar  1 <1>  -0.1500 
 13 C       -4.1520    -0.5230     0.8600 C.ar  1 <1>  -0.1500 
 14 C        3.7960    -0.1660     2.2570 C.3   1 <1>  -0.1600 
 15 C        4.9940    -2.0690     1.1180 C.3   1 <1>  -0.1600 
 16 C       -2.8670     0.9620    -3.7880 C.3   1 <1>   0.0400 
 17 C       -4.8620     0.1040    -0.1580 C.ar  1 <1>   0.0830 
 18 C        5.1610    -0.7180     1.8260 C.3   1 <1>  -0.1600 
 19 O       -6.1720     0.4550    -0.0620 O.3   1 <1>  -0.3620 
 20 C       -6.9100     0.1980     1.1120 C.3   1 <1>   0.0400 
 21 H       -0.5950    -0.5950    -1.7370 H     1 <1>   0.3700 
 22 H        1.7620    -0.7290    -1.3040 H     1 <1>   0.0800 
 23 H        1.6270    -2.4530    -1.0830 H     1 <1>   0.0800 
 24 H        2.3600    -2.0800     1.2290 H     1 <1>   0.4500 
 25 H       -2.2980    -1.3330     1.4810 H     1 <1>   0.1500 
 26 H        1.8480     0.2170     1.4530 H     1 <1>   0.0800 
 27 H        3.1590     0.6010     0.3570 H     1 <1>   0.0800 
 28 H        4.3790    -1.3310    -0.7990 H     1 <1>   0.0800 
 29 H        3.8580    -2.9680    -0.4620 H     1 <1>   0.0800 
 30 H       -4.8100     0.8830    -2.1120 H     1 <1>   0.1500 
 31 H       -4.6160    -0.7690     1.7970 H     1 <1>   0.1500 
 32 H        3.3820    -0.7770     3.0400 H     1 <1>   0.0800 
 33 H        3.9220     0.8250     2.6570 H     1 <1>   0.0800 
 34 H        5.9470    -2.3900     0.7340 H     1 <1>   0.0800 
 35 H        4.6660    -2.8140     1.8230 H     1 <1>   0.0800 
 36 H       -2.1590     1.0710    -4.5900 H     1 <1>   0.0800 
 37 H       -3.2230     1.9310    -3.4820 H     1 <1>   0.0800 
 38 H       -3.6830     0.3370    -4.1060 H     1 <1>   0.0800 
 39 H        5.7960    -0.8340     2.6890 H     1 <1>   0.0800 
 40 H        5.6390    -0.0180     1.1610 H     1 <1>   0.0800 
 41 H       -7.9110     0.5580     0.9620 H     1 <1>   0.0800 
 42 H       -6.4530     0.7210     1.9340 H     1 <1>   0.0800 
 43 H       -6.9260    -0.8630     1.2900 H     1 <1>   0.0800 
@<TRIPOS>BOND
  1   1   2  2   
  2   2   3  am  
  3   2   4  1   
  4   3   5  1   
  5   3  21  1   
  6   4   6  1   
  7   4  22  1   
  8   4  23  1   
  9   5   7  ar  
 10   5   8  ar  
 11   6   9  1   
 12   6  10  1   
 13   6  24  1   
 14   7  11  1   
 15   7  12  ar  
 16   8  13  ar  
 17   8  25  1   
 18   9  14  1   
 19   9  26  1   
 20   9  27  1   
 21  10  15  1   
 22  10  28  1   
 23  10  29  1   
 24  11  16  1   
 25  12  17  ar  
 26  12  30  1   
 27  13  17  ar  
 28  13  31  1   
 29  14  18  1   
 30  14  32  1   
 31  14  33  1   
 32  15  18  1   
 33  15  34  1   
 34  15  35  1   
 35  16  36  1   
 36  16  37  1   
 37  16  38  1   
 38  17  19  1   
 39  18  39  1   
 40  18  40  1   
 41  19  20  1   
 42  20  41  1   
 43  20  42  1   
 44  20  43  1   
@<TRIPOS>SUBSTRUCTURE
  1 ****   3 GROUP 4 **** **** 0

# MOE 2024.06 (io_trps.svl 2023.06)
