@<TRIPOS>MOLECULE
NONAME
37 38 1 0 0 
SMALL
USER_CHARGES


@<TRIPOS>ATOM
  1 O       -6.5130     3.8620    -0.8020 O.2   1 <1>  -0.5700 
  2 C       -5.5250     3.1660    -0.6720 C.2   1 <1>   0.5440 
  3 N       -4.3020     3.7990    -0.6900 N.am  1 <1>  -0.6600 
  4 C       -5.6400     1.7410    -0.4200 C.ar  1 <1>   0.0860 
  5 C       -3.3710     3.6150     0.4600 C.3   1 <1>   0.1400 
  6 C       -4.1970     5.1450    -1.3270 C.3   1 <1>   0.1400 
  7 C       -4.7270     0.8330    -0.9560 C.ar  1 <1>  -0.1500 
  8 C       -6.6590     1.2400     0.3860 C.ar  1 <1>  -0.1500 
  9 C       -3.6350     4.7080     1.5200 C.3   1 <1>   0.3430 
 10 C       -4.5020     6.2300    -0.2790 C.3   1 <1>   0.3430 
 11 C       -4.8170    -0.5250    -0.6760 C.ar  1 <1>   0.0820 
 12 C       -6.7560    -0.1080     0.6780 C.ar  1 <1>   0.0820 
 13 N       -3.6130     6.0960     0.9320 N.4   1 <1>  -0.9060 
 14 O       -3.9560    -1.4500    -1.1660 O.3   1 <1>  -0.3620 
 15 C       -5.8270    -0.9930     0.1450 C.ar  1 <1>  -0.1500 
 16 O       -7.7770    -0.4820     1.4870 O.3   1 <1>  -0.3620 
 17 C       -3.0310    -1.1350    -2.1840 C.3   1 <1>   0.0400 
 18 C       -8.0120    -1.8410     1.7860 C.3   1 <1>   0.0400 
 19 H       -2.3540     3.6670     0.1140 H     1 <1>   0.0800 
 20 H       -3.5150     2.6450     0.9080 H     1 <1>   0.0800 
 21 H       -4.9030     5.2210    -2.1380 H     1 <1>   0.0800 
 22 H       -3.2120     5.2800    -1.7370 H     1 <1>   0.0800 
 23 H       -3.9500     1.2100    -1.5930 H     1 <1>   0.1500 
 24 H       -7.3930     1.9110     0.7950 H     1 <1>   0.1500 
 25 H       -2.9010     4.6280     2.3060 H     1 <1>   0.0800 
 26 H       -4.6040     4.5220     1.9550 H     1 <1>   0.0800 
 27 H       -5.5360     6.1260     0.0140 H     1 <1>   0.0800 
 28 H       -4.3810     7.2040    -0.7240 H     1 <1>   0.0800 
 29 H       -2.6510     6.3370     0.6670 H     1 <1>   0.4500 
 30 H       -3.9110     6.7740     1.6450 H     1 <1>   0.4500 
 31 H       -5.8670    -2.0460     0.3470 H     1 <1>   0.1500 
 32 H       -2.5270    -2.0410    -2.4690 H     1 <1>   0.0800 
 33 H       -2.3180    -0.4270    -1.8020 H     1 <1>   0.0800 
 34 H       -3.5630    -0.7330    -3.0280 H     1 <1>   0.0800 
 35 H       -8.8820    -1.9000     2.4130 H     1 <1>   0.0800 
 36 H       -7.1580    -2.2380     2.3070 H     1 <1>   0.0800 
 37 H       -8.1860    -2.3750     0.8680 H     1 <1>   0.0800 
@<TRIPOS>BOND
  1   1   2  2   
  2   2   3  am  
  3   2   4  1   
  4   3   5  1   
  5   3   6  1   
  6   4   7  ar  
  7   4   8  ar  
  8   5   9  1   
  9   5  19  1   
 10   5  20  1   
 11   6  10  1   
 12   6  21  1   
 13   6  22  1   
 14   7  11  ar  
 15   7  23  1   
 16   8  12  ar  
 17   8  24  1   
 18   9  13  1   
 19   9  25  1   
 20   9  26  1   
 21  10  13  1   
 22  10  27  1   
 23  10  28  1   
 24  11  14  1   
 25  11  15  ar  
 26  12  15  ar  
 27  12  16  1   
 28  13  29  1   
 29  13  30  1   
 30  14  17  1   
 31  15  31  1   
 32  16  18  1   
 33  17  32  1   
 34  17  33  1   
 35  17  34  1   
 36  18  35  1   
 37  18  36  1   
 38  18  37  1   
@<TRIPOS>SUBSTRUCTURE
  1 ****   4 GROUP 4 **** **** 0

# MOE 2024.06 (io_trps.svl 2023.06)
