@<TRIPOS>MOLECULE
NONAME
51 53 1 0 0 
SMALL
USER_CHARGES


@<TRIPOS>ATOM
  1 S       -0.6040    -0.0280     0.7310 S.o2  1 <1>   1.4470 
  2 O       -0.8350    -0.5780     2.0500 O.2   1 <1>  -0.6500 
  3 O        0.6970    -0.1790     0.1160 O.2   1 <1>  -0.6500 
  4 N       -1.7280    -0.7630    -0.3030 N.am  1 <1>  -0.8490 
  5 C       -1.0920     1.7200     0.6780 C.ar  1 <1>  -0.0090 
  6 C       -3.0840    -0.7570     0.2650 C.3   1 <1>   0.1960 
  7 C       -1.3230    -2.1300    -0.6470 C.3   1 <1>   0.1960 
  8 C       -1.6150     2.3610     1.7970 C.ar  1 <1>  -0.1500 
  9 C       -0.9740     2.4550    -0.4960 C.ar  1 <1>  -0.1500 
 10 C       -4.0930    -1.2440    -0.7770 C.3   1 <1>  -0.0190 
 11 C       -2.2720    -2.7170    -1.7000 C.3   1 <1>  -0.1600 
 12 C       -2.0050     3.6880     1.7460 C.ar  1 <1>  -0.1500 
 13 C       -1.3610     3.7830    -0.5550 C.ar  1 <1>  -0.1500 
 14 C       -5.4910    -1.1230    -0.1900 C.2   1 <1>   0.5690 
 15 C       -3.7350    -2.6710    -1.2380 C.3   1 <1>  -0.1600 
 16 C       -1.8770     4.4010     0.5680 C.ar  1 <1>  -0.1500 
 17 O       -5.9090    -2.0000     0.5250 O.2   1 <1>  -0.5700 
 18 N       -6.1830     0.0190    -0.4740 N.am  1 <1>  -0.5470 
 19 C       -7.4170     0.5230    -0.0300 C.ar  1 <1>   0.1170 
 20 C       -7.6620     1.8890    -0.2000 C.ar  1 <1>   0.0830 
 21 C       -8.3970    -0.2670     0.5590 C.ar  1 <1>  -0.1500 
 22 O       -6.6690     2.6290    -0.7810 O.3   1 <1>  -0.3630 
 23 C       -8.8690     2.4400     0.2170 C.ar  1 <1>  -0.1500 
 24 C       -9.5960     0.2860     0.9750 C.ar  1 <1>  -0.1500 
 25 C       -6.6840     4.0360    -0.7270 C.3   1 <1>   0.1200 
 26 C       -9.8330     1.6380     0.8040 C.ar  1 <1>  -0.1500 
 27 C       -5.3510     4.5360    -1.2730 C.3   1 <1>  -0.2400 
 28 H       -3.3490     0.2430     0.5640 H     1 <1>   0.0800 
 29 H       -3.1260    -1.3890     1.1390 H     1 <1>   0.0800 
 30 H       -1.3240    -2.7450     0.2390 H     1 <1>   0.0800 
 31 H       -0.3230    -2.1240    -1.0490 H     1 <1>   0.0800 
 32 H       -1.7170     1.8150     2.7200 H     1 <1>   0.1500 
 33 H       -0.5710     1.9770    -1.3740 H     1 <1>   0.1500 
 34 H       -4.0300    -0.5910    -1.6290 H     1 <1>   0.0800 
 35 H       -1.9900    -3.7350    -1.9030 H     1 <1>   0.0800 
 36 H       -2.1600    -2.1590    -2.6130 H     1 <1>   0.0800 
 37 H       -2.4060     4.1660     2.6240 H     1 <1>   0.1500 
 38 H       -1.2570     4.3340    -1.4750 H     1 <1>   0.1500 
 39 H       -4.3880    -2.9750    -2.0370 H     1 <1>   0.0800 
 40 H       -3.8690    -3.3580    -0.4190 H     1 <1>   0.0800 
 41 H       -2.1770     5.4340     0.5270 H     1 <1>   0.1500 
 42 H       -5.6860     0.7190    -1.0280 H     1 <1>   0.3700 
 43 H       -8.2320    -1.3200     0.6950 H     1 <1>   0.1500 
 44 H       -9.0820     3.4840     0.0900 H     1 <1>   0.1500 
 45 H      -10.3430    -0.3400     1.4310 H     1 <1>   0.1500 
 46 H       -6.8120     4.3380     0.2990 H     1 <1>   0.0800 
 47 H       -7.5030     4.3930    -1.3270 H     1 <1>   0.0800 
 48 H      -10.7670     2.0640     1.1270 H     1 <1>   0.1500 
 49 H       -4.5410     4.1490    -0.6810 H     1 <1>   0.0800 
 50 H       -5.3210     5.6100    -1.2340 H     1 <1>   0.0800 
 51 H       -5.2300     4.2270    -2.2960 H     1 <1>   0.0800 
@<TRIPOS>BOND
  1   1   2  2   
  2   1   3  2   
  3   1   4  am  
  4   1   5  1   
  5   4   6  1   
  6   4   7  1   
  7   5   8  ar  
  8   5   9  ar  
  9   6  10  1   
 10   6  28  1   
 11   6  29  1   
 12   7  11  1   
 13   7  30  1   
 14   7  31  1   
 15   8  12  ar  
 16   8  32  1   
 17   9  13  ar  
 18   9  33  1   
 19  10  14  1   
 20  10  15  1   
 21  10  34  1   
 22  11  15  1   
 23  11  35  1   
 24  11  36  1   
 25  12  16  ar  
 26  12  37  1   
 27  13  16  ar  
 28  13  38  1   
 29  14  17  2   
 30  14  18  am  
 31  15  39  1   
 32  15  40  1   
 33  16  41  1   
 34  18  19  1   
 35  18  42  1   
 36  19  20  ar  
 37  19  21  ar  
 38  20  22  1   
 39  20  23  ar  
 40  21  24  ar  
 41  21  43  1   
 42  22  25  1   
 43  23  26  ar  
 44  23  44  1   
 45  24  26  ar  
 46  24  45  1   
 47  25  27  1   
 48  25  46  1   
 49  25  47  1   
 50  26  48  1   
 51  27  49  1   
 52  27  50  1   
 53  27  51  1   
@<TRIPOS>SUBSTRUCTURE
  1 ****   6 GROUP 4 **** **** 0

# MOE 2024.06 (io_trps.svl 2023.06)
