@<TRIPOS>MOLECULE
NONAME
48 50 1 0 0 
SMALL
USER_CHARGES


@<TRIPOS>ATOM
  1 F        1.9330    -2.4990    -2.6480 F     1 <1>  -0.1900 
  2 C        2.8250    -2.5030    -1.6960 C.ar  1 <1>   0.1900 
  3 C        2.4700    -2.0300    -0.4480 C.ar  1 <1>  -0.1500 
  4 C        4.0910    -2.9800    -1.9710 C.ar  1 <1>  -0.1500 
  5 C        3.4210    -2.0310     0.5590 C.ar  1 <1>  -0.1500 
  6 C        5.0360    -2.9780    -0.9590 C.ar  1 <1>  -0.1500 
  7 C        4.7080    -2.4980     0.3060 C.ar  1 <1>  -0.1430 
  8 C        5.7550    -2.4850     1.4050 C.3   1 <1>   0.4870 
  9 N        6.2300    -1.0880     1.5990 N.4   1 <1>  -0.9590 
 10 C        6.8970    -0.5650     0.3460 C.3   1 <1>   0.3430 
 11 C        7.1390    -1.0010     2.8010 C.3   1 <1>   0.3430 
 12 C        7.5100     0.8370     0.5420 C.3   1 <1>   0.1400 
 13 C        7.7550     0.4020     2.9710 C.3   1 <1>   0.1400 
 14 N        8.4330     0.8160     1.7090 N.am  1 <1>  -0.6600 
 15 C        9.7000     0.3580     1.4890 C.2   1 <1>   0.6900 
 16 O       10.0180    -0.7240     1.9440 O.2   1 <1>  -0.5700 
 17 N       10.5160     1.1010     0.6970 N.am  1 <1>  -0.5470 
 18 C       11.7490     0.8570     0.0690 C.ar  1 <1>   0.1170 
 19 C       12.1620     1.7470    -0.9300 C.ar  1 <1>   0.0830 
 20 C       12.5720    -0.2150     0.3940 C.ar  1 <1>  -0.1500 
 21 O       11.3270     2.7920    -1.2180 O.3   1 <1>  -0.3630 
 22 C       13.3730     1.5460    -1.5850 C.ar  1 <1>  -0.1500 
 23 C       13.7750    -0.4090    -0.2600 C.ar  1 <1>  -0.1500 
 24 C       11.7040     3.7940    -2.1380 C.3   1 <1>   0.0400 
 25 C       14.1760     0.4700    -1.2490 C.ar  1 <1>  -0.1500 
 26 H        1.4690    -1.6740    -0.2770 H     1 <1>   0.1500 
 27 H        4.3230    -3.3460    -2.9560 H     1 <1>   0.1500 
 28 H        3.1400    -1.6710     1.5340 H     1 <1>   0.1500 
 29 H        6.0230    -3.3570    -1.1710 H     1 <1>   0.1500 
 30 H        6.5800    -3.1240     1.1360 H     1 <1>   0.0800 
 31 H        5.3170    -2.8590     2.3160 H     1 <1>   0.0800 
 32 H        5.4010    -0.5070     1.7670 H     1 <1>   0.4500 
 33 H        6.1840    -0.5280    -0.4610 H     1 <1>   0.0800 
 34 H        7.6890    -1.2370     0.0550 H     1 <1>   0.0800 
 35 H        7.9490    -1.7050     2.6930 H     1 <1>   0.0800 
 36 H        6.5960    -1.2590     3.6960 H     1 <1>   0.0800 
 37 H        6.7350     1.5660     0.7020 H     1 <1>   0.0800 
 38 H        8.0470     1.1170    -0.3490 H     1 <1>   0.0800 
 39 H        8.4740     0.3810     3.7730 H     1 <1>   0.0800 
 40 H        6.9950     1.1190     3.2290 H     1 <1>   0.0800 
 41 H       10.1430     2.0200     0.4620 H     1 <1>   0.3700 
 42 H       12.2860    -0.9060     1.1640 H     1 <1>   0.1500 
 43 H       13.7130     2.2100    -2.3570 H     1 <1>   0.1500 
 44 H       14.4000    -1.2450     0.0040 H     1 <1>   0.1500 
 45 H       10.9220     4.5300    -2.1740 H     1 <1>   0.0800 
 46 H       11.8290     3.3480    -3.1090 H     1 <1>   0.0800 
 47 H       12.6190     4.2510    -1.8020 H     1 <1>   0.0800 
 48 H       15.1130     0.3160    -1.7570 H     1 <1>   0.1500 
@<TRIPOS>BOND
  1   1   2  1   
  2   2   3  ar  
  3   2   4  ar  
  4   3   5  ar  
  5   3  26  1   
  6   4   6  ar  
  7   4  27  1   
  8   5   7  ar  
  9   5  28  1   
 10   6   7  ar  
 11   6  29  1   
 12   7   8  1   
 13   8   9  1   
 14   8  30  1   
 15   8  31  1   
 16   9  10  1   
 17   9  11  1   
 18   9  32  1   
 19  10  12  1   
 20  10  33  1   
 21  10  34  1   
 22  11  13  1   
 23  11  35  1   
 24  11  36  1   
 25  12  14  1   
 26  12  37  1   
 27  12  38  1   
 28  13  14  1   
 29  13  39  1   
 30  13  40  1   
 31  14  15  am  
 32  15  16  2   
 33  15  17  am  
 34  17  18  1   
 35  17  41  1   
 36  18  19  ar  
 37  18  20  ar  
 38  19  21  1   
 39  19  22  ar  
 40  20  23  ar  
 41  20  42  1   
 42  21  24  1   
 43  22  25  ar  
 44  22  43  1   
 45  23  25  ar  
 46  23  44  1   
 47  24  45  1   
 48  24  46  1   
 49  24  47  1   
 50  25  48  1   
@<TRIPOS>SUBSTRUCTURE
  1 ****  10 GROUP 4 **** **** 0

# MOE 2024.06 (io_trps.svl 2023.06)
