@<TRIPOS>MOLECULE
NONAME
46 47 1 0 0 
SMALL
USER_CHARGES


@<TRIPOS>ATOM
  1 O       -1.6880     0.0150    -1.6410 O.2   1 <1>  -0.5700 
  2 C       -2.4540    -0.7450    -1.0840 C.2   1 <1>   0.7060 
  3 O       -3.6580    -0.2930    -0.7380 O.3   1 <1>  -0.2330 
  4 C       -2.1320    -2.0980    -0.7820 C.2   1 <1>  -0.1360 
  5 C       -4.5880    -1.0570    -0.1170 C.ar  1 <1>   0.0820 
  6 C       -3.0070    -2.9280    -0.1640 C.2   1 <1>  -0.1670 
  7 C       -4.3010    -2.4000     0.1880 C.ar  1 <1>   0.0280 
  8 C       -5.8160    -0.4780     0.1970 C.ar  1 <1>  -0.1440 
  9 C       -2.6890    -4.3890     0.1750 C.3   1 <1>  -0.0220 
 10 C       -5.3040    -3.1390     0.8210 C.ar  1 <1>  -0.1500 
 11 C       -6.7950    -1.2500     0.8100 C.ar  1 <1>   0.0830 
 12 C       -6.0700     0.9910    -0.1470 C.3   1 <1>  -0.0960 
 13 C       -1.2870    -4.8660    -0.2350 C.3   1 <1>  -0.1600 
 14 C       -6.5250    -2.5800     1.1260 C.ar  1 <1>  -0.1500 
 15 O       -7.9930    -0.6770     1.0750 O.3   1 <1>  -0.3630 
 16 C       -1.0640    -6.3350     0.1460 C.3   1 <1>  -0.1600 
 17 C       -9.1480    -1.4430     1.3870 C.3   1 <1>   0.1810 
 18 C        0.3350    -6.8030    -0.2650 C.3   1 <1>  -0.2400 
 19 C      -10.4150    -0.5900     1.3550 C.2   1 <1>   0.5690 
 20 O      -11.1000    -0.5920     2.3530 O.2   1 <1>  -0.5700 
 21 N      -10.7780     0.1240     0.2310 N.am  1 <1>  -0.6600 
 22 C      -11.9770     1.0090     0.2260 C.3   1 <1>   0.0600 
 23 C       -9.9940     0.1550    -1.0360 C.3   1 <1>   0.0600 
 24 H       -1.1460    -2.3890    -1.0860 H     1 <1>   0.1500 
 25 H       -3.4140    -5.0180    -0.3120 H     1 <1>   0.0800 
 26 H       -2.7930    -4.5230     1.2380 H     1 <1>   0.0800 
 27 H       -5.1360    -4.1670     1.0820 H     1 <1>   0.1500 
 28 H       -5.1960     1.5830     0.0560 H     1 <1>   0.0800 
 29 H       -6.8770     1.4030     0.4310 H     1 <1>   0.0800 
 30 H       -6.3120     1.0820    -1.1900 H     1 <1>   0.0800 
 31 H       -0.5450    -4.2600     0.2570 H     1 <1>   0.0800 
 32 H       -1.1690    -4.7580    -1.2990 H     1 <1>   0.0800 
 33 H       -7.2590    -3.1910     1.6180 H     1 <1>   0.1500 
 34 H       -1.7990    -6.9540    -0.3410 H     1 <1>   0.0800 
 35 H       -1.1770    -6.4570     1.2110 H     1 <1>   0.0800 
 36 H       -9.0190    -1.8530     2.3720 H     1 <1>   0.0800 
 37 H       -9.2390    -2.2370     0.6710 H     1 <1>   0.0800 
 38 H        0.4650    -6.7130    -1.3290 H     1 <1>   0.0800 
 39 H        0.4730    -7.8340     0.0100 H     1 <1>   0.0800 
 40 H        1.0890    -6.2150     0.2280 H     1 <1>   0.0800 
 41 H      -12.4660     1.0020     1.1860 H     1 <1>   0.0800 
 42 H      -12.6770     0.6690    -0.5160 H     1 <1>   0.0800 
 43 H      -11.6820     2.0190     0.0020 H     1 <1>   0.0800 
 44 H       -9.3790    -0.7220    -1.1340 H     1 <1>   0.0800 
 45 H       -9.3620     1.0260    -1.0450 H     1 <1>   0.0800 
 46 H      -10.6610     0.1950    -1.8790 H     1 <1>   0.0800 
@<TRIPOS>BOND
  1   1   2  2   
  2   2   3  1   
  3   2   4  1   
  4   3   5  1   
  5   4   6  2   
  6   4  24  1   
  7   5   7  ar  
  8   5   8  ar  
  9   6   7  1   
 10   6   9  1   
 11   7  10  ar  
 12   8  11  ar  
 13   8  12  1   
 14   9  13  1   
 15   9  25  1   
 16   9  26  1   
 17  10  14  ar  
 18  10  27  1   
 19  11  14  ar  
 20  11  15  1   
 21  12  28  1   
 22  12  29  1   
 23  12  30  1   
 24  13  16  1   
 25  13  31  1   
 26  13  32  1   
 27  14  33  1   
 28  15  17  1   
 29  16  18  1   
 30  16  34  1   
 31  16  35  1   
 32  17  19  1   
 33  17  36  1   
 34  17  37  1   
 35  18  38  1   
 36  18  39  1   
 37  18  40  1   
 38  19  20  2   
 39  19  21  am  
 40  21  22  1   
 41  21  23  1   
 42  22  41  1   
 43  22  42  1   
 44  22  43  1   
 45  23  44  1   
 46  23  45  1   
 47  23  46  1   
@<TRIPOS>SUBSTRUCTURE
  1 ****   5 GROUP 4 **** **** 0

# MOE 2024.06 (io_trps.svl 2023.06)
