@<TRIPOS>MOLECULE
NONAME
28 30 1 0 0 
SMALL
USER_CHARGES


@<TRIPOS>ATOM
  1 N       -5.4920     2.3060     0.0130 N.pl3 1 <1>  -0.8440 
  2 C       -6.7980     2.4730    -0.0020 C.cat 1 <1>   1.2000 
  3 C       -4.7830     3.6140     0.0190 C.3   1 <1>   0.1680 
  4 N       -7.1290     3.7460    -0.0070 N.pl3 1 <1>  -0.7050 
  5 N       -7.8620     1.6640    -0.0120 N.pl3 1 <1>  -0.7050 
  6 C       -5.9470     4.6340     0.0050 C.3   1 <1>   0.1680 
  7 C       -8.5040     3.8240    -0.0220 C.ar  1 <1>   0.3110 
  8 C       -8.9690     2.5170    -0.0260 C.ar  1 <1>   0.3110 
  9 C       -8.0010     0.1840    -0.0120 C.3   1 <1>   0.1680 
 10 C       -9.3780     4.9020    -0.0330 C.ar  1 <1>  -0.1500 
 11 C      -10.3360     2.2620    -0.0400 C.ar  1 <1>  -0.1500 
 12 C       -6.6610    -0.5490     0.0040 C.3   1 <1>  -0.2400 
 13 C      -10.7360     4.6450    -0.0480 C.ar  1 <1>  -0.1500 
 14 C      -11.2120     3.3320    -0.0510 C.ar  1 <1>  -0.1500 
 15 H       -5.0280     1.3990     0.0190 H     1 <1>   0.4500 
 16 H       -4.1630     3.7230    -0.8560 H     1 <1>   0.0800 
 17 H       -4.1820     3.7250     0.9070 H     1 <1>   0.0800 
 18 H       -5.9190     5.2500    -0.8790 H     1 <1>   0.0800 
 19 H       -5.9390     5.2520     0.8870 H     1 <1>   0.0800 
 20 H       -8.5530    -0.1140    -0.8890 H     1 <1>   0.0800 
 21 H       -8.5730    -0.1120     0.8530 H     1 <1>   0.0800 
 22 H       -8.9980     5.9080    -0.0300 H     1 <1>   0.1500 
 23 H      -10.7020     1.2510    -0.0430 H     1 <1>   0.1500 
 24 H       -6.0870    -0.3190    -0.8760 H     1 <1>   0.0800 
 25 H       -6.8440    -1.6090     0.0030 H     1 <1>   0.0800 
 26 H       -6.1070    -0.3170     0.8950 H     1 <1>   0.0800 
 27 H      -11.4410     5.4610    -0.0570 H     1 <1>   0.1500 
 28 H      -12.2760     3.1590    -0.0630 H     1 <1>   0.1500 
@<TRIPOS>BOND
  1   1   2  ar  
  2   1   3  1   
  3   1  15  1   
  4   2   4  ar  
  5   2   5  ar  
  6   3   6  1   
  7   3  16  1   
  8   3  17  1   
  9   4   6  1   
 10   4   7  1   
 11   5   8  1   
 12   5   9  1   
 13   6  18  1   
 14   6  19  1   
 15   7   8  ar  
 16   7  10  ar  
 17   8  11  ar  
 18   9  12  1   
 19   9  20  1   
 20   9  21  1   
 21  10  13  ar  
 22  10  22  1   
 23  11  14  ar  
 24  11  23  1   
 25  12  24  1   
 26  12  25  1   
 27  12  26  1   
 28  13  14  ar  
 29  13  27  1   
 30  14  28  1   
@<TRIPOS>SUBSTRUCTURE
  1 ****   8 GROUP 4 **** **** 0

# MOE 2024.06 (io_trps.svl 2023.06)
