@<TRIPOS>MOLECULE
NONAME
51 52 1 0 0 
SMALL
USER_CHARGES


@<TRIPOS>ATOM
  1 N        3.8970    -2.7330    -1.4980 N.ar  1 <1>  -0.6200 
  2 C        3.5380    -2.4390    -0.2910 C.ar  1 <1>   0.4100 
  3 C        3.0980    -2.3170    -2.4840 C.ar  1 <1>   0.4760 
  4 N        4.4260    -2.9300     0.6170 N.pl3 1 <1>  -0.8690 
  5 C        2.3870    -1.6560    -0.0050 C.ar  1 <1>   0.0000 
  6 N        2.0170    -1.6220    -2.3690 N.ar  1 <1>  -0.6200 
  7 C        3.5330    -2.7140    -3.8740 C.3   1 <1>  -0.0970 
  8 C        4.1140    -3.6080     1.8790 C.3   1 <1>   0.2890 
  9 C        1.6360    -1.2740    -1.1240 C.ar  1 <1>   0.3100 
 10 C        1.9520    -1.2080     1.2600 C.ar  1 <1>  -0.1500 
 11 C        4.7890    -2.8900     3.0660 C.3   1 <1>  -0.1600 
 12 C        4.6150    -5.0410     1.7360 C.3   1 <1>  -0.2400 
 13 C        0.4800    -0.5000    -0.9570 C.ar  1 <1>  -0.1500 
 14 C        0.8210    -0.4470     1.4050 C.ar  1 <1>  -0.1500 
 15 C        6.2500    -2.4080     2.8840 C.3   1 <1>  -0.1600 
 16 C        0.0720    -0.0900     0.2840 C.ar  1 <1>  -0.1500 
 17 C        6.3640    -0.9210     2.5180 C.3   1 <1>   0.3430 
 18 N        6.1680    -0.6950     1.0640 N.4   1 <1>  -0.9590 
 19 C        7.4510    -0.8490     0.3250 C.3   1 <1>   0.3430 
 20 C        5.5020     0.6170     0.8310 C.3   1 <1>   0.3430 
 21 C        7.2890    -1.8940    -0.7700 C.3   1 <1>  -0.2400 
 22 C        5.1690     0.8300    -0.6430 C.3   1 <1>  -0.2400 
 23 H        5.1160    -3.4960     0.1100 H     1 <1>   0.4000 
 24 H        4.5060    -2.3090    -4.0780 H     1 <1>   0.0800 
 25 H        2.8390    -2.3430    -4.6060 H     1 <1>   0.0800 
 26 H        3.5740    -3.7850    -3.9450 H     1 <1>   0.0800 
 27 H        3.0460    -3.6410     2.0280 H     1 <1>   0.0800 
 28 H        2.5110    -1.4640     2.1330 H     1 <1>   0.1500 
 29 H        4.7690    -3.5760     3.8960 H     1 <1>   0.0800 
 30 H        4.1800    -2.0620     3.3750 H     1 <1>   0.0800 
 31 H        5.6800    -5.0740     1.5900 H     1 <1>   0.0800 
 32 H        4.3780    -5.6020     2.6210 H     1 <1>   0.0800 
 33 H        4.1280    -5.5190     0.9040 H     1 <1>   0.0800 
 34 H       -0.0780    -0.2360    -1.8370 H     1 <1>   0.1500 
 35 H        0.4940    -0.1170     2.3780 H     1 <1>   0.1500 
 36 H        6.7950    -3.0260     2.1940 H     1 <1>   0.0800 
 37 H        6.7340    -2.5180     3.8390 H     1 <1>   0.0800 
 38 H       -0.8190     0.5040     0.4050 H     1 <1>   0.1500 
 39 H        7.3340    -0.5500     2.8090 H     1 <1>   0.0800 
 40 H        5.6240    -0.3730     3.0780 H     1 <1>   0.0800 
 41 H        5.5120    -1.4380     0.7370 H     1 <1>   0.4500 
 42 H        8.2320    -1.1650     0.9980 H     1 <1>   0.0800 
 43 H        7.7450     0.0930    -0.1090 H     1 <1>   0.0800 
 44 H        6.1380     1.4170     1.1740 H     1 <1>   0.0800 
 45 H        4.5850     0.6520     1.3970 H     1 <1>   0.0800 
 46 H        7.0810    -2.8600    -0.3490 H     1 <1>   0.0800 
 47 H        8.2050    -1.9660    -1.3290 H     1 <1>   0.0800 
 48 H        6.5050    -1.6200    -1.4530 H     1 <1>   0.0800 
 49 H        6.0560     0.9360    -1.2380 H     1 <1>   0.0800 
 50 H        4.5980     1.7350    -0.7460 H     1 <1>   0.0800 
 51 H        4.5730     0.0230    -1.0250 H     1 <1>   0.0800 
@<TRIPOS>BOND
  1   1   2  ar  
  2   1   3  ar  
  3   2   4  1   
  4   2   5  ar  
  5   3   6  ar  
  6   3   7  1   
  7   4   8  1   
  8   4  23  1   
  9   5   9  ar  
 10   5  10  ar  
 11   6   9  ar  
 12   7  24  1   
 13   7  25  1   
 14   7  26  1   
 15   8  11  1   
 16   8  12  1   
 17   8  27  1   
 18   9  13  ar  
 19  10  14  ar  
 20  10  28  1   
 21  11  15  1   
 22  11  29  1   
 23  11  30  1   
 24  12  31  1   
 25  12  32  1   
 26  12  33  1   
 27  13  16  ar  
 28  13  34  1   
 29  14  16  ar  
 30  14  35  1   
 31  15  17  1   
 32  15  36  1   
 33  15  37  1   
 34  16  38  1   
 35  17  18  1   
 36  17  39  1   
 37  17  40  1   
 38  18  19  1   
 39  18  20  1   
 40  18  41  1   
 41  19  21  1   
 42  19  42  1   
 43  19  43  1   
 44  20  22  1   
 45  20  44  1   
 46  20  45  1   
 47  21  46  1   
 48  21  47  1   
 49  21  48  1   
 50  22  49  1   
 51  22  50  1   
 52  22  51  1   
@<TRIPOS>SUBSTRUCTURE
  1 ****   2 GROUP 4 **** **** 0

# MOE 2024.06 (io_trps.svl 2023.06)
