@<TRIPOS>MOLECULE
NONAME
44 45 1 0 0 
SMALL
USER_CHARGES


@<TRIPOS>ATOM
  1 S        0.4450    -0.3430    -1.2620 S.o2  1 <1>   1.4470 
  2 O       -0.5130     0.6950    -1.5800 O.2   1 <1>  -0.6500 
  3 O        0.9020    -1.2080    -2.3290 O.2   1 <1>  -0.6500 
  4 N       -0.2690    -1.3560    -0.1060 N.am  1 <1>  -0.8490 
  5 C        1.8700     0.3750    -0.3770 C.ar  1 <1>  -0.0090 
  6 C       -1.6070    -1.7780    -0.5280 C.3   1 <1>   0.1960 
  7 C        0.5730    -2.5180     0.2010 C.3   1 <1>   0.1960 
  8 C        1.7410     1.2660     0.6920 C.ar  1 <1>  -0.1440 
  9 C        3.1550     0.0090    -0.7610 C.ar  1 <1>  -0.1500 
 10 C       -2.2970    -2.5630     0.5940 C.3   1 <1>  -0.1600 
 11 C       -0.0320    -3.3190     1.3580 C.3   1 <1>  -0.1600 
 12 C        2.8700     1.7570     1.3280 C.ar  1 <1>  -0.1500 
 13 C        0.3770     1.7240     1.1960 C.3   1 <1>  -0.0970 
 14 C        4.3050     0.4880    -0.1390 C.ar  1 <1>   0.0860 
 15 C       -1.4610    -3.7700     1.0330 C.3   1 <1>  -0.1600 
 16 C        4.1320     1.3730     0.9210 C.ar  1 <1>  -0.1500 
 17 C        5.6220     0.0700    -0.5830 C.2   1 <1>   0.5440 
 18 O        5.8000    -1.0440    -1.0350 O.2   1 <1>  -0.5700 
 19 N        6.6830     0.9230    -0.5170 N.am  1 <1>  -0.7300 
 20 C        8.0440     0.5980    -0.9550 C.3   1 <1>   0.2780 
 21 C        8.9870     1.4990    -0.1870 C.2   1 <1>  -0.2880 
 22 C        9.7500     2.4570    -0.7210 C.2   1 <1>  -0.3000 
 23 H       -1.5350    -2.3850    -1.4170 H     1 <1>   0.0800 
 24 H       -2.2070    -0.9130    -0.7600 H     1 <1>   0.0800 
 25 H        1.5590    -2.1920     0.4850 H     1 <1>   0.0800 
 26 H        0.6650    -3.1480    -0.6700 H     1 <1>   0.0800 
 27 H        3.2800    -0.6810    -1.5800 H     1 <1>   0.1500 
 28 H       -3.2620    -2.8940     0.2550 H     1 <1>   0.0800 
 29 H       -2.4500    -1.9030     1.4300 H     1 <1>   0.0800 
 30 H       -0.0350    -2.7040     2.2410 H     1 <1>   0.0800 
 31 H        0.5830    -4.1790     1.5570 H     1 <1>   0.0800 
 32 H        2.7720     2.4430     2.1520 H     1 <1>   0.1500 
 33 H       -0.1180     2.3140     0.4440 H     1 <1>   0.0800 
 34 H        0.4700     2.3260     2.0810 H     1 <1>   0.0800 
 35 H       -0.2420     0.8790     1.4370 H     1 <1>   0.0800 
 36 H       -1.4350    -4.4960     0.2370 H     1 <1>   0.0800 
 37 H       -1.9070    -4.2340     1.8960 H     1 <1>   0.0800 
 38 H        4.9920     1.7580     1.4400 H     1 <1>   0.1500 
 39 H        6.5440     1.9030    -0.2720 H     1 <1>   0.3700 
 40 H        8.1290     0.7730    -2.0140 H     1 <1>   0.0800 
 41 H        8.2640    -0.4380    -0.7550 H     1 <1>   0.0800 
 42 H        8.9820     1.2820     0.8680 H     1 <1>   0.1500 
 43 H       10.4150     3.0830    -0.1500 H     1 <1>   0.1500 
 44 H        9.7790     2.6980    -1.7700 H     1 <1>   0.1500 
@<TRIPOS>BOND
  1   1   2  2   
  2   1   3  2   
  3   1   4  am  
  4   1   5  1   
  5   4   6  1   
  6   4   7  1   
  7   5   8  ar  
  8   5   9  ar  
  9   6  10  1   
 10   6  23  1   
 11   6  24  1   
 12   7  11  1   
 13   7  25  1   
 14   7  26  1   
 15   8  12  ar  
 16   8  13  1   
 17   9  14  ar  
 18   9  27  1   
 19  10  15  1   
 20  10  28  1   
 21  10  29  1   
 22  11  15  1   
 23  11  30  1   
 24  11  31  1   
 25  12  16  ar  
 26  12  32  1   
 27  13  33  1   
 28  13  34  1   
 29  13  35  1   
 30  14  16  ar  
 31  14  17  1   
 32  15  36  1   
 33  15  37  1   
 34  16  38  1   
 35  17  18  2   
 36  17  19  am  
 37  19  20  1   
 38  19  39  1   
 39  20  21  1   
 40  20  40  1   
 41  20  41  1   
 42  21  22  2   
 43  21  42  1   
 44  22  43  1   
 45  22  44  1   
@<TRIPOS>SUBSTRUCTURE
  1 ****   9 GROUP 4 **** **** 0

# MOE 2024.06 (io_trps.svl 2023.06)
