@<TRIPOS>MOLECULE
NONAME
39 40 1 0 0 
SMALL
USER_CHARGES


@<TRIPOS>ATOM
  1 I        1.2790     0.0640    -1.5510 I     1 <1>  -0.0810 
  2 C        0.5140    -1.7810    -0.7880 C.ar  1 <1>   0.0810 
  3 C        1.2040    -2.4870     0.1860 C.ar  1 <1>   0.0830 
  4 C       -0.6880    -2.2270    -1.3050 C.ar  1 <1>  -0.1500 
  5 O        2.3740    -2.0520     0.6970 O.3   1 <1>  -0.5330 
  6 C        0.6740    -3.6870     0.6510 C.ar  1 <1>   0.0830 
  7 C       -1.2270    -3.4140    -0.8290 C.ar  1 <1>  -0.1430 
  8 O        1.3890    -4.3560     1.6000 O.3   1 <1>  -0.3630 
  9 C       -0.5420    -4.1430     0.1400 C.ar  1 <1>  -0.1500 
 10 C       -2.5610    -3.9040    -1.3620 C.3   1 <1>   0.4860 
 11 C        1.0620    -5.6740     1.9860 C.3   1 <1>   0.0400 
 12 N       -3.6160    -3.6170    -0.3540 N.4   1 <1>  -0.9590 
 13 C       -4.9100    -4.2900    -0.6980 C.3   1 <1>   0.3430 
 14 C       -3.8020    -2.1580    -0.1090 C.3   1 <1>   0.3430 
 15 C       -6.0830    -3.7940     0.1730 C.3   1 <1>  -0.0800 
 16 C       -4.6390    -1.9580     1.1610 C.3   1 <1>  -0.1600 
 17 C       -5.6060    -3.1170     1.4690 C.3   1 <1>  -0.1600 
 18 C       -7.0410    -4.9480     0.4970 C.3   1 <1>  -0.2400 
 19 H       -1.1810    -1.6450    -2.0650 H     1 <1>   0.1500 
 20 H        2.7080    -2.6900     1.3600 H     1 <1>   0.4500 
 21 H       -0.9560    -5.0670     0.4960 H     1 <1>   0.1500 
 22 H       -2.5010    -4.9640    -1.5460 H     1 <1>   0.0800 
 23 H       -2.7900    -3.4100    -2.2930 H     1 <1>   0.0800 
 24 H        1.8150    -6.0160     2.6730 H     1 <1>   0.0800 
 25 H        1.0550    -6.3040     1.1140 H     1 <1>   0.0800 
 26 H        0.1030    -5.6710     2.4720 H     1 <1>   0.0800 
 27 H       -3.2930    -4.0030     0.5410 H     1 <1>   0.4500 
 28 H       -4.7980    -5.3540    -0.5600 H     1 <1>   0.0800 
 29 H       -5.1540    -4.1170    -1.7340 H     1 <1>   0.0800 
 30 H       -4.3110    -1.7160    -0.9500 H     1 <1>   0.0800 
 31 H       -2.8510    -1.6630     0.0120 H     1 <1>   0.0800 
 32 H       -6.6350    -3.0670    -0.4010 H     1 <1>   0.0800 
 33 H       -5.1990    -1.0460     1.0440 H     1 <1>   0.0800 
 34 H       -3.9820    -1.8110     2.0010 H     1 <1>   0.0800 
 35 H       -5.1060    -3.8440     2.0870 H     1 <1>   0.0800 
 36 H       -6.4470    -2.7440     2.0300 H     1 <1>   0.0800 
 37 H       -6.5490    -5.7080     1.0800 H     1 <1>   0.0800 
 38 H       -7.4160    -5.3970    -0.4070 H     1 <1>   0.0800 
 39 H       -7.8850    -4.5860     1.0600 H     1 <1>   0.0800 
@<TRIPOS>BOND
  1   1   2  1   
  2   2   3  ar  
  3   2   4  ar  
  4   3   5  1   
  5   3   6  ar  
  6   4   7  ar  
  7   4  19  1   
  8   5  20  1   
  9   6   8  1   
 10   6   9  ar  
 11   7   9  ar  
 12   7  10  1   
 13   8  11  1   
 14   9  21  1   
 15  10  12  1   
 16  10  22  1   
 17  10  23  1   
 18  11  24  1   
 19  11  25  1   
 20  11  26  1   
 21  12  13  1   
 22  12  14  1   
 23  12  27  1   
 24  13  15  1   
 25  13  28  1   
 26  13  29  1   
 27  14  16  1   
 28  14  30  1   
 29  14  31  1   
 30  15  17  1   
 31  15  18  1   
 32  15  32  1   
 33  16  17  1   
 34  16  33  1   
 35  16  34  1   
 36  17  35  1   
 37  17  36  1   
 38  18  37  1   
 39  18  38  1   
 40  18  39  1   
@<TRIPOS>SUBSTRUCTURE
  1 ****   7 GROUP 4 **** **** 0

# MOE 2024.06 (io_trps.svl 2023.06)
