@<TRIPOS>MOLECULE
NONAME
51 53 1 0 0 
SMALL
USER_CHARGES


@<TRIPOS>ATOM
  1 O       -1.9980    -0.9060    -2.0730 O.3   1 <1>  -0.3630 
  2 C       -2.9220    -1.3450    -1.1820 C.ar  1 <1>   0.0820 
  3 C       -2.2160    -1.0040    -3.4620 C.3   1 <1>   0.0400 
  4 C       -2.5880    -1.2550     0.1590 C.ar  1 <1>  -0.1500 
  5 C       -4.1590    -1.8710    -1.5420 C.ar  1 <1>  -0.1500 
  6 C       -3.4710    -1.6800     1.1350 C.ar  1 <1>  -0.1500 
  7 C       -5.0420    -2.2940    -0.5640 C.ar  1 <1>  -0.1500 
  8 C       -4.7070    -2.2010     0.7790 C.ar  1 <1>  -0.1430 
  9 C       -5.6900    -2.6600     1.8450 C.3   1 <1>   0.2530 
 10 N       -6.9100    -1.8280     1.8190 N.3   1 <1>  -0.8100 
 11 C       -7.9350    -2.3260     2.7630 C.3   1 <1>   0.1100 
 12 C       -6.6170    -0.3930     2.0700 C.3   1 <1>   0.1100 
 13 C       -9.2420    -1.4950     2.6990 C.3   1 <1>   0.3430 
 14 C       -7.8930     0.4810     2.0800 C.3   1 <1>   0.3430 
 15 N       -9.1100    -0.3320     1.7590 N.4   1 <1>  -0.9590 
 16 C      -10.3340     0.4750     1.5850 C.3   1 <1>   0.4810 
 17 C      -11.3590    -0.3900     0.8930 C.2   1 <1>  -0.2880 
 18 C      -11.6970    -0.2890    -0.4040 C.2   1 <1>  -0.1780 
 19 C      -12.6650    -1.0780    -1.1340 C.ar  1 <1>   0.0280 
 20 C      -12.6820    -1.0420    -2.5270 C.ar  1 <1>  -0.1500 
 21 C      -13.6050    -1.8870    -0.4990 C.ar  1 <1>  -0.1500 
 22 C      -13.5910    -1.7870    -3.2560 C.ar  1 <1>  -0.1500 
 23 C      -14.5170    -2.6360    -1.2230 C.ar  1 <1>  -0.1500 
 24 C      -14.5110    -2.5880    -2.6040 C.ar  1 <1>  -0.1500 
 25 H       -1.3460    -0.6210    -3.9640 H     1 <1>   0.0800 
 26 H       -3.0780    -0.4160    -3.7230 H     1 <1>   0.0800 
 27 H       -2.3610    -2.0390    -3.7200 H     1 <1>   0.0800 
 28 H       -1.6290    -0.8510     0.4300 H     1 <1>   0.1500 
 29 H       -4.4490    -1.9590    -2.5710 H     1 <1>   0.1500 
 30 H       -3.1870    -1.6020     2.1690 H     1 <1>   0.1500 
 31 H       -5.9980    -2.6980    -0.8470 H     1 <1>   0.1500 
 32 H       -5.2300    -2.6130     2.8180 H     1 <1>   0.0800 
 33 H       -5.9510    -3.6870     1.6480 H     1 <1>   0.0800 
 34 H       -8.1680    -3.3520     2.5300 H     1 <1>   0.0800 
 35 H       -7.5500    -2.3020     3.7680 H     1 <1>   0.0800 
 36 H       -6.1020    -0.2810     3.0090 H     1 <1>   0.0800 
 37 H       -5.9620    -0.0200     1.3000 H     1 <1>   0.0800 
 38 H       -9.4890    -1.1480     3.6890 H     1 <1>   0.0800 
 39 H      -10.0400    -2.1400     2.3700 H     1 <1>   0.0800 
 40 H       -7.7750     1.2710     1.3560 H     1 <1>   0.0800 
 41 H       -8.0000     0.9380     3.0500 H     1 <1>   0.0800 
 42 H       -8.8870    -0.7760     0.8540 H     1 <1>   0.4500 
 43 H      -10.7070     0.8240     2.5340 H     1 <1>   0.0800 
 44 H      -10.1180     1.3290     0.9630 H     1 <1>   0.0800 
 45 H      -11.8080    -1.1120     1.5510 H     1 <1>   0.1500 
 46 H      -11.2150     0.4510    -1.0220 H     1 <1>   0.1500 
 47 H      -11.9760    -0.4270    -3.0540 H     1 <1>   0.1500 
 48 H      -13.6400    -1.9370     0.5720 H     1 <1>   0.1500 
 49 H      -13.5850    -1.7450    -4.3320 H     1 <1>   0.1500 
 50 H      -15.2340    -3.2550    -0.7120 H     1 <1>   0.1500 
 51 H      -15.2190    -3.1690    -3.1690 H     1 <1>   0.1500 
@<TRIPOS>BOND
  1   1   2  1   
  2   1   3  1   
  3   2   4  ar  
  4   2   5  ar  
  5   3  25  1   
  6   3  26  1   
  7   3  27  1   
  8   4   6  ar  
  9   4  28  1   
 10   5   7  ar  
 11   5  29  1   
 12   6   8  ar  
 13   6  30  1   
 14   7   8  ar  
 15   7  31  1   
 16   8   9  1   
 17   9  10  1   
 18   9  32  1   
 19   9  33  1   
 20  10  11  1   
 21  10  12  1   
 22  11  13  1   
 23  11  34  1   
 24  11  35  1   
 25  12  14  1   
 26  12  36  1   
 27  12  37  1   
 28  13  15  1   
 29  13  38  1   
 30  13  39  1   
 31  14  15  1   
 32  14  40  1   
 33  14  41  1   
 34  15  16  1   
 35  15  42  1   
 36  16  17  1   
 37  16  43  1   
 38  16  44  1   
 39  17  18  2   
 40  17  45  1   
 41  18  19  1   
 42  18  46  1   
 43  19  20  ar  
 44  19  21  ar  
 45  20  22  ar  
 46  20  47  1   
 47  21  23  ar  
 48  21  48  1   
 49  22  24  ar  
 50  22  49  1   
 51  23  24  ar  
 52  23  50  1   
 53  24  51  1   
@<TRIPOS>SUBSTRUCTURE
  1 ****  15 GROUP 4 **** **** 0

# MOE 2024.06 (io_trps.svl 2023.06)
