@<TRIPOS>MOLECULE
NONAME
38 39 1 0 0 
SMALL
USER_CHARGES


@<TRIPOS>ATOM
  1 O       -0.6830     2.4160    -0.1570 O.3   1 <1>  -0.3630 
  2 C       -1.8900     1.8360    -0.3680 C.ar  1 <1>   0.0830 
  3 C        0.1960     1.9420     0.8360 C.3   1 <1>   0.1200 
  4 C       -2.3770     0.7630     0.3710 C.ar  1 <1>  -0.1500 
  5 C       -2.6630     2.3630    -1.3890 C.ar  1 <1>  -0.1500 
  6 C        1.4570     2.7990     0.7970 C.3   1 <1>  -0.2400 
  7 C       -3.6250     0.2350     0.0880 C.ar  1 <1>  -0.1500 
  8 C       -3.9090     1.8360    -1.6710 C.ar  1 <1>  -0.1500 
  9 C       -4.4010     0.7720    -0.9300 C.ar  1 <1>  -0.1430 
 10 C       -5.7790     0.2020    -1.2220 C.3   1 <1>  -0.0170 
 11 C       -6.7990     0.6840    -0.1800 C.3   1 <1>   0.4230 
 12 N       -8.1000    -0.0020    -0.3940 N.4   1 <1>  -0.9060 
 13 C       -7.0230     2.2040    -0.2330 C.3   1 <1>  -0.1600 
 14 C       -9.1170     0.3500     0.6340 C.3   1 <1>   0.3430 
 15 C       -8.0940     2.6640     0.7670 C.3   1 <1>  -0.1600 
 16 C       -9.3850     1.8550     0.5900 C.3   1 <1>  -0.1600 
 17 H        0.4290     0.9130     0.6220 H     1 <1>   0.0800 
 18 H       -0.2910     2.0260     1.7920 H     1 <1>   0.0800 
 19 H       -1.7990     0.3270     1.1640 H     1 <1>   0.1500 
 20 H       -2.2760     3.1890    -1.9590 H     1 <1>   0.1500 
 21 H        1.9270     2.7210    -0.1670 H     1 <1>   0.0800 
 22 H        2.1510     2.4610     1.5450 H     1 <1>   0.0800 
 23 H        1.2120     3.8270     0.9940 H     1 <1>   0.0800 
 24 H       -3.9770    -0.5980     0.6690 H     1 <1>   0.1500 
 25 H       -4.4840     2.2660    -2.4730 H     1 <1>   0.1500 
 26 H       -5.7080    -0.8710    -1.1960 H     1 <1>   0.0800 
 27 H       -6.0870     0.4940    -2.2100 H     1 <1>   0.0800 
 28 H       -6.4250     0.4300     0.8000 H     1 <1>   0.0800 
 29 H       -7.9570    -1.0190    -0.4050 H     1 <1>   0.4500 
 30 H       -8.4600     0.2700    -1.3150 H     1 <1>   0.4500 
 31 H       -7.3040     2.4990    -1.2290 H     1 <1>   0.0800 
 32 H       -6.1010     2.7100     0.0010 H     1 <1>   0.0800 
 33 H       -8.7560     0.0780     1.6140 H     1 <1>   0.0800 
 34 H      -10.0350    -0.1870     0.4500 H     1 <1>   0.0800 
 35 H       -8.2970     3.7130     0.6270 H     1 <1>   0.0800 
 36 H       -7.7240     2.5360     1.7710 H     1 <1>   0.0800 
 37 H      -10.0760     2.1130     1.3750 H     1 <1>   0.0800 
 38 H       -9.8550     2.1100    -0.3440 H     1 <1>   0.0800 
@<TRIPOS>BOND
  1   1   2  1   
  2   1   3  1   
  3   2   4  ar  
  4   2   5  ar  
  5   3   6  1   
  6   3  17  1   
  7   3  18  1   
  8   4   7  ar  
  9   4  19  1   
 10   5   8  ar  
 11   5  20  1   
 12   6  21  1   
 13   6  22  1   
 14   6  23  1   
 15   7   9  ar  
 16   7  24  1   
 17   8   9  ar  
 18   8  25  1   
 19   9  10  1   
 20  10  11  1   
 21  10  26  1   
 22  10  27  1   
 23  11  12  1   
 24  11  13  1   
 25  11  28  1   
 26  12  14  1   
 27  12  29  1   
 28  12  30  1   
 29  13  15  1   
 30  13  31  1   
 31  13  32  1   
 32  14  16  1   
 33  14  33  1   
 34  14  34  1   
 35  15  16  1   
 36  15  35  1   
 37  15  36  1   
 38  16  37  1   
 39  16  38  1   
@<TRIPOS>SUBSTRUCTURE
  1 ****   9 GROUP 4 **** **** 0

# MOE 2024.06 (io_trps.svl 2023.06)
