@<TRIPOS>MOLECULE
NONAME
53 55 1 0 0 
SMALL
USER_CHARGES


@<TRIPOS>ATOM
  1 F       -0.1550    -1.7330    -2.3340 F     1 <1>  -0.1900 
  2 C       -1.0940    -1.5620    -1.4310 C.ar  1 <1>   0.1900 
  3 C       -0.9830    -2.2040    -0.1920 C.ar  1 <1>   0.1000 
  4 C       -2.1570    -0.7440    -1.7600 C.ar  1 <1>  -0.1500 
  5 N        0.0800    -3.0410     0.1790 N.pl3 1 <1>  -0.8380 
  6 C       -2.0070    -1.9850     0.7210 C.ar  1 <1>  -0.1500 
  7 C       -3.1610    -0.5470    -0.8270 C.ar  1 <1>  -0.1500 
  8 C        1.3960    -2.3520     0.3470 C.3   1 <1>   0.2090 
  9 C        0.1640    -4.3270    -0.5770 C.3   1 <1>   0.2090 
 10 C       -3.0820    -1.1680     0.4100 C.ar  1 <1>  -0.1500 
 11 C        2.4480    -3.3030     0.9540 C.3   1 <1>   0.3430 
 12 C        1.2220    -5.2650     0.0400 C.3   1 <1>   0.3430 
 13 N        2.5680    -4.6000     0.1870 N.4   1 <1>  -0.9590 
 14 C        3.5730    -5.5100     0.7980 C.3   1 <1>   0.4860 
 15 C        4.9310    -4.8390     0.7430 C.ar  1 <1>  -0.1430 
 16 C        5.4780    -4.2800     1.8900 C.ar  1 <1>  -0.1500 
 17 C        5.6370    -4.7710    -0.4510 C.ar  1 <1>  -0.1500 
 18 C        6.7070    -3.6500     1.8370 C.ar  1 <1>  -0.1500 
 19 C        6.8690    -4.1420    -0.5030 C.ar  1 <1>  -0.1500 
 20 C        7.4100    -3.5740     0.6460 C.ar  1 <1>   0.0830 
 21 O        8.6060    -2.9380     0.6860 O.3   1 <1>  -0.3620 
 22 C        9.4540    -2.8850    -0.4390 C.3   1 <1>   0.1200 
 23 C       10.7310    -2.1450    -0.0400 C.3   1 <1>  -0.1600 
 24 C       11.7080    -2.0480    -1.2190 C.3   1 <1>  -0.1600 
 25 C       12.9850    -1.3070    -0.8140 C.3   1 <1>  -0.2400 
 26 H       -2.1990    -0.2720    -2.7250 H     1 <1>   0.1500 
 27 H       -1.9560    -2.4610     1.6840 H     1 <1>   0.1500 
 28 H       -4.0000     0.0870    -1.0600 H     1 <1>   0.1500 
 29 H        1.2670    -1.5030     0.9980 H     1 <1>   0.0800 
 30 H        1.7430    -1.9870    -0.6040 H     1 <1>   0.0800 
 31 H        0.4090    -4.1310    -1.6060 H     1 <1>   0.0800 
 32 H       -0.7980    -4.8110    -0.5540 H     1 <1>   0.0800 
 33 H       -3.8630    -1.0130     1.1350 H     1 <1>   0.1500 
 34 H        2.1630    -3.5100     1.9720 H     1 <1>   0.0800 
 35 H        3.4010    -2.7980     0.9730 H     1 <1>   0.0800 
 36 H        1.3100    -6.1440    -0.5770 H     1 <1>   0.0800 
 37 H        0.8660    -5.5740     1.0090 H     1 <1>   0.0800 
 38 H        2.9130    -4.3540    -0.7490 H     1 <1>   0.4500 
 39 H        3.6140    -6.4400     0.2530 H     1 <1>   0.0800 
 40 H        3.3090    -5.7250     1.8210 H     1 <1>   0.0800 
 41 H        4.9630    -4.3280     2.8350 H     1 <1>   0.1500 
 42 H        5.2440    -5.2090    -1.3540 H     1 <1>   0.1500 
 43 H        7.1400    -3.2140     2.7210 H     1 <1>   0.1500 
 44 H        7.3950    -4.1030    -1.4390 H     1 <1>   0.1500 
 45 H        8.9420    -2.3600    -1.2270 H     1 <1>   0.0800 
 46 H        9.6790    -3.8930    -0.7440 H     1 <1>   0.0800 
 47 H       11.2010    -2.6720     0.7720 H     1 <1>   0.0800 
 48 H       10.4730    -1.1560     0.2940 H     1 <1>   0.0800 
 49 H       11.2410    -1.5250    -2.0360 H     1 <1>   0.0800 
 50 H       11.9670    -3.0370    -1.5590 H     1 <1>   0.0800 
 51 H       12.7540    -0.3070    -0.4900 H     1 <1>   0.0800 
 52 H       13.6590    -1.2480    -1.6510 H     1 <1>   0.0800 
 53 H       13.4820    -1.8240    -0.0120 H     1 <1>   0.0800 
@<TRIPOS>BOND
  1   1   2  1   
  2   2   3  ar  
  3   2   4  ar  
  4   3   5  1   
  5   3   6  ar  
  6   4   7  ar  
  7   4  26  1   
  8   5   8  1   
  9   5   9  1   
 10   6  10  ar  
 11   6  27  1   
 12   7  10  ar  
 13   7  28  1   
 14   8  11  1   
 15   8  29  1   
 16   8  30  1   
 17   9  12  1   
 18   9  31  1   
 19   9  32  1   
 20  10  33  1   
 21  11  13  1   
 22  11  34  1   
 23  11  35  1   
 24  12  13  1   
 25  12  36  1   
 26  12  37  1   
 27  13  14  1   
 28  13  38  1   
 29  14  15  1   
 30  14  39  1   
 31  14  40  1   
 32  15  16  ar  
 33  15  17  ar  
 34  16  18  ar  
 35  16  41  1   
 36  17  19  ar  
 37  17  42  1   
 38  18  20  ar  
 39  18  43  1   
 40  19  20  ar  
 41  19  44  1   
 42  20  21  1   
 43  21  22  1   
 44  22  23  1   
 45  22  45  1   
 46  22  46  1   
 47  23  24  1   
 48  23  47  1   
 49  23  48  1   
 50  24  25  1   
 51  24  49  1   
 52  24  50  1   
 53  25  51  1   
 54  25  52  1   
 55  25  53  1   
@<TRIPOS>SUBSTRUCTURE
  1 ****  11 GROUP 4 **** **** 0

# MOE 2024.06 (io_trps.svl 2023.06)
