@<TRIPOS>MOLECULE
NONAME
31 31 1 0 0 
SMALL
USER_CHARGES


@<TRIPOS>ATOM
  1 S        0.1030    -0.0730    -0.4920 S.3   1 <1>  -0.3710 
  2 C       -1.4690     0.6790    -0.0640 C.2   1 <1>   0.6510 
  3 C        1.3040     1.3150    -0.2900 C.3   1 <1>   0.0700 
  4 N       -1.4370     1.9200     0.2390 N.2   1 <1>  -0.6210 
  5 N       -2.5860    -0.1240    -0.0990 N.am  1 <1>  -0.4200 
  6 C        2.6970     0.7850    -0.6220 C.3   1 <1>  -0.2400 
  7 C       -2.6140     2.5300     0.5700 C.2   1 <1>   0.0210 
  8 C       -3.7910     0.4640     0.2530 C.2   1 <1>   0.6160 
  9 C       -2.5480    -1.5500    -0.4910 C.3   1 <1>   0.2780 
 10 O       -2.5400     3.7320     0.8440 O.3   1 <1>  -0.8500 
 11 C       -3.8070     1.8150     0.5890 C.2   1 <1>  -0.1240 
 12 O       -4.8140    -0.2510     0.2470 O.2   1 <1>  -0.5700 
 13 C       -2.3160    -2.4140     0.7370 C.2   1 <1>  -0.2880 
 14 C       -5.1090     2.5110     0.9720 C.3   1 <1>  -0.0220 
 15 C       -1.2640    -3.2160     0.9360 C.2   1 <1>  -0.3000 
 16 C       -5.8470     3.0070    -0.2750 C.3   1 <1>  -0.2400 
 17 H        1.2300     1.6550     0.7290 H     1 <1>   0.0800 
 18 H        0.9980     2.1020    -0.9570 H     1 <1>   0.0800 
 19 H        2.9530    -0.0180     0.0450 H     1 <1>   0.0800 
 20 H        3.4200     1.5730    -0.5120 H     1 <1>   0.0800 
 21 H        2.7230     0.4270    -1.6350 H     1 <1>   0.0800 
 22 H       -1.7780    -1.7190    -1.2220 H     1 <1>   0.0800 
 23 H       -3.4790    -1.8280    -0.9530 H     1 <1>   0.0800 
 24 H       -3.1110    -2.3050     1.4550 H     1 <1>   0.1500 
 25 H       -4.8870     3.3490     1.6100 H     1 <1>   0.0800 
 26 H       -5.7350     1.8360     1.5260 H     1 <1>   0.0800 
 27 H       -1.1260    -3.8140     1.8200 H     1 <1>   0.1500 
 28 H       -0.4520    -3.3330     0.2390 H     1 <1>   0.1500 
 29 H       -5.2100     3.6890    -0.8120 H     1 <1>   0.0800 
 30 H       -6.7490     3.5180     0.0070 H     1 <1>   0.0800 
 31 H       -6.0910     2.1780    -0.9140 H     1 <1>   0.0800 
@<TRIPOS>BOND
  1   1   2  1   
  2   1   3  1   
  3   2   4  2   
  4   2   5  1   
  5   3   6  1   
  6   3  17  1   
  7   3  18  1   
  8   4   7  1   
  9   5   8  am  
 10   5   9  1   
 11   6  19  1   
 12   6  20  1   
 13   6  21  1   
 14   7  10  1   
 15   7  11  2   
 16   8  11  1   
 17   8  12  2   
 18   9  13  1   
 19   9  22  1   
 20   9  23  1   
 21  11  14  1   
 22  13  15  2   
 23  13  24  1   
 24  14  16  1   
 25  14  25  1   
 26  14  26  1   
 27  15  27  1   
 28  15  28  1   
 29  16  29  1   
 30  16  30  1   
 31  16  31  1   
@<TRIPOS>SUBSTRUCTURE
  1 ****   2 GROUP 4 **** **** 0

# MOE 2024.06 (io_trps.svl 2023.06)
