@<TRIPOS>MOLECULE
NONAME
51 53 1 0 0 
SMALL
USER_CHARGES


@<TRIPOS>ATOM
  1 S       -1.2730     0.1280     0.1600 S.3   1 <1>  -0.3320 
  2 C       -1.2740     1.8170     0.7960 C.ar  1 <1>   0.1020 
  3 C        0.3500    -0.1370    -0.6860 C.3   1 <1>   0.2140 
  4 C       -2.2370     2.1760     1.7430 C.ar  1 <1>   0.0860 
  5 C       -0.3340     2.7300     0.3390 C.ar  1 <1>  -0.1500 
  6 C        0.4740    -1.6080    -1.0450 C.ar  1 <1>  -0.1440 
  7 C       -3.2380     1.2560     2.2380 C.2   1 <1>   0.5440 
  8 C       -2.2070     3.4840     2.2250 C.ar  1 <1>  -0.1500 
  9 C       -0.3360     4.0230     0.8310 C.ar  1 <1>  -0.1500 
 10 C        0.6250    -2.5570    -0.0450 C.ar  1 <1>  -0.1500 
 11 C        0.4470    -2.0170    -2.3700 C.ar  1 <1>  -0.1500 
 12 O       -3.1220     0.8170     3.3670 O.2   1 <1>  -0.5700 
 13 N       -4.3470     0.9060     1.4940 N.am  1 <1>  -0.6600 
 14 C       -1.2720     4.3990     1.7770 C.ar  1 <1>  -0.1500 
 15 C        0.7520    -3.8980    -0.3650 C.ar  1 <1>  -0.1500 
 16 C        0.5740    -3.3570    -2.6920 C.ar  1 <1>  -0.1500 
 17 C       -5.3280    -0.1190     1.9730 C.3   1 <1>   0.1400 
 18 C       -4.6490     1.4460     0.1290 C.3   1 <1>   0.1400 
 19 C        0.7280    -4.2980    -1.6890 C.ar  1 <1>  -0.1500 
 20 C       -5.5000    -1.2440     0.9420 C.3   1 <1>   0.1400 
 21 C       -4.8350     0.3120    -0.8920 C.3   1 <1>   0.1400 
 22 N       -5.8340    -0.6780    -0.3980 N.am  1 <1>  -0.6600 
 23 C       -7.0020    -0.9280    -1.0640 C.2   1 <1>   0.7800 
 24 O       -7.2840    -0.3920    -2.1190 O.2   1 <1>  -0.5700 
 25 O       -7.8590    -1.7900    -0.5130 O.3   1 <1>  -0.4300 
 26 C       -9.0800    -2.0970    -1.1440 C.3   1 <1>   0.1200 
 27 C       -9.8260    -3.1010    -0.2710 C.3   1 <1>  -0.2400 
 28 H        1.1230     0.1590     0.0000 H     1 <1>   0.0800 
 29 H        0.3620     0.4850    -1.5620 H     1 <1>   0.0800 
 30 H        0.3980     2.4620    -0.3960 H     1 <1>   0.1500 
 31 H       -2.9310     3.7770     2.9670 H     1 <1>   0.1500 
 32 H        0.3910     4.7370     0.4820 H     1 <1>   0.1500 
 33 H        0.6380    -2.2550     0.9880 H     1 <1>   0.1500 
 34 H        0.3250    -1.2960    -3.1590 H     1 <1>   0.1500 
 35 H       -1.2710     5.4030     2.1660 H     1 <1>   0.1500 
 36 H        0.8690    -4.6280     0.4170 H     1 <1>   0.1500 
 37 H        0.5520    -3.6680    -3.7210 H     1 <1>   0.1500 
 38 H       -6.2780     0.3570     2.1430 H     1 <1>   0.0800 
 39 H       -5.0050    -0.5490     2.9050 H     1 <1>   0.0800 
 40 H       -3.8650     2.0980    -0.2110 H     1 <1>   0.0800 
 41 H       -5.5560     2.0230     0.1770 H     1 <1>   0.0800 
 42 H        0.8270    -5.3400    -1.9390 H     1 <1>   0.1500 
 43 H       -6.2670    -1.9190     1.2780 H     1 <1>   0.0800 
 44 H       -4.5810    -1.7990     0.8710 H     1 <1>   0.0800 
 45 H       -3.8950    -0.1870    -1.0500 H     1 <1>   0.0800 
 46 H       -5.1480     0.7280    -1.8340 H     1 <1>   0.0800 
 47 H       -8.8670    -2.5110    -2.1150 H     1 <1>   0.0800 
 48 H       -9.6450    -1.1860    -1.2560 H     1 <1>   0.0800 
 49 H       -9.2440    -3.9980    -0.1600 H     1 <1>   0.0800 
 50 H      -10.7640    -3.3540    -0.7300 H     1 <1>   0.0800 
 51 H      -10.0220    -2.6750     0.6970 H     1 <1>   0.0800 
@<TRIPOS>BOND
  1   1   2  1   
  2   1   3  1   
  3   2   4  ar  
  4   2   5  ar  
  5   3   6  1   
  6   3  28  1   
  7   3  29  1   
  8   4   7  1   
  9   4   8  ar  
 10   5   9  ar  
 11   5  30  1   
 12   6  10  ar  
 13   6  11  ar  
 14   7  12  2   
 15   7  13  am  
 16   8  14  ar  
 17   8  31  1   
 18   9  14  ar  
 19   9  32  1   
 20  10  15  ar  
 21  10  33  1   
 22  11  16  ar  
 23  11  34  1   
 24  13  17  1   
 25  13  18  1   
 26  14  35  1   
 27  15  19  ar  
 28  15  36  1   
 29  16  19  ar  
 30  16  37  1   
 31  17  20  1   
 32  17  38  1   
 33  17  39  1   
 34  18  21  1   
 35  18  40  1   
 36  18  41  1   
 37  19  42  1   
 38  20  22  1   
 39  20  43  1   
 40  20  44  1   
 41  21  22  1   
 42  21  45  1   
 43  21  46  1   
 44  22  23  am  
 45  23  24  2   
 46  23  25  1   
 47  25  26  1   
 48  26  27  1   
 49  26  47  1   
 50  26  48  1   
 51  27  49  1   
 52  27  50  1   
 53  27  51  1   
@<TRIPOS>SUBSTRUCTURE
  1 ****   1 GROUP 4 **** **** 0

# MOE 2024.06 (io_trps.svl 2023.06)
