@<TRIPOS>MOLECULE
NONAME
56 58 1 0 0 
SMALL
USER_CHARGES


@<TRIPOS>ATOM
  1 O       -0.2140     1.1550    -1.3590 O.2   1 <1>  -0.5700 
  2 C       -0.1750     2.0340    -0.5350 C.2   1 <1>   0.5690 
  3 N       -1.3360     2.6080    -0.1370 N.am  1 <1>  -0.7300 
  4 C        1.1720     2.4920     0.0360 C.3   1 <1>  -0.0190 
  5 C       -1.5640     3.7930     0.7360 C.3   1 <1>   0.1400 
  6 C        1.7740     3.6250    -0.8180 C.3   1 <1>  -0.1600 
  7 C        2.1820     1.3320     0.1690 C.3   1 <1>  -0.1600 
  8 C       -2.7190     4.6850     0.2140 C.3   1 <1>   0.1430 
  9 C        3.1160     4.1100    -0.2500 C.3   1 <1>  -0.1600 
 10 C        3.5220     1.8140     0.7420 C.3   1 <1>  -0.1600 
 11 C       -4.0860     3.9580     0.1630 C.ar  1 <1>  -0.1430 
 12 C       -2.8410     5.9180     1.1340 C.3   1 <1>  -0.1600 
 13 C       -2.3100     5.2670    -1.1670 C.3   1 <1>  -0.1600 
 14 C        4.1090     2.9490    -0.1070 C.3   1 <1>  -0.1600 
 15 C       -5.1480     4.5450    -0.5200 C.ar  1 <1>  -0.1500 
 16 C       -4.3230     2.7400     0.8000 C.ar  1 <1>  -0.1500 
 17 C       -2.0710     7.0440     0.4490 C.3   1 <1>  -0.1600 
 18 C       -2.3050     6.7910    -1.0330 C.3   1 <1>  -0.1600 
 19 C       -6.3920     3.9440    -0.5900 C.ar  1 <1>   0.0820 
 20 C       -5.5590     2.1210     0.7240 C.ar  1 <1>  -0.1500 
 21 O       -7.3710     4.6100    -1.2510 O.3   1 <1>  -0.3620 
 22 C       -6.5940     2.7020     0.0160 C.ar  1 <1>   0.0820 
 23 C       -8.4620     5.0510    -0.4740 C.3   1 <1>   0.0400 
 24 O       -7.7650     2.0230    -0.0540 O.3   1 <1>  -0.3630 
 25 C       -8.1460     1.5690    -1.3350 C.3   1 <1>   0.0400 
 26 H       -2.1790     2.2420    -0.5900 H     1 <1>   0.3700 
 27 H        1.0000     2.8680     1.0270 H     1 <1>   0.0800 
 28 H       -0.6660     4.3830     0.7860 H     1 <1>   0.0800 
 29 H       -1.7840     3.4570     1.7340 H     1 <1>   0.0800 
 30 H        1.0880     4.4520    -0.8650 H     1 <1>   0.0800 
 31 H        1.9220     3.2660    -1.8220 H     1 <1>   0.0800 
 32 H        2.3500     0.8920    -0.8000 H     1 <1>   0.0800 
 33 H        1.7700     0.5680     0.8060 H     1 <1>   0.0800 
 34 H        2.9560     4.5620     0.7140 H     1 <1>   0.0800 
 35 H        3.5330     4.8590    -0.9010 H     1 <1>   0.0800 
 36 H        4.2160     0.9910     0.7710 H     1 <1>   0.0800 
 37 H        3.3780     2.1590     1.7510 H     1 <1>   0.0800 
 38 H       -2.4760     5.7340     2.1290 H     1 <1>   0.0800 
 39 H       -3.8720     6.2170     1.2130 H     1 <1>   0.0800 
 40 H       -2.9600     4.9470    -1.9620 H     1 <1>   0.0800 
 41 H       -1.3160     4.9540    -1.4340 H     1 <1>   0.0800 
 42 H        5.0180     3.3050     0.3460 H     1 <1>   0.0800 
 43 H        4.3540     2.5690    -1.0840 H     1 <1>   0.0800 
 44 H       -5.0280     5.4950    -1.0070 H     1 <1>   0.1500 
 45 H       -3.5590     2.2420     1.3680 H     1 <1>   0.1500 
 46 H       -1.0210     6.9570     0.6700 H     1 <1>   0.0800 
 47 H       -2.4190     8.0160     0.7530 H     1 <1>   0.0800 
 48 H       -3.2690     7.1810    -1.3140 H     1 <1>   0.0800 
 49 H       -1.5490     7.2500    -1.6470 H     1 <1>   0.0800 
 50 H       -5.7240     1.1770     1.2110 H     1 <1>   0.1500 
 51 H       -9.0970     5.6540    -1.0970 H     1 <1>   0.0800 
 52 H       -8.0880     5.6350     0.3490 H     1 <1>   0.0800 
 53 H       -9.0080     4.2000    -0.1090 H     1 <1>   0.0800 
 54 H       -9.0250     0.9610    -1.2280 H     1 <1>   0.0800 
 55 H       -7.3420     0.9860    -1.7490 H     1 <1>   0.0800 
 56 H       -8.3580     2.4130    -1.9650 H     1 <1>   0.0800 
@<TRIPOS>BOND
  1   1   2  2   
  2   2   3  am  
  3   2   4  1   
  4   3   5  1   
  5   3  26  1   
  6   4   6  1   
  7   4   7  1   
  8   4  27  1   
  9   5   8  1   
 10   5  28  1   
 11   5  29  1   
 12   6   9  1   
 13   6  30  1   
 14   6  31  1   
 15   7  10  1   
 16   7  32  1   
 17   7  33  1   
 18   8  11  1   
 19   8  12  1   
 20   8  13  1   
 21   9  14  1   
 22   9  34  1   
 23   9  35  1   
 24  10  14  1   
 25  10  36  1   
 26  10  37  1   
 27  11  15  ar  
 28  11  16  ar  
 29  12  17  1   
 30  12  38  1   
 31  12  39  1   
 32  13  18  1   
 33  13  40  1   
 34  13  41  1   
 35  14  42  1   
 36  14  43  1   
 37  15  19  ar  
 38  15  44  1   
 39  16  20  ar  
 40  16  45  1   
 41  17  18  1   
 42  17  46  1   
 43  17  47  1   
 44  18  48  1   
 45  18  49  1   
 46  19  21  1   
 47  19  22  ar  
 48  20  22  ar  
 49  20  50  1   
 50  21  23  1   
 51  22  24  1   
 52  23  51  1   
 53  23  52  1   
 54  23  53  1   
 55  24  25  1   
 56  25  54  1   
 57  25  55  1   
 58  25  56  1   
@<TRIPOS>SUBSTRUCTURE
  1 ****   8 GROUP 4 **** **** 0

# MOE 2024.06 (io_trps.svl 2023.06)
