@<TRIPOS>MOLECULE
NONAME
47 48 1 0 0 
SMALL
USER_CHARGES


@<TRIPOS>ATOM
  1 CL       0.1440     0.3200    -0.9380 Cl    1 <1>  -0.1770 
  2 C       -0.1700     1.8770    -0.2140 C.ar  1 <1>   0.1770 
  3 C       -1.4630     2.3630    -0.2000 C.ar  1 <1>  -0.1500 
  4 C        0.8820     2.5910     0.3310 C.ar  1 <1>  -0.1500 
  5 C       -1.7120     3.6050     0.3780 C.ar  1 <1>   0.0830 
  6 C        0.6320     3.8260     0.9060 C.ar  1 <1>  -0.1500 
  7 O       -2.9420     4.1730     0.4450 O.3   1 <1>  -0.3630 
  8 C       -0.6600     4.3260     0.9270 C.ar  1 <1>  -0.1500 
  9 C       -4.0770     3.5320    -0.0780 C.3   1 <1>   0.1200 
 10 C       -5.2690     4.4540     0.1740 C.3   1 <1>  -0.1600 
 11 C       -6.5580     3.8400    -0.3670 C.3   1 <1>   0.3430 
 12 N       -7.7300     4.6900    -0.0100 N.4   1 <1>  -0.9590 
 13 C       -9.0010     3.9140    -0.1990 C.3   1 <1>   0.3430 
 14 C       -7.7550     5.9720    -0.7810 C.3   1 <1>   0.3430 
 15 C      -10.2280     4.7210     0.2400 C.3   1 <1>  -0.0190 
 16 C       -8.9400     6.8280    -0.3260 C.3   1 <1>  -0.1600 
 17 C      -11.4720     3.8980    -0.0400 C.2   1 <1>   0.6590 
 18 C      -10.2750     6.0850    -0.4760 C.3   1 <1>  -0.1600 
 19 O      -11.4230     2.9050    -0.7180 O.2   1 <1>  -0.5700 
 20 O      -12.5920     4.3370     0.5100 O.3   1 <1>  -0.4300 
 21 C      -13.8180     3.6670     0.3240 C.3   1 <1>   0.1200 
 22 C      -14.8960     4.4370     1.0800 C.3   1 <1>  -0.2400 
 23 H       -2.2360     1.7640    -0.6370 H     1 <1>   0.1500 
 24 H        1.8770     2.1850     0.3040 H     1 <1>   0.1500 
 25 H        1.4390     4.3960     1.3340 H     1 <1>   0.1500 
 26 H       -0.8590     5.2850     1.3720 H     1 <1>   0.1500 
 27 H       -4.1960     2.5890     0.4300 H     1 <1>   0.0800 
 28 H       -3.9190     3.3740    -1.1320 H     1 <1>   0.0800 
 29 H       -5.0710     5.3930    -0.3110 H     1 <1>   0.0800 
 30 H       -5.3580     4.6080     1.2350 H     1 <1>   0.0800 
 31 H       -6.6820     2.8600     0.0670 H     1 <1>   0.0800 
 32 H       -6.4940     3.7270    -1.4370 H     1 <1>   0.0800 
 33 H       -7.6540     4.9310     0.9880 H     1 <1>   0.4500 
 34 H       -8.9640     2.9970     0.3680 H     1 <1>   0.0800 
 35 H       -9.1130     3.6510    -1.2390 H     1 <1>   0.0800 
 36 H       -7.8480     5.7630    -1.8350 H     1 <1>   0.0800 
 37 H       -6.8410     6.5210    -0.6240 H     1 <1>   0.0800 
 38 H      -10.1780     4.8750     1.3030 H     1 <1>   0.0800 
 39 H       -8.9680     7.7270    -0.9180 H     1 <1>   0.0800 
 40 H       -8.7950     7.1260     0.6980 H     1 <1>   0.0800 
 41 H      -11.0730     6.6840    -0.0690 H     1 <1>   0.0800 
 42 H      -10.4840     5.9340    -1.5230 H     1 <1>   0.0800 
 43 H      -13.7220     2.6630     0.7040 H     1 <1>   0.0800 
 44 H      -14.0350     3.6340    -0.7310 H     1 <1>   0.0800 
 45 H      -14.6650     4.4700     2.1290 H     1 <1>   0.0800 
 46 H      -15.8450     3.9470     0.9550 H     1 <1>   0.0800 
 47 H      -14.9770     5.4380     0.6960 H     1 <1>   0.0800 
@<TRIPOS>BOND
  1   1   2  1   
  2   2   3  ar  
  3   2   4  ar  
  4   3   5  ar  
  5   3  23  1   
  6   4   6  ar  
  7   4  24  1   
  8   5   7  1   
  9   5   8  ar  
 10   6   8  ar  
 11   6  25  1   
 12   7   9  1   
 13   8  26  1   
 14   9  10  1   
 15   9  27  1   
 16   9  28  1   
 17  10  11  1   
 18  10  29  1   
 19  10  30  1   
 20  11  12  1   
 21  11  31  1   
 22  11  32  1   
 23  12  13  1   
 24  12  14  1   
 25  12  33  1   
 26  13  15  1   
 27  13  34  1   
 28  13  35  1   
 29  14  16  1   
 30  14  36  1   
 31  14  37  1   
 32  15  17  1   
 33  15  18  1   
 34  15  38  1   
 35  16  18  1   
 36  16  39  1   
 37  16  40  1   
 38  17  19  2   
 39  17  20  1   
 40  18  41  1   
 41  18  42  1   
 42  20  21  1   
 43  21  22  1   
 44  21  43  1   
 45  21  44  1   
 46  22  45  1   
 47  22  46  1   
 48  22  47  1   
@<TRIPOS>SUBSTRUCTURE
  1 ****  11 GROUP 4 **** **** 0

# MOE 2024.06 (io_trps.svl 2023.06)
