@<TRIPOS>MOLECULE
NONAME
37 38 1 0 0 
SMALL
USER_CHARGES


@<TRIPOS>ATOM
  1 F       -1.5420    -0.1620     2.2710 F     1 <1>  -0.1900 
  2 C       -2.3990    -0.7570     1.4870 C.ar  1 <1>   0.1900 
  3 C       -3.3590    -1.5760     2.0490 C.ar  1 <1>  -0.1500 
  4 C       -2.3150    -0.5460     0.1250 C.ar  1 <1>  -0.1500 
  5 C       -4.2690    -2.2020     1.2140 C.ar  1 <1>  -0.1500 
  6 C       -3.2300    -1.1760    -0.7020 C.ar  1 <1>  -0.1500 
  7 C       -4.2120    -2.0000    -0.1620 C.ar  1 <1>  -0.1430 
  8 C       -5.2260    -2.6720    -1.0690 C.3   1 <1>   0.4870 
  9 N       -6.5330    -1.9880    -0.8880 N.4   1 <1>  -0.9590 
 10 C       -7.6780    -2.7610    -1.4150 C.3   1 <1>   0.3430 
 11 C       -6.5400    -0.5870    -1.3590 C.3   1 <1>   0.3430 
 12 C       -8.3850    -3.4180    -0.2330 C.3   1 <1>  -0.1600 
 13 C       -7.0420     0.3010    -0.2210 C.3   1 <1>  -0.1600 
 14 C       -9.2680    -2.4650     0.5970 C.3   1 <1>  -0.1600 
 15 C       -8.4620    -0.0130     0.2910 C.3   1 <1>  -0.1600 
 16 C       -8.5840    -1.2360     1.2290 C.3   1 <1>  -0.1600 
 17 H       -3.3830    -1.7170     3.1150 H     1 <1>   0.1500 
 18 H       -1.5470     0.0950    -0.2700 H     1 <1>   0.1500 
 19 H       -5.0120    -2.8480     1.6520 H     1 <1>   0.1500 
 20 H       -3.1610    -1.0160    -1.7660 H     1 <1>   0.1500 
 21 H       -5.3100    -3.7110    -0.7940 H     1 <1>   0.0800 
 22 H       -4.9090    -2.6120    -2.0970 H     1 <1>   0.0800 
 23 H       -6.6890    -1.9140     0.1250 H     1 <1>   0.4500 
 24 H       -7.3350    -3.5120    -2.1090 H     1 <1>   0.0800 
 25 H       -8.3720    -2.1130    -1.9270 H     1 <1>   0.0800 
 26 H       -7.1770    -0.4800    -2.2220 H     1 <1>   0.0800 
 27 H       -5.5440    -0.2770    -1.6320 H     1 <1>   0.0800 
 28 H       -7.6710    -3.9130     0.4020 H     1 <1>   0.0800 
 29 H       -9.0290    -4.1850    -0.6280 H     1 <1>   0.0800 
 30 H       -7.0460     1.3120    -0.5930 H     1 <1>   0.0800 
 31 H       -6.3390     0.2830     0.5940 H     1 <1>   0.0800 
 32 H       -9.6870    -3.0490     1.4010 H     1 <1>   0.0800 
 33 H      -10.1050    -2.1400     0.0010 H     1 <1>   0.0800 
 34 H       -9.1490    -0.0900    -0.5350 H     1 <1>   0.0800 
 35 H       -8.7790     0.8470     0.8590 H     1 <1>   0.0800 
 36 H       -7.6430    -1.4950     1.6810 H     1 <1>   0.0800 
 37 H       -9.2200    -0.9290     2.0440 H     1 <1>   0.0800 
@<TRIPOS>BOND
  1   1   2  1   
  2   2   3  ar  
  3   2   4  ar  
  4   3   5  ar  
  5   3  17  1   
  6   4   6  ar  
  7   4  18  1   
  8   5   7  ar  
  9   5  19  1   
 10   6   7  ar  
 11   6  20  1   
 12   7   8  1   
 13   8   9  1   
 14   8  21  1   
 15   8  22  1   
 16   9  10  1   
 17   9  11  1   
 18   9  23  1   
 19  10  12  1   
 20  10  24  1   
 21  10  25  1   
 22  11  13  1   
 23  11  26  1   
 24  11  27  1   
 25  12  14  1   
 26  12  28  1   
 27  12  29  1   
 28  13  15  1   
 29  13  30  1   
 30  13  31  1   
 31  14  16  1   
 32  14  32  1   
 33  14  33  1   
 34  15  16  1   
 35  15  34  1   
 36  15  35  1   
 37  16  36  1   
 38  16  37  1   
@<TRIPOS>SUBSTRUCTURE
  1 ****   7 GROUP 4 **** **** 0

# MOE 2024.06 (io_trps.svl 2023.06)
