@<TRIPOS>MOLECULE
NONAME
43 45 1 0 0 
SMALL
USER_CHARGES


@<TRIPOS>ATOM
  1 CL      -0.3180    -0.8180     0.0500 Cl    1 <1>  -0.1770 
  2 C        1.3180    -1.4270    -0.0310 C.ar  1 <1>   0.1770 
  3 C        1.6100    -2.4790    -0.8790 C.ar  1 <1>  -0.1500 
  4 C        2.2970    -0.8460     0.7540 C.ar  1 <1>  -0.1500 
  5 C        2.9070    -2.9570    -0.9390 C.ar  1 <1>  -0.1500 
  6 C        3.5920    -1.3300     0.6870 C.ar  1 <1>  -0.1500 
  7 C        3.9090    -2.3890    -0.1600 C.ar  1 <1>   0.1000 
  8 N        5.2020    -2.8910    -0.2410 N.pl3 1 <1>  -0.8380 
  9 C        5.7000    -3.6390     0.9480 C.3   1 <1>   0.2090 
 10 C        6.2150    -2.0120    -0.8940 C.3   1 <1>   0.2090 
 11 C        6.9930    -4.4120     0.6070 C.3   1 <1>   0.3430 
 12 C        7.5010    -2.8040    -1.2140 C.3   1 <1>   0.3430 
 13 N        8.0590    -3.5300    -0.0090 N.4   1 <1>  -0.9590 
 14 C        9.2850    -4.2970    -0.3940 C.3   1 <1>   0.3430 
 15 C       10.0450    -4.8240     0.8250 C.3   1 <1>  -0.0170 
 16 C       11.3220    -5.4840     0.3450 C.ar  1 <1>  -0.1430 
 17 C       12.4960    -4.7510     0.2500 C.ar  1 <1>  -0.1500 
 18 C       11.3240    -6.8230    -0.0150 C.ar  1 <1>  -0.1500 
 19 C       13.6570    -5.3490    -0.2060 C.ar  1 <1>  -0.1500 
 20 C       12.4860    -7.4210    -0.4710 C.ar  1 <1>  -0.1500 
 21 C       13.6520    -6.6840    -0.5680 C.ar  1 <1>  -0.1500 
 22 H        0.8300    -2.9130    -1.4790 H     1 <1>   0.1500 
 23 H        2.0420    -0.0280     1.4040 H     1 <1>   0.1500 
 24 H        3.1520    -3.7740    -1.5920 H     1 <1>   0.1500 
 25 H        4.3570    -0.8840     1.2940 H     1 <1>   0.1500 
 26 H        4.9430    -4.3350     1.2690 H     1 <1>   0.0800 
 27 H        5.8840    -2.9540     1.7580 H     1 <1>   0.0800 
 28 H        6.4450    -1.1810    -0.2500 H     1 <1>   0.0800 
 29 H        5.8020    -1.6170    -1.8070 H     1 <1>   0.0800 
 30 H        6.7360    -5.1990    -0.0830 H     1 <1>   0.0800 
 31 H        7.3680    -4.8710     1.5060 H     1 <1>   0.0800 
 32 H        8.2400    -2.1260    -1.6080 H     1 <1>   0.0800 
 33 H        7.2650    -3.5180    -1.9850 H     1 <1>   0.0800 
 34 H        8.3180    -2.8160     0.6840 H     1 <1>   0.4500 
 35 H        9.9500    -3.6560    -0.9510 H     1 <1>   0.0800 
 36 H        9.0180    -5.1250    -1.0310 H     1 <1>   0.0800 
 37 H        9.4580    -5.5470     1.3610 H     1 <1>   0.0800 
 38 H       10.2920    -4.0150     1.4900 H     1 <1>   0.0800 
 39 H       12.5250    -3.7120     0.5300 H     1 <1>   0.1500 
 40 H       10.4300    -7.4180     0.0570 H     1 <1>   0.1500 
 41 H       14.5680    -4.7800    -0.2780 H     1 <1>   0.1500 
 42 H       12.4860    -8.4610    -0.7490 H     1 <1>   0.1500 
 43 H       14.5560    -7.1500    -0.9220 H     1 <1>   0.1500 
@<TRIPOS>BOND
  1   1   2  1   
  2   2   3  ar  
  3   2   4  ar  
  4   3   5  ar  
  5   3  22  1   
  6   4   6  ar  
  7   4  23  1   
  8   5   7  ar  
  9   5  24  1   
 10   6   7  ar  
 11   6  25  1   
 12   7   8  1   
 13   8   9  1   
 14   8  10  1   
 15   9  11  1   
 16   9  26  1   
 17   9  27  1   
 18  10  12  1   
 19  10  28  1   
 20  10  29  1   
 21  11  13  1   
 22  11  30  1   
 23  11  31  1   
 24  12  13  1   
 25  12  32  1   
 26  12  33  1   
 27  13  14  1   
 28  13  34  1   
 29  14  15  1   
 30  14  35  1   
 31  14  36  1   
 32  15  16  1   
 33  15  37  1   
 34  15  38  1   
 35  16  17  ar  
 36  16  18  ar  
 37  17  19  ar  
 38  17  39  1   
 39  18  20  ar  
 40  18  40  1   
 41  19  21  ar  
 42  19  41  1   
 43  20  21  ar  
 44  20  42  1   
 45  21  43  1   
@<TRIPOS>SUBSTRUCTURE
  1 ****  13 GROUP 4 **** **** 0

# MOE 2024.06 (io_trps.svl 2023.06)
