@<TRIPOS>MOLECULE
NONAME
46 48 1 0 0 
SMALL
USER_CHARGES


@<TRIPOS>ATOM
  1 O        0.2850     1.7220     2.7350 O.2   1 <1>  -0.5700 
  2 C        0.1390     1.7590     1.5360 C.2   1 <1>   0.5690 
  3 N        1.1210     1.3200     0.6870 N.am  1 <1>  -0.6600 
  4 C       -1.1570     2.3520     1.0180 C.3   1 <1>  -0.0990 
  5 C        1.0710     1.2680    -0.7920 C.3   1 <1>   0.1400 
  6 C        2.3460     0.6690     1.1940 C.3   1 <1>   0.1400 
  7 C       -2.3050     1.3310     1.0450 C.3   1 <1>   0.2070 
  8 C        2.4470     0.7660    -1.2120 C.3   1 <1>  -0.1600 
  9 C        2.9390    -0.0430    -0.0160 C.3   1 <1>  -0.1600 
 10 C       -2.0900     0.2450    -0.0190 C.ar  1 <1>  -0.1440 
 11 C       -3.6930     1.9700     0.8840 C.ar  1 <1>  -0.1440 
 12 C       -1.5350    -0.9930     0.3000 C.ar  1 <1>   0.0820 
 13 C       -2.4330     0.4950    -1.3410 C.ar  1 <1>  -0.1500 
 14 C       -3.9050     3.2190     0.3080 C.ar  1 <1>  -0.1500 
 15 C       -4.7930     1.2520     1.3310 C.ar  1 <1>  -0.1500 
 16 O       -1.2050    -1.2690     1.5720 O.3   1 <1>  -0.5320 
 17 C       -1.3050    -1.9560    -0.6790 C.ar  1 <1>  -0.1440 
 18 C       -2.2160    -0.4580    -2.3200 C.ar  1 <1>  -0.1500 
 19 C       -5.1850     3.7350     0.1930 C.ar  1 <1>  -0.1500 
 20 C       -6.0730     1.7650     1.2160 C.ar  1 <1>  -0.1500 
 21 C       -1.6520    -1.6770    -1.9900 C.ar  1 <1>  -0.1500 
 22 C       -0.6850    -3.3070    -0.3440 C.3   1 <1>  -0.0970 
 23 C       -6.2700     3.0090     0.6470 C.ar  1 <1>  -0.1500 
 24 H       -1.0240     2.7400     0.0280 H     1 <1>   0.0800 
 25 H       -1.4080     3.1720     1.6630 H     1 <1>   0.0800 
 26 H        0.8630     2.2380    -1.2110 H     1 <1>   0.0800 
 27 H        0.3190     0.5650    -1.1000 H     1 <1>   0.0800 
 28 H        2.1140    -0.0200     1.9890 H     1 <1>   0.0800 
 29 H        3.0180     1.4270     1.5580 H     1 <1>   0.0800 
 30 H       -2.2990     0.8850     2.0240 H     1 <1>   0.0800 
 31 H        3.0930     1.6100    -1.3750 H     1 <1>   0.0800 
 32 H        2.3980     0.1800    -2.1130 H     1 <1>   0.0800 
 33 H        2.5400    -1.0410    -0.0620 H     1 <1>   0.0800 
 34 H        4.0120    -0.0930     0.0350 H     1 <1>   0.0800 
 35 H       -2.8740     1.4360    -1.6190 H     1 <1>   0.1500 
 36 H       -3.0860     3.8090    -0.0600 H     1 <1>   0.1500 
 37 H       -4.6520     0.2790     1.7700 H     1 <1>   0.1500 
 38 H       -0.7740    -2.1340     1.6640 H     1 <1>   0.4500 
 39 H       -2.4910    -0.2510    -3.3390 H     1 <1>   0.1500 
 40 H       -5.3360     4.7030    -0.2520 H     1 <1>   0.1500 
 41 H       -6.9140     1.1940     1.5690 H     1 <1>   0.1500 
 42 H       -1.4890    -2.4050    -2.7650 H     1 <1>   0.1500 
 43 H        0.2970    -3.1680     0.0720 H     1 <1>   0.0800 
 44 H       -0.5940    -3.9160    -1.2250 H     1 <1>   0.0800 
 45 H       -1.3030    -3.8310     0.3630 H     1 <1>   0.0800 
 46 H       -7.2640     3.4100     0.5570 H     1 <1>   0.1500 
@<TRIPOS>BOND
  1   1   2  2   
  2   2   3  am  
  3   2   4  1   
  4   3   5  1   
  5   3   6  1   
  6   4   7  1   
  7   4  24  1   
  8   4  25  1   
  9   5   8  1   
 10   5  26  1   
 11   5  27  1   
 12   6   9  1   
 13   6  28  1   
 14   6  29  1   
 15   7  10  1   
 16   7  11  1   
 17   7  30  1   
 18   8   9  1   
 19   8  31  1   
 20   8  32  1   
 21   9  33  1   
 22   9  34  1   
 23  10  12  ar  
 24  10  13  ar  
 25  11  14  ar  
 26  11  15  ar  
 27  12  16  1   
 28  12  17  ar  
 29  13  18  ar  
 30  13  35  1   
 31  14  19  ar  
 32  14  36  1   
 33  15  20  ar  
 34  15  37  1   
 35  16  38  1   
 36  17  21  ar  
 37  17  22  1   
 38  18  21  ar  
 39  18  39  1   
 40  19  23  ar  
 41  19  40  1   
 42  20  23  ar  
 43  20  41  1   
 44  21  42  1   
 45  22  43  1   
 46  22  44  1   
 47  22  45  1   
 48  23  46  1   
@<TRIPOS>SUBSTRUCTURE
  1 ****  10 GROUP 4 **** **** 0

# MOE 2024.06 (io_trps.svl 2023.06)
