@<TRIPOS>MOLECULE
NONAME
54 55 1 0 0 
SMALL
USER_CHARGES


@<TRIPOS>ATOM
  1 O      -10.9490     1.6940    -0.2470 O.2   1 <1>  -0.5700 
  2 C      -11.7080     1.1640    -1.0510 C.2   1 <1>   0.5440 
  3 N      -11.3180     1.1120    -2.3620 N.am  1 <1>  -0.4300 
  4 C      -12.9780     0.6110    -0.6220 C.ar  1 <1>   0.0860 
  5 N       -9.9890     1.5260    -2.8150 N.am  1 <1>  -0.4300 
  6 C      -13.5800    -0.4600    -1.2820 C.ar  1 <1>  -0.1500 
  7 C      -13.6510     1.1390     0.4790 C.ar  1 <1>  -0.1500 
  8 C       -8.8900     0.7780    -2.5430 C.2   1 <1>   0.5690 
  9 C      -14.7960    -0.9860    -0.8830 C.ar  1 <1>   0.0830 
 10 C      -14.8650     0.6310     0.9000 C.ar  1 <1>   0.0830 
 11 O       -8.8810    -0.4300    -2.5860 O.2   1 <1>  -0.5700 
 12 C       -7.6670     1.4560    -1.9960 C.3   1 <1>  -0.0990 
 13 O      -15.2540    -2.0170    -1.6460 O.3   1 <1>  -0.3630 
 14 C      -15.4440    -0.4580     0.2410 C.ar  1 <1>   0.0830 
 15 O      -15.4400     1.2270     1.9740 O.3   1 <1>  -0.3630 
 16 C       -7.8140     1.3400    -0.4810 C.3   1 <1>   0.3430 
 17 C      -16.6380    -2.2080    -1.8510 C.3   1 <1>   0.0400 
 18 O      -16.5960    -1.0030     0.7090 O.3   1 <1>  -0.3630 
 19 C      -16.6570     1.9050     1.7500 C.3   1 <1>   0.0400 
 20 N       -6.6320     1.8840     0.2470 N.4   1 <1>  -0.9590 
 21 C      -16.4760    -1.7780     1.8820 C.3   1 <1>   0.0400 
 22 C       -5.4440     0.9840     0.1330 C.3   1 <1>   0.3430 
 23 C       -7.0020     2.1120     1.6750 C.3   1 <1>   0.3430 
 24 C       -4.2440     1.6250     0.8330 C.3   1 <1>  -0.1600 
 25 C       -5.8380     2.7790     2.4100 C.3   1 <1>  -0.1600 
 26 C       -4.5500     1.9520     2.3000 C.3   1 <1>  -0.1600 
 27 H      -11.9010     0.6160    -3.0460 H     1 <1>   0.3700 
 28 H       -9.8890     2.5400    -2.9230 H     1 <1>   0.3700 
 29 H      -13.0960    -0.9160    -2.1270 H     1 <1>   0.1500 
 30 H      -13.2210     1.9640     1.0190 H     1 <1>   0.1500 
 31 H       -7.6350     2.4840    -2.3060 H     1 <1>   0.0800 
 32 H       -6.7990     0.9340    -2.3520 H     1 <1>   0.0800 
 33 H       -7.9650     0.3050    -0.2150 H     1 <1>   0.0800 
 34 H       -8.6970     1.8820    -0.1830 H     1 <1>   0.0800 
 35 H      -16.7670    -2.8000    -2.7380 H     1 <1>   0.0800 
 36 H      -17.1130    -1.2510    -1.9730 H     1 <1>   0.0800 
 37 H      -17.0460    -2.7300    -1.0050 H     1 <1>   0.0800 
 38 H      -16.9170     2.4340     2.6490 H     1 <1>   0.0800 
 39 H      -17.4260     1.1930     1.5110 H     1 <1>   0.0800 
 40 H      -16.5260     2.6000     0.9390 H     1 <1>   0.0800 
 41 H       -6.3790     2.7980    -0.1470 H     1 <1>   0.4500 
 42 H      -17.4420    -2.1830     2.1190 H     1 <1>   0.0800 
 43 H      -15.7750    -2.5730     1.7000 H     1 <1>   0.0800 
 44 H      -16.1310    -1.1520     2.6860 H     1 <1>   0.0800 
 45 H       -5.2020     0.8120    -0.9030 H     1 <1>   0.0800 
 46 H       -5.6630     0.0330     0.5920 H     1 <1>   0.0800 
 47 H       -7.2340     1.1700     2.1460 H     1 <1>   0.0800 
 48 H       -7.8760     2.7430     1.7350 H     1 <1>   0.0800 
 49 H       -3.9600     2.5200     0.3080 H     1 <1>   0.0800 
 50 H       -3.4090     0.9470     0.7880 H     1 <1>   0.0800 
 51 H       -6.0990     2.8940     3.4480 H     1 <1>   0.0800 
 52 H       -5.6790     3.7650     2.0080 H     1 <1>   0.0800 
 53 H       -3.7270     2.4960     2.7350 H     1 <1>   0.0800 
 54 H       -4.6650     1.0360     2.8560 H     1 <1>   0.0800 
@<TRIPOS>BOND
  1   1   2  2   
  2   2   3  am  
  3   2   4  1   
  4   3   5  1   
  5   3  27  1   
  6   4   6  ar  
  7   4   7  ar  
  8   5   8  am  
  9   5  28  1   
 10   6   9  ar  
 11   6  29  1   
 12   7  10  ar  
 13   7  30  1   
 14   8  11  2   
 15   8  12  1   
 16   9  13  1   
 17   9  14  ar  
 18  10  14  ar  
 19  10  15  1   
 20  12  16  1   
 21  12  31  1   
 22  12  32  1   
 23  13  17  1   
 24  14  18  1   
 25  15  19  1   
 26  16  20  1   
 27  16  33  1   
 28  16  34  1   
 29  17  35  1   
 30  17  36  1   
 31  17  37  1   
 32  18  21  1   
 33  19  38  1   
 34  19  39  1   
 35  19  40  1   
 36  20  22  1   
 37  20  23  1   
 38  20  41  1   
 39  21  42  1   
 40  21  43  1   
 41  21  44  1   
 42  22  24  1   
 43  22  45  1   
 44  22  46  1   
 45  23  25  1   
 46  23  47  1   
 47  23  48  1   
 48  24  26  1   
 49  24  49  1   
 50  24  50  1   
 51  25  26  1   
 52  25  51  1   
 53  25  52  1   
 54  26  53  1   
 55  26  54  1   
@<TRIPOS>SUBSTRUCTURE
  1 ****   2 GROUP 4 **** **** 0

# MOE 2024.06 (io_trps.svl 2023.06)
