@<TRIPOS>MOLECULE
NONAME
40 41 1 0 0 
SMALL
USER_CHARGES


@<TRIPOS>ATOM
  1 F        4.7400     5.6300     2.8110 F     1 <1>  -0.1900 
  2 C        4.7430     4.8220     1.7810 C.ar  1 <1>   0.1900 
  3 C        5.8050     3.9560     1.5760 C.ar  1 <1>   0.1900 
  4 C        3.6720     4.8500     0.9100 C.ar  1 <1>  -0.1500 
  5 F        6.8160     3.9340     2.4110 F     1 <1>  -0.1900 
  6 C        5.8180     3.1000     0.4900 C.ar  1 <1>  -0.1500 
  7 C        3.6670     3.9910    -0.1840 C.ar  1 <1>   0.1000 
  8 C        4.7440     3.1270    -0.3860 C.ar  1 <1>  -0.1500 
  9 N        2.5980     4.0040    -1.0650 N.pl3 1 <1>  -0.8690 
 10 C        1.7890     2.7750    -1.1840 C.3   1 <1>   0.3530 
 11 C        0.3840     3.1030    -0.7130 C.ar  1 <1>  -0.1430 
 12 C       -0.6150     3.4080    -1.6260 C.ar  1 <1>  -0.1500 
 13 C        0.0910     3.1090     0.6430 C.ar  1 <1>  -0.1500 
 14 C       -1.8940     3.7100    -1.1930 C.ar  1 <1>  -0.1500 
 15 C       -1.1870     3.4110     1.0780 C.ar  1 <1>  -0.1500 
 16 C       -2.1870     3.7120     0.1680 C.ar  1 <1>   0.0830 
 17 O       -3.4110     3.9960     0.6790 O.3   1 <1>  -0.3630 
 18 C       -4.5020     4.3040    -0.1590 C.3   1 <1>   0.1200 
 19 C       -5.7230     4.5640     0.7230 C.3   1 <1>  -0.1600 
 20 C       -6.9560     4.9070    -0.1230 C.3   1 <1>  -0.1600 
 21 C       -8.1770     5.1660     0.7640 C.3   1 <1>  -0.2400 
 22 H        2.8560     5.5270     1.0790 H     1 <1>   0.1500 
 23 H        6.6490     2.4350     0.3360 H     1 <1>   0.1500 
 24 H        4.7360     2.4800    -1.2450 H     1 <1>   0.1500 
 25 H        1.9510     4.7860    -0.9100 H     1 <1>   0.4000 
 26 H        2.2060     1.9850    -0.5820 H     1 <1>   0.0800 
 27 H        1.7780     2.4530    -2.2120 H     1 <1>   0.0800 
 28 H       -0.3990     3.4130    -2.6810 H     1 <1>   0.1500 
 29 H        0.8580     2.8820     1.3630 H     1 <1>   0.1500 
 30 H       -2.6440     3.9410    -1.9250 H     1 <1>   0.1500 
 31 H       -1.4180     3.4160     2.1280 H     1 <1>   0.1500 
 32 H       -4.6750     3.4660    -0.8110 H     1 <1>   0.0800 
 33 H       -4.2520     5.1810    -0.7310 H     1 <1>   0.0800 
 34 H       -5.5060     5.3810     1.3890 H     1 <1>   0.0800 
 35 H       -5.9240     3.6850     1.3100 H     1 <1>   0.0800 
 36 H       -7.1740     4.0930    -0.7940 H     1 <1>   0.0800 
 37 H       -6.7580     5.7850    -0.7150 H     1 <1>   0.0800 
 38 H       -8.4080     4.2930     1.3500 H     1 <1>   0.0800 
 39 H       -9.0310     5.4050     0.1560 H     1 <1>   0.0800 
 40 H       -7.9900     5.9900     1.4300 H     1 <1>   0.0800 
@<TRIPOS>BOND
  1   1   2  1   
  2   2   3  ar  
  3   2   4  ar  
  4   3   5  1   
  5   3   6  ar  
  6   4   7  ar  
  7   4  22  1   
  8   6   8  ar  
  9   6  23  1   
 10   7   8  ar  
 11   7   9  1   
 12   8  24  1   
 13   9  10  1   
 14   9  25  1   
 15  10  11  1   
 16  10  26  1   
 17  10  27  1   
 18  11  12  ar  
 19  11  13  ar  
 20  12  14  ar  
 21  12  28  1   
 22  13  15  ar  
 23  13  29  1   
 24  14  16  ar  
 25  14  30  1   
 26  15  16  ar  
 27  15  31  1   
 28  16  17  1   
 29  17  18  1   
 30  18  19  1   
 31  18  32  1   
 32  18  33  1   
 33  19  20  1   
 34  19  34  1   
 35  19  35  1   
 36  20  21  1   
 37  20  36  1   
 38  20  37  1   
 39  21  38  1   
 40  21  39  1   
 41  21  40  1   
@<TRIPOS>SUBSTRUCTURE
  1 ****  13 GROUP 4 **** **** 0

# MOE 2024.06 (io_trps.svl 2023.06)
