@<TRIPOS>MOLECULE
NONAME
52 53 1 0 0 
SMALL
USER_CHARGES


@<TRIPOS>ATOM
  1 O       -0.9340    -2.7650    -1.7560 O.2   1 <1>  -0.5700 
  2 C       -0.3950    -3.5060    -0.9570 C.2   1 <1>   0.5440 
  3 N       -1.2010    -4.2660    -0.1520 N.am  1 <1>  -0.7300 
  4 C        1.0520    -3.5650    -0.8410 C.ar  1 <1>   0.0860 
  5 C       -2.6650    -4.2970    -0.2630 C.3   1 <1>   0.2200 
  6 C        1.7050    -4.6660    -0.2870 C.ar  1 <1>  -0.1500 
  7 C        1.8540    -2.5140    -1.2830 C.ar  1 <1>  -0.1500 
  8 C       -3.2550    -3.1950     0.6090 C.3   1 <1>  -0.1600 
  9 C       -3.1870    -5.6520     0.1980 C.3   1 <1>  -0.1600 
 10 C        3.0800    -4.7260    -0.1560 C.ar  1 <1>   0.0830 
 11 C        3.2300    -2.5480    -1.1590 C.ar  1 <1>  -0.1500 
 12 C       -4.7860    -3.1830     0.5570 C.3   1 <1>   0.5030 
 13 C       -4.7200    -5.7200     0.1400 C.3   1 <1>   0.5030 
 14 O        3.5400    -5.8810     0.4040 O.3   1 <1>  -0.3630 
 15 C        3.8680    -3.6450    -0.5860 C.ar  1 <1>   0.0830 
 16 N       -5.3380    -4.5350     0.7600 N.4   1 <1>  -0.9060 
 17 C       -5.3150    -2.5910    -0.7530 C.3   1 <1>  -0.2400 
 18 C       -5.3290    -2.3420     1.7100 C.3   1 <1>  -0.2400 
 19 C       -5.2080    -6.9130     0.9610 C.3   1 <1>  -0.2400 
 20 C       -5.2350    -5.8890    -1.2920 C.3   1 <1>  -0.2400 
 21 C        4.8190    -6.3930     0.1040 C.3   1 <1>   0.0400 
 22 O        5.2200    -3.6730    -0.4260 O.3   1 <1>  -0.3630 
 23 C        6.0490    -2.5790    -0.7530 C.3   1 <1>   0.0400 
 24 H       -0.7730    -4.7940     0.6090 H     1 <1>   0.3700 
 25 H       -2.9300    -4.1340    -1.2960 H     1 <1>   0.0800 
 26 H        1.1380    -5.5140     0.0460 H     1 <1>   0.1500 
 27 H        1.3830    -1.6550    -1.7300 H     1 <1>   0.1500 
 28 H       -2.8820    -2.2420     0.2730 H     1 <1>   0.0800 
 29 H       -2.9240    -3.3320     1.6230 H     1 <1>   0.0800 
 30 H       -2.8560    -5.8330     1.2060 H     1 <1>   0.0800 
 31 H       -2.7720    -6.4240    -0.4260 H     1 <1>   0.0800 
 32 H        3.7860    -1.7020    -1.5160 H     1 <1>   0.1500 
 33 H       -6.3230    -4.5140     0.4880 H     1 <1>   0.4500 
 34 H       -5.3250    -4.6980     1.7680 H     1 <1>   0.4500 
 35 H       -4.8690    -3.0390    -1.6170 H     1 <1>   0.0800 
 36 H       -5.0680    -1.5440    -0.7980 H     1 <1>   0.0800 
 37 H       -6.3850    -2.6760    -0.8190 H     1 <1>   0.0800 
 38 H       -5.0100    -2.7270     2.6630 H     1 <1>   0.0800 
 39 H       -6.4040    -2.2970     1.6890 H     1 <1>   0.0800 
 40 H       -4.9610    -1.3330     1.6310 H     1 <1>   0.0800 
 41 H       -4.8980    -6.8360     1.9880 H     1 <1>   0.0800 
 42 H       -4.7920    -7.8240     0.5650 H     1 <1>   0.0800 
 43 H       -6.2790    -7.0020     0.9210 H     1 <1>   0.0800 
 44 H       -4.8260    -5.1620    -1.9650 H     1 <1>   0.0800 
 45 H       -6.3090    -5.8430    -1.3310 H     1 <1>   0.0800 
 46 H       -4.9380    -6.8510    -1.6720 H     1 <1>   0.0800 
 47 H        4.8380    -7.4310     0.3790 H     1 <1>   0.0800 
 48 H        5.5520    -5.8530     0.6760 H     1 <1>   0.0800 
 49 H        5.0020    -6.2870    -0.9510 H     1 <1>   0.0800 
 50 H        7.0600    -2.8390    -0.4980 H     1 <1>   0.0800 
 51 H        5.7380    -1.7220    -0.1820 H     1 <1>   0.0800 
 52 H        5.9770    -2.3880    -1.8090 H     1 <1>   0.0800 
@<TRIPOS>BOND
  1   1   2  2   
  2   2   3  am  
  3   2   4  1   
  4   3   5  1   
  5   3  24  1   
  6   4   6  ar  
  7   4   7  ar  
  8   5   8  1   
  9   5   9  1   
 10   5  25  1   
 11   6  10  ar  
 12   6  26  1   
 13   7  11  ar  
 14   7  27  1   
 15   8  12  1   
 16   8  28  1   
 17   8  29  1   
 18   9  13  1   
 19   9  30  1   
 20   9  31  1   
 21  10  14  1   
 22  10  15  ar  
 23  11  15  ar  
 24  11  32  1   
 25  12  16  1   
 26  12  17  1   
 27  12  18  1   
 28  13  16  1   
 29  13  19  1   
 30  13  20  1   
 31  14  21  1   
 32  15  22  1   
 33  16  33  1   
 34  16  34  1   
 35  17  35  1   
 36  17  36  1   
 37  17  37  1   
 38  18  38  1   
 39  18  39  1   
 40  18  40  1   
 41  19  41  1   
 42  19  42  1   
 43  19  43  1   
 44  20  44  1   
 45  20  45  1   
 46  20  46  1   
 47  21  47  1   
 48  21  48  1   
 49  21  49  1   
 50  22  23  1   
 51  23  50  1   
 52  23  51  1   
 53  23  52  1   
@<TRIPOS>SUBSTRUCTURE
  1 ****   3 GROUP 4 **** **** 0

# MOE 2024.06 (io_trps.svl 2023.06)
