@<TRIPOS>MOLECULE
NONAME
44 45 1 0 0 
SMALL
USER_CHARGES


@<TRIPOS>ATOM
  1 BR      -0.8440    -0.0580     0.9380 Br    1 <1>  -0.1110 
  2 C       -0.4980     1.7860     0.4850 C.ar  1 <1>   0.1110 
  3 C       -1.5590     2.6170     0.1470 C.ar  1 <1>   0.0830 
  4 C        0.8110     2.2260     0.5130 C.ar  1 <1>  -0.1500 
  5 O       -2.8130     2.0920     0.1490 O.3   1 <1>  -0.3630 
  6 C       -1.2760     3.9430    -0.1750 C.ar  1 <1>  -0.1500 
  7 C        1.0750     3.5460     0.1920 C.ar  1 <1>  -0.1500 
  8 C       -3.9470     2.8740    -0.1250 C.3   1 <1>   0.1200 
  9 C        0.0350     4.3980    -0.1500 C.ar  1 <1>  -0.1500 
 10 C       -5.1610     1.9460    -0.0110 C.3   1 <1>   0.3430 
 11 N       -6.4620     2.6400    -0.2920 N.4   1 <1>  -0.9590 
 12 C       -6.8110     3.6380     0.7640 C.3   1 <1>   0.3430 
 13 C       -7.5480     1.6310    -0.4600 C.3   1 <1>   0.3430 
 14 C       -8.0760     4.3910     0.3560 C.3   1 <1>  -0.1600 
 15 C       -8.8320     2.3300    -0.9000 C.3   1 <1>  -0.1600 
 16 C       -9.2560     3.4370     0.0840 C.3   1 <1>  -0.0190 
 17 C      -10.4670     4.1990    -0.4460 C.2   1 <1>   0.6590 
 18 O      -10.3910     4.8710    -1.4420 O.2   1 <1>  -0.5700 
 19 O      -11.5850     4.0690     0.2490 O.3   1 <1>  -0.4300 
 20 C      -12.7720     4.7220    -0.1410 C.3   1 <1>   0.1200 
 21 C      -13.8620     4.3630     0.8650 C.3   1 <1>  -0.2400 
 22 H        1.6040     1.5500     0.7800 H     1 <1>   0.1500 
 23 H       -2.0470     4.6370    -0.4470 H     1 <1>   0.1500 
 24 H        2.0880     3.9120     0.2070 H     1 <1>   0.1500 
 25 H       -3.8510     3.2650    -1.1230 H     1 <1>   0.0800 
 26 H       -3.9840     3.6660     0.6020 H     1 <1>   0.0800 
 27 H        0.2520     5.4230    -0.3990 H     1 <1>   0.1500 
 28 H       -5.1830     1.5230     0.9800 H     1 <1>   0.0800 
 29 H       -5.0270     1.1420    -0.7170 H     1 <1>   0.0800 
 30 H       -6.3820     3.1420    -1.1880 H     1 <1>   0.4500 
 31 H       -6.0060     4.3440     0.8930 H     1 <1>   0.0800 
 32 H       -6.9750     3.1360     1.7040 H     1 <1>   0.0800 
 33 H       -7.7170     1.1150     0.4720 H     1 <1>   0.0800 
 34 H       -7.2650     0.9030    -1.2040 H     1 <1>   0.0800 
 35 H       -7.8680     4.9810    -0.5210 H     1 <1>   0.0800 
 36 H       -8.3470     5.0750     1.1420 H     1 <1>   0.0800 
 37 H       -9.6210     1.6010    -0.9750 H     1 <1>   0.0800 
 38 H       -8.6900     2.7460    -1.8840 H     1 <1>   0.0800 
 39 H       -9.5410     2.9760     1.0140 H     1 <1>   0.0800 
 40 H      -13.0360     4.3900    -1.1310 H     1 <1>   0.0800 
 41 H      -12.5920     5.7840    -0.1530 H     1 <1>   0.0800 
 42 H      -14.0260     3.3010     0.8720 H     1 <1>   0.0800 
 43 H      -14.7810     4.8490     0.5910 H     1 <1>   0.0800 
 44 H      -13.5820     4.6930     1.8490 H     1 <1>   0.0800 
@<TRIPOS>BOND
  1   1   2  1   
  2   2   3  ar  
  3   2   4  ar  
  4   3   5  1   
  5   3   6  ar  
  6   4   7  ar  
  7   4  22  1   
  8   5   8  1   
  9   6   9  ar  
 10   6  23  1   
 11   7   9  ar  
 12   7  24  1   
 13   8  10  1   
 14   8  25  1   
 15   8  26  1   
 16   9  27  1   
 17  10  11  1   
 18  10  28  1   
 19  10  29  1   
 20  11  12  1   
 21  11  13  1   
 22  11  30  1   
 23  12  14  1   
 24  12  31  1   
 25  12  32  1   
 26  13  15  1   
 27  13  33  1   
 28  13  34  1   
 29  14  16  1   
 30  14  35  1   
 31  14  36  1   
 32  15  16  1   
 33  15  37  1   
 34  15  38  1   
 35  16  17  1   
 36  16  39  1   
 37  17  18  2   
 38  17  19  1   
 39  19  20  1   
 40  20  21  1   
 41  20  40  1   
 42  20  41  1   
 43  21  42  1   
 44  21  43  1   
 45  21  44  1   
@<TRIPOS>SUBSTRUCTURE
  1 ****  11 GROUP 4 **** **** 0

# MOE 2024.06 (io_trps.svl 2023.06)
