@<TRIPOS>MOLECULE
NONAME
40 41 1 0 0 
SMALL
USER_CHARGES


@<TRIPOS>ATOM
  1 S       -0.0500    -0.1190    -0.0430 S.o2  1 <1>   1.3330 
  2 O       -1.1620     0.7530    -0.3410 O.2   1 <1>  -0.6500 
  3 O        0.0280    -0.7760     1.2400 O.2   1 <1>  -0.6500 
  4 N        1.3820     0.7590    -0.2670 N.am  1 <1>  -0.8490 
  5 C        0.0270    -1.3430    -1.3340 C.3   1 <1>  -0.1350 
  6 C        2.5590     0.0570     0.2770 C.3   1 <1>   0.1960 
  7 C        1.2730     2.0990     0.3200 C.3   1 <1>   0.1960 
  8 C        3.8490     0.8000    -0.1030 C.3   1 <1>  -0.0190 
  9 C        2.5150     2.9340    -0.0140 C.3   1 <1>  -0.1600 
 10 C        5.0830     0.0560     0.3920 C.2   1 <1>   0.5690 
 11 C        3.8080     2.2410     0.4390 C.3   1 <1>  -0.1600 
 12 O        4.9770    -0.7060     1.3210 O.2   1 <1>  -0.5700 
 13 N        6.2670     0.3070    -0.2490 N.am  1 <1>  -0.5470 
 14 C        7.5540    -0.2160    -0.0480 C.ar  1 <1>   0.1170 
 15 C        8.6460     0.4980    -0.5250 C.ar  1 <1>  -0.1500 
 16 C        7.7960    -1.4250     0.5950 C.ar  1 <1>  -0.1500 
 17 C        9.9360     0.0250    -0.3630 C.ar  1 <1>  -0.1500 
 18 C        9.0840    -1.9000     0.7610 C.ar  1 <1>  -0.1500 
 19 C       10.1770    -1.1840     0.2820 C.ar  1 <1>  -0.1440 
 20 C       11.6120    -1.7050     0.4680 C.3   1 <1>   1.1630 
 21 F       11.6750    -3.0270     0.5790 F     1 <1>  -0.3400 
 22 F       12.1810    -1.2110     1.5600 F     1 <1>  -0.3400 
 23 F       12.4070    -1.3810    -0.5450 F     1 <1>  -0.3400 
 24 H       -0.8630    -1.9410    -1.3210 H     1 <1>   0.0800 
 25 H        0.8730    -1.9840    -1.1950 H     1 <1>   0.0800 
 26 H        0.1040    -0.8630    -2.2900 H     1 <1>   0.0800 
 27 H        2.6040    -0.9440    -0.1160 H     1 <1>   0.0800 
 28 H        2.4800    -0.0150     1.3510 H     1 <1>   0.0800 
 29 H        1.1530     2.0200     1.3890 H     1 <1>   0.0800 
 30 H        0.4070     2.6040    -0.0770 H     1 <1>   0.0800 
 31 H        3.8940     0.8300    -1.1770 H     1 <1>   0.0800 
 32 H        2.4340     3.8950     0.4640 H     1 <1>   0.0800 
 33 H        2.5410     3.0990    -1.0770 H     1 <1>   0.0800 
 34 H        4.6610     2.7990     0.0940 H     1 <1>   0.0800 
 35 H        3.8380     2.2150     1.5160 H     1 <1>   0.0800 
 36 H        6.2180     1.0300    -0.9630 H     1 <1>   0.3700 
 37 H        8.4930     1.4360    -1.0260 H     1 <1>   0.1500 
 38 H        6.9760    -2.0080     0.9720 H     1 <1>   0.1500 
 39 H       10.7590     0.6100    -0.7430 H     1 <1>   0.1500 
 40 H        9.2260    -2.8400     1.2700 H     1 <1>   0.1500 
@<TRIPOS>BOND
  1   1   2  2   
  2   1   3  2   
  3   1   4  am  
  4   1   5  1   
  5   4   6  1   
  6   4   7  1   
  7   5  24  1   
  8   5  25  1   
  9   5  26  1   
 10   6   8  1   
 11   6  27  1   
 12   6  28  1   
 13   7   9  1   
 14   7  29  1   
 15   7  30  1   
 16   8  10  1   
 17   8  11  1   
 18   8  31  1   
 19   9  11  1   
 20   9  32  1   
 21   9  33  1   
 22  10  12  2   
 23  10  13  am  
 24  11  34  1   
 25  11  35  1   
 26  13  14  1   
 27  13  36  1   
 28  14  15  ar  
 29  14  16  ar  
 30  15  17  ar  
 31  15  37  1   
 32  16  18  ar  
 33  16  38  1   
 34  17  19  ar  
 35  17  39  1   
 36  18  19  ar  
 37  18  40  1   
 38  19  20  1   
 39  20  21  1   
 40  20  22  1   
 41  20  23  1   
@<TRIPOS>SUBSTRUCTURE
  1 ****  10 GROUP 4 **** **** 0

# MOE 2024.06 (io_trps.svl 2023.06)
