@<TRIPOS>MOLECULE
NONAME
45 46 1 0 0 
SMALL
USER_CHARGES


@<TRIPOS>ATOM
  1 O       -0.2220     0.1210     1.3450 O.2   1 <1>  -0.5700 
  2 C       -0.3420    -1.0770     1.4450 C.2   1 <1>   0.5690 
  3 N       -1.5180    -1.6280     1.8930 N.am  1 <1>  -0.6600 
  4 C        0.8700    -1.9220     1.0640 C.3   1 <1>  -0.0990 
  5 C       -2.7390    -0.7640     1.9970 C.3   1 <1>   0.3200 
  6 C       -1.7760    -3.0720     2.1720 C.3   1 <1>   0.0600 
  7 C        0.9400    -2.3530    -0.4220 C.3   1 <1>   0.0000 
  8 C       -3.7270    -1.0710     0.8810 C.2   1 <1>   0.2980 
  9 C        2.2330    -3.1530    -0.6400 C.3   1 <1>  -0.2400 
 10 C        0.9670    -1.1260    -1.3460 C.3   1 <1>  -0.2400 
 11 C       -0.2500    -3.2390    -0.8170 C.3   1 <1>  -0.2400 
 12 O       -3.3890    -0.7810    -0.3480 O.3   1 <1>  -0.0190 
 13 N       -4.8710    -1.6060     1.0200 N.2   1 <1>  -0.5650 
 14 N       -4.4050    -1.1670    -1.0540 N.2   1 <1>  -0.4100 
 15 C       -5.2850    -1.6540    -0.2520 C.2   1 <1>   0.4620 
 16 C       -6.5750    -2.2010    -0.6410 C.ar  1 <1>   0.0540 
 17 C       -7.4880    -2.6750     0.3040 C.ar  1 <1>  -0.1500 
 18 C       -6.9530    -2.2740    -1.9820 C.ar  1 <1>  -0.1500 
 19 C       -8.7170    -3.1970    -0.0630 C.ar  1 <1>  -0.1440 
 20 C       -8.1760    -2.7950    -2.3620 C.ar  1 <1>  -0.1500 
 21 C       -9.0590    -3.2570    -1.4030 C.ar  1 <1>  -0.1500 
 22 C       -9.6850    -3.7050     0.9900 C.3   1 <1>  -0.0970 
 23 H        0.9360    -2.7820     1.6990 H     1 <1>   0.0800 
 24 H        1.7400    -1.3290     1.2820 H     1 <1>   0.0800 
 25 H       -2.4830     0.2790     1.9510 H     1 <1>   0.0800 
 26 H       -3.2140    -0.9380     2.9450 H     1 <1>   0.0800 
 27 H       -0.8650    -3.6220     2.3050 H     1 <1>   0.0800 
 28 H       -2.3290    -3.5060     1.3570 H     1 <1>   0.0800 
 29 H       -2.3570    -3.1700     3.0730 H     1 <1>   0.0800 
 30 H        2.2450    -4.0330    -0.0210 H     1 <1>   0.0800 
 31 H        3.0930    -2.5550    -0.3980 H     1 <1>   0.0800 
 32 H        2.3180    -3.4630    -1.6670 H     1 <1>   0.0800 
 33 H        1.7780    -0.4710    -1.0820 H     1 <1>   0.0800 
 34 H        0.0490    -0.5690    -1.2710 H     1 <1>   0.0800 
 35 H        1.0910    -1.4240    -2.3720 H     1 <1>   0.0800 
 36 H       -0.3010    -4.1100    -0.1890 H     1 <1>   0.0800 
 37 H       -0.1530    -3.5660    -1.8370 H     1 <1>   0.0800 
 38 H       -1.1750    -2.6960    -0.7340 H     1 <1>   0.0800 
 39 H       -7.2270    -2.6330     1.3460 H     1 <1>   0.1500 
 40 H       -6.2780    -1.9190    -2.7410 H     1 <1>   0.1500 
 41 H       -8.4420    -2.8410    -3.4030 H     1 <1>   0.1500 
 42 H      -10.0090    -3.6620    -1.7040 H     1 <1>   0.1500 
 43 H       -9.4860    -3.2470     1.9420 H     1 <1>   0.0800 
 44 H       -9.5860    -4.7710     1.0910 H     1 <1>   0.0800 
 45 H      -10.6980    -3.4750     0.7090 H     1 <1>   0.0800 
@<TRIPOS>BOND
  1   1   2  2   
  2   2   3  am  
  3   2   4  1   
  4   3   5  1   
  5   3   6  1   
  6   4   7  1   
  7   4  23  1   
  8   4  24  1   
  9   5   8  1   
 10   5  25  1   
 11   5  26  1   
 12   6  27  1   
 13   6  28  1   
 14   6  29  1   
 15   7   9  1   
 16   7  10  1   
 17   7  11  1   
 18   8  12  1   
 19   8  13  2   
 20   9  30  1   
 21   9  31  1   
 22   9  32  1   
 23  10  33  1   
 24  10  34  1   
 25  10  35  1   
 26  11  36  1   
 27  11  37  1   
 28  11  38  1   
 29  12  14  1   
 30  13  15  1   
 31  14  15  2   
 32  15  16  1   
 33  16  17  ar  
 34  16  18  ar  
 35  17  19  ar  
 36  17  39  1   
 37  18  20  ar  
 38  18  40  1   
 39  19  21  ar  
 40  19  22  1   
 41  20  21  ar  
 42  20  41  1   
 43  21  42  1   
 44  22  43  1   
 45  22  44  1   
 46  22  45  1   
@<TRIPOS>SUBSTRUCTURE
  1 ****   8 GROUP 4 **** **** 0

# MOE 2024.06 (io_trps.svl 2023.06)
