@<TRIPOS>MOLECULE
NONAME
41 43 1 0 0 
SMALL
USER_CHARGES


@<TRIPOS>ATOM
  1 O        2.8700     1.9330    -1.4280 O.co2 1 <1>  -0.9000 
  2 C        2.9910     1.5540    -0.2620 C.2   1 <1>   0.9060 
  3 O        3.3630     2.3260     0.6320 O.co2 1 <1>  -0.9000 
  4 C        2.7040     0.1160     0.1470 C.3   1 <1>  -0.1860 
  5 C        3.9380    -0.7750     0.5550 C.3   1 <1>  -0.0190 
  6 C        1.7730    -0.6500    -0.8300 C.3   1 <1>  -0.0800 
  7 C        5.3810    -0.2900     0.2610 C.2   1 <1>   0.5690 
  8 C        3.6840    -2.2250     0.0390 C.3   1 <1>  -0.0800 
  9 C        2.6030    -1.2000    -2.0080 C.3   1 <1>  -0.1600 
 10 C        1.1750    -1.8510    -0.0690 C.3   1 <1>  -0.1600 
 11 O        6.2050    -1.0970    -0.1110 O.2   1 <1>  -0.5700 
 12 N        5.7310     1.0020     0.5310 N.am  1 <1>  -0.5470 
 13 C        3.6430    -2.2210    -1.5050 C.3   1 <1>  -0.1600 
 14 C        2.3050    -2.7120     0.5380 C.3   1 <1>  -0.1600 
 15 C        6.9370     1.6990     0.3980 C.ar  1 <1>   0.1170 
 16 C        8.1880     1.0950     0.4760 C.ar  1 <1>  -0.1500 
 17 C        6.8760     3.0710     0.1950 C.ar  1 <1>  -0.1500 
 18 C        9.3510     1.8380     0.3530 C.ar  1 <1>  -0.1440 
 19 C        8.0300     3.8220     0.0730 C.ar  1 <1>  -0.1500 
 20 C        9.2670     3.2060     0.1520 C.ar  1 <1>  -0.1500 
 21 C       10.7060     1.1600     0.4370 C.3   1 <1>  -0.0970 
 22 H        2.1290     0.2470     1.0450 H     1 <1>   0.0800 
 23 H        3.9130    -0.8300     1.6280 H     1 <1>   0.0800 
 24 H        0.9920    -0.0010    -1.1910 H     1 <1>   0.0800 
 25 H        4.4530    -2.8920     0.3910 H     1 <1>   0.0800 
 26 H        3.1070    -0.3840    -2.4990 H     1 <1>   0.0800 
 27 H        1.9550    -1.6610    -2.7310 H     1 <1>   0.0800 
 28 H        0.5890    -2.4450    -0.7490 H     1 <1>   0.0800 
 29 H        0.5210    -1.5030     0.7100 H     1 <1>   0.0800 
 30 H        4.9180     1.6260     0.6990 H     1 <1>   0.3700 
 31 H        3.3870    -3.2040    -1.8590 H     1 <1>   0.0800 
 32 H        4.6100    -1.9750    -1.9100 H     1 <1>   0.0800 
 33 H        2.2710    -2.6510     1.6120 H     1 <1>   0.0800 
 34 H        2.1610    -3.7420     0.2640 H     1 <1>   0.0800 
 35 H        8.2420     0.0350     0.6370 H     1 <1>   0.1500 
 36 H        5.9070     3.5420     0.1290 H     1 <1>   0.1500 
 37 H        7.9600     4.8830    -0.0850 H     1 <1>   0.1500 
 38 H       10.1620     3.7950     0.0570 H     1 <1>   0.1500 
 39 H       10.6140     0.1070     0.2380 H     1 <1>   0.0800 
 40 H       11.1170     1.2920     1.4210 H     1 <1>   0.0800 
 41 H       11.3790     1.5850    -0.2850 H     1 <1>   0.0800 
@<TRIPOS>BOND
  1   1   2  ar  
  2   2   3  ar  
  3   2   4  1   
  4   4   5  1   
  5   4   6  1   
  6   4  22  1   
  7   5   7  1   
  8   5   8  1   
  9   5  23  1   
 10   6   9  1   
 11   6  10  1   
 12   6  24  1   
 13   7  11  2   
 14   7  12  am  
 15   8  13  1   
 16   8  14  1   
 17   8  25  1   
 18   9  13  1   
 19   9  26  1   
 20   9  27  1   
 21  10  14  1   
 22  10  28  1   
 23  10  29  1   
 24  12  15  1   
 25  12  30  1   
 26  13  31  1   
 27  13  32  1   
 28  14  33  1   
 29  14  34  1   
 30  15  16  ar  
 31  15  17  ar  
 32  16  18  ar  
 33  16  35  1   
 34  17  19  ar  
 35  17  36  1   
 36  18  20  ar  
 37  18  21  1   
 38  19  20  ar  
 39  19  37  1   
 40  20  38  1   
 41  21  39  1   
 42  21  40  1   
 43  21  41  1   
@<TRIPOS>SUBSTRUCTURE
  1 ****   7 GROUP 4 **** **** 0

# MOE 2024.06 (io_trps.svl 2023.06)
