@<TRIPOS>MOLECULE
NONAME
36 38 1 0 0 
SMALL
USER_CHARGES


@<TRIPOS>ATOM
  1 F       -2.2430     0.0480    -1.6210 F     1 <1>  -0.1900 
  2 C       -2.4430     0.8810    -0.6330 C.ar  1 <1>   0.1900 
  3 C       -1.5620     1.9330    -0.4280 C.ar  1 <1>  -0.1440 
  4 C       -3.5490     0.6690     0.1690 C.ar  1 <1>  -0.1500 
  5 C       -1.8260     2.7980     0.6260 C.ar  1 <1>  -0.1500 
  6 C       -0.3500     2.1580    -1.3210 C.3   1 <1>   0.2840 
  7 C       -3.7920     1.5400     1.2170 C.ar  1 <1>  -0.1500 
  8 C       -2.9290     2.6010     1.4420 C.ar  1 <1>  -0.1500 
  9 N        0.8770     2.1420    -0.5100 N.am  1 <1>  -0.7300 
 10 C        2.1070     1.8300    -0.9790 C.2   1 <1>   0.5690 
 11 O        2.2360     1.3180    -2.0680 O.2   1 <1>  -0.5700 
 12 C        3.3470     2.0430    -0.0930 C.3   1 <1>  -0.0190 
 13 C        3.4040     3.4120     0.9240 C.3   1 <1>  -0.1860 
 14 C        4.7840     2.0190    -0.9200 C.3   1 <1>   0.0580 
 15 C        2.2100     4.3440     0.8110 C.2   1 <1>   0.9060 
 16 C        4.8680     4.1400     0.6800 C.3   1 <1>   0.0580 
 17 C        6.2350     2.7490    -0.9170 C.2   1 <1>  -0.2880 
 18 C        4.7820     3.0820    -0.1210 C.3   1 <1>  -0.1600 
 19 O        1.2090     4.0560     1.4760 O.co2 1 <1>  -0.9000 
 20 O        2.2150     5.2950     0.0280 O.co2 1 <1>  -0.9000 
 21 C        6.2780     3.8640    -0.0780 C.2   1 <1>  -0.2880 
 22 H       -4.2020    -0.1610    -0.0260 H     1 <1>   0.1500 
 23 H       -1.1640     3.6290     0.8200 H     1 <1>   0.1500 
 24 H       -0.4310     3.1200    -1.7980 H     1 <1>   0.0800 
 25 H       -0.2830     1.4060    -2.0880 H     1 <1>   0.0800 
 26 H       -4.6450     1.3950     1.8570 H     1 <1>   0.1500 
 27 H       -3.1070     3.2820     2.2560 H     1 <1>   0.1500 
 28 H        0.8130     2.7330     0.3430 H     1 <1>   0.3700 
 29 H        3.3400     1.1800     0.5530 H     1 <1>   0.0800 
 30 H        3.3760     3.0660     1.9440 H     1 <1>   0.0800 
 31 H        4.5030     2.1250    -1.9580 H     1 <1>   0.0800 
 32 H        4.6210     5.1300     0.3220 H     1 <1>   0.0800 
 33 H        7.0130     2.3410    -1.5380 H     1 <1>   0.1500 
 34 H        4.3300     3.7430    -0.9700 H     1 <1>   0.0800 
 35 H        5.1780     2.3790     0.7930 H     1 <1>   0.0800 
 36 H        7.0980     4.5350     0.1140 H     1 <1>   0.1500 
@<TRIPOS>BOND
  1   1   2  1   
  2   2   3  ar  
  3   2   4  ar  
  4   3   5  ar  
  5   3   6  1   
  6   4   7  ar  
  7   4  22  1   
  8   5   8  ar  
  9   5  23  1   
 10   6   9  1   
 11   6  24  1   
 12   6  25  1   
 13   7   8  ar  
 14   7  26  1   
 15   8  27  1   
 16   9  10  am  
 17   9  28  1   
 18  10  11  2   
 19  10  12  1   
 20  12  13  1   
 21  12  14  1   
 22  12  29  1   
 23  13  15  1   
 24  13  16  1   
 25  13  30  1   
 26  14  17  1   
 27  14  18  1   
 28  14  31  1   
 29  15  19  ar  
 30  15  20  ar  
 31  16  18  1   
 32  16  21  1   
 33  16  32  1   
 34  17  21  2   
 35  17  33  1   
 36  18  34  1   
 37  18  35  1   
 38  21  36  1   
@<TRIPOS>SUBSTRUCTURE
  1 ****   9 GROUP 4 **** **** 0

# MOE 2024.06 (io_trps.svl 2023.06)
