@<TRIPOS>MOLECULE
NONAME
42 45 1 0 0 
SMALL
USER_CHARGES


@<TRIPOS>ATOM
  1 BR       1.3850    -2.6200     3.0750 Br    1 <1>  -0.1110 
  2 C       -0.0060    -3.1300     1.8470 C.ar  1 <1>   0.1110 
  3 C       -0.3370    -4.4650     1.7320 C.ar  1 <1>  -0.1500 
  4 C       -0.6400    -2.1480     1.1130 C.ar  1 <1>  -0.1500 
  5 C       -1.3390    -4.8270     0.8480 C.ar  1 <1>  -0.1500 
  6 C       -1.6400    -2.5240     0.2330 C.ar  1 <1>  -0.1500 
  7 C       -1.9980    -3.8610     0.0890 C.ar  1 <1>  -0.1430 
  8 C       -3.1210    -4.2000    -0.8940 C.3   1 <1>   0.3640 
  9 N       -4.4210    -4.0420    -0.2170 N.am  1 <1>  -0.6600 
 10 C       -3.0420    -5.6000    -1.5020 C.3   1 <1>  -0.2400 
 11 C       -5.4800    -3.3520    -0.7090 C.2   1 <1>   0.5690 
 12 C       -4.7130    -4.6280     1.1160 C.3   1 <1>   0.1400 
 13 O       -5.5240    -2.8130    -1.7880 O.2   1 <1>  -0.5700 
 14 C       -6.6180    -3.2980     0.2770 C.3   1 <1>  -0.0190 
 15 C       -6.2260    -4.4250     1.2290 C.3   1 <1>   0.4180 
 16 C       -8.0180    -3.7650    -0.1950 C.3   1 <1>  -0.0190 
 17 O       -6.9150    -5.4870     0.6530 O.3   1 <1>  -0.5600 
 18 C       -7.0200    -4.2930     2.5030 C.2   1 <1>  -0.2880 
 19 C       -9.1400    -2.7690    -0.0010 C.2   1 <1>   0.6590 
 20 C       -8.2090    -5.0040     0.6870 C.3   1 <1>   0.3380 
 21 C       -8.2580    -4.6320     2.1620 C.2   1 <1>  -0.2880 
 22 O      -10.2710    -3.1270     0.2090 O.2   1 <1>  -0.5700 
 23 O       -8.8210    -1.4840    -0.1020 O.3   1 <1>  -0.4300 
 24 C       -9.7900    -0.4640     0.0230 C.3   1 <1>   0.0400 
 25 H        0.1790    -5.2030     2.3200 H     1 <1>   0.1500 
 26 H       -0.3590    -1.1170     1.2280 H     1 <1>   0.1500 
 27 H       -1.5970    -5.8670     0.7630 H     1 <1>   0.1500 
 28 H       -2.1480    -1.7680    -0.3430 H     1 <1>   0.1500 
 29 H       -3.0740    -3.4930    -1.7070 H     1 <1>   0.0800 
 30 H       -3.1940    -6.3610    -0.7600 H     1 <1>   0.0800 
 31 H       -2.0790    -5.7420    -1.9580 H     1 <1>   0.0800 
 32 H       -3.7950    -5.7020    -2.2620 H     1 <1>   0.0800 
 33 H       -4.1950    -4.0720     1.8770 H     1 <1>   0.0800 
 34 H       -4.4580    -5.6710     1.1660 H     1 <1>   0.0800 
 35 H       -6.6130    -2.3520     0.7870 H     1 <1>   0.0800 
 36 H       -7.9930    -4.0600    -1.2280 H     1 <1>   0.0800 
 37 H       -6.5760    -3.9580     3.4240 H     1 <1>   0.1500 
 38 H       -8.9110    -5.7490     0.3520 H     1 <1>   0.0800 
 39 H       -9.1840    -4.6680     2.7100 H     1 <1>   0.1500 
 40 H       -9.3020     0.4870    -0.0980 H     1 <1>   0.0800 
 41 H      -10.2420    -0.5290     0.9970 H     1 <1>   0.0800 
 42 H      -10.5360    -0.5970    -0.7420 H     1 <1>   0.0800 
@<TRIPOS>BOND
  1   1   2  1   
  2   2   3  ar  
  3   2   4  ar  
  4   3   5  ar  
  5   3  25  1   
  6   4   6  ar  
  7   4  26  1   
  8   5   7  ar  
  9   5  27  1   
 10   6   7  ar  
 11   6  28  1   
 12   7   8  1   
 13   8   9  1   
 14   8  10  1   
 15   8  29  1   
 16   9  11  am  
 17   9  12  1   
 18  10  30  1   
 19  10  31  1   
 20  10  32  1   
 21  11  13  2   
 22  11  14  1   
 23  12  15  1   
 24  12  33  1   
 25  12  34  1   
 26  14  15  1   
 27  14  16  1   
 28  14  35  1   
 29  15  17  1   
 30  15  18  1   
 31  16  19  1   
 32  16  20  1   
 33  16  36  1   
 34  17  20  1   
 35  18  21  2   
 36  18  37  1   
 37  19  22  2   
 38  19  23  1   
 39  20  21  1   
 40  20  38  1   
 41  21  39  1   
 42  23  24  1   
 43  24  40  1   
 44  24  41  1   
 45  24  42  1   
@<TRIPOS>SUBSTRUCTURE
  1 ****   9 GROUP 4 **** **** 0

# MOE 2024.06 (io_trps.svl 2023.06)
