@<TRIPOS>MOLECULE
NONAME
37 39 1 0 0 
SMALL
USER_CHARGES


@<TRIPOS>ATOM
  1 BR      -0.4690     0.0950     2.9290 Br    1 <1>  -0.1110 
  2 C       -1.0900     1.6450     1.9680 C.ar  1 <1>   0.1110 
  3 C       -0.1740     2.5960     1.5740 C.ar  1 <1>  -0.1500 
  4 C       -2.4380     1.7610     1.7030 C.ar  1 <1>  -0.1500 
  5 C       -0.5870     3.7300     0.8740 C.ar  1 <1>   0.0280 
  6 C       -2.8730     2.8800     1.0170 C.ar  1 <1>  -0.1500 
  7 C       -1.9660     3.8560     0.6040 C.ar  1 <1>   0.0830 
  8 C        0.3580     4.7420     0.4520 C.2   1 <1>  -0.1780 
  9 O       -2.3810     4.9630    -0.0760 O.3   1 <1>  -0.3630 
 10 C        1.6980     4.6980     0.2500 C.2   1 <1>  -0.0380 
 11 C       -3.6740     5.0660    -0.6270 C.3   1 <1>   0.0400 
 12 N        2.5190     3.5750     0.4000 N.pl3 1 <1>  -0.8380 
 13 C        2.4780     5.9490    -0.2100 C.3   1 <1>   0.3380 
 14 C        3.1110     3.1910    -0.9150 C.3   1 <1>   0.2090 
 15 C        3.6170     3.8050     1.3850 C.3   1 <1>   0.2090 
 16 O        1.9490     6.4450    -1.3950 O.3   1 <1>  -0.6800 
 17 C        3.9570     5.5420    -0.4370 C.3   1 <1>  -0.0800 
 18 C        4.0000     4.3510    -1.4280 C.3   1 <1>  -0.1600 
 19 C        4.4830     4.9980     0.9130 C.3   1 <1>  -0.1600 
 20 H        0.8590     2.4530     1.8160 H     1 <1>   0.1500 
 21 H       -3.1230     0.9990     2.0270 H     1 <1>   0.1500 
 22 H       -3.9230     2.9730     0.8180 H     1 <1>   0.1500 
 23 H       -0.1100     5.6880     0.2560 H     1 <1>   0.1500 
 24 H       -3.7170     5.9710    -1.2060 H     1 <1>   0.0800 
 25 H       -4.3920     5.1110     0.1720 H     1 <1>   0.0800 
 26 H       -3.8510     4.2170    -1.2630 H     1 <1>   0.0800 
 27 H        2.4030     6.7200     0.5360 H     1 <1>   0.0800 
 28 H        3.6840     2.2860    -0.8090 H     1 <1>   0.0800 
 29 H        2.3110     3.0050    -1.6130 H     1 <1>   0.0800 
 30 H        3.1840     4.0170     2.3480 H     1 <1>   0.0800 
 31 H        4.2160     2.9140     1.4730 H     1 <1>   0.0800 
 32 H        2.4780     7.2010    -1.7000 H     1 <1>   0.4000 
 33 H        4.5490     6.3740    -0.7730 H     1 <1>   0.0800 
 34 H        5.0090     4.0010    -1.5510 H     1 <1>   0.0800 
 35 H        3.6460     4.6580    -2.3960 H     1 <1>   0.0800 
 36 H        4.4550     5.7710     1.6600 H     1 <1>   0.0800 
 37 H        5.5050     4.6800     0.8150 H     1 <1>   0.0800 
@<TRIPOS>BOND
  1   1   2  1   
  2   2   3  ar  
  3   2   4  ar  
  4   3   5  ar  
  5   3  20  1   
  6   4   6  ar  
  7   4  21  1   
  8   5   7  ar  
  9   5   8  1   
 10   6   7  ar  
 11   6  22  1   
 12   7   9  1   
 13   8  10  2   
 14   8  23  1   
 15   9  11  1   
 16  10  12  1   
 17  10  13  1   
 18  11  24  1   
 19  11  25  1   
 20  11  26  1   
 21  12  14  1   
 22  12  15  1   
 23  13  16  1   
 24  13  17  1   
 25  13  27  1   
 26  14  18  1   
 27  14  28  1   
 28  14  29  1   
 29  15  19  1   
 30  15  30  1   
 31  15  31  1   
 32  16  32  1   
 33  17  18  1   
 34  17  19  1   
 35  17  33  1   
 36  18  34  1   
 37  18  35  1   
 38  19  36  1   
 39  19  37  1   
@<TRIPOS>SUBSTRUCTURE
  1 ****   8 GROUP 4 **** **** 0

# MOE 2024.06 (io_trps.svl 2023.06)
