@<TRIPOS>MOLECULE
NONAME
51 51 1 0 0 
SMALL
USER_CHARGES


@<TRIPOS>ATOM
  1 N       -0.1180     0.1220    -0.0530 N.4   1 <1>  -0.9590 
  2 C        1.1060    -0.7170     0.2380 C.3   1 <1>   0.3430 
  3 C       -1.3460    -0.6290     0.3460 C.3   1 <1>   0.3430 
  4 C       -0.2300     0.5620    -1.4780 C.3   1 <1>   0.3430 
  5 C        2.4650     0.0210     0.0670 C.3   1 <1>   0.3430 
  6 C       -2.4860     0.3550     0.5850 C.3   1 <1>  -0.2400 
  7 C        0.2640     1.9980    -1.5950 C.3   1 <1>  -0.2400 
  8 N        3.6800    -0.7700     0.5120 N.4   1 <1>  -0.9590 
  9 C        4.9120     0.1020     0.5510 C.3   1 <1>   0.4230 
 10 C        3.8800    -1.9610    -0.3930 C.3   1 <1>   0.2630 
 11 C        6.2050    -0.7040     0.8040 C.3   1 <1>  -0.1600 
 12 C        4.7890     1.2440     1.5770 C.3   1 <1>  -0.1600 
 13 C        7.0720    -0.7550    -0.4620 C.3   1 <1>  -0.1600 
 14 C        5.3780     2.5550     1.0280 C.3   1 <1>  -0.1600 
 15 C        7.9310     0.5080    -0.6630 C.3   1 <1>  -0.1600 
 16 C        6.8700     2.4940     0.6470 C.3   1 <1>  -0.1600 
 17 C        7.1890     1.8590    -0.7270 C.3   1 <1>  -0.1600 
 18 H       -0.1240     0.9720     0.5300 H     1 <1>   0.4500 
 19 H        1.0940    -1.5810    -0.4050 H     1 <1>   0.0800 
 20 H        1.0430    -1.0620     1.2570 H     1 <1>   0.0800 
 21 H       -1.1680    -1.1720     1.2620 H     1 <1>   0.0800 
 22 H       -1.6220    -1.3400    -0.4180 H     1 <1>   0.0800 
 23 H       -1.2600     0.5300    -1.7980 H     1 <1>   0.0800 
 24 H        0.3350    -0.0890    -2.1270 H     1 <1>   0.0800 
 25 H        2.4060     0.9360     0.6280 H     1 <1>   0.0800 
 26 H        2.5890     0.2840    -0.9710 H     1 <1>   0.0800 
 27 H       -2.2340     1.0590     1.3580 H     1 <1>   0.0800 
 28 H       -3.3560    -0.1890     0.9110 H     1 <1>   0.0800 
 29 H       -2.7540     0.8830    -0.3120 H     1 <1>   0.0800 
 30 H       -0.3240     2.6540    -0.9770 H     1 <1>   0.0800 
 31 H        0.1450     2.3250    -2.6140 H     1 <1>   0.0800 
 32 H        1.3020     2.0970    -1.3430 H     1 <1>   0.0800 
 33 H        3.5680    -1.1070     1.4810 H     1 <1>   0.4500 
 34 H        5.0060     0.5620    -0.4180 H     1 <1>   0.0800 
 35 H        4.1080    -1.6360    -1.3950 H     1 <1>   0.0800 
 36 H        2.9960    -2.5760    -0.4200 H     1 <1>   0.0800 
 37 H        4.6950    -2.5760    -0.0470 H     1 <1>   0.0800 
 38 H        5.9940    -1.6970     1.1550 H     1 <1>   0.0800 
 39 H        6.8060    -0.2560     1.5750 H     1 <1>   0.0800 
 40 H        5.2970     0.9930     2.4920 H     1 <1>   0.0800 
 41 H        3.7730     1.4420     1.8550 H     1 <1>   0.0800 
 42 H        6.4680    -0.9230    -1.3360 H     1 <1>   0.0800 
 43 H        7.7460    -1.5910    -0.3800 H     1 <1>   0.0800 
 44 H        5.2710     3.3050     1.7950 H     1 <1>   0.0800 
 45 H        4.8080     2.8980     0.1810 H     1 <1>   0.0800 
 46 H        8.4620     0.3840    -1.5920 H     1 <1>   0.0800 
 47 H        8.6850     0.5540     0.1060 H     1 <1>   0.0800 
 48 H        7.4410     2.0310     1.4330 H     1 <1>   0.0800 
 49 H        7.2140     3.5150     0.6020 H     1 <1>   0.0800 
 50 H        6.3190     1.7950    -1.3560 H     1 <1>   0.0800 
 51 H        7.8560     2.5400    -1.2280 H     1 <1>   0.0800 
@<TRIPOS>BOND
  1   1   2  1   
  2   1   3  1   
  3   1   4  1   
  4   1  18  1   
  5   2   5  1   
  6   2  19  1   
  7   2  20  1   
  8   3   6  1   
  9   3  21  1   
 10   3  22  1   
 11   4   7  1   
 12   4  23  1   
 13   4  24  1   
 14   5   8  1   
 15   5  25  1   
 16   5  26  1   
 17   6  27  1   
 18   6  28  1   
 19   6  29  1   
 20   7  30  1   
 21   7  31  1   
 22   7  32  1   
 23   8   9  1   
 24   8  10  1   
 25   8  33  1   
 26   9  11  1   
 27   9  12  1   
 28   9  34  1   
 29  10  35  1   
 30  10  36  1   
 31  10  37  1   
 32  11  13  1   
 33  11  38  1   
 34  11  39  1   
 35  12  14  1   
 36  12  40  1   
 37  12  41  1   
 38  13  15  1   
 39  13  42  1   
 40  13  43  1   
 41  14  16  1   
 42  14  44  1   
 43  14  45  1   
 44  15  17  1   
 45  15  46  1   
 46  15  47  1   
 47  16  17  1   
 48  16  48  1   
 49  16  49  1   
 50  17  50  1   
 51  17  51  1   
@<TRIPOS>SUBSTRUCTURE
  1 ****   5 GROUP 4 **** **** 0

# MOE 2024.06 (io_trps.svl 2023.06)
