@<TRIPOS>MOLECULE
NONAME
45 47 1 0 0 
SMALL
USER_CHARGES


@<TRIPOS>ATOM
  1 O       -1.9010     0.9270    -3.2010 O.2   1 <1>  -0.5750 
  2 C       -2.6340     0.8950    -2.2610 C.2   1 <1>   0.8490 
  3 N       -3.3220    -0.2500    -2.0720 N.pl3 1 <1>  -0.7340 
  4 C       -2.7410     2.0880    -1.3410 C.3   1 <1>  -0.1870 
  5 C       -4.2120    -0.6580    -1.1790 C.cat 1 <1>   1.0690 
  6 N       -4.8510     0.1110    -0.3150 N.pl3 1 <1>  -0.7040 
  7 N       -4.5900    -1.9350    -1.0410 N.pl3 1 <1>  -0.7680 
  8 C       -5.7340    -0.6660     0.4010 C.ar  1 <1>   0.3020 
  9 C       -5.5880    -1.9600    -0.0650 C.ar  1 <1>   0.3020 
 10 C       -4.1840    -3.1450    -1.8320 C.3   1 <1>   0.3470 
 11 C       -6.6440    -0.3560     1.4050 C.ar  1 <1>  -0.1180 
 12 C       -6.3740    -2.9860     0.4560 C.ar  1 <1>  -0.1180 
 13 C       -3.4900    -4.2720    -1.0100 C.3   1 <1>   0.3360 
 14 C       -7.4120    -1.3770     1.9280 C.ar  1 <1>  -0.1580 
 15 C       -7.2800    -2.6830     1.4540 C.ar  1 <1>  -0.1580 
 16 N       -2.2670    -3.8730    -0.2230 N.4   1 <1>  -0.9610 
 17 C       -1.3800    -5.0620    -0.0220 C.3   1 <1>   0.3360 
 18 C       -2.5980    -3.2760     1.1070 C.3   1 <1>   0.3360 
 19 C       -0.0600    -4.6110     0.6030 C.3   1 <1>  -0.1680 
 20 C       -1.3180    -2.7600     1.7650 C.3   1 <1>  -0.1680 
 21 C       -0.2840    -3.8790     1.9320 C.3   1 <1>  -0.1680 
 22 H       -3.1170    -0.8720    -2.8420 H     1 <1>   0.4440 
 23 H       -2.5530     1.8010    -0.3230 H     1 <1>   0.0710 
 24 H       -3.7090     2.5430    -1.4310 H     1 <1>   0.0710 
 25 H       -2.0030     2.8180    -1.6220 H     1 <1>   0.0710 
 26 H       -4.7880     1.1250    -0.2270 H     1 <1>   0.4440 
 27 H       -3.5250    -2.8580    -2.6330 H     1 <1>   0.0710 
 28 H       -5.0650    -3.5600    -2.2920 H     1 <1>   0.0710 
 29 H       -6.7480     0.6540     1.7630 H     1 <1>   0.1420 
 30 H       -6.2940    -3.9940     0.0930 H     1 <1>   0.1420 
 31 H       -3.2080    -5.0420    -1.7090 H     1 <1>   0.0710 
 32 H       -4.2100    -4.7130    -0.3410 H     1 <1>   0.0710 
 33 H       -8.1290    -1.1700     2.7080 H     1 <1>   0.1420 
 34 H       -7.9030    -3.4570     1.8770 H     1 <1>   0.1420 
 35 H       -1.6890    -3.1960    -0.7340 H     1 <1>   0.4440 
 36 H       -1.1790    -5.5410    -0.9670 H     1 <1>   0.0710 
 37 H       -1.8610    -5.7760     0.6270 H     1 <1>   0.0710 
 38 H       -3.0510    -4.0210     1.7410 H     1 <1>   0.0710 
 39 H       -3.2880    -2.4590     0.9940 H     1 <1>   0.0710 
 40 H        0.4670    -3.9720    -0.0850 H     1 <1>   0.0710 
 41 H        0.5600    -5.4740     0.7770 H     1 <1>   0.0710 
 42 H       -1.5570    -2.3560     2.7340 H     1 <1>   0.0710 
 43 H       -0.9030    -1.9610     1.1760 H     1 <1>   0.0710 
 44 H        0.6470    -3.4700     2.2880 H     1 <1>   0.0710 
 45 H       -0.6340    -4.5820     2.6710 H     1 <1>   0.0710 
@<TRIPOS>BOND
  1   1   2  2   
  2   2   3  1   
  3   2   4  1   
  4   3   5  ar  
  5   3  22  1   
  6   4  23  1   
  7   4  24  1   
  8   4  25  1   
  9   5   6  ar  
 10   5   7  ar  
 11   6   8  1   
 12   6  26  1   
 13   7   9  1   
 14   7  10  1   
 15   8   9  ar  
 16   8  11  ar  
 17   9  12  ar  
 18  10  13  1   
 19  10  27  1   
 20  10  28  1   
 21  11  14  ar  
 22  11  29  1   
 23  12  15  ar  
 24  12  30  1   
 25  13  16  1   
 26  13  31  1   
 27  13  32  1   
 28  14  15  ar  
 29  14  33  1   
 30  15  34  1   
 31  16  17  1   
 32  16  18  1   
 33  16  35  1   
 34  17  19  1   
 35  17  36  1   
 36  17  37  1   
 37  18  20  1   
 38  18  38  1   
 39  18  39  1   
 40  19  21  1   
 41  19  40  1   
 42  19  41  1   
 43  20  21  1   
 44  20  42  1   
 45  20  43  1   
 46  21  44  1   
 47  21  45  1   
@<TRIPOS>SUBSTRUCTURE
  1 ****   7 GROUP 4 **** **** 0

# MOE 2024.06 (io_trps.svl 2023.06)
