@<TRIPOS>MOLECULE
NONAME
31 32 1 0 0 
SMALL
USER_CHARGES


@<TRIPOS>ATOM
  1 F       -0.4430     1.4040     0.8830 F     1 <1>  -0.3400 
  2 C       -1.7700     1.4320     0.9550 C.3   1 <1>   1.0200 
  3 F       -2.0960     2.7250     0.9320 F     1 <1>  -0.3400 
  4 F       -2.0750     1.0190     2.1840 F     1 <1>  -0.3400 
  5 C       -2.5230     0.6050    -0.1710 C.3   1 <1>   0.5800 
  6 O       -2.1330     0.9260    -1.4760 O.3   1 <1>  -0.6800 
  7 N       -2.3850    -0.8810    -0.0470 N.am  1 <1>  -0.2980 
  8 C       -4.0490     0.7990    -0.0900 C.3   1 <1>  -0.0990 
  9 N       -3.6060    -1.4680     0.2230 N.2   1 <1>  -0.5120 
 10 C       -1.1800    -1.5380    -0.2740 C.2   1 <1>   0.5440 
 11 C       -4.5140    -0.6020     0.2000 C.2   1 <1>   0.3280 
 12 O       -0.2450    -0.8900    -0.7090 O.2   1 <1>  -0.5700 
 13 C       -1.0080    -2.9580    -0.0200 C.ar  1 <1>   0.0860 
 14 C       -5.9850    -0.8590     0.4380 C.3   1 <1>  -0.1790 
 15 C        0.1050    -3.4120     0.6860 C.ar  1 <1>  -0.1500 
 16 C       -1.9100    -3.9230    -0.4780 C.ar  1 <1>  -0.1500 
 17 C        0.2970    -4.7580     0.9340 C.ar  1 <1>   0.0820 
 18 C       -1.7200    -5.2720    -0.2320 C.ar  1 <1>  -0.1500 
 19 O        1.3800    -5.1490     1.6210 O.3   1 <1>  -0.5320 
 20 C       -0.6130    -5.6960     0.4790 C.ar  1 <1>  -0.1500 
 21 H       -1.2540     0.4980    -1.6150 H     1 <1>   0.4000 
 22 H       -4.4610     1.1540    -1.0170 H     1 <1>   0.0800 
 23 H       -4.3380     1.4530     0.7110 H     1 <1>   0.0800 
 24 H       -6.3250    -0.2990     1.2890 H     1 <1>   0.0800 
 25 H       -6.1450    -1.9060     0.6260 H     1 <1>   0.0800 
 26 H       -6.5520    -0.5730    -0.4280 H     1 <1>   0.0800 
 27 H        0.8320    -2.7040     1.0440 H     1 <1>   0.1500 
 28 H       -2.7730    -3.6080    -1.0370 H     1 <1>   0.1500 
 29 H       -2.4360    -5.9890    -0.5940 H     1 <1>   0.1500 
 30 H        1.4330    -6.1140     1.7380 H     1 <1>   0.4500 
 31 H       -0.4660    -6.7440     0.6710 H     1 <1>   0.1500 
@<TRIPOS>BOND
  1   1   2  1   
  2   2   3  1   
  3   2   4  1   
  4   2   5  1   
  5   5   6  1   
  6   5   7  1   
  7   5   8  1   
  8   6  21  1   
  9   7   9  1   
 10   7  10  am  
 11   8  11  1   
 12   8  22  1   
 13   8  23  1   
 14   9  11  2   
 15  10  12  2   
 16  10  13  1   
 17  11  14  1   
 18  13  15  ar  
 19  13  16  ar  
 20  14  24  1   
 21  14  25  1   
 22  14  26  1   
 23  15  17  ar  
 24  15  27  1   
 25  16  18  ar  
 26  16  28  1   
 27  17  19  1   
 28  17  20  ar  
 29  18  20  ar  
 30  18  29  1   
 31  19  30  1   
 32  20  31  1   
@<TRIPOS>SUBSTRUCTURE
  1 ****   7 GROUP 4 **** **** 0

# MOE 2024.06 (io_trps.svl 2023.06)
