@<TRIPOS>MOLECULE
NONAME
49 50 1 0 0 
SMALL
USER_CHARGES


@<TRIPOS>ATOM
  1 S        0.2600     1.0340    -1.4460 S.o2  1 <1>   1.4470 
  2 O        0.5340     2.3750    -1.9150 O.2   1 <1>  -0.6500 
  3 O        0.3530    -0.0630    -2.3860 O.2   1 <1>  -0.6500 
  4 N        1.3830     0.7040    -0.2200 N.am  1 <1>  -0.8490 
  5 C       -1.3380     1.0020    -0.5850 C.ar  1 <1>  -0.0090 
  6 C        2.7470     1.0990    -0.6550 C.3   1 <1>   0.2570 
  7 C        1.3480    -0.6930     0.2300 C.3   1 <1>   0.1160 
  8 C       -2.4380     0.3540    -1.1320 C.ar  1 <1>  -0.1500 
  9 C       -1.5040     1.6370     0.6400 C.ar  1 <1>  -0.1500 
 10 C        3.9020     0.8120     0.3230 C.2   1 <1>   0.5690 
 11 C       -3.6580     0.3320    -0.4780 C.ar  1 <1>  -0.1500 
 12 C       -2.7200     1.6190     1.3000 C.ar  1 <1>  -0.1500 
 13 O        3.7790     1.1380     1.4830 O.2   1 <1>  -0.5700 
 14 N        5.0210     0.1400    -0.1080 N.am  1 <1>  -0.6600 
 15 C       -3.8050     0.9630     0.7450 C.ar  1 <1>  -0.1430 
 16 C        6.0140     0.7160    -1.0670 C.3   1 <1>   0.2200 
 17 C        5.5980    -0.9020     0.7970 C.3   1 <1>   0.2200 
 18 C       -5.1410     0.9440     1.4640 C.3   1 <1>  -0.0970 
 19 C        7.1050     1.4580    -0.2710 C.3   1 <1>  -0.1600 
 20 C        5.4220     1.6290    -2.1430 C.3   1 <1>  -0.2400 
 21 C        7.1200    -0.7420     0.9860 C.3   1 <1>  -0.1600 
 22 C        5.2510    -2.2780     0.2330 C.3   1 <1>  -0.2400 
 23 C        7.5160     0.7390     1.0280 C.3   1 <1>  -0.1600 
 24 H        2.7550     2.1570    -0.8460 H     1 <1>   0.0800 
 25 H        2.9590     0.5930    -1.5780 H     1 <1>   0.0800 
 26 H        0.3440    -0.9670     0.5070 H     1 <1>   0.0800 
 27 H        1.9750    -0.8220     1.0960 H     1 <1>   0.0800 
 28 H        1.6850    -1.3530    -0.5520 H     1 <1>   0.0800 
 29 H       -2.3400    -0.1420    -2.0840 H     1 <1>   0.1500 
 30 H       -0.6660     2.1510     1.0830 H     1 <1>   0.1500 
 31 H       -4.4930    -0.1780    -0.9270 H     1 <1>   0.1500 
 32 H       -2.8160     2.1200     2.2480 H     1 <1>   0.1500 
 33 H        6.4780    -0.1100    -1.5790 H     1 <1>   0.0800 
 34 H        5.1410    -0.8130     1.7690 H     1 <1>   0.0800 
 35 H       -5.6820     0.0440     1.2300 H     1 <1>   0.0800 
 36 H       -5.7290     1.7920     1.1630 H     1 <1>   0.0800 
 37 H       -4.9960     0.9830     2.5290 H     1 <1>   0.0800 
 38 H        6.7650     2.4480    -0.0230 H     1 <1>   0.0800 
 39 H        7.9670     1.5650    -0.9050 H     1 <1>   0.0800 
 40 H        4.9500     2.4920    -1.7100 H     1 <1>   0.0800 
 41 H        4.7280     1.0880    -2.7590 H     1 <1>   0.0800 
 42 H        6.2120     1.9780    -2.7840 H     1 <1>   0.0800 
 43 H        7.6490    -1.2300     0.1850 H     1 <1>   0.0800 
 44 H        7.4120    -1.2240     1.9020 H     1 <1>   0.0800 
 45 H        5.6790    -2.4070    -0.7450 H     1 <1>   0.0800 
 46 H        4.1840    -2.3900     0.1700 H     1 <1>   0.0800 
 47 H        5.6340    -3.0460     0.8810 H     1 <1>   0.0800 
 48 H        7.0060     1.2020     1.8570 H     1 <1>   0.0800 
 49 H        8.5750     0.8430     1.1920 H     1 <1>   0.0800 
@<TRIPOS>BOND
  1   1   2  2   
  2   1   3  2   
  3   1   4  am  
  4   1   5  1   
  5   4   6  1   
  6   4   7  1   
  7   5   8  ar  
  8   5   9  ar  
  9   6  10  1   
 10   6  24  1   
 11   6  25  1   
 12   7  26  1   
 13   7  27  1   
 14   7  28  1   
 15   8  11  ar  
 16   8  29  1   
 17   9  12  ar  
 18   9  30  1   
 19  10  13  2   
 20  10  14  am  
 21  11  15  ar  
 22  11  31  1   
 23  12  15  ar  
 24  12  32  1   
 25  14  16  1   
 26  14  17  1   
 27  15  18  1   
 28  16  19  1   
 29  16  20  1   
 30  16  33  1   
 31  17  21  1   
 32  17  22  1   
 33  17  34  1   
 34  18  35  1   
 35  18  36  1   
 36  18  37  1   
 37  19  23  1   
 38  19  38  1   
 39  19  39  1   
 40  20  40  1   
 41  20  41  1   
 42  20  42  1   
 43  21  23  1   
 44  21  43  1   
 45  21  44  1   
 46  22  45  1   
 47  22  46  1   
 48  22  47  1   
 49  23  48  1   
 50  23  49  1   
@<TRIPOS>SUBSTRUCTURE
  1 ****   4 GROUP 4 **** **** 0

# MOE 2024.06 (io_trps.svl 2023.06)
