@<TRIPOS>MOLECULE
NONAME
45 48 1 0 0 
SMALL
USER_CHARGES


@<TRIPOS>ATOM
  1 F       -0.1450     0.6110     0.1260 F     1 <1>  -0.1900 
  2 C       -1.1360     1.4020    -0.1760 C.ar  1 <1>   0.1900 
  3 C       -1.7150     1.3020    -1.4270 C.ar  1 <1>  -0.1500 
  4 C       -1.5740     2.3170     0.7610 C.ar  1 <1>  -0.1500 
  5 C       -2.7680     2.1440    -1.7380 C.ar  1 <1>  -0.1500 
  6 C       -2.6270     3.1520     0.4330 C.ar  1 <1>  -0.1500 
  7 C       -3.2520     3.0810    -0.8190 C.ar  1 <1>   0.0860 
  8 C       -4.3630     3.9520    -1.1600 C.2   1 <1>   0.5440 
  9 O       -4.5580     4.3000    -2.3090 O.2   1 <1>  -0.5700 
 10 N       -5.1970     4.3880    -0.1790 N.am  1 <1>  -0.7300 
 11 C       -5.7680     5.7770    -0.0940 C.3   1 <1>   0.1140 
 12 C       -5.2000     6.4530     1.1760 C.2   1 <1>   0.9060 
 13 C       -7.3250     5.7430    -0.1560 C.3   1 <1>   0.0000 
 14 O       -5.1040     7.6850     1.2480 O.co2 1 <1>  -0.9000 
 15 O       -4.7870     5.7120     2.0900 O.co2 1 <1>  -0.9000 
 16 C       -7.7950     5.0690    -1.4720 C.3   1 <1>  -0.1600 
 17 C       -7.9050     7.1800    -0.1330 C.3   1 <1>  -0.1600 
 18 C       -7.9360     4.9600     1.0350 C.3   1 <1>  -0.1600 
 19 C       -9.3320     5.0420    -1.5700 C.3   1 <1>  -0.0800 
 20 C       -9.4420     7.1680    -0.2250 C.3   1 <1>  -0.0800 
 21 C       -9.4750     4.9350     0.9470 C.3   1 <1>  -0.0800 
 22 C       -9.8660     6.4840    -1.5370 C.3   1 <1>  -0.1600 
 23 C       -9.8980     4.2590    -0.3710 C.3   1 <1>  -0.1600 
 24 C      -10.0080     6.3790     0.9700 C.3   1 <1>  -0.1600 
 25 H       -1.3470     0.5820    -2.1360 H     1 <1>   0.1500 
 26 H       -1.1000     2.3760     1.7250 H     1 <1>   0.1500 
 27 H       -3.2330     2.0870    -2.7080 H     1 <1>   0.1500 
 28 H       -2.9670     3.8790     1.1560 H     1 <1>   0.1500 
 29 H       -4.9600     4.1280     0.7900 H     1 <1>   0.3700 
 30 H       -5.4070     6.3470    -0.9290 H     1 <1>   0.0800 
 31 H       -7.4260     4.0610    -1.5210 H     1 <1>   0.0800 
 32 H       -7.3840     5.5990    -2.3130 H     1 <1>   0.0800 
 33 H       -7.4950     7.7490    -0.9480 H     1 <1>   0.0800 
 34 H       -7.6200     7.6780     0.7780 H     1 <1>   0.0800 
 35 H       -7.6380     5.4170     1.9630 H     1 <1>   0.0800 
 36 H       -7.5630     3.9520     1.0390 H     1 <1>   0.0800 
 37 H       -9.6260     4.5650    -2.4890 H     1 <1>   0.0800 
 38 H       -9.8120     8.1780    -0.2030 H     1 <1>   0.0800 
 39 H       -9.8730     4.3860     1.7830 H     1 <1>   0.0800 
 40 H      -10.9390     6.4790    -1.6160 H     1 <1>   0.0800 
 41 H       -9.4760     7.0350    -2.3750 H     1 <1>   0.0800 
 42 H       -9.5310     3.2480    -0.3930 H     1 <1>   0.0800 
 43 H      -10.9710     4.2210    -0.4330 H     1 <1>   0.0800 
 44 H       -9.7170     6.8570     1.8890 H     1 <1>   0.0800 
 45 H      -11.0830     6.3730     0.9280 H     1 <1>   0.0800 
@<TRIPOS>BOND
  1   1   2  1   
  2   2   3  ar  
  3   2   4  ar  
  4   3   5  ar  
  5   3  25  1   
  6   4   6  ar  
  7   4  26  1   
  8   5   7  ar  
  9   5  27  1   
 10   6   7  ar  
 11   6  28  1   
 12   7   8  1   
 13   8   9  2   
 14   8  10  am  
 15  10  11  1   
 16  10  29  1   
 17  11  12  1   
 18  11  13  1   
 19  11  30  1   
 20  12  14  ar  
 21  12  15  ar  
 22  13  16  1   
 23  13  17  1   
 24  13  18  1   
 25  16  19  1   
 26  16  31  1   
 27  16  32  1   
 28  17  20  1   
 29  17  33  1   
 30  17  34  1   
 31  18  21  1   
 32  18  35  1   
 33  18  36  1   
 34  19  22  1   
 35  19  23  1   
 36  19  37  1   
 37  20  22  1   
 38  20  24  1   
 39  20  38  1   
 40  21  23  1   
 41  21  24  1   
 42  21  39  1   
 43  22  40  1   
 44  22  41  1   
 45  23  42  1   
 46  23  43  1   
 47  24  44  1   
 48  24  45  1   
@<TRIPOS>SUBSTRUCTURE
  1 ****  10 GROUP 4 **** **** 0

# MOE 2024.06 (io_trps.svl 2023.06)
