@<TRIPOS>MOLECULE
NONAME
40 42 1 0 0 
SMALL
USER_CHARGES


@<TRIPOS>ATOM
  1 F       -2.2340     1.1200     1.4930 F     1 <1>  -0.1900 
  2 C       -1.3440     1.9190     0.9660 C.ar  1 <1>   0.1900 
  3 C       -1.5430     2.3770    -0.3310 C.ar  1 <1>  -0.1440 
  4 C       -0.2530     2.2820     1.7300 C.ar  1 <1>  -0.1500 
  5 C       -0.6000     3.2380    -0.8830 C.ar  1 <1>  -0.1500 
  6 C       -2.7600     1.9350    -1.1230 C.3   1 <1>   0.4870 
  7 C        0.6590     3.1390     1.1490 C.ar  1 <1>   0.1900 
  8 C        0.5070     3.6230    -0.1390 C.ar  1 <1>  -0.1500 
  9 N       -3.9910     2.4490    -0.4650 N.4   1 <1>  -0.9590 
 10 F        1.7020     3.5090     1.8400 F     1 <1>  -0.1900 
 11 C       -5.2400     1.8740    -1.0890 C.3   1 <1>   0.3430 
 12 C       -4.0360     3.9610    -0.4400 C.3   1 <1>   0.3430 
 13 C       -6.5310     2.4080    -0.4330 C.3   1 <1>   0.2090 
 14 C       -5.3210     4.5060     0.2180 C.3   1 <1>   0.2090 
 15 N       -6.5310     3.9000    -0.4090 N.pl3 1 <1>  -0.8380 
 16 C       -7.7460     4.5100    -0.1180 C.ar  1 <1>   0.1000 
 17 C       -8.4120     5.2120    -1.1170 C.ar  1 <1>  -0.1500 
 18 C       -8.3100     4.4330     1.1550 C.ar  1 <1>  -0.1500 
 19 C       -9.6230     5.8310    -0.8600 C.ar  1 <1>  -0.1500 
 20 C       -9.5200     5.0470     1.4280 C.ar  1 <1>  -0.1500 
 21 C      -10.1550     5.7360     0.4120 C.ar  1 <1>   0.1900 
 22 F      -11.2990     6.3190     0.6630 F     1 <1>  -0.1900 
 23 H       -0.1140     1.9170     2.7320 H     1 <1>   0.1500 
 24 H       -0.7070     3.6130    -1.8880 H     1 <1>   0.1500 
 25 H       -2.7830     0.8570    -1.1560 H     1 <1>   0.0800 
 26 H       -2.6960     2.3040    -2.1340 H     1 <1>   0.0800 
 27 H        1.2500     4.2870    -0.5470 H     1 <1>   0.1500 
 28 H       -3.9490     2.1270     0.5130 H     1 <1>   0.4500 
 29 H       -5.2290     0.7990    -1.0130 H     1 <1>   0.0800 
 30 H       -5.2710     2.1320    -2.1350 H     1 <1>   0.0800 
 31 H       -3.9950     4.3390    -1.4480 H     1 <1>   0.0800 
 32 H       -3.1820     4.3470     0.0920 H     1 <1>   0.0800 
 33 H       -6.6180     2.0290     0.5710 H     1 <1>   0.0800 
 34 H       -7.3850     2.0640    -0.9910 H     1 <1>   0.0800 
 35 H       -5.3590     5.5760     0.0970 H     1 <1>   0.0800 
 36 H       -5.3120     4.2930     1.2730 H     1 <1>   0.0800 
 37 H       -7.9740     5.2690    -2.0970 H     1 <1>   0.1500 
 38 H       -7.8020     3.8930     1.9320 H     1 <1>   0.1500 
 39 H      -10.1470     6.3770    -1.6240 H     1 <1>   0.1500 
 40 H       -9.9680     4.9970     2.4040 H     1 <1>   0.1500 
@<TRIPOS>BOND
  1   1   2  1   
  2   2   3  ar  
  3   2   4  ar  
  4   3   5  ar  
  5   3   6  1   
  6   4   7  ar  
  7   4  23  1   
  8   5   8  ar  
  9   5  24  1   
 10   6   9  1   
 11   6  25  1   
 12   6  26  1   
 13   7   8  ar  
 14   7  10  1   
 15   8  27  1   
 16   9  11  1   
 17   9  12  1   
 18   9  28  1   
 19  11  13  1   
 20  11  29  1   
 21  11  30  1   
 22  12  14  1   
 23  12  31  1   
 24  12  32  1   
 25  13  15  1   
 26  13  33  1   
 27  13  34  1   
 28  14  15  1   
 29  14  35  1   
 30  14  36  1   
 31  15  16  1   
 32  16  17  ar  
 33  16  18  ar  
 34  17  19  ar  
 35  17  37  1   
 36  18  20  ar  
 37  18  38  1   
 38  19  21  ar  
 39  19  39  1   
 40  20  21  ar  
 41  20  40  1   
 42  21  22  1   
@<TRIPOS>SUBSTRUCTURE
  1 ****  12 GROUP 4 **** **** 0

# MOE 2024.06 (io_trps.svl 2023.06)
