@<TRIPOS>MOLECULE
NONAME
36 37 1 0 0 
SMALL
USER_CHARGES


@<TRIPOS>ATOM
  1 BR      -0.0330    -0.4150     0.7870 Br    1 <1>  -0.1110 
  2 C       -1.9100    -0.1460     0.4520 C.ar  1 <1>   0.1110 
  3 C       -2.5750    -1.0380    -0.3650 C.ar  1 <1>  -0.1500 
  4 C       -2.5450     0.9360     1.0360 C.ar  1 <1>  -0.1500 
  5 C       -3.9190    -0.8090    -0.5790 C.ar  1 <1>   0.1900 
  6 C       -3.8970     1.1360     0.7980 C.ar  1 <1>  -0.1500 
  7 F       -4.5670    -1.6460    -1.3530 F     1 <1>  -0.1900 
  8 C       -4.6200     0.2630    -0.0170 C.ar  1 <1>   0.1170 
  9 N       -5.9950     0.4100    -0.3000 N.am  1 <1>  -0.5470 
 10 C       -6.9520     1.2640     0.1760 C.2   1 <1>   0.5690 
 11 O       -6.7320     2.1100     1.0080 O.2   1 <1>  -0.5700 
 12 C       -8.3670     1.1080    -0.3840 C.3   1 <1>  -0.0190 
 13 C       -9.1490     2.4380    -0.4080 C.3   1 <1>  -0.1600 
 14 C       -9.1580     0.0500     0.4080 C.3   1 <1>  -0.1600 
 15 C      -10.5700     2.2490    -0.9460 C.3   1 <1>   0.1400 
 16 C      -10.5820    -0.1150    -0.1320 C.3   1 <1>   0.1400 
 17 N      -11.2680     1.2060    -0.1440 N.am  1 <1>  -0.6600 
 18 C      -12.4290     1.4000     0.5620 C.2   1 <1>   0.5690 
 19 O      -12.9710     0.5090     1.1700 O.2   1 <1>  -0.5700 
 20 C      -13.0880     2.7600     0.6060 C.3   1 <1>  -0.1790 
 21 H       -2.0690    -1.8730    -0.8120 H     1 <1>   0.1500 
 22 H       -1.9920     1.6100     1.6660 H     1 <1>   0.1500 
 23 H       -4.3780     1.9810     1.2560 H     1 <1>   0.1500 
 24 H       -6.3350    -0.2850    -0.9650 H     1 <1>   0.3700 
 25 H       -8.2790     0.7690    -1.4000 H     1 <1>   0.0800 
 26 H       -8.6270     3.1530    -1.0200 H     1 <1>   0.0800 
 27 H       -9.2100     2.8460     0.5870 H     1 <1>   0.0800 
 28 H       -9.2140     0.3410     1.4440 H     1 <1>   0.0800 
 29 H       -8.6540    -0.8980     0.3640 H     1 <1>   0.0800 
 30 H      -10.5320     1.9300    -1.9730 H     1 <1>   0.0800 
 31 H      -11.0920     3.1880    -0.9110 H     1 <1>   0.0800 
 32 H      -11.1180    -0.8180     0.4840 H     1 <1>   0.0800 
 33 H      -10.5580    -0.5060    -1.1340 H     1 <1>   0.0800 
 34 H      -13.3840     3.0540    -0.3830 H     1 <1>   0.0800 
 35 H      -12.4080     3.4810     1.0180 H     1 <1>   0.0800 
 36 H      -13.9620     2.7170     1.2290 H     1 <1>   0.0800 
@<TRIPOS>BOND
  1   1   2  1   
  2   2   3  ar  
  3   2   4  ar  
  4   3   5  ar  
  5   3  21  1   
  6   4   6  ar  
  7   4  22  1   
  8   5   7  1   
  9   5   8  ar  
 10   6   8  ar  
 11   6  23  1   
 12   8   9  1   
 13   9  10  am  
 14   9  24  1   
 15  10  11  2   
 16  10  12  1   
 17  12  13  1   
 18  12  14  1   
 19  12  25  1   
 20  13  15  1   
 21  13  26  1   
 22  13  27  1   
 23  14  16  1   
 24  14  28  1   
 25  14  29  1   
 26  15  17  1   
 27  15  30  1   
 28  15  31  1   
 29  16  17  1   
 30  16  32  1   
 31  16  33  1   
 32  17  18  am  
 33  18  19  2   
 34  18  20  1   
 35  20  34  1   
 36  20  35  1   
 37  20  36  1   
@<TRIPOS>SUBSTRUCTURE
  1 ****  10 GROUP 4 **** **** 0

# MOE 2024.06 (io_trps.svl 2023.06)
