@<TRIPOS>MOLECULE
NONAME
51 54 1 0 0 
SMALL
USER_CHARGES


@<TRIPOS>ATOM
  1 O       -8.2660    -2.3040     2.0850 O.2   1 <1>  -0.5700 
  2 C       -7.5610    -1.7290     1.2690 C.2   1 <1>   0.5440 
  3 N       -8.1430    -0.7360     0.4830 N.am  1 <1>  -0.2860 
  4 C       -6.1540    -2.0780     1.1510 C.ar  1 <1>   0.0860 
  5 C       -7.4190     0.3880     0.0340 C.ar  1 <1>   0.1170 
  6 C       -9.5380    -0.7350     0.3240 C.2   1 <1>  -0.0290 
  7 C       -5.4730    -2.0490    -0.0690 C.ar  1 <1>  -0.1500 
  8 C       -5.4250    -2.4670     2.2770 C.ar  1 <1>  -0.1500 
  9 C       -7.4930     0.7810    -1.2980 C.ar  1 <1>  -0.1500 
 10 C       -6.6280     1.1300     0.9060 C.ar  1 <1>  -0.1500 
 11 C      -10.2100    -1.6240    -0.4250 C.2   1 <1>  -0.2880 
 12 C      -10.2920     0.3090     1.1430 C.3   1 <1>  -0.0220 
 13 C       -4.1320    -2.3740    -0.1570 C.ar  1 <1>  -0.1500 
 14 C       -4.0850    -2.7950     2.1960 C.ar  1 <1>  -0.1500 
 15 C       -6.7910     1.8840    -1.7470 C.ar  1 <1>  -0.1500 
 16 C       -5.9230     2.2340     0.4600 C.ar  1 <1>  -0.1500 
 17 C      -11.7250    -1.6600    -0.4730 C.3   1 <1>   0.5610 
 18 C      -11.8210     0.1810     0.9460 C.3   1 <1>   0.4230 
 19 C       -3.4340    -2.7470     0.9770 C.ar  1 <1>  -0.1500 
 20 C       -6.0020     2.6170    -0.8760 C.ar  1 <1>   0.0830 
 21 N      -12.2220    -1.2530     0.8620 N.4   1 <1>  -0.9590 
 22 C      -12.2220    -0.5230    -1.3590 C.3   1 <1>  -0.1600 
 23 C      -12.2490     0.7040    -0.4320 C.3   1 <1>  -0.1600 
 24 O       -5.3440     3.6830    -1.4000 O.3   1 <1>  -0.3620 
 25 C      -11.7420    -2.1320     1.9860 C.3   1 <1>   0.2630 
 26 C       -4.4760     4.4640    -0.6080 C.3   1 <1>   0.0400 
 27 H       -5.9970    -1.7690    -0.9650 H     1 <1>   0.1500 
 28 H       -5.9230    -2.5130     3.2310 H     1 <1>   0.1500 
 29 H       -8.0980     0.2190    -1.9860 H     1 <1>   0.1500 
 30 H       -6.5610     0.8450     1.9410 H     1 <1>   0.1500 
 31 H       -9.7330    -2.3790    -1.0240 H     1 <1>   0.1500 
 32 H       -9.9670     1.2990     0.8770 H     1 <1>   0.0800 
 33 H      -10.0590     0.1700     2.1840 H     1 <1>   0.0800 
 34 H       -3.6290    -2.3390    -1.1080 H     1 <1>   0.1500 
 35 H       -3.5470    -3.0910     3.0810 H     1 <1>   0.1500 
 36 H       -6.8450     2.1860    -2.7780 H     1 <1>   0.1500 
 37 H       -5.3210     2.7800     1.1610 H     1 <1>   0.1500 
 38 H      -12.0970    -2.6280    -0.7700 H     1 <1>   0.0800 
 39 H      -12.3430     0.6980     1.7350 H     1 <1>   0.0800 
 40 H       -2.3900    -3.0020     0.9100 H     1 <1>   0.1500 
 41 H      -13.2460    -1.2860     0.8200 H     1 <1>   0.4500 
 42 H      -13.2100    -0.7480    -1.7210 H     1 <1>   0.0800 
 43 H      -11.5720    -0.3760    -2.2050 H     1 <1>   0.0800 
 44 H      -11.5950     1.4840    -0.7840 H     1 <1>   0.0800 
 45 H      -13.2460     1.1070    -0.3740 H     1 <1>   0.0800 
 46 H      -10.6640    -2.1430     2.0340 H     1 <1>   0.0800 
 47 H      -12.0810    -3.1450     1.8400 H     1 <1>   0.0800 
 48 H      -12.1210    -1.7750     2.9290 H     1 <1>   0.0800 
 49 H       -4.0550     5.2310    -1.2330 H     1 <1>   0.0800 
 50 H       -3.6920     3.8350    -0.2240 H     1 <1>   0.0800 
 51 H       -5.0390     4.9120     0.1910 H     1 <1>   0.0800 
@<TRIPOS>BOND
  1   1   2  2   
  2   2   3  am  
  3   2   4  1   
  4   3   5  1   
  5   3   6  1   
  6   4   7  ar  
  7   4   8  ar  
  8   5   9  ar  
  9   5  10  ar  
 10   6  11  2   
 11   6  12  1   
 12   7  13  ar  
 13   7  27  1   
 14   8  14  ar  
 15   8  28  1   
 16   9  15  ar  
 17   9  29  1   
 18  10  16  ar  
 19  10  30  1   
 20  11  17  1   
 21  11  31  1   
 22  12  18  1   
 23  12  32  1   
 24  12  33  1   
 25  13  19  ar  
 26  13  34  1   
 27  14  19  ar  
 28  14  35  1   
 29  15  20  ar  
 30  15  36  1   
 31  16  20  ar  
 32  16  37  1   
 33  17  21  1   
 34  17  22  1   
 35  17  38  1   
 36  18  21  1   
 37  18  23  1   
 38  18  39  1   
 39  19  40  1   
 40  20  24  1   
 41  21  25  1   
 42  21  41  1   
 43  22  23  1   
 44  22  42  1   
 45  22  43  1   
 46  23  44  1   
 47  23  45  1   
 48  24  26  1   
 49  25  46  1   
 50  25  47  1   
 51  25  48  1   
 52  26  49  1   
 53  26  50  1   
 54  26  51  1   
@<TRIPOS>SUBSTRUCTURE
  1 ****   3 GROUP 4 **** **** 0

# MOE 2024.06 (io_trps.svl 2023.06)
