@<TRIPOS>MOLECULE
NONAME
43 45 1 0 0 
SMALL
USER_CHARGES


@<TRIPOS>ATOM
  1 S        0.7100    -0.6120     1.9260 S.3   1 <1>  -0.0800 
  2 C        1.9400    -0.8020     0.7180 C.2   1 <1>   0.1240 
  3 C       -0.4950    -1.4560     0.9280 C.2   1 <1>  -0.0450 
  4 N        3.2070    -0.3500     0.8210 N.pl3 1 <1>  -0.5340 
  5 C        1.4890    -1.4660    -0.3740 C.2   1 <1>  -0.0860 
  6 C        0.1110    -1.8570    -0.2370 C.2   1 <1>  -0.1810 
  7 C       -1.8110    -1.5450     1.5020 C.2   1 <1>   0.5940 
  8 C        4.0410    -0.5740    -0.2220 C.2   1 <1>   0.6410 
  9 C        2.4530    -1.6410    -1.4290 C.2   1 <1>   0.8670 
 10 C       -0.5340    -2.6790    -1.3480 C.3   1 <1>  -0.0590 
 11 O       -2.0320    -1.4110     2.6800 O.2   1 <1>  -0.5700 
 12 C       -3.0260    -1.7860     0.6310 C.3   1 <1>  -0.1790 
 13 S        5.6800     0.0470     0.0120 S.3   1 <1>  -0.3710 
 14 N        3.7400    -1.1790    -1.3100 N.2   1 <1>  -0.6610 
 15 O        2.1660    -2.2050    -2.4730 O.2   1 <1>  -0.5700 
 16 C        6.5230    -0.3060    -1.6110 C.3   1 <1>   0.1310 
 17 C        8.0190    -0.0410    -1.5130 C.2   1 <1>   0.5690 
 18 O        8.4380     0.9340    -2.0940 O.2   1 <1>  -0.5700 
 19 N        8.8560    -0.8830    -0.8160 N.am  1 <1>  -0.6600 
 20 C       10.3070    -0.5780    -0.6680 C.3   1 <1>   0.1400 
 21 C        8.4270    -2.1090    -0.0850 C.3   1 <1>   0.1400 
 22 C       10.6450    -0.4060     0.8170 C.3   1 <1>  -0.1600 
 23 C        8.7380    -1.9510     1.4070 C.3   1 <1>  -0.1600 
 24 C       10.2210    -1.6300     1.6420 C.3   1 <1>  -0.1600 
 25 H        3.5540     0.1540     1.6390 H     1 <1>   0.4000 
 26 H        0.1040    -3.5050    -1.6110 H     1 <1>   0.0800 
 27 H       -1.4750    -3.0970    -1.0540 H     1 <1>   0.0800 
 28 H       -0.6780    -2.0700    -2.2230 H     1 <1>   0.0800 
 29 H       -3.8880    -1.3380     1.0900 H     1 <1>   0.0800 
 30 H       -2.8880    -1.3410    -0.3360 H     1 <1>   0.0800 
 31 H       -3.1980    -2.8410     0.5350 H     1 <1>   0.0800 
 32 H        6.0770     0.3410    -2.3430 H     1 <1>   0.0800 
 33 H        6.3330    -1.3290    -1.8740 H     1 <1>   0.0800 
 34 H       10.5660     0.3210    -1.2020 H     1 <1>   0.0800 
 35 H       10.8800    -1.3870    -1.0850 H     1 <1>   0.0800 
 36 H        8.9650    -2.9550    -0.4790 H     1 <1>   0.0800 
 37 H        7.3770    -2.2980    -0.2120 H     1 <1>   0.0800 
 38 H       10.1420     0.4720     1.1830 H     1 <1>   0.0800 
 39 H       11.7020    -0.2450     0.9230 H     1 <1>   0.0800 
 40 H        8.4790    -2.8570     1.9240 H     1 <1>   0.0800 
 41 H        8.1280    -1.1590     1.8060 H     1 <1>   0.0800 
 42 H       10.3920    -1.4400     2.6880 H     1 <1>   0.0800 
 43 H       10.8210    -2.4770     1.3550 H     1 <1>   0.0800 
@<TRIPOS>BOND
  1   1   2  1   
  2   1   3  1   
  3   2   4  1   
  4   2   5  2   
  5   3   6  2   
  6   3   7  1   
  7   4   8  1   
  8   4  25  1   
  9   5   6  1   
 10   5   9  1   
 11   6  10  1   
 12   7  11  2   
 13   7  12  1   
 14   8  13  1   
 15   8  14  2   
 16   9  14  1   
 17   9  15  2   
 18  10  26  1   
 19  10  27  1   
 20  10  28  1   
 21  12  29  1   
 22  12  30  1   
 23  12  31  1   
 24  13  16  1   
 25  16  17  1   
 26  16  32  1   
 27  16  33  1   
 28  17  18  2   
 29  17  19  am  
 30  19  20  1   
 31  19  21  1   
 32  20  22  1   
 33  20  34  1   
 34  20  35  1   
 35  21  23  1   
 36  21  36  1   
 37  21  37  1   
 38  22  24  1   
 39  22  38  1   
 40  22  39  1   
 41  23  24  1   
 42  23  40  1   
 43  23  41  1   
 44  24  42  1   
 45  24  43  1   
@<TRIPOS>SUBSTRUCTURE
  1 ****   8 GROUP 4 **** **** 0

# MOE 2024.06 (io_trps.svl 2023.06)
