@<TRIPOS>MOLECULE
NONAME
40 44 1 0 0 
SMALL
USER_CHARGES


@<TRIPOS>ATOM
  1 N       -0.5900     0.3280    -0.1580 N.ar  1 <1>  -0.6200 
  2 C       -1.8890     0.2390     0.2260 C.ar  1 <1>   0.3100 
  3 C        0.0990     1.2610     0.4340 C.ar  1 <1>   0.1660 
  4 C       -2.4450     1.1030     1.2010 C.ar  1 <1>   0.3100 
  5 C       -2.7120    -0.7370    -0.3570 C.ar  1 <1>  -0.1500 
  6 C       -0.4770     2.1150     1.4080 C.ar  1 <1>   0.1600 
  7 C        1.5920     1.4550     0.0750 C.3   1 <1>   0.1440 
  8 N       -1.7100     2.0690     1.8070 N.ar  1 <1>  -0.6200 
  9 C       -3.7970     0.9490     1.5460 C.ar  1 <1>  -0.1500 
 10 C       -4.0300    -0.8660    -0.0020 C.ar  1 <1>  -0.1500 
 11 C        2.4790     1.2540     1.3290 C.3   1 <1>  -0.1600 
 12 C        2.0720     0.4450    -1.0050 C.3   1 <1>  -0.1600 
 13 C        1.8320     2.8810    -0.4820 C.3   1 <1>  -0.1600 
 14 C       -4.5780    -0.0140     0.9600 C.ar  1 <1>  -0.1500 
 15 C        3.9680     1.4720     0.9970 C.3   1 <1>  -0.0800 
 16 C        3.5580     0.6520    -1.3500 C.3   1 <1>  -0.0800 
 17 C        3.3190     3.1030    -0.8180 C.3   1 <1>  -0.0800 
 18 C        4.4020     0.4600    -0.0780 C.3   1 <1>  -0.1600 
 19 C        4.1620     2.9010     0.4550 C.3   1 <1>  -0.1600 
 20 C        3.7560     2.0820    -1.8830 C.3   1 <1>  -0.1600 
 21 H       -2.2700    -1.3830    -1.0950 H     1 <1>   0.1500 
 22 H        0.1520     2.8620     1.8540 H     1 <1>   0.1500 
 23 H       -4.1990     1.6140     2.2880 H     1 <1>   0.1500 
 24 H       -4.6520    -1.6190    -0.4560 H     1 <1>   0.1500 
 25 H        2.1970     1.9390     2.1070 H     1 <1>   0.0800 
 26 H        2.3370     0.2570     1.7090 H     1 <1>   0.0800 
 27 H        1.4800     0.5600    -1.8960 H     1 <1>   0.0800 
 28 H        1.9260    -0.5600    -0.6490 H     1 <1>   0.0800 
 29 H        1.5270     3.6240     0.2320 H     1 <1>   0.0800 
 30 H        1.2370     3.0220    -1.3680 H     1 <1>   0.0800 
 31 H       -5.6140    -0.1230     1.2330 H     1 <1>   0.1500 
 32 H        4.5630     1.3350     1.8840 H     1 <1>   0.0800 
 33 H        3.8590    -0.0610    -2.0990 H     1 <1>   0.0800 
 34 H        3.4620     4.1020    -1.1950 H     1 <1>   0.0800 
 35 H        4.2780    -0.5430     0.2930 H     1 <1>   0.0800 
 36 H        5.4440     0.5960    -0.3080 H     1 <1>   0.0800 
 37 H        5.2010     3.0660     0.2320 H     1 <1>   0.0800 
 38 H        3.8720     3.6180     1.2030 H     1 <1>   0.0800 
 39 H        4.7910     2.2360    -2.1340 H     1 <1>   0.0800 
 40 H        3.1790     2.2190    -2.7810 H     1 <1>   0.0800 
@<TRIPOS>BOND
  1   1   2  ar  
  2   1   3  ar  
  3   2   4  ar  
  4   2   5  ar  
  5   3   6  ar  
  6   3   7  1   
  7   4   8  ar  
  8   4   9  ar  
  9   5  10  ar  
 10   5  21  1   
 11   6   8  ar  
 12   6  22  1   
 13   7  11  1   
 14   7  12  1   
 15   7  13  1   
 16   9  14  ar  
 17   9  23  1   
 18  10  14  ar  
 19  10  24  1   
 20  11  15  1   
 21  11  25  1   
 22  11  26  1   
 23  12  16  1   
 24  12  27  1   
 25  12  28  1   
 26  13  17  1   
 27  13  29  1   
 28  13  30  1   
 29  14  31  1   
 30  15  18  1   
 31  15  19  1   
 32  15  32  1   
 33  16  18  1   
 34  16  20  1   
 35  16  33  1   
 36  17  19  1   
 37  17  20  1   
 38  17  34  1   
 39  18  35  1   
 40  18  36  1   
 41  19  37  1   
 42  19  38  1   
 43  20  39  1   
 44  20  40  1   
@<TRIPOS>SUBSTRUCTURE
  1 ****   3 GROUP 4 **** **** 0

# MOE 2024.06 (io_trps.svl 2023.06)
