@<TRIPOS>MOLECULE
NONAME
52 54 1 0 0 
SMALL
USER_CHARGES


@<TRIPOS>ATOM
  1 N        0.0730     0.0120     0.0440 N.4   1 <1>  -0.9590 
  2 C        1.2680     0.7050     0.5980 C.3   1 <1>   0.4230 
  3 C       -1.1540     0.8830     0.0790 C.3   1 <1>   0.3430 
  4 C       -0.2260    -1.3280     0.6710 C.3   1 <1>   0.3430 
  5 C        2.5250    -0.0570     0.1630 C.3   1 <1>  -0.1600 
  6 C        1.1730     0.8530     2.1220 C.3   1 <1>  -0.2400 
  7 C       -2.3680     0.1870    -0.5640 C.3   1 <1>   0.1100 
  8 C       -1.4510    -2.0040     0.0220 C.3   1 <1>   0.1100 
  9 C        3.8250     0.7180     0.4200 C.3   1 <1>  -0.0170 
 10 N       -2.6320    -1.1240     0.0680 N.3   1 <1>  -0.8100 
 11 C        4.9950    -0.0650    -0.1470 C.ar  1 <1>  -0.1440 
 12 C       -3.8280    -1.7880    -0.4930 C.3   1 <1>   0.2530 
 13 C        5.6300    -1.0270     0.6230 C.ar  1 <1>  -0.1500 
 14 C        5.4320     0.1680    -1.4430 C.ar  1 <1>  -0.1500 
 15 C       -5.0640    -0.9160    -0.3240 C.ar  1 <1>  -0.1440 
 16 C        6.6880    -1.7520     0.1020 C.ar  1 <1>  -0.1500 
 17 C        6.4900    -0.5570    -1.9640 C.ar  1 <1>  -0.1500 
 18 C       -5.7670    -0.4650    -1.4320 C.ar  1 <1>  -0.1500 
 19 C       -5.4970    -0.5610     0.9440 C.ar  1 <1>  -0.1500 
 20 C        7.1170    -1.5190    -1.1920 C.ar  1 <1>  -0.1500 
 21 C       -6.8860     0.3340    -1.2720 C.ar  1 <1>  -0.1500 
 22 C       -6.6160     0.2370     1.1060 C.ar  1 <1>  -0.1500 
 23 C       -7.3100     0.6870    -0.0040 C.ar  1 <1>  -0.1500 
 24 H        0.2660    -0.1700    -0.9470 H     1 <1>   0.4500 
 25 H        1.3150     1.6930     0.1660 H     1 <1>   0.0800 
 26 H       -0.9650     1.8100    -0.4370 H     1 <1>   0.0800 
 27 H       -1.4080     1.1170     1.1000 H     1 <1>   0.0800 
 28 H       -0.4320    -1.2000     1.7210 H     1 <1>   0.0800 
 29 H        0.6270    -1.9800     0.5760 H     1 <1>   0.0800 
 30 H        2.4700    -0.2520    -0.8940 H     1 <1>   0.0800 
 31 H        2.5880    -1.0010     0.6750 H     1 <1>   0.0800 
 32 H        1.2710    -0.0960     2.6180 H     1 <1>   0.0800 
 33 H        0.2500     1.3160     2.4160 H     1 <1>   0.0800 
 34 H        1.9680     1.4860     2.4740 H     1 <1>   0.0800 
 35 H       -2.2050     0.0630    -1.6210 H     1 <1>   0.0800 
 36 H       -3.2240     0.8300    -0.4370 H     1 <1>   0.0800 
 37 H       -1.6660    -2.9130     0.5580 H     1 <1>   0.0800 
 38 H       -1.2240    -2.2660    -0.9980 H     1 <1>   0.0800 
 39 H        3.9840     0.8660     1.4750 H     1 <1>   0.0800 
 40 H        3.7850     1.6880    -0.0460 H     1 <1>   0.0800 
 41 H       -3.9970    -2.7180     0.0220 H     1 <1>   0.0800 
 42 H       -3.6710    -2.0070    -1.5360 H     1 <1>   0.0800 
 43 H        5.3100    -1.2190     1.6310 H     1 <1>   0.1500 
 44 H        4.9570     0.9130    -2.0550 H     1 <1>   0.1500 
 45 H        7.1790    -2.4980     0.7030 H     1 <1>   0.1500 
 46 H        6.8270    -0.3730    -2.9690 H     1 <1>   0.1500 
 47 H       -5.4520    -0.7330    -2.4250 H     1 <1>   0.1500 
 48 H       -4.9580    -0.9060     1.8090 H     1 <1>   0.1500 
 49 H        7.9400    -2.0820    -1.5970 H     1 <1>   0.1500 
 50 H       -7.4280     0.6810    -2.1350 H     1 <1>   0.1500 
 51 H       -6.9470     0.5080     2.0930 H     1 <1>   0.1500 
 52 H       -8.1810     1.3070     0.1210 H     1 <1>   0.1500 
@<TRIPOS>BOND
  1   1   2  1   
  2   1   3  1   
  3   1   4  1   
  4   1  24  1   
  5   2   5  1   
  6   2   6  1   
  7   2  25  1   
  8   3   7  1   
  9   3  26  1   
 10   3  27  1   
 11   4   8  1   
 12   4  28  1   
 13   4  29  1   
 14   5   9  1   
 15   5  30  1   
 16   5  31  1   
 17   6  32  1   
 18   6  33  1   
 19   6  34  1   
 20   7  10  1   
 21   7  35  1   
 22   7  36  1   
 23   8  10  1   
 24   8  37  1   
 25   8  38  1   
 26   9  11  1   
 27   9  39  1   
 28   9  40  1   
 29  10  12  1   
 30  11  13  ar  
 31  11  14  ar  
 32  12  15  1   
 33  12  41  1   
 34  12  42  1   
 35  13  16  ar  
 36  13  43  1   
 37  14  17  ar  
 38  14  44  1   
 39  15  18  ar  
 40  15  19  ar  
 41  16  20  ar  
 42  16  45  1   
 43  17  20  ar  
 44  17  46  1   
 45  18  21  ar  
 46  18  47  1   
 47  19  22  ar  
 48  19  48  1   
 49  20  49  1   
 50  21  23  ar  
 51  21  50  1   
 52  22  23  ar  
 53  22  51  1   
 54  23  52  1   
@<TRIPOS>SUBSTRUCTURE
  1 ****   1 GROUP 4 **** **** 0

# MOE 2024.06 (io_trps.svl 2023.06)
