@<TRIPOS>MOLECULE
NONAME
41 43 1 0 0 
SMALL
USER_CHARGES


@<TRIPOS>ATOM
  1 O       -0.9950    -1.1010    -2.0530 O.2   1 <1>  -0.5700 
  2 C       -1.0030    -1.9240    -1.1670 C.2   1 <1>   0.4950 
  3 C       -2.1970    -2.5820    -0.7110 C.2   1 <1>   0.0290 
  4 C        0.3590    -2.1790    -0.5360 C.3   1 <1>  -0.0990 
  5 C       -2.0110    -3.6980     0.1740 C.2   1 <1>   0.4950 
  6 C       -3.4140    -2.0980    -1.1660 C.2   1 <1>  -0.0500 
  7 C        0.5100    -3.5800     0.0680 C.3   1 <1>   0.0000 
  8 O       -2.8040    -4.5920     0.3560 O.2   1 <1>  -0.5700 
  9 C       -0.7140    -3.8440     0.9500 C.3   1 <1>  -0.0990 
 10 N       -4.7140    -2.3960    -0.8810 N.pl3 1 <1>  -0.8690 
 11 C        0.6170    -4.6370    -1.0470 C.3   1 <1>  -0.2400 
 12 C        1.7870    -3.6420     0.9200 C.3   1 <1>  -0.2400 
 13 C       -5.3070    -3.3420     0.0880 C.3   1 <1>   0.3530 
 14 C       -6.7710    -2.9740     0.2560 C.ar  1 <1>  -0.1430 
 15 C       -7.7590    -3.7480    -0.3460 C.ar  1 <1>  -0.1500 
 16 C       -7.1250    -1.8550     1.0110 C.ar  1 <1>  -0.1500 
 17 C       -9.0770    -3.3760    -0.1680 C.ar  1 <1>   0.0830 
 18 C       -8.4570    -1.4970     1.1790 C.ar  1 <1>  -0.1500 
 19 O      -10.1760    -3.9670    -0.6490 O.3   1 <1>  -0.3620 
 20 C       -9.4170    -2.2830     0.5730 C.ar  1 <1>   0.0830 
 21 C      -11.2860    -3.2030    -0.1820 C.3   1 <1>   0.4000 
 22 O      -10.7460    -2.1350     0.5940 O.3   1 <1>  -0.3630 
 23 H        1.1220    -2.0220    -1.2780 H     1 <1>   0.0800 
 24 H        0.5000    -1.4340     0.2260 H     1 <1>   0.0800 
 25 H       -3.3420    -1.3060    -1.8970 H     1 <1>   0.1500 
 26 H       -0.7370    -3.1560     1.7760 H     1 <1>   0.0800 
 27 H       -0.6550    -4.8380     1.3590 H     1 <1>   0.0800 
 28 H       -5.4680    -1.8990    -1.3740 H     1 <1>   0.4000 
 29 H        1.4910    -4.4630    -1.6490 H     1 <1>   0.0800 
 30 H       -0.2400    -4.6240    -1.6980 H     1 <1>   0.0800 
 31 H        0.6960    -5.6240    -0.6230 H     1 <1>   0.0800 
 32 H        1.7520    -2.9230     1.7200 H     1 <1>   0.0800 
 33 H        2.6540    -3.4340     0.3180 H     1 <1>   0.0800 
 34 H        1.9050    -4.6200     1.3530 H     1 <1>   0.0800 
 35 H       -5.2140    -4.3480    -0.2850 H     1 <1>   0.0800 
 36 H       -4.8000    -3.2680     1.0340 H     1 <1>   0.0800 
 37 H       -7.5210    -4.6130    -0.9380 H     1 <1>   0.1500 
 38 H       -6.3550    -1.2570     1.4680 H     1 <1>   0.1500 
 39 H       -8.7440    -0.6380     1.7580 H     1 <1>   0.1500 
 40 H      -11.8260    -2.8020    -1.0210 H     1 <1>   0.0800 
 41 H      -11.9120    -3.8190     0.4390 H     1 <1>   0.0800 
@<TRIPOS>BOND
  1   1   2  2   
  2   2   3  1   
  3   2   4  1   
  4   3   5  1   
  5   3   6  2   
  6   4   7  1   
  7   4  23  1   
  8   4  24  1   
  9   5   8  2   
 10   5   9  1   
 11   6  10  1   
 12   6  25  1   
 13   7   9  1   
 14   7  11  1   
 15   7  12  1   
 16   9  26  1   
 17   9  27  1   
 18  10  13  1   
 19  10  28  1   
 20  11  29  1   
 21  11  30  1   
 22  11  31  1   
 23  12  32  1   
 24  12  33  1   
 25  12  34  1   
 26  13  14  1   
 27  13  35  1   
 28  13  36  1   
 29  14  15  ar  
 30  14  16  ar  
 31  15  17  ar  
 32  15  37  1   
 33  16  18  ar  
 34  16  38  1   
 35  17  19  1   
 36  17  20  ar  
 37  18  20  ar  
 38  18  39  1   
 39  19  21  1   
 40  20  22  1   
 41  21  22  1   
 42  21  40  1   
 43  21  41  1   
@<TRIPOS>SUBSTRUCTURE
  1 ****  13 GROUP 4 **** **** 0

# MOE 2024.06 (io_trps.svl 2023.06)
