@<TRIPOS>MOLECULE
NONAME
39 40 1 0 0 
SMALL
USER_CHARGES


@<TRIPOS>ATOM
  1 O       -0.7240     0.0800    -1.4490 O.2   1 <1>  -0.5700 
  2 C       -1.6480     0.8110    -1.1540 C.2   1 <1>   0.7060 
  3 O       -2.8860     0.3120    -1.1740 O.3   1 <1>  -0.2320 
  4 C       -1.4780     2.1780    -0.7870 C.2   1 <1>  -0.1360 
  5 C       -3.9760     1.0510    -0.8610 C.ar  1 <1>   0.0830 
  6 C       -2.5260     2.9670    -0.4640 C.2   1 <1>  -0.1670 
  7 C       -3.8460     2.3990    -0.4960 C.ar  1 <1>   0.0280 
  8 C       -5.2150     0.4360    -0.9120 C.ar  1 <1>  -0.1500 
  9 C       -2.3270     4.4250    -0.0730 C.3   1 <1>  -0.1020 
 10 C       -5.0180     3.0960    -0.1880 C.ar  1 <1>  -0.1500 
 11 C       -6.3650     1.1490    -0.6010 C.ar  1 <1>   0.0830 
 12 C       -6.2600     2.4930    -0.2370 C.ar  1 <1>  -0.1430 
 13 O       -7.6010     0.5940    -0.6310 O.3   1 <1>  -0.3630 
 14 C       -7.4990     3.3110     0.1140 C.3   1 <1>  -0.0170 
 15 C       -7.8060    -0.7800    -0.8750 C.3   1 <1>   0.1200 
 16 C       -7.8710     3.1230     1.5870 C.3   1 <1>  -0.2400 
 17 C       -9.3030    -1.0890    -0.7640 C.3   1 <1>  -0.1600 
 18 C       -9.8700    -0.7700     0.6270 C.3   1 <1>  -0.1600 
 19 C      -11.3520    -1.1460     0.7190 C.3   1 <1>  -0.2400 
 20 H       -0.4630     2.5270    -0.7870 H     1 <1>   0.1500 
 21 H       -5.2520    -0.5960    -1.1990 H     1 <1>   0.1500 
 22 H       -2.8550     5.0670    -0.7560 H     1 <1>   0.0800 
 23 H       -1.2850     4.6910    -0.0990 H     1 <1>   0.0800 
 24 H       -2.6930     4.5950     0.9240 H     1 <1>   0.0800 
 25 H       -4.9550     4.1290     0.0980 H     1 <1>   0.1500 
 26 H       -8.3260     3.0140    -0.5090 H     1 <1>   0.0800 
 27 H       -7.3160     4.3540    -0.0770 H     1 <1>   0.0800 
 28 H       -7.2500    -1.3410    -0.1450 H     1 <1>   0.0800 
 29 H       -7.4490    -1.0040    -1.8650 H     1 <1>   0.0800 
 30 H       -8.0770     2.0860     1.7840 H     1 <1>   0.0800 
 31 H       -8.7460     3.7000     1.8250 H     1 <1>   0.0800 
 32 H       -7.0600     3.4390     2.2180 H     1 <1>   0.0800 
 33 H       -9.4500    -2.1340    -0.9750 H     1 <1>   0.0800 
 34 H       -9.8310    -0.5270    -1.5140 H     1 <1>   0.0800 
 35 H       -9.7610     0.2820     0.8300 H     1 <1>   0.0800 
 36 H       -9.3190    -1.3110     1.3770 H     1 <1>   0.0800 
 37 H      -11.9230    -0.5970    -0.0090 H     1 <1>   0.0800 
 38 H      -11.7300    -0.9100     1.6980 H     1 <1>   0.0800 
 39 H      -11.4860    -2.1990     0.5440 H     1 <1>   0.0800 
@<TRIPOS>BOND
  1   1   2  2   
  2   2   3  1   
  3   2   4  1   
  4   3   5  1   
  5   4   6  2   
  6   4  20  1   
  7   5   7  ar  
  8   5   8  ar  
  9   6   7  1   
 10   6   9  1   
 11   7  10  ar  
 12   8  11  ar  
 13   8  21  1   
 14   9  22  1   
 15   9  23  1   
 16   9  24  1   
 17  10  12  ar  
 18  10  25  1   
 19  11  12  ar  
 20  11  13  1   
 21  12  14  1   
 22  13  15  1   
 23  14  16  1   
 24  14  26  1   
 25  14  27  1   
 26  15  17  1   
 27  15  28  1   
 28  15  29  1   
 29  16  30  1   
 30  16  31  1   
 31  16  32  1   
 32  17  18  1   
 33  17  33  1   
 34  17  34  1   
 35  18  19  1   
 36  18  35  1   
 37  18  36  1   
 38  19  37  1   
 39  19  38  1   
 40  19  39  1   
@<TRIPOS>SUBSTRUCTURE
  1 ****  11 GROUP 4 **** **** 0

# MOE 2024.06 (io_trps.svl 2023.06)
