@<TRIPOS>MOLECULE
NONAME
28 30 1 0 0 
SMALL
USER_CHARGES


@<TRIPOS>ATOM
  1 CL       0.3740    -0.2810     0.8430 Cl    1 <1>  -0.1770 
  2 C        1.1470     1.2550     0.5530 C.ar  1 <1>   0.1770 
  3 C        2.2510     1.6120     1.3010 C.ar  1 <1>  -0.1500 
  4 C        0.6440     2.0960    -0.4190 C.ar  1 <1>  -0.1500 
  5 C        2.8650     2.8300     1.0660 C.ar  1 <1>  -0.1500 
  6 C        1.2610     3.3140    -0.6500 C.ar  1 <1>  -0.1500 
  7 C        2.3890     3.6940     0.0800 C.ar  1 <1>  -0.1430 
  8 C        3.0840     5.0410    -0.1660 C.3   1 <1>   0.9130 
  9 O        2.8880     5.4420    -1.4510 O.3   1 <1>  -0.6800 
 10 N        4.5390     4.9360    -0.0890 N.pl3 1 <1>  -0.8330 
 11 C        2.6140     6.1580     0.8040 C.3   1 <1>   0.0700 
 12 C        5.1720     5.8130     0.6130 C.cat 1 <1>   0.8400 
 13 C        5.4970     4.0600    -0.8070 C.3   1 <1>   0.3290 
 14 S        4.1660     6.9340     1.4500 S.3   1 <1>  -0.3610 
 15 N        6.4650     5.7280     0.5820 N.pl3 1 <1>  -0.7940 
 16 C        6.8680     4.6120    -0.3170 C.3   1 <1>   0.3290 
 17 H        2.6150     0.9400     2.0590 H     1 <1>   0.1500 
 18 H       -0.2230     1.7970    -0.9820 H     1 <1>   0.1500 
 19 H        3.7180     3.0940     1.6700 H     1 <1>   0.1500 
 20 H        0.8370     3.9580    -1.4050 H     1 <1>   0.1500 
 21 H        2.9300     4.6490    -2.0110 H     1 <1>   0.4000 
 22 H        2.0850     5.7520     1.6460 H     1 <1>   0.0800 
 23 H        2.0250     6.9090     0.3100 H     1 <1>   0.0800 
 24 H        5.3980     4.1710    -1.8740 H     1 <1>   0.0800 
 25 H        5.3680     3.0280    -0.5280 H     1 <1>   0.0800 
 26 H        7.1210     6.3460     1.0680 H     1 <1>   0.4500 
 27 H        7.4570     4.9760    -1.1420 H     1 <1>   0.0800 
 28 H        7.4180     3.8610     0.2250 H     1 <1>   0.0800 
@<TRIPOS>BOND
  1   1   2  1   
  2   2   3  ar  
  3   2   4  ar  
  4   3   5  ar  
  5   3  17  1   
  6   4   6  ar  
  7   4  18  1   
  8   5   7  ar  
  9   5  19  1   
 10   6   7  ar  
 11   6  20  1   
 12   7   8  1   
 13   8   9  1   
 14   8  10  1   
 15   8  11  1   
 16   9  21  1   
 17  10  12  ar  
 18  10  13  1   
 19  11  14  1   
 20  11  22  1   
 21  11  23  1   
 22  12  14  1   
 23  12  15  ar  
 24  13  16  1   
 25  13  24  1   
 26  13  25  1   
 27  15  16  1   
 28  15  26  1   
 29  16  27  1   
 30  16  28  1   
@<TRIPOS>SUBSTRUCTURE
  1 ****   7 GROUP 4 **** **** 0

# MOE 2024.06 (io_trps.svl 2023.06)
