@<TRIPOS>MOLECULE
NONAME
41 44 1 0 0 
SMALL
USER_CHARGES


@<TRIPOS>ATOM
  1 N        0.1420    -0.5390     0.3680 N.pl3 1 <1>  -0.9000 
  2 C       -0.5930    -1.7130     0.3870 C.ar  1 <1>   0.1000 
  3 C        0.0240    -2.9510     0.5450 C.ar  1 <1>  -0.1430 
  4 C       -1.9730    -1.6510     0.2370 C.ar  1 <1>  -0.1500 
  5 C       -0.7510    -4.0950     0.5370 C.ar  1 <1>  -0.1500 
  6 C        1.5310    -3.0630     0.7300 C.3   1 <1>  -0.0970 
  7 C       -2.7650    -2.7930     0.2280 C.ar  1 <1>  -0.1430 
  8 C       -2.1230    -4.0180     0.3790 C.ar  1 <1>  -0.1500 
  9 C       -4.3020    -2.7550     0.0610 C.3   1 <1>   0.1440 
 10 C       -4.8620    -1.3170    -0.0960 C.3   1 <1>  -0.1600 
 11 C       -4.9820    -3.3880     1.2990 C.3   1 <1>  -0.1600 
 12 C       -4.7150    -3.5560    -1.1970 C.3   1 <1>  -0.1600 
 13 C       -6.3940    -1.3220    -0.2600 C.3   1 <1>  -0.0800 
 14 C       -6.5140    -3.4120     1.1410 C.3   1 <1>  -0.0800 
 15 C       -6.2470    -3.5810    -1.3640 C.3   1 <1>  -0.0800 
 16 C       -7.0300    -1.9710     0.9820 C.3   1 <1>  -0.1600 
 17 C       -6.7640    -2.1390    -1.5100 C.3   1 <1>  -0.1600 
 18 C       -6.8810    -4.2230    -0.1160 C.3   1 <1>  -0.1600 
 19 H       -0.2840     0.2420    -0.1370 H     1 <1>   0.4000 
 20 H        1.1290    -0.6520     0.1320 H     1 <1>   0.4000 
 21 H       -2.4020    -0.6750     0.1320 H     1 <1>   0.1500 
 22 H       -0.2930    -5.0610     0.6560 H     1 <1>   0.1500 
 23 H        1.8440    -2.4450     1.5530 H     1 <1>   0.0800 
 24 H        2.0340    -2.7440    -0.1640 H     1 <1>   0.0800 
 25 H        1.8180    -4.0770     0.9410 H     1 <1>   0.0800 
 26 H       -2.6870    -4.9320     0.3790 H     1 <1>   0.1500 
 27 H       -4.4220    -0.8490    -0.9580 H     1 <1>   0.0800 
 28 H       -4.6070    -0.7330     0.7700 H     1 <1>   0.0800 
 29 H       -4.7140    -2.8270     2.1770 H     1 <1>   0.0800 
 30 H       -4.6340    -4.3940     1.4430 H     1 <1>   0.0800 
 31 H       -4.3600    -4.5680    -1.1290 H     1 <1>   0.0800 
 32 H       -4.2610    -3.1140    -2.0670 H     1 <1>   0.0800 
 33 H       -6.7520    -0.3120    -0.3660 H     1 <1>   0.0800 
 34 H       -6.9620    -3.8640     2.0100 H     1 <1>   0.0800 
 35 H       -6.5080    -4.1510    -2.2390 H     1 <1>   0.0800 
 36 H       -8.1020    -1.9760     0.8820 H     1 <1>   0.0800 
 37 H       -6.7860    -1.3970     1.8590 H     1 <1>   0.0800 
 38 H       -6.3330    -1.6840    -2.3840 H     1 <1>   0.0800 
 39 H       -7.8330    -2.1460    -1.6370 H     1 <1>   0.0800 
 40 H       -7.9500    -4.2570    -0.2280 H     1 <1>   0.0800 
 41 H       -6.5320    -5.2360    -0.0100 H     1 <1>   0.0800 
@<TRIPOS>BOND
  1   1   2  1   
  2   1  19  1   
  3   1  20  1   
  4   2   3  ar  
  5   2   4  ar  
  6   3   5  ar  
  7   3   6  1   
  8   4   7  ar  
  9   4  21  1   
 10   5   8  ar  
 11   5  22  1   
 12   6  23  1   
 13   6  24  1   
 14   6  25  1   
 15   7   8  ar  
 16   7   9  1   
 17   8  26  1   
 18   9  10  1   
 19   9  11  1   
 20   9  12  1   
 21  10  13  1   
 22  10  27  1   
 23  10  28  1   
 24  11  14  1   
 25  11  29  1   
 26  11  30  1   
 27  12  15  1   
 28  12  31  1   
 29  12  32  1   
 30  13  16  1   
 31  13  17  1   
 32  13  33  1   
 33  14  16  1   
 34  14  18  1   
 35  14  34  1   
 36  15  17  1   
 37  15  18  1   
 38  15  35  1   
 39  16  36  1   
 40  16  37  1   
 41  17  38  1   
 42  17  39  1   
 43  18  40  1   
 44  18  41  1   
@<TRIPOS>SUBSTRUCTURE
  1 ****   9 GROUP 4 **** **** 0

# MOE 2024.06 (io_trps.svl 2023.06)
