@<TRIPOS>MOLECULE
NONAME
33 34 1 0 0 
SMALL
USER_CHARGES


@<TRIPOS>ATOM
  1 O        0.0240    -0.6380    -1.6280 O.2   1 <1>  -0.5700 
  2 C        0.0270    -1.5050    -0.7760 C.2   1 <1>   0.5440 
  3 N        1.1650    -1.6940    -0.0470 N.am  1 <1>  -0.7300 
  4 C       -1.1520    -2.3210    -0.5360 C.ar  1 <1>   0.0860 
  5 C        2.4670    -1.0410    -0.2620 C.3   1 <1>   0.2200 
  6 C       -1.0700    -3.5950     0.0340 C.ar  1 <1>  -0.1500 
  7 C       -2.4240    -1.8560    -0.8720 C.ar  1 <1>  -0.1500 
  8 C        3.5250    -2.1450    -0.5030 C.3   1 <1>   0.2000 
  9 C        2.7310    -0.1620     0.9640 C.3   1 <1>  -0.2400 
 10 C       -2.2010    -4.3580     0.2670 C.ar  1 <1>  -0.1500 
 11 C       -3.5590    -2.6130    -0.6440 C.ar  1 <1>  -0.1500 
 12 O        3.5510    -3.0590     0.5570 O.3   1 <1>  -0.5600 
 13 C        4.9730    -1.6960    -0.6620 C.3   1 <1>  -0.1600 
 14 C       -3.4490    -3.8670    -0.0710 C.ar  1 <1>  -0.1500 
 15 C        4.7920    -3.6900     0.6460 C.3   1 <1>   0.1200 
 16 C        5.7340    -2.9590    -0.3080 C.3   1 <1>  -0.1600 
 17 H        1.2190    -2.4410     0.6490 H     1 <1>   0.3700 
 18 H        2.4160    -0.4140    -1.1370 H     1 <1>   0.0800 
 19 H       -0.1090    -4.0010     0.2950 H     1 <1>   0.1500 
 20 H       -2.5170    -0.8810    -1.3210 H     1 <1>   0.1500 
 21 H        3.2420    -2.6990    -1.3820 H     1 <1>   0.0800 
 22 H        2.8720    -0.7700     1.8400 H     1 <1>   0.0800 
 23 H        1.8990     0.5010     1.1210 H     1 <1>   0.0800 
 24 H        3.6060     0.4410     0.8160 H     1 <1>   0.0800 
 25 H       -2.1110    -5.3350     0.7090 H     1 <1>   0.1500 
 26 H       -4.5270    -2.2270    -0.9130 H     1 <1>   0.1500 
 27 H        5.2150    -0.9200     0.0400 H     1 <1>   0.0800 
 28 H        5.1800    -1.3520    -1.6600 H     1 <1>   0.0800 
 29 H       -4.3300    -4.4590     0.1080 H     1 <1>   0.1500 
 30 H        4.6740    -4.7250     0.3760 H     1 <1>   0.0800 
 31 H        5.1270    -3.6120     1.6660 H     1 <1>   0.0800 
 32 H        6.6850    -2.7510     0.1500 H     1 <1>   0.0800 
 33 H        5.8900    -3.5630    -1.1840 H     1 <1>   0.0800 
@<TRIPOS>BOND
  1   1   2  2   
  2   2   3  am  
  3   2   4  1   
  4   3   5  1   
  5   3  17  1   
  6   4   6  ar  
  7   4   7  ar  
  8   5   8  1   
  9   5   9  1   
 10   5  18  1   
 11   6  10  ar  
 12   6  19  1   
 13   7  11  ar  
 14   7  20  1   
 15   8  12  1   
 16   8  13  1   
 17   8  21  1   
 18   9  22  1   
 19   9  23  1   
 20   9  24  1   
 21  10  14  ar  
 22  10  25  1   
 23  11  14  ar  
 24  11  26  1   
 25  12  15  1   
 26  13  16  1   
 27  13  27  1   
 28  13  28  1   
 29  14  29  1   
 30  15  16  1   
 31  15  30  1   
 32  15  31  1   
 33  16  32  1   
 34  16  33  1   
@<TRIPOS>SUBSTRUCTURE
  1 ****   3 GROUP 4 **** **** 0

# MOE 2024.06 (io_trps.svl 2023.06)
