@<TRIPOS>MOLECULE
NONAME
37 37 1 0 0 
SMALL
USER_CHARGES


@<TRIPOS>ATOM
  1 O        0.0770    -0.8610    -1.6390 O.2   1 <1>  -0.5700 
  2 C       -0.4030    -1.4260    -0.6860 C.2   1 <1>   0.6590 
  3 O        0.3460    -1.9070     0.3010 O.3   1 <1>  -0.4300 
  4 C       -1.9090    -1.6590    -0.5690 C.3   1 <1>   0.2810 
  5 C        1.7450    -1.7490     0.3040 C.3   1 <1>   0.1200 
  6 N       -2.4430    -2.3760    -1.7820 N.am  1 <1>  -0.7300 
  7 C       -2.6120    -0.3020    -0.3690 C.3   1 <1>   0.3440 
  8 C        2.2910    -2.4060     1.5670 C.3   1 <1>  -0.2400 
  9 C       -3.3320    -3.3880    -1.8680 C.2   1 <1>   0.5690 
 10 O       -2.0640     0.3740     0.7120 O.3   1 <1>  -0.6800 
 11 C       -4.1080    -0.4520    -0.1060 C.ar  1 <1>  -0.1440 
 12 O       -3.6130    -3.8410    -2.9450 O.2   1 <1>  -0.5700 
 13 C       -3.9830    -3.9710    -0.6370 C.3   1 <1>  -0.1790 
 14 C       -4.5960    -0.7610     1.1570 C.ar  1 <1>  -0.1500 
 15 C       -5.0060    -0.2910    -1.1520 C.ar  1 <1>  -0.1500 
 16 C       -5.9570    -0.9070     1.3840 C.ar  1 <1>   0.1000 
 17 C       -6.3660    -0.4320    -0.9360 C.ar  1 <1>  -0.1500 
 18 N       -6.4270    -1.2200     2.6450 N.pl3 1 <1>  -0.9000 
 19 C       -6.8380    -0.7360     0.3270 C.ar  1 <1>  -0.1500 
 20 H       -2.0890    -2.2600     0.3020 H     1 <1>   0.0800 
 21 H        1.9680    -0.6950     0.2870 H     1 <1>   0.0800 
 22 H        2.1440    -2.2170    -0.5810 H     1 <1>   0.0800 
 23 H       -2.0230    -2.0850    -2.6700 H     1 <1>   0.3700 
 24 H       -2.4480     0.3130    -1.2370 H     1 <1>   0.0800 
 25 H        1.8740    -1.9350     2.4390 H     1 <1>   0.0800 
 26 H        3.3600    -2.2980     1.5980 H     1 <1>   0.0800 
 27 H        2.0520    -3.4540     1.5740 H     1 <1>   0.0800 
 28 H       -2.6460     1.1290     0.9340 H     1 <1>   0.4000 
 29 H       -4.6500    -3.2530    -0.2020 H     1 <1>   0.0800 
 30 H       -3.2370    -4.2600     0.0780 H     1 <1>   0.0800 
 31 H       -4.5510    -4.8410    -0.9120 H     1 <1>   0.0800 
 32 H       -3.9220    -0.8920     1.9840 H     1 <1>   0.1500 
 33 H       -4.6540    -0.0610    -2.1440 H     1 <1>   0.1500 
 34 H       -7.0560    -0.3050    -1.7530 H     1 <1>   0.1500 
 35 H       -7.3590    -1.6400     2.6960 H     1 <1>   0.4000 
 36 H       -5.7670    -1.6610     3.2900 H     1 <1>   0.4000 
 37 H       -7.8940    -0.8390     0.4950 H     1 <1>   0.1500 
@<TRIPOS>BOND
  1   1   2  2   
  2   2   3  1   
  3   2   4  1   
  4   3   5  1   
  5   4   6  1   
  6   4   7  1   
  7   4  20  1   
  8   5   8  1   
  9   5  21  1   
 10   5  22  1   
 11   6   9  am  
 12   6  23  1   
 13   7  10  1   
 14   7  11  1   
 15   7  24  1   
 16   8  25  1   
 17   8  26  1   
 18   8  27  1   
 19   9  12  2   
 20   9  13  1   
 21  10  28  1   
 22  11  14  ar  
 23  11  15  ar  
 24  13  29  1   
 25  13  30  1   
 26  13  31  1   
 27  14  16  ar  
 28  14  32  1   
 29  15  17  ar  
 30  15  33  1   
 31  16  18  1   
 32  16  19  ar  
 33  17  19  ar  
 34  17  34  1   
 35  18  35  1   
 36  18  36  1   
 37  19  37  1   
@<TRIPOS>SUBSTRUCTURE
  1 ****   4 GROUP 4 **** **** 0

# MOE 2024.06 (io_trps.svl 2023.06)
