@<TRIPOS>MOLECULE
NONAME
28 28 1 0 0 
SMALL
USER_CHARGES


@<TRIPOS>ATOM
  1 I       -0.3540    -0.5850     0.7760 I     1 <1>  -0.0810 
  2 C        1.5900    -1.2810     0.2800 C.ar  1 <1>   0.0810 
  3 C        1.8800    -1.5650    -1.0420 C.ar  1 <1>  -0.1500 
  4 C        2.5200    -1.4390     1.2910 C.ar  1 <1>  -0.1500 
  5 C        3.1500    -2.0150    -1.3530 C.ar  1 <1>  -0.1500 
  6 C        3.7830    -1.8910     0.9560 C.ar  1 <1>  -0.1500 
  7 C        4.1280    -2.1780    -0.3690 C.ar  1 <1>   0.0860 
  8 C        5.4580    -2.6380    -0.7190 C.2   1 <1>   0.5440 
  9 O        5.5740    -3.6840    -1.3300 O.2   1 <1>  -0.5700 
 10 N        6.5940    -1.9190    -0.3910 N.am  1 <1>  -0.6600 
 11 C        6.5630    -0.4580    -0.1030 C.3   1 <1>   0.1400 
 12 C        7.9460    -2.5000    -0.6240 C.3   1 <1>   0.1400 
 13 C        7.0600    -0.1790     1.3140 C.3   1 <1>  -0.2400 
 14 C        8.3140    -3.4210     0.5360 C.3   1 <1>  -0.2400 
 15 H        1.1340    -1.4400    -1.8070 H     1 <1>   0.1500 
 16 H        2.2620    -1.2180     2.3120 H     1 <1>   0.1500 
 17 H        3.4020    -2.2520    -2.3730 H     1 <1>   0.1500 
 18 H        4.5220    -2.0340     1.7250 H     1 <1>   0.1500 
 19 H        5.5630    -0.0740    -0.2130 H     1 <1>   0.0800 
 20 H        7.1840     0.0570    -0.8160 H     1 <1>   0.0800 
 21 H        8.6770    -1.7150    -0.7160 H     1 <1>   0.0800 
 22 H        7.9460    -3.0600    -1.5450 H     1 <1>   0.0800 
 23 H        6.4860    -0.7350     2.0320 H     1 <1>   0.0800 
 24 H        6.9570     0.8680     1.5310 H     1 <1>   0.0800 
 25 H        8.0980    -0.4400     1.4080 H     1 <1>   0.0800 
 26 H        8.3180    -2.8810     1.4650 H     1 <1>   0.0800 
 27 H        9.2930    -3.8340     0.3730 H     1 <1>   0.0800 
 28 H        7.6100    -4.2320     0.5980 H     1 <1>   0.0800 
@<TRIPOS>BOND
  1   1   2  1   
  2   2   3  ar  
  3   2   4  ar  
  4   3   5  ar  
  5   3  15  1   
  6   4   6  ar  
  7   4  16  1   
  8   5   7  ar  
  9   5  17  1   
 10   6   7  ar  
 11   6  18  1   
 12   7   8  1   
 13   8   9  2   
 14   8  10  am  
 15  10  11  1   
 16  10  12  1   
 17  11  13  1   
 18  11  19  1   
 19  11  20  1   
 20  12  14  1   
 21  12  21  1   
 22  12  22  1   
 23  13  23  1   
 24  13  24  1   
 25  13  25  1   
 26  14  26  1   
 27  14  27  1   
 28  14  28  1   
@<TRIPOS>SUBSTRUCTURE
  1 ****   7 GROUP 4 **** **** 0

# MOE 2024.06 (io_trps.svl 2023.06)
