@<TRIPOS>MOLECULE
NONAME
51 54 1 0 0 
SMALL
USER_CHARGES


@<TRIPOS>ATOM
  1 BR       0.8220    -1.9080     3.6620 Br    1 <1>  -0.1110 
  2 C        1.4560    -2.1120     1.8500 C.ar  1 <1>   0.1110 
  3 C        1.9200    -1.0060     1.1510 C.ar  1 <1>   0.0820 
  4 C        1.4210    -3.3780     1.2990 C.ar  1 <1>  -0.1500 
  5 O        1.9160     0.2040     1.7710 O.3   1 <1>  -0.3630 
  6 C        2.3630    -1.2030    -0.1550 C.ar  1 <1>  -0.1500 
  7 C        1.8570    -3.5620    -0.0040 C.ar  1 <1>  -0.1440 
  8 C        2.4170     1.3590     1.1360 C.3   1 <1>   0.0400 
  9 C        2.3290    -2.4690    -0.7210 C.ar  1 <1>  -0.1500 
 10 C        1.8070    -4.9470    -0.6320 C.3   1 <1>   0.2540 
 11 N        0.4240    -5.4620    -0.6150 N.3   1 <1>  -0.8100 
 12 C       -0.5030    -4.6310    -1.4260 C.3   1 <1>   0.1100 
 13 C        0.3550    -6.8820    -1.0310 C.3   1 <1>   0.1100 
 14 C       -1.9610    -5.1510    -1.3700 C.3   1 <1>   0.3430 
 15 C       -1.0900    -7.4390    -0.9780 C.3   1 <1>   0.3430 
 16 N       -2.0620    -6.3850    -0.5300 N.4   1 <1>  -0.9590 
 17 C       -3.4420    -6.8770    -0.3150 C.3   1 <1>   0.5240 
 18 C       -3.3830    -7.9540     0.7420 C.2   1 <1>  -0.1810 
 19 C       -3.3250    -9.3360     0.4520 C.ar  1 <1>   0.0000 
 20 C       -3.3500    -7.8110     2.0900 C.2   1 <1>  -0.3020 
 21 C       -3.2350    -9.9850     1.6790 C.ar  1 <1>  -0.1520 
 22 C       -3.3360   -10.0910    -0.7270 C.ar  1 <1>  -0.1500 
 23 N       -3.2650    -9.0430     2.6750 N.pl3 1 <1>   0.0330 
 24 C       -3.1340   -11.3760     1.7520 C.ar  1 <1>  -0.1500 
 25 C       -3.2380   -11.4610    -0.6550 C.ar  1 <1>  -0.1500 
 26 C       -3.1340   -12.1030     0.5850 C.ar  1 <1>  -0.1500 
 27 H        1.0530    -4.2050     1.8790 H     1 <1>   0.1500 
 28 H        2.7360    -0.3860    -0.7430 H     1 <1>   0.1500 
 29 H        2.3250     2.1820     1.8210 H     1 <1>   0.0800 
 30 H        1.8340     1.5530     0.2530 H     1 <1>   0.0800 
 31 H        3.4520     1.2020     0.8900 H     1 <1>   0.0800 
 32 H        2.6780    -2.5970    -1.7320 H     1 <1>   0.1500 
 33 H        2.4420    -5.6030    -0.0600 H     1 <1>   0.0800 
 34 H        2.1780    -4.9160    -1.6430 H     1 <1>   0.0800 
 35 H       -0.1730    -4.6080    -2.4510 H     1 <1>   0.0800 
 36 H       -0.4950    -3.6170    -1.0630 H     1 <1>   0.0800 
 37 H        0.9750    -7.4760    -0.3800 H     1 <1>   0.0800 
 38 H        0.7390    -6.9910    -2.0320 H     1 <1>   0.0800 
 39 H       -2.3020    -5.3550    -2.3710 H     1 <1>   0.0800 
 40 H       -2.5870    -4.3750    -0.9600 H     1 <1>   0.0800 
 41 H       -1.1100    -8.2720    -0.2940 H     1 <1>   0.0800 
 42 H       -1.3660    -7.8090    -1.9510 H     1 <1>   0.0800 
 43 H       -1.6890    -6.1060     0.3900 H     1 <1>   0.4500 
 44 H       -3.8550    -7.2720    -1.2280 H     1 <1>   0.0800 
 45 H       -4.0700    -6.0730     0.0330 H     1 <1>   0.0800 
 46 H       -3.3800    -6.9130     2.6840 H     1 <1>   0.1500 
 47 H       -3.4280    -9.6050    -1.6810 H     1 <1>   0.1500 
 48 H       -3.2350    -9.2490     3.6800 H     1 <1>   0.2700 
 49 H       -3.0610   -11.8650     2.7080 H     1 <1>   0.1500 
 50 H       -3.2450   -12.0600    -1.5500 H     1 <1>   0.1500 
 51 H       -3.0580   -13.1770     0.6140 H     1 <1>   0.1500 
@<TRIPOS>BOND
  1   1   2  1   
  2   2   3  ar  
  3   2   4  ar  
  4   3   5  1   
  5   3   6  ar  
  6   4   7  ar  
  7   4  27  1   
  8   5   8  1   
  9   6   9  ar  
 10   6  28  1   
 11   7   9  ar  
 12   7  10  1   
 13   8  29  1   
 14   8  30  1   
 15   8  31  1   
 16   9  32  1   
 17  10  11  1   
 18  10  33  1   
 19  10  34  1   
 20  11  12  1   
 21  11  13  1   
 22  12  14  1   
 23  12  35  1   
 24  12  36  1   
 25  13  15  1   
 26  13  37  1   
 27  13  38  1   
 28  14  16  1   
 29  14  39  1   
 30  14  40  1   
 31  15  16  1   
 32  15  41  1   
 33  15  42  1   
 34  16  17  1   
 35  16  43  1   
 36  17  18  1   
 37  17  44  1   
 38  17  45  1   
 39  18  19  1   
 40  18  20  2   
 41  19  21  ar  
 42  19  22  ar  
 43  20  23  1   
 44  20  46  1   
 45  21  23  1   
 46  21  24  ar  
 47  22  25  ar  
 48  22  47  1   
 49  23  48  1   
 50  24  26  ar  
 51  24  49  1   
 52  25  26  ar  
 53  25  50  1   
 54  26  51  1   
@<TRIPOS>SUBSTRUCTURE
  1 ****  11 GROUP 4 **** **** 0

# MOE 2024.06 (io_trps.svl 2023.06)
