@<TRIPOS>MOLECULE
NONAME
46 47 1 0 0 
SMALL
USER_CHARGES


@<TRIPOS>ATOM
  1 O        5.4470    -5.4900    -0.1720 O.3   1 <1>  -0.3630 
  2 C        6.2280    -4.3900    -0.3560 C.ar  1 <1>   0.0830 
  3 C        4.0430    -5.4340    -0.2800 C.3   1 <1>   0.1200 
  4 C        7.5990    -4.5270    -0.1400 C.ar  1 <1>  -0.1440 
  5 C        5.7030    -3.1590    -0.7440 C.ar  1 <1>  -0.1500 
  6 C        3.4950    -6.8310     0.0230 C.3   1 <1>   0.1100 
  7 C        8.4200    -3.4190    -0.3150 C.ar  1 <1>  -0.1500 
  8 C        8.1440    -5.8970     0.2830 C.3   1 <1>  -0.0160 
  9 C        6.5340    -2.0680    -0.9140 C.ar  1 <1>  -0.1500 
 10 N        2.0180    -6.8760    -0.0560 N.3   1 <1>  -0.8100 
 11 C        7.8930    -2.1990    -0.6990 C.ar  1 <1>  -0.1500 
 12 C        9.6600    -5.9800     0.4960 C.3   1 <1>  -0.2400 
 13 C        1.5490    -8.2770    -0.1900 C.3   1 <1>   0.1100 
 14 C        1.3730    -6.2350     1.1200 C.3   1 <1>   0.1100 
 15 C        0.0060    -8.3860    -0.2740 C.3   1 <1>   0.3430 
 16 C       -0.1730    -6.3440     1.0880 C.3   1 <1>   0.3430 
 17 N       -0.6450    -7.0400    -0.1570 N.4   1 <1>  -0.9590 
 18 C       -2.1180    -7.0980    -0.3200 C.3   1 <1>   0.3430 
 19 C       -2.6640    -5.6990    -0.5770 C.3   1 <1>  -0.2400 
 20 H        3.7920    -5.1440    -1.2850 H     1 <1>   0.0800 
 21 H        3.6870    -4.7120     0.4300 H     1 <1>   0.0800 
 22 H        4.6540    -3.0260    -0.9220 H     1 <1>   0.1500 
 23 H        3.8250    -7.1440     0.9990 H     1 <1>   0.0800 
 24 H        3.9110    -7.5030    -0.7090 H     1 <1>   0.0800 
 25 H        9.4810    -3.4820    -0.1580 H     1 <1>   0.1500 
 26 H        7.8670    -6.6150    -0.4690 H     1 <1>   0.0800 
 27 H        7.6560    -6.1850     1.1980 H     1 <1>   0.0800 
 28 H        6.1280    -1.1180    -1.2140 H     1 <1>   0.1500 
 29 H        8.5420    -1.3510    -0.8300 H     1 <1>   0.1500 
 30 H       10.1800    -5.7370    -0.4140 H     1 <1>   0.0800 
 31 H        9.9320    -6.9790     0.7860 H     1 <1>   0.0800 
 32 H        9.9670    -5.3050     1.2750 H     1 <1>   0.0800 
 33 H        1.8980    -8.8600     0.6460 H     1 <1>   0.0800 
 34 H        1.9730    -8.7100    -1.0810 H     1 <1>   0.0800 
 35 H        1.6370    -5.1920     1.1520 H     1 <1>   0.0800 
 36 H        1.7350    -6.6860     2.0290 H     1 <1>   0.0800 
 37 H       -0.3440    -9.0360     0.5100 H     1 <1>   0.0800 
 38 H       -0.2580    -8.8380    -1.2160 H     1 <1>   0.0800 
 39 H       -0.5890    -5.3520     1.1380 H     1 <1>   0.0800 
 40 H       -0.5070    -6.8830     1.9590 H     1 <1>   0.0800 
 41 H       -0.2250    -6.4940    -0.9250 H     1 <1>   0.4500 
 42 H       -2.5750    -7.5200     0.5610 H     1 <1>   0.0800 
 43 H       -2.3630    -7.7260    -1.1620 H     1 <1>   0.0800 
 44 H       -2.5340    -5.0610     0.2790 H     1 <1>   0.0800 
 45 H       -3.7190    -5.7650    -0.7750 H     1 <1>   0.0800 
 46 H       -2.1930    -5.2560    -1.4360 H     1 <1>   0.0800 
@<TRIPOS>BOND
  1   1   2  1   
  2   1   3  1   
  3   2   4  ar  
  4   2   5  ar  
  5   3   6  1   
  6   3  20  1   
  7   3  21  1   
  8   4   7  ar  
  9   4   8  1   
 10   5   9  ar  
 11   5  22  1   
 12   6  10  1   
 13   6  23  1   
 14   6  24  1   
 15   7  11  ar  
 16   7  25  1   
 17   8  12  1   
 18   8  26  1   
 19   8  27  1   
 20   9  11  ar  
 21   9  28  1   
 22  10  13  1   
 23  10  14  1   
 24  11  29  1   
 25  12  30  1   
 26  12  31  1   
 27  12  32  1   
 28  13  15  1   
 29  13  33  1   
 30  13  34  1   
 31  14  16  1   
 32  14  35  1   
 33  14  36  1   
 34  15  17  1   
 35  15  37  1   
 36  15  38  1   
 37  16  17  1   
 38  16  39  1   
 39  16  40  1   
 40  17  18  1   
 41  17  41  1   
 42  18  19  1   
 43  18  42  1   
 44  18  43  1   
 45  19  44  1   
 46  19  45  1   
 47  19  46  1   
@<TRIPOS>SUBSTRUCTURE
  1 ****   3 GROUP 4 **** **** 0

# MOE 2024.06 (io_trps.svl 2023.06)
