@<TRIPOS>MOLECULE
NONAME
40 41 1 0 0 
SMALL
USER_CHARGES


@<TRIPOS>ATOM
  1 O       -1.4680     1.0210    -0.3370 O.3   1 <1>  -0.3630 
  2 C       -0.8150     2.0610     0.2520 C.ar  1 <1>   0.0830 
  3 C       -0.7810     0.1070    -1.1710 C.3   1 <1>   0.0400 
  4 C       -1.4860     2.7470     1.2620 C.ar  1 <1>  -0.1440 
  5 C        0.4650     2.4590    -0.1230 C.ar  1 <1>  -0.1500 
  6 C       -0.8740     3.8180     1.8940 C.ar  1 <1>  -0.1500 
  7 C       -2.8840     2.3280     1.6710 C.3   1 <1>   0.4870 
  8 C        1.0720     3.5370     0.5120 C.ar  1 <1>   0.0820 
  9 C        0.3980     4.2090     1.5170 C.ar  1 <1>  -0.1500 
 10 N       -3.7760     2.4610     0.4910 N.4   1 <1>  -0.9590 
 11 O        2.3120     3.9940     0.2090 O.3   1 <1>  -0.3620 
 12 C       -3.8900     3.8780     0.0340 C.3   1 <1>   0.3430 
 13 C       -5.0890     1.7930     0.7050 C.3   1 <1>   0.3430 
 14 C        3.1300     3.3540    -0.7460 C.3   1 <1>   0.0400 
 15 C       -4.6880     3.9370    -1.2650 C.3   1 <1>  -0.1600 
 16 C       -5.9010     1.8280    -0.5870 C.3   1 <1>  -0.1600 
 17 C       -6.0460     3.2660    -1.0790 C.3   1 <1>   0.2000 
 18 O       -6.6990     3.2520    -2.2860 O.3   1 <1>  -0.6800 
 19 H       -0.4620     0.6140    -2.0650 H     1 <1>   0.0800 
 20 H       -1.4550    -0.6910    -1.4280 H     1 <1>   0.0800 
 21 H        0.0640    -0.2910    -0.6350 H     1 <1>   0.0800 
 22 H        0.9880     1.9430    -0.9020 H     1 <1>   0.1500 
 23 H       -1.3680     4.3600     2.6830 H     1 <1>   0.1500 
 24 H       -3.2370     2.9420     2.4830 H     1 <1>   0.0800 
 25 H       -2.8560     1.3010     1.9990 H     1 <1>   0.0800 
 26 H        0.8820     5.0390     2.0010 H     1 <1>   0.1500 
 27 H       -3.2600     1.9450    -0.2430 H     1 <1>   0.4500 
 28 H       -2.9090     4.2950    -0.1310 H     1 <1>   0.0800 
 29 H       -4.3860     4.4670     0.7890 H     1 <1>   0.0800 
 30 H       -5.6340     2.3010     1.4850 H     1 <1>   0.0800 
 31 H       -4.9400     0.7680     1.0070 H     1 <1>   0.0800 
 32 H        4.0670     3.8800    -0.7860 H     1 <1>   0.0800 
 33 H        2.6470     3.3960    -1.7060 H     1 <1>   0.0800 
 34 H        3.2960     2.3370    -0.4390 H     1 <1>   0.0800 
 35 H       -4.1280     3.4540    -2.0460 H     1 <1>   0.0800 
 36 H       -4.8340     4.9670    -1.5390 H     1 <1>   0.0800 
 37 H       -6.8770     1.4170    -0.3980 H     1 <1>   0.0800 
 38 H       -5.4140     1.2200    -1.3280 H     1 <1>   0.0800 
 39 H       -6.6540     3.8360    -0.3940 H     1 <1>   0.0800 
 40 H       -6.1970     2.7650    -2.9680 H     1 <1>   0.4000 
@<TRIPOS>BOND
  1   1   2  1   
  2   1   3  1   
  3   2   4  ar  
  4   2   5  ar  
  5   3  19  1   
  6   3  20  1   
  7   3  21  1   
  8   4   6  ar  
  9   4   7  1   
 10   5   8  ar  
 11   5  22  1   
 12   6   9  ar  
 13   6  23  1   
 14   7  10  1   
 15   7  24  1   
 16   7  25  1   
 17   8   9  ar  
 18   8  11  1   
 19   9  26  1   
 20  10  12  1   
 21  10  13  1   
 22  10  27  1   
 23  11  14  1   
 24  12  15  1   
 25  12  28  1   
 26  12  29  1   
 27  13  16  1   
 28  13  30  1   
 29  13  31  1   
 30  14  32  1   
 31  14  33  1   
 32  14  34  1   
 33  15  17  1   
 34  15  35  1   
 35  15  36  1   
 36  16  17  1   
 37  16  37  1   
 38  16  38  1   
 39  17  18  1   
 40  17  39  1   
 41  18  40  1   
@<TRIPOS>SUBSTRUCTURE
  1 ****   4 GROUP 4 **** **** 0

# MOE 2024.06 (io_trps.svl 2023.06)
