@<TRIPOS>MOLECULE
NONAME
50 52 1 0 0 
SMALL
USER_CHARGES


@<TRIPOS>ATOM
  1 N       -0.6200     0.3020     1.3180 N.3   1 <1>  -0.8100 
  2 C       -1.5620    -0.3410     2.2600 C.3   1 <1>   0.1100 
  3 C       -0.3070     1.6890     1.7490 C.3   1 <1>   0.1100 
  4 C        0.5980    -0.5080     1.1130 C.3   1 <1>   0.2540 
  5 C       -2.8680     0.4760     2.4290 C.3   1 <1>   0.3430 
  6 C       -1.5800     2.5380     1.9820 C.3   1 <1>   0.3430 
  7 C        1.4850     0.1220     0.0510 C.ar  1 <1>  -0.1440 
  8 N       -2.8160     1.7590     1.6510 N.4   1 <1>  -0.9590 
  9 C        2.7510     0.5880     0.3720 C.ar  1 <1>  -0.1500 
 10 C        1.0310     0.2430    -1.2530 C.ar  1 <1>  -0.1500 
 11 C       -4.0520     2.5660     1.6830 C.3   1 <1>   0.4810 
 12 C        3.5480     1.1720    -0.5980 C.ar  1 <1>  -0.1500 
 13 C        1.8280     0.8260    -2.2220 C.ar  1 <1>  -0.1500 
 14 C       -5.1300     1.7820     0.9740 C.2   1 <1>  -0.2880 
 15 C        3.0900     1.2970    -1.8990 C.ar  1 <1>  -0.1440 
 16 C       -5.5610     2.0310    -0.2750 C.2   1 <1>  -0.1780 
 17 C        3.9690     1.9360    -2.9590 C.3   1 <1>  -0.0970 
 18 C       -6.5840     1.3270    -1.0160 C.ar  1 <1>   0.0280 
 19 C       -6.6860     1.4990    -2.3950 C.ar  1 <1>  -0.1500 
 20 C       -7.4950     0.4670    -0.4050 C.ar  1 <1>  -0.1500 
 21 C       -7.6490     0.8370    -3.1350 C.ar  1 <1>  -0.1500 
 22 C       -8.4610    -0.1980    -1.1390 C.ar  1 <1>  -0.1500 
 23 C       -8.5390    -0.0150    -2.5070 C.ar  1 <1>  -0.1500 
 24 H       -1.8140    -1.3240     1.8990 H     1 <1>   0.0800 
 25 H       -1.0920    -0.4610     3.2230 H     1 <1>   0.0800 
 26 H        0.2790     1.6700     2.6530 H     1 <1>   0.0800 
 27 H        0.2860     2.1770     0.9940 H     1 <1>   0.0800 
 28 H        1.1390    -0.6030     2.0400 H     1 <1>   0.0800 
 29 H        0.3210    -1.4960     0.7850 H     1 <1>   0.0800 
 30 H       -3.0260     0.6810     3.4740 H     1 <1>   0.0800 
 31 H       -3.6930    -0.1260     2.0840 H     1 <1>   0.0800 
 32 H       -1.5220     3.4200     1.3650 H     1 <1>   0.0800 
 33 H       -1.6080     2.8560     3.0100 H     1 <1>   0.0800 
 34 H       -2.6630     1.4450     0.6790 H     1 <1>   0.4500 
 35 H        3.1280     0.5000     1.3750 H     1 <1>   0.1500 
 36 H        0.0520    -0.1170    -1.5140 H     1 <1>   0.1500 
 37 H       -4.3450     2.7870     2.6970 H     1 <1>   0.0800 
 38 H       -3.8900     3.4950     1.1600 H     1 <1>   0.0800 
 39 H        4.5290     1.5280    -0.3370 H     1 <1>   0.1500 
 40 H        1.4620     0.9100    -3.2310 H     1 <1>   0.1500 
 41 H       -5.5330     0.9890     1.5760 H     1 <1>   0.1500 
 42 H       -5.1210     2.8370    -0.8380 H     1 <1>   0.1500 
 43 H        3.3720     2.3150    -3.7690 H     1 <1>   0.0800 
 44 H        4.6570     1.2070    -3.3470 H     1 <1>   0.0800 
 45 H        4.5270     2.7520    -2.5380 H     1 <1>   0.0800 
 46 H       -6.0030     2.1560    -2.9030 H     1 <1>   0.1500 
 47 H       -7.4640     0.3150     0.6570 H     1 <1>   0.1500 
 48 H       -7.7080     0.9840    -4.2000 H     1 <1>   0.1500 
 49 H       -9.1550    -0.8580    -0.6470 H     1 <1>   0.1500 
 50 H       -9.2900    -0.5310    -3.0810 H     1 <1>   0.1500 
@<TRIPOS>BOND
  1   1   2  1   
  2   1   3  1   
  3   1   4  1   
  4   2   5  1   
  5   2  24  1   
  6   2  25  1   
  7   3   6  1   
  8   3  26  1   
  9   3  27  1   
 10   4   7  1   
 11   4  28  1   
 12   4  29  1   
 13   5   8  1   
 14   5  30  1   
 15   5  31  1   
 16   6   8  1   
 17   6  32  1   
 18   6  33  1   
 19   7   9  ar  
 20   7  10  ar  
 21   8  11  1   
 22   8  34  1   
 23   9  12  ar  
 24   9  35  1   
 25  10  13  ar  
 26  10  36  1   
 27  11  14  1   
 28  11  37  1   
 29  11  38  1   
 30  12  15  ar  
 31  12  39  1   
 32  13  15  ar  
 33  13  40  1   
 34  14  16  2   
 35  14  41  1   
 36  15  17  1   
 37  16  18  1   
 38  16  42  1   
 39  17  43  1   
 40  17  44  1   
 41  17  45  1   
 42  18  19  ar  
 43  18  20  ar  
 44  19  21  ar  
 45  19  46  1   
 46  20  22  ar  
 47  20  47  1   
 48  21  23  ar  
 49  21  48  1   
 50  22  23  ar  
 51  22  49  1   
 52  23  50  1   
@<TRIPOS>SUBSTRUCTURE
  1 ****   8 GROUP 4 **** **** 0

# MOE 2024.06 (io_trps.svl 2023.06)
