@<TRIPOS>MOLECULE
NONAME
32 32 1 0 0 
SMALL
USER_CHARGES


@<TRIPOS>ATOM
  1 F        0.4210     0.0820     0.7040 F     1 <1>  -0.3400 
  2 C        0.6120     0.6580    -0.4760 C.3   1 <1>   1.0200 
  3 F       -0.5720     0.6990    -1.0700 F     1 <1>  -0.3400 
  4 F        1.3300    -0.2090    -1.1770 F     1 <1>  -0.3400 
  5 C        1.3220     2.0170    -0.3770 C.3   1 <1>   0.2200 
  6 N        2.7370     1.9380     0.2090 N.am  1 <1>  -0.7300 
  7 C        0.3980     3.0050     0.3530 C.3   1 <1>   1.0200 
  8 C        3.8330     2.4130    -0.4140 C.2   1 <1>   0.7800 
  9 F        0.9600     4.2010     0.4660 F     1 <1>  -0.3400 
 10 F       -0.7610     3.2150    -0.2560 F     1 <1>  -0.3400 
 11 F        0.1080     2.6340     1.5930 F     1 <1>  -0.3400 
 12 O        3.7780     2.9120    -1.5170 O.2   1 <1>  -0.5700 
 13 O        4.9720     2.3060     0.2550 O.3   1 <1>  -0.4300 
 14 C        6.1870     2.7980    -0.2680 C.3   1 <1>   0.2000 
 15 C        7.3270     2.0240     0.4020 C.3   1 <1>  -0.1600 
 16 C        6.2830     4.3020     0.0230 C.3   1 <1>  -0.1600 
 17 C        8.6960     2.5800    -0.0170 C.3   1 <1>  -0.1600 
 18 C        7.6520     4.8600    -0.3940 C.3   1 <1>  -0.1600 
 19 C        8.7950     4.0830     0.2740 C.3   1 <1>  -0.1600 
 20 H        1.4010     2.3800    -1.3850 H     1 <1>   0.0800 
 21 H        2.8640     1.5520     1.1470 H     1 <1>   0.3700 
 22 H        6.2100     2.6180    -1.3310 H     1 <1>   0.0800 
 23 H        7.2640     0.9860     0.1270 H     1 <1>   0.0800 
 24 H        7.2290     2.1020     1.4710 H     1 <1>   0.0800 
 25 H        6.1410     4.4710     1.0760 H     1 <1>   0.0800 
 26 H        5.5130     4.8250    -0.5160 H     1 <1>   0.0800 
 27 H        8.8440     2.4100    -1.0700 H     1 <1>   0.0800 
 28 H        9.4740     2.0580     0.5130 H     1 <1>   0.0800 
 29 H        7.7160     5.9000    -0.1230 H     1 <1>   0.0800 
 30 H        7.7530     4.7920    -1.4640 H     1 <1>   0.0800 
 31 H        9.7400     4.4570    -0.0820 H     1 <1>   0.0800 
 32 H        8.7600     4.2430     1.3390 H     1 <1>   0.0800 
@<TRIPOS>BOND
  1   1   2  1   
  2   2   3  1   
  3   2   4  1   
  4   2   5  1   
  5   5   6  1   
  6   5   7  1   
  7   5  20  1   
  8   6   8  am  
  9   6  21  1   
 10   7   9  1   
 11   7  10  1   
 12   7  11  1   
 13   8  12  2   
 14   8  13  1   
 15  13  14  1   
 16  14  15  1   
 17  14  16  1   
 18  14  22  1   
 19  15  17  1   
 20  15  23  1   
 21  15  24  1   
 22  16  18  1   
 23  16  25  1   
 24  16  26  1   
 25  17  19  1   
 26  17  27  1   
 27  17  28  1   
 28  18  19  1   
 29  18  29  1   
 30  18  30  1   
 31  19  31  1   
 32  19  32  1   
@<TRIPOS>SUBSTRUCTURE
  1 ****   8 GROUP 4 **** **** 0

# MOE 2024.06 (io_trps.svl 2023.06)
