@<TRIPOS>MOLECULE
NONAME
41 42 1 0 0 
SMALL
USER_CHARGES


@<TRIPOS>ATOM
  1 S       -0.7570    -1.6410     1.8320 S.3   1 <1>  -0.0800 
  2 C       -0.2490    -0.2000     1.0050 C.2   1 <1>   0.4420 
  3 C        0.6900    -1.5220     2.7720 C.2   1 <1>   0.1980 
  4 N        0.8720     0.2410     1.4470 N.2   1 <1>  -0.3380 
  5 N       -0.9890     0.3740    -0.0060 N.am  1 <1>  -0.4940 
  6 N        1.3980    -0.5120     2.4580 N.2   1 <1>  -0.3380 
  7 C        0.9590    -2.5830     3.8240 C.3   1 <1>   0.2500 
  8 C       -2.1840     0.0330    -0.5710 C.2   1 <1>   0.5690 
  9 S        1.1520    -4.2160     3.0330 S.3   1 <1>  -0.4600 
 10 O       -2.8340    -0.9210    -0.2290 O.2   1 <1>  -0.5700 
 11 C       -2.7200     0.9210    -1.6980 C.3   1 <1>  -0.0190 
 12 C        2.8850    -4.2920     2.4700 C.3   1 <1>   0.0700 
 13 C       -1.7790     0.9430    -2.9150 C.3   1 <1>  -0.2400 
 14 C       -3.0010     2.3550    -1.2190 C.3   1 <1>  -0.2400 
 15 C        3.1560    -3.1800     1.4590 C.3   1 <1>   0.1200 
 16 O        4.3820    -3.4420     0.8160 O.3   1 <1>  -0.3630 
 17 C        4.8670    -2.5830    -0.1160 C.ar  1 <1>   0.0820 
 18 C        4.2860    -1.3510    -0.4130 C.ar  1 <1>  -0.1500 
 19 C        6.0080    -2.9790    -0.7950 C.ar  1 <1>  -0.1500 
 20 C        4.8490    -0.5370    -1.3810 C.ar  1 <1>  -0.1500 
 21 C        6.5690    -2.1630    -1.7620 C.ar  1 <1>  -0.1500 
 22 C        5.9880    -0.9410    -2.0550 C.ar  1 <1>  -0.1500 
 23 H       -0.5560     1.2080    -0.3880 H     1 <1>   0.3700 
 24 H        0.1300    -2.6580     4.5040 H     1 <1>   0.0800 
 25 H        1.8620    -2.3740     4.3680 H     1 <1>   0.0800 
 26 H       -3.6560     0.4930    -2.0160 H     1 <1>   0.0800 
 27 H        3.0120    -5.2580     2.0140 H     1 <1>   0.0800 
 28 H        3.5160    -4.2000     3.3350 H     1 <1>   0.0800 
 29 H       -0.8360     1.3990    -2.6730 H     1 <1>   0.0800 
 30 H       -2.2290     1.4960    -3.7220 H     1 <1>   0.0800 
 31 H       -1.5980    -0.0620    -3.2570 H     1 <1>   0.0800 
 32 H       -2.0950     2.8530    -0.9220 H     1 <1>   0.0800 
 33 H       -3.6730     2.3350    -0.3780 H     1 <1>   0.0800 
 34 H       -3.4640     2.9260    -2.0050 H     1 <1>   0.0800 
 35 H        3.2460    -2.2360     1.9620 H     1 <1>   0.0800 
 36 H        2.3840    -3.1460     0.7110 H     1 <1>   0.0800 
 37 H        3.4040    -1.0070     0.0940 H     1 <1>   0.1500 
 38 H        6.4530    -3.9280    -0.5610 H     1 <1>   0.1500 
 39 H        4.4000     0.4150    -1.6070 H     1 <1>   0.1500 
 40 H        7.4550    -2.4780    -2.2850 H     1 <1>   0.1500 
 41 H        6.4240    -0.3050    -2.8070 H     1 <1>   0.1500 
@<TRIPOS>BOND
  1   1   2  1   
  2   1   3  1   
  3   2   4  2   
  4   2   5  1   
  5   3   6  2   
  6   3   7  1   
  7   4   6  1   
  8   5   8  am  
  9   5  23  1   
 10   7   9  1   
 11   7  24  1   
 12   7  25  1   
 13   8  10  2   
 14   8  11  1   
 15   9  12  1   
 16  11  13  1   
 17  11  14  1   
 18  11  26  1   
 19  12  15  1   
 20  12  27  1   
 21  12  28  1   
 22  13  29  1   
 23  13  30  1   
 24  13  31  1   
 25  14  32  1   
 26  14  33  1   
 27  14  34  1   
 28  15  16  1   
 29  15  35  1   
 30  15  36  1   
 31  16  17  1   
 32  17  18  ar  
 33  17  19  ar  
 34  18  20  ar  
 35  18  37  1   
 36  19  21  ar  
 37  19  38  1   
 38  20  22  ar  
 39  20  39  1   
 40  21  22  ar  
 41  21  40  1   
 42  22  41  1   
@<TRIPOS>SUBSTRUCTURE
  1 ****   4 GROUP 4 **** **** 0

# MOE 2024.06 (io_trps.svl 2023.06)
